data_PCOD9308650
_publ_section_title
;
Structure prediction by ZEFSAII (Michael W. Deem and Ramdas Pophale) SiO2 
 PCOD9308650
Probable space group: C 2/C
;
_chemical_formula_sum "Si O2"
_cell_formula_units_Z 30
_cell_length_a 9.000000
_cell_length_b 15.000000
_cell_length_c 24.000000
_cell_angle_alpha 90.000000
_cell_angle_beta 110.000000
_cell_angle_gamma 90.000000
_cell_volume 3044.604091
_symmetry_space_group_name_H-M "C 2/C"
_symmetry_group_IT_number 15
_symmetry_cell_setting 'monoclinic'
loop_
_space_group_symop_operation_xyz
x,y,z
-x,y,1/2-z
-x,-y,-z
x,-y,1/2+z
1/2+x,1/2+y,z
1/2-x,1/2+y,1/2-z
1/2-x,1/2-y,-z
1/2+x,1/2-y,1/2+z
loop_
_atom_site_type_symbol
_atom_site_label
_atom_site_fract_x
_atom_site_fract_y
_atom_site_fract_z
Si Si1 0.544456 0.624909 0.143042
Si Si2 0.046921 0.965434 0.065300
Si Si3 0.000000 0.042986 0.250000
Si Si4 0.892924 0.547258 0.652128
Si Si5 0.620071 0.813608 0.138592
Si Si6 0.709441 0.613523 0.735285
Si Si7 0.939770 0.810432 0.121638
Si Si8 0.074433 0.359355 0.816742
O O1 0.486615 0.540480 0.100697
O O2 0.477427 0.606713 0.194937
O O3 0.517831 0.724299 0.118448
O O4 0.737366 0.626825 0.168393
O O5 0.234109 0.969392 0.097597
O O6 0.988629 0.866563 0.074015
O O7 0.000000 0.000000 0.000000
O O8 0.147437 0.977389 0.256033
O O9 0.832842 0.593067 0.701663
O O10 0.984790 0.457894 0.679160
O O11 0.002549 0.606283 0.628611
O O12 0.715448 0.819860 0.210106
O O13 0.755797 0.825162 0.110745
O O14 0.552853 0.648691 0.684121
O O15 0.957671 0.705240 0.135313
O O16 0.000000 0.324853 0.750000
#
# Coordination Sequence:
#
# PCOD9308650 Si02
#       8
#     8   8   4   8   8   8   8   8
#     4  10  22  33  53  86 111 151 185 222 283 336
#     4  10  21  45  62  73 105 153 201 240 276 339
#     4  12  18  34  52  78 120 152 190 210 264 356
#     4  10  22  35  51  85 112 146 191 228 284 325
#     4  11  20  34  53  84 124 139 176 239 280 336
#     4  11  18  33  50  77 118 157 179 206 275 346
#     4  10  19  34  55  80 103 149 190 216 274 340
#     4  10  18  32  51  82 122 143 177 220 275 343
#
# _framework density 9.8534980000000001
#
# number of rings (size 3 to 8) (size 9 to 14) (size 15 to 20)
#    0.000    1.600    5.333    2.800    1.867    0.000 
#    0.000    7.333    0.000    0.000    0.000    0.000 
#    0.000    0.000    0.000    0.000    0.000    0.000 
#
# Total GULP energy -167099.630449 kJ/mol
# GULP energy per Si atom -5569.987682 kJ/mol
# Density = 0.983107 g / cm^3
# Si number density = 9.853498 Si / 1000 Ang^3
#
#
#
# Elastic Constant Matrix: (Units=GPa)
#
#
# Indices 1 2 3 4 5 6 
#
# 1 21.8219 23.4878 10.5448 0.0000 2.1602 0.0000
# 2 23.4878 67.6569 -18.9042 0.0000 -1.8123 0.0000
# 3 10.5448 -18.9042 26.6643 0.0000 -4.4622 0.0000
# 4 0.0000 0.0000 0.0000 -2.4582 0.0000 5.1145
# 5 2.1602 -1.8123 -4.4622 0.0000 3.0037 0.0000
# 6 0.0000 0.0000 0.0000 5.1145 0.0000 14.9376
#
#
#
# Elastic Compliance Matrix: (Units=1/GPa)
#
#
# Indices 1 2 3 4 5 6 
#
# 1 -0.039319 0.035987 0.065782 0.000000 0.147713 0.000000
# 2 0.035987 -0.009835 -0.035305 0.000000 -0.084262 0.000000
# 3 0.065782 -0.035305 -0.033303 0.000000 -0.118083 0.000000
# 4 0.000000 0.000000 0.000000 -0.237566 0.000000 0.081340
# 5 0.147713 -0.084262 -0.118083 0.000000 0.000430 0.000000
# 6 0.000000 0.000000 0.000000 0.081340 0.000000 0.039095
#
#
# Mechanical properties :
#
#
# Convention : Reuss Voigt Hill
#
# Bulk Modulus (GPa) = 19.81279 16.26669 18.03974
# Shear Modulus (GPa) = -12.60709 9.83094 -1.38808
#
# Velocity S-wave (km/s) = -2.53203 2.23593 -0.84017
# Velocity P-wave (km/s) = 1.23584 3.86498 2.86926
#
# Compressibility (1/GPa) = 0.05047245
#
# Stress axis : x y z
#
# Youngs Moduli (GPa) = -25.43288 -101.68127 -30.02777
#
# Poissons Ratio (x) = 3.65922 1.97530
# Poissons Ratio (y) = 0.91526 -1.06014
# Poissons Ratio (z) = 1.67304 -3.58988
#
# Static dielectric constant tensor:
#      x y z
#    x 1.714730 0.000000 0.000960 
#    y 0.000000 1.804450 0.000000 
#    z 0.000960 0.000000 1.718330 
# 
# From -- ./inp_files/264765.got.cif
#   From: 2010.05.17/outbox.ucp.g08.bks.cvg/sg15_133_cif.got.tgz:264765.got - 2010.06.11 12:40:34.
