data_PCOD9308910
_publ_section_title
;
Structure prediction by ZEFSAII (Michael W. Deem and Ramdas Pophale) SiO2 
 PCOD9308910
Probable space group: C 2/C
;
_chemical_formula_sum "Si O2"
_cell_formula_units_Z 28
_cell_length_a 21.000000
_cell_length_b 15.000000
_cell_length_c 15.000000
_cell_angle_alpha 90.000000
_cell_angle_beta 140.000000
_cell_angle_gamma 90.000000
_cell_volume 3037.171456
_symmetry_space_group_name_H-M "C 2/C"
_symmetry_group_IT_number 15
_symmetry_cell_setting 'monoclinic'
loop_
_space_group_symop_operation_xyz
x,y,z
-x,y,1/2-z
-x,-y,-z
x,-y,1/2+z
1/2+x,1/2+y,z
1/2-x,1/2+y,1/2-z
1/2-x,1/2-y,-z
1/2+x,1/2-y,1/2+z
loop_
_atom_site_type_symbol
_atom_site_label
_atom_site_fract_x
_atom_site_fract_y
_atom_site_fract_z
Si Si1 0.631093 0.620170 0.167412
Si Si2 0.073956 0.822715 0.142170
Si Si3 0.271254 0.187090 0.745633
Si Si4 0.736651 0.503992 0.127715
Si Si5 0.669513 0.483824 0.354471
Si Si6 0.415779 0.871806 0.765269
Si Si7 0.630178 0.098714 0.480905
O O1 0.691143 0.714263 0.242056
O O2 0.678198 0.547730 0.148448
O O3 0.625095 0.568664 0.255231
O O4 0.525407 0.644110 0.011393
O O5 0.158870 0.810397 0.159318
O O6 0.113313 0.895368 0.257000
O O7 0.062194 0.724714 0.171035
O O8 0.272203 0.098103 0.684206
O O9 0.334458 0.160840 0.901182
O O10 0.830200 0.570089 0.217654
O O11 0.676286 0.509194 0.969056
O O12 0.783856 0.473639 0.442436
O O13 0.379872 0.853984 0.625604
O O14 0.517218 0.928958 0.877492
#
# Coordination Sequence:
#
# PCOD9308910 Si02
#       7
#     8   8   8   8   8   8   8
#     4  12  23  42  62  88 124 160 194 251 296 352
#     4  11  22  37  62  94 119 154 197 248 304 355
#     4  11  23  40  59  88 121 159 200 240 301 358
#     4  11  24  40  63  89 118 166 199 243 302 348
#     4  10  24  40  61  89 126 156 200 248 290 365
#     4  10  20  35  63  92 119 149 199 253 306 345
#     4   9  19  37  58  91 121 145 194 256 295 350
#
# _framework density 9.2191039999999997
#
# number of rings (size 3 to 8) (size 9 to 14) (size 15 to 20)
#    0.000    1.429    5.714    0.429    2.000    3.429 
#    2.571    0.000    0.000    0.000    0.000    0.000 
#    0.000    0.000    0.000    0.000    0.000    0.000 
#
# Total GULP energy -156104.587433 kJ/mol
# GULP energy per Si atom -5575.163837 kJ/mol
# Density = 0.919812 g / cm^3
# Si number density = 9.219104 Si / 1000 Ang^3
#
#
#
# Elastic Constant Matrix: (Units=GPa)
#
#
# Indices 1 2 3 4 5 6 
#
# 1 37.8675 7.8463 31.9861 0.0000 -0.0656 0.0000
# 2 7.8463 98.0782 47.5377 0.0000 -7.1576 0.0000
# 3 31.9861 47.5377 107.6981 0.0000 5.7697 0.0000
# 4 0.0000 0.0000 0.0000 34.2974 0.0000 -1.1986
# 5 -0.0656 -7.1576 5.7697 0.0000 21.2452 0.0000
# 6 0.0000 0.0000 0.0000 -1.1986 0.0000 15.8060
#
#
#
# Elastic Compliance Matrix: (Units=1/GPa)
#
#
# Indices 1 2 3 4 5 6 
#
# 1 0.036334 0.003552 -0.012612 0.000000 0.004734 0.000000
# 2 0.003552 0.014122 -0.007655 0.000000 0.006848 0.000000
# 3 -0.012612 -0.007655 0.016795 0.000000 -0.007179 0.000000
# 4 0.000000 0.000000 0.000000 0.029234 0.000000 0.002217
# 5 0.004734 0.006848 -0.007179 0.000000 0.051341 0.000000
# 6 0.000000 0.000000 0.000000 0.002217 0.000000 0.063435
#
#
# Mechanical properties :
#
#
# Convention : Reuss Voigt Hill
#
# Bulk Modulus (GPa) = 29.56929 46.48709 38.02819
# Shear Modulus (GPa) = 19.53395 24.68797 22.11096
#
# Velocity S-wave (km/s) = 3.25842 3.66315 3.46669
# Velocity P-wave (km/s) = 5.49801 6.56952 6.05751
#
# Compressibility (1/GPa) = 0.03381887
#
# Stress axis : x y z
#
# Youngs Moduli (GPa) = 27.52275 70.81197 59.54284
#
# Poissons Ratio (x) = -0.25152 0.75098
# Poissons Ratio (y) = -0.09776 0.45581
# Poissons Ratio (z) = 0.34713 0.54208
#
# Static dielectric constant tensor:
#      x y z
#    x 1.674320 0.000000 0.019220 
#    y 0.000000 1.632140 0.000000 
#    z 0.019220 0.000000 1.647610 
# 
# From -- ./inp_files/168501.got.cif
#   From: 2010.05.17/outbox.ucp.g08.bks.cvg/sg15_85_cif.got.tgz:168501.got - 2010.06.11 12:40:34.
