data_PCOD9308103
_publ_section_title
;
Structure prediction by ZEFSAII (Michael W. Deem and Ramdas Pophale) SiO2 
 PCOD9308103
Probable space group: C 2/C
;
_chemical_formula_sum "Si O2"
_cell_formula_units_Z 36
_cell_length_a 32.613638
_cell_length_b 6.936162
_cell_length_c 14.912248
_cell_angle_alpha 90.000000
_cell_angle_beta 31.539790
_cell_angle_gamma 90.000000
_cell_volume 1764.568336
_symmetry_space_group_name_H-M "C 2/C"
_symmetry_group_IT_number 15
_symmetry_cell_setting 'monoclinic'
loop_
_space_group_symop_operation_xyz
x,y,z
-x,y,1/2-z
-x,-y,-z
x,-y,1/2+z
1/2+x,1/2+y,z
1/2-x,1/2+y,1/2-z
1/2-x,1/2-y,-z
1/2+x,1/2-y,1/2+z
loop_
_atom_site_type_symbol
_atom_site_label
_atom_site_fract_x
_atom_site_fract_y
_atom_site_fract_z
Si Si1 0.564171 0.044915 0.954921
Si Si2 0.673217 0.629370 0.169232
Si Si3 0.190744 0.224363 0.771190
Si Si4 0.000000 0.725783 0.250000
Si Si5 0.151232 0.024268 0.516053
O O1 0.613996 0.230082 0.830815
O O2 0.624468 0.871237 0.860124
O O3 0.519323 0.095158 0.129196
O O4 0.500000 0.000000 0.000000
O O5 0.694824 0.452435 0.193827
O O6 0.750000 0.750000 0.000000
O O7 0.638845 0.555701 0.139125
O O8 0.272933 0.336530 0.622794
O O9 0.169193 0.140373 0.909156
O O10 0.924726 0.857794 0.371778
#
# Coordination Sequence:
#
# PCOD9308103 Si02
#       5
#     8   8   8   4   8
#     4  12  29  48  75 109 150 190 242 300 364 432
#     4  12  26  49  77 109 141 195 244 295 361 431
#     4  12  26  51  72 110 145 196 243 293 362 436
#     4  12  28  48  70 114 144 194 238 302 366 420
#     4  12  26  45  79 101 151 189 244 301 358 432
#
# _framework density 20.401591
#
# number of rings (size 3 to 8) (size 9 to 14) (size 15 to 20)
#    0.000    0.000    4.444    4.667    9.333    1.778 
#    0.000    0.000    0.000    0.000    0.000    0.000 
#    0.000    0.000    0.000    0.000    0.000    0.000 
#
# Total GULP energy -100877.807433 kJ/mol
# GULP energy per Si atom -5604.322635 kJ/mol
# Density = 2.035516 g / cm^3
# Si number density = 20.401591 Si / 1000 Ang^3
#
#
#
# Elastic Constant Matrix: (Units=GPa)
#
#
# Indices 1 2 3 4 5 6 
#
# 1 151.5339 70.1331 67.4607 0.0000 -1.0781 0.0000
# 2 70.1331 125.9735 61.6850 0.0002 -7.0977 0.0000
# 3 67.4607 61.6850 132.5856 0.0001 0.5024 0.0000
# 4 0.0000 0.0002 0.0001 13.5553 0.0000 30.1748
# 5 -1.0781 -7.0977 0.5024 0.0000 56.1458 0.0000
# 6 0.0000 0.0000 0.0000 30.1748 0.0000 42.1352
#
#
#
# Elastic Compliance Matrix: (Units=1/GPa)
#
#
# Indices 1 2 3 4 5 6 
#
# 1 0.009830 -0.003937 -0.003169 0.000000 -0.000281 0.000000
# 2 -0.003937 0.011959 -0.003566 0.000000 0.001468 0.000000
# 3 -0.003169 -0.003566 0.010816 0.000000 -0.000608 0.000000
# 4 0.000000 0.000000 0.000000 -0.124159 0.000000 0.088915
# 5 -0.000281 0.001468 -0.000608 0.000000 0.017996 0.000000
# 6 0.000000 0.000000 0.000000 0.088915 0.000000 -0.039943
#
#
# Mechanical properties :
#
#
# Convention : Reuss Voigt Hill
#
# Bulk Modulus (GPa) = 88.80188 89.85007 89.32597
# Shear Modulus (GPa) = -56.55945 36.42154 -10.06895
#
# Velocity S-wave (km/s) = -5.27098 4.22978 -2.22398
# Velocity P-wave (km/s) = 2.56459 8.24567 6.10607
#
# Compressibility (1/GPa) = 0.01126102
#
# Stress axis : x y z
#
# Youngs Moduli (GPa) = 101.72987 83.61967 92.45349
#
# Poissons Ratio (x) = 0.32918 0.29298
# Poissons Ratio (y) = 0.40048 0.32972
# Poissons Ratio (z) = 0.32238 0.29822
#
# Static dielectric constant tensor:
#      x y z
#    x 1.693320 0.000000 0.004810 
#    y 0.000000 1.632820 0.000000 
#    z 0.004810 0.000000 1.698610 
# 
# From -- ./inp_files/165121.got.cif
#   From: 2010.05.17/outbox.cif.g08.bks.cpg/sg15_83_cif.got.tgz:165121.got - 2010.06.03 18:47:42.
