data_PCOD9308825
_publ_section_title
;
Structure prediction by ZEFSAII (Michael W. Deem and Ramdas Pophale) SiO2 
 PCOD9308825
Probable space group: C 2/C
;
_chemical_formula_sum "Si O2"
_cell_formula_units_Z 32
_cell_length_a 12.000000
_cell_length_b 15.000000
_cell_length_c 18.000000
_cell_angle_alpha 90.000000
_cell_angle_beta 90.000000
_cell_angle_gamma 90.000000
_cell_volume 3240.000000
_symmetry_space_group_name_H-M "C 2/C"
_symmetry_group_IT_number 15
_symmetry_cell_setting 'monoclinic'
loop_
_space_group_symop_operation_xyz
x,y,z
-x,y,1/2-z
-x,-y,-z
x,-y,1/2+z
1/2+x,1/2+y,z
1/2-x,1/2+y,1/2-z
1/2-x,1/2-y,-z
1/2+x,1/2-y,1/2+z
loop_
_atom_site_type_symbol
_atom_site_label
_atom_site_fract_x
_atom_site_fract_y
_atom_site_fract_z
Si Si1 0.964154 0.717133 0.403297
Si Si2 0.751963 0.935747 0.454392
Si Si3 0.262970 0.620996 0.123227
Si Si4 0.053017 0.903969 0.150357
Si Si5 0.422115 0.778514 0.078185
Si Si6 0.324370 0.808761 0.393565
Si Si7 0.305261 0.863498 0.566506
Si Si8 0.677127 0.550050 0.802594
O O1 0.852375 0.673991 0.372747
O O2 0.988631 0.802545 0.353308
O O3 0.944392 0.741825 0.490533
O O4 0.069940 0.653418 0.405421
O O5 0.755046 0.929470 0.543510
O O6 0.872739 0.916081 0.421754
O O7 0.664431 0.861485 0.424999
O O8 0.722965 0.033657 0.426017
O O9 0.361355 0.694225 0.116121
O O10 0.271532 0.547909 0.187689
O O11 0.131819 0.924209 0.220965
O O12 0.939175 0.958466 0.151731
O O13 0.541323 0.803621 0.113996
O O14 0.301634 0.842870 0.477877
O O15 0.274082 0.708543 0.393295
O O16 0.259435 0.875303 0.337613
#
# Coordination Sequence:
#
# PCOD9308825 Si02
#       8
#     8   8   8   8   8   8   8   8
#     4  10  19  39  64  87 123 156 200 248 301 360
#     4  11  21  38  64  91 122 156 203 254 295 363
#     4  11  21  38  63  94 119 161 200 250 302 353
#     4  11  23  44  59  83 122 164 205 244 301 377
#     4  10  21  35  64  97 120 150 200 253 309 347
#     4  10  21  38  56  91 126 152 194 256 304 349
#     4  10  21  34  62  94 118 153 201 251 304 349
#     4  11  25  41  60  85 124 164 200 248 308 358
#
# _framework density 9.8765429999999999
#
# number of rings (size 3 to 8) (size 9 to 14) (size 15 to 20)
#    0.000    1.500    5.000    0.750    3.500    2.000 
#    2.250    0.625    0.000    0.000    0.000    0.000 
#    0.000    0.000    0.000    0.000    0.000    0.000 
#
# Total GULP energy -178626.196631 kJ/mol
# GULP energy per Si atom -5582.068645 kJ/mol
# Density = 0.985406 g / cm^3
# Si number density = 9.876543 Si / 1000 Ang^3
#
#
#
# Elastic Constant Matrix: (Units=GPa)
#
#
# Indices 1 2 3 4 5 6 
#
# 1 55.6687 14.7018 -9.9367 0.0000 11.1487 0.0000
# 2 14.7018 101.2928 2.3646 0.0000 12.5997 0.0000
# 3 -9.9367 2.3646 -1.8603 0.0000 12.6537 0.0000
# 4 0.0000 0.0000 0.0000 -16.0203 0.0000 10.2263
# 5 11.1487 12.5997 12.6537 0.0000 27.2288 0.0000
# 6 0.0000 0.0000 0.0000 10.2263 0.0000 20.6860
#
#
#
# Elastic Compliance Matrix: (Units=1/GPa)
#
#
# Indices 1 2 3 4 5 6 
#
# 1 0.012842 -0.002165 -0.024104 0.000000 0.006945 0.000000
# 2 -0.002165 0.010670 -0.000583 0.000000 -0.003780 0.000000
# 3 -0.024104 -0.000583 -0.081849 0.000000 0.048176 0.000000
# 4 0.000000 0.000000 0.000000 -0.047448 0.000000 0.023456
# 5 0.006945 -0.003780 0.048176 0.000000 0.013243 0.000000
# 6 0.000000 0.000000 0.000000 0.023456 0.000000 0.036746
#
#
# Mechanical properties :
#
#
# Convention : Reuss Voigt Hill
#
# Bulk Modulus (GPa) = -8.92524 18.81786 4.94631
# Shear Modulus (GPa) = -126.77971 16.24368 -55.26801
#
# Velocity S-wave (km/s) = -8.02007 2.87075 -5.29530
# Velocity P-wave (km/s) = 9.50212 4.53161 5.90571
#
# Compressibility (1/GPa) = -0.11204179
#
# Stress axis : x y z
#
# Youngs Moduli (GPa) = 77.87057 93.71695 -12.21757
#
# Poissons Ratio (x) = 0.20291 -0.29449
# Poissons Ratio (y) = 0.16860 -0.00713
# Poissons Ratio (z) = 1.87698 0.05467
#
# Static dielectric constant tensor:
#      x y z
#    x 1.681790 0.000000 -0.022340 
#    y 0.000000 1.698770 0.000000 
#    z -0.022340 0.000000 1.692250 
# 
# From -- ./inp_files/198368.got.cif
#   From: 2010.05.17/outbox.ucp.g08.bks.cvg/sg15_100_cif.got.tgz:198368.got - 2010.06.11 12:40:34.
