data_PCOD9308342
_publ_section_title
;
Structure prediction by ZEFSAII (Michael W. Deem and Ramdas Pophale) SiO2 
 PCOD9308342
Probable space group: C 2/C
;
_chemical_formula_sum "Si O2"
_cell_formula_units_Z 32
_cell_length_a 14.362587
_cell_length_b 10.387256
_cell_length_c 8.239663
_cell_angle_alpha 90.000000
_cell_angle_beta 102.404060
_cell_angle_gamma 90.000000
_cell_volume 1200.563265
_symmetry_space_group_name_H-M "C 2/C"
_symmetry_group_IT_number 15
_symmetry_cell_setting 'monoclinic'
loop_
_space_group_symop_operation_xyz
x,y,z
-x,y,1/2-z
-x,-y,-z
x,-y,1/2+z
1/2+x,1/2+y,z
1/2-x,1/2+y,1/2-z
1/2-x,1/2-y,-z
1/2+x,1/2-y,1/2+z
loop_
_atom_site_type_symbol
_atom_site_label
_atom_site_fract_x
_atom_site_fract_y
_atom_site_fract_z
Si Si1 0.394258 0.003133 0.266585
Si Si2 0.408918 0.552395 0.832280
Si Si3 0.361231 0.208777 0.537612
Si Si4 0.211982 0.889734 0.512598
O O1 0.500000 0.042970 0.250000
O O2 0.382988 0.087726 0.425799
O O3 0.302445 0.045441 0.129622
O O4 0.390709 0.848122 0.226393
O O5 0.500000 0.550659 0.750000
O O6 0.380199 0.422064 0.913516
O O7 0.320305 0.568493 0.677253
O O8 0.408715 0.667266 0.966074
O O9 0.250000 0.250000 0.500000
O O10 0.250000 0.750000 0.500000
#
# Coordination Sequence:
#
# PCOD9308342 Si02
#       4
#     8   8   8   8
#     4  12  27  53  82 119 163 217 275 331 412 483
#     4  12  28  54  79 121 164 215 274 333 413 488
#     4  12  27  49  82 118 167 212 273 336 405 485
#     4  12  27  50  85 117 163 213 272 345 406 485
#
# _framework density 26.654153000000001
#
# number of rings (size 3 to 8) (size 9 to 14) (size 15 to 20)
#    0.000    0.000    5.000    3.750    0.000    0.000 
#    4.500    1.250    0.000    0.000    0.000    0.000 
#    0.000    0.000    0.000    0.000    0.000    0.000 
#
# Total GULP energy -89357.697356 kJ/mol
# GULP energy per Si atom -5584.856085 kJ/mol
# Density = 2.659349 g / cm^3
# Si number density = 26.654153 Si / 1000 Ang^3
#
#
#
# Elastic Constant Matrix: (Units=GPa)
#
#
# Indices 1 2 3 4 5 6 
#
# 1 199.3644 79.0401 53.5159 0.0000 -48.2858 0.0000
# 2 79.0401 156.3841 82.0906 0.0000 -56.3596 0.0000
# 3 53.5159 82.0906 87.6530 0.0000 -16.0254 0.0000
# 4 0.0000 0.0000 0.0000 61.3581 0.0000 -3.7270
# 5 -48.2858 -56.3596 -16.0254 0.0000 72.0590 0.0000
# 6 0.0000 0.0000 0.0000 -3.7270 0.0000 24.6497
#
#
#
# Elastic Compliance Matrix: (Units=1/GPa)
#
#
# Indices 1 2 3 4 5 6 
#
# 1 0.006915 -0.000744 -0.002903 0.000000 0.003406 0.000000
# 2 -0.000744 0.018339 -0.014791 0.000000 0.010556 0.000000
# 3 -0.002903 -0.014791 0.025604 0.000000 -0.007820 0.000000
# 4 0.000000 0.000000 0.000000 0.016449 0.000000 0.002487
# 5 0.003406 0.010556 -0.007820 0.000000 0.022677 0.000000
# 6 0.000000 0.000000 0.000000 0.002487 0.000000 0.040944
#
#
# Mechanical properties :
#
#
# Convention : Reuss Voigt Hill
#
# Bulk Modulus (GPa) = 71.51742 96.96605 84.24174
# Shear Modulus (GPa) = 28.99163 46.86371 37.92767
#
# Velocity S-wave (km/s) = 3.30160 4.19766 3.77630
# Velocity P-wave (km/s) = 6.43615 7.74287 7.11955
#
# Compressibility (1/GPa) = 0.01398261
#
# Stress axis : x y z
#
# Youngs Moduli (GPa) = 144.61376 54.52904 39.05686
#
# Poissons Ratio (x) = 0.04055 0.11337
# Poissons Ratio (y) = 0.10754 0.57770
# Poissons Ratio (z) = 0.41976 0.80655
#
# Static dielectric constant tensor:
#      x y z
#    x 2.038880 0.000000 -0.063430 
#    y 0.000000 1.391470 0.000000 
#    z -0.063430 0.000000 2.225310 
# 
# From -- ./inp_files/36811.got.cif
#   From: 2010.05.17/outbox.cif.g08.bks.cpg/sg15_19_cif.got.tgz:36811.got - 2010.06.03 18:47:42.
