data_PCOD9308824
_publ_section_title
;
Structure prediction by ZEFSAII (Michael W. Deem and Ramdas Pophale) SiO2 
 PCOD9308824
Probable space group: C 2/C
;
_chemical_formula_sum "Si O2"
_cell_formula_units_Z 30
_cell_length_a 15.000000
_cell_length_b 12.000000
_cell_length_c 21.000000
_cell_angle_alpha 90.000000
_cell_angle_beta 120.000000
_cell_angle_gamma 90.000000
_cell_volume 3273.576026
_symmetry_space_group_name_H-M "C 2/C"
_symmetry_group_IT_number 15
_symmetry_cell_setting 'monoclinic'
loop_
_space_group_symop_operation_xyz
x,y,z
-x,y,1/2-z
-x,-y,-z
x,-y,1/2+z
1/2+x,1/2+y,z
1/2-x,1/2+y,1/2-z
1/2-x,1/2-y,-z
1/2+x,1/2-y,1/2+z
loop_
_atom_site_type_symbol
_atom_site_label
_atom_site_fract_x
_atom_site_fract_y
_atom_site_fract_z
Si Si1 0.659205 0.108540 0.066645
Si Si2 0.201628 0.970220 0.695349
Si Si3 0.073386 0.394500 0.678882
Si Si4 0.765374 0.673932 0.643667
Si Si5 0.146702 0.728647 0.684965
Si Si6 0.309217 0.568637 0.675549
Si Si7 0.000000 0.209168 0.750000
Si Si8 0.936844 0.593661 0.607134
O O1 0.594897 0.108377 0.110353
O O2 0.703445 0.232618 0.083981
O O3 0.752074 0.020174 0.110486
O O4 0.602472 0.084552 0.979886
O O5 0.322778 0.946246 0.753565
O O6 0.150835 0.853609 0.660725
O O7 0.198721 0.068431 0.643300
O O8 0.156303 0.008493 0.746771
O O9 0.048446 0.284443 0.710542
O O10 0.978022 0.477304 0.649743
O O11 0.809768 0.724031 0.726575
O O12 0.853122 0.635709 0.626972
O O13 0.222215 0.654675 0.668644
O O14 0.034779 0.675398 0.643078
O O15 0.408429 0.635094 0.687766
#
# Coordination Sequence:
#
# PCOD9308824 Si02
#       8
#     8   8   8   8   8   8   4   8
#     4  11  23  44  57  87 131 167 190 246 316 364
#     4  10  19  39  61  88 120 151 195 257 306 341
#     4  11  20  37  61  88 121 153 208 246 296 367
#     4  11  21  39  61  90 121 156 205 257 291 351
#     4  11  20  38  62  92 117 153 206 256 302 353
#     4  10  21  36  60  87 124 152 191 253 307 355
#     4  12  22  36  62  98 114 156 206 266 304 346
#     4  12  24  36  65  91 119 166 210 240 295 376
#
# _framework density 9.1642899999999994
#
# number of rings (size 3 to 8) (size 9 to 14) (size 15 to 20)
#    0.000    1.067    8.000    2.800    0.000    1.067 
#    0.000    2.667    0.000    0.000    0.000    0.000 
#    0.000    0.000    0.000    0.000    0.000    0.000 
#
# Total GULP energy -167393.140851 kJ/mol
# GULP energy per Si atom -5579.771362 kJ/mol
# Density = 0.914343 g / cm^3
# Si number density = 9.164290 Si / 1000 Ang^3
#
#
#
# Elastic Constant Matrix: (Units=GPa)
#
#
# Indices 1 2 3 4 5 6 
#
# 1 32.2229 10.8029 -8.2023 0.0000 -1.8487 0.0000
# 2 10.8029 100.7125 10.3582 0.0000 8.3309 0.0000
# 3 -8.2023 10.3582 43.8528 0.0000 -0.0153 0.0000
# 4 0.0000 0.0000 0.0000 22.6206 0.0000 2.3207
# 5 -1.8487 8.3309 -0.0153 0.0000 14.4251 0.0000
# 6 0.0000 0.0000 0.0000 2.3207 0.0000 31.7789
#
#
#
# Elastic Compliance Matrix: (Units=1/GPa)
#
#
# Indices 1 2 3 4 5 6 
#
# 1 0.035199 -0.005202 0.007815 0.000000 0.007524 0.000000
# 2 -0.005202 0.011470 -0.003685 0.000000 -0.007295 0.000000
# 3 0.007815 -0.003685 0.025137 0.000000 0.003156 0.000000
# 4 0.000000 0.000000 0.000000 0.044541 0.000000 -0.003253
# 5 0.007524 -0.007295 0.003156 0.000000 0.074504 0.000000
# 6 0.000000 0.000000 0.000000 -0.003253 0.000000 0.031705
#
#
# Mechanical properties :
#
#
# Convention : Reuss Voigt Hill
#
# Bulk Modulus (GPa) = 14.35500 22.52287 18.43893
# Shear Modulus (GPa) = 20.16788 24.68687 22.42738
#
# Velocity S-wave (km/s) = 3.32075 3.67400 3.50184
# Velocity P-wave (km/s) = 4.74892 5.50571 5.14126
#
# Compressibility (1/GPa) = 0.06966216
#
# Stress axis : x y z
#
# Youngs Moduli (GPa) = 28.41019 87.18712 39.78241
#
# Poissons Ratio (x) = 0.45352 -0.31090
# Poissons Ratio (y) = 0.14778 0.14658
# Poissons Ratio (z) = -0.22202 0.32125
#
# Static dielectric constant tensor:
#      x y z
#    x 1.645120 0.000000 0.000570 
#    y 0.000000 1.687110 0.000000 
#    z 0.000570 0.000000 1.600540 
# 
# From -- ./inp_files/243761.got.cif
#   From: 2010.05.17/outbox.ucp.g08.bks.cvg/sg15_122_cif.got.tgz:243761.got - 2010.06.11 12:40:34.
