data_PCOD9308155
_publ_section_title
;
Structure prediction by ZEFSAII (Michael W. Deem and Ramdas Pophale) SiO2 
 PCOD9308155
Probable space group: C 2/C
;
_chemical_formula_sum "Si O2"
_cell_formula_units_Z 36
_cell_length_a 20.906886
_cell_length_b 7.069950
_cell_length_c 12.034659
_cell_angle_alpha 90.000000
_cell_angle_beta 83.233311
_cell_angle_gamma 90.000000
_cell_volume 1766.459478
_symmetry_space_group_name_H-M "C 2/C"
_symmetry_group_IT_number 15
_symmetry_cell_setting 'monoclinic'
loop_
_space_group_symop_operation_xyz
x,y,z
-x,y,1/2-z
-x,-y,-z
x,-y,1/2+z
1/2+x,1/2+y,z
1/2-x,1/2+y,1/2-z
1/2-x,1/2-y,-z
1/2+x,1/2-y,1/2+z
loop_
_atom_site_type_symbol
_atom_site_label
_atom_site_fract_x
_atom_site_fract_y
_atom_site_fract_z
Si Si1 0.954729 0.842359 0.563823
Si Si2 0.500000 0.080730 0.750000
Si Si3 0.279412 0.151692 0.885746
Si Si4 0.161552 0.994329 0.764483
Si Si5 0.887220 0.344095 0.869670
O O1 0.992765 0.713171 0.643870
O O2 0.924526 0.714943 0.473023
O O3 0.897025 0.941939 0.642602
O O4 0.000000 0.000000 0.500000
O O5 0.437446 0.950605 0.778833
O O6 0.221942 0.067976 0.823131
O O7 0.317353 0.309036 0.807387
O O8 0.328580 0.985046 0.906627
O O9 0.250000 0.250000 0.000000
O O10 0.139274 0.157351 0.684832
#
# Coordination Sequence:
#
# PCOD9308155 Si02
#       5
#     8   4   8   8   8
#     4  12  27  47  77 107 143 190 245 299 361 429
#     4  12  26  48  72 104 146 190 240 298 364 422
#     4  12  28  45  76 107 144 193 240 295 364 432
#     4  12  26  50  72 109 147 187 240 300 362 430
#     4  12  27  47  75 104 146 190 239 296 360 431
#
# _framework density 20.379749
#
# number of rings (size 3 to 8) (size 9 to 14) (size 15 to 20)
#    0.000    0.000    4.444    4.667    9.333    1.778 
#    0.000    0.000    0.000    0.000    0.000    0.000 
#    0.000    0.000    0.000    0.000    0.000    0.000 
#
# Total GULP energy -100891.393481 kJ/mol
# GULP energy per Si atom -5605.077416 kJ/mol
# Density = 2.033336 g / cm^3
# Si number density = 20.379749 Si / 1000 Ang^3
#
#
#
# Elastic Constant Matrix: (Units=GPa)
#
#
# Indices 1 2 3 4 5 6 
#
# 1 85.6717 39.2359 24.1972 0.0000 -5.6743 0.0000
# 2 39.2359 112.9855 40.2560 0.0000 -1.5359 0.0000
# 3 24.1972 40.2560 98.3121 0.0000 -3.2050 0.0000
# 4 0.0000 0.0000 0.0000 -4.0209 0.0000 -12.8732
# 5 -5.6743 -1.5359 -3.2050 0.0000 57.6303 0.0000
# 6 0.0000 0.0000 0.0000 -12.8732 0.0000 53.2957
#
#
#
# Elastic Compliance Matrix: (Units=1/GPa)
#
#
# Indices 1 2 3 4 5 6 
#
# 1 0.014205 -0.004314 -0.001691 0.000000 0.001190 0.000000
# 2 -0.004314 0.011673 -0.003728 0.000000 -0.000321 0.000000
# 3 -0.001691 -0.003728 0.012128 0.000000 0.000409 0.000000
# 4 0.000000 0.000000 0.000000 -0.140247 0.000000 -0.033876
# 5 0.001190 -0.000321 0.000409 0.000000 0.017483 0.000000
# 6 0.000000 0.000000 0.000000 -0.033876 0.000000 0.010581
#
#
# Mechanical properties :
#
#
# Convention : Reuss Voigt Hill
#
# Bulk Modulus (GPa) = 53.94139 56.03861 54.99000
# Shear Modulus (GPa) = -103.02631 34.26638 -34.37997
#
# Velocity S-wave (km/s) = -7.11780 4.10493 -4.11173
# Velocity P-wave (km/s) = 6.40508 7.07278 2.12121
#
# Compressibility (1/GPa) = 0.01853864
#
# Stress axis : x y z
#
# Youngs Moduli (GPa) = 70.39968 85.66879 82.45506
#
# Poissons Ratio (x) = 0.36959 0.13942
# Poissons Ratio (y) = 0.30372 0.30742
# Poissons Ratio (z) = 0.11903 0.31940
#
# Static dielectric constant tensor:
#      x y z
#    x 1.696970 0.000000 -0.000140 
#    y 0.000000 1.676550 0.000000 
#    z -0.000140 0.000000 1.682680 
# 
# From -- ./inp_files/115583.got.cif
#   From: 2010.05.17/outbox.cif.g08.bks.cpg/sg15_58_cif.got.tgz:115583.got - 2010.06.03 18:47:42.
