data_PCOD9308977
_publ_section_title
;
Structure prediction by ZEFSAII (Michael W. Deem and Ramdas Pophale) SiO2 
 PCOD9308977
Probable space group: C 2/C
;
_chemical_formula_sum "Si O2"
_cell_formula_units_Z 24
_cell_length_a 9.000000
_cell_length_b 15.000000
_cell_length_c 27.000000
_cell_angle_alpha 90.000000
_cell_angle_beta 140.000000
_cell_angle_gamma 90.000000
_cell_volume 2342.960837
_symmetry_space_group_name_H-M "C 2/C"
_symmetry_group_IT_number 15
_symmetry_cell_setting 'monoclinic'
loop_
_space_group_symop_operation_xyz
x,y,z
-x,y,1/2-z
-x,-y,-z
x,-y,1/2+z
1/2+x,1/2+y,z
1/2-x,1/2+y,1/2-z
1/2-x,1/2-y,-z
1/2+x,1/2-y,1/2+z
loop_
_atom_site_type_symbol
_atom_site_label
_atom_site_fract_x
_atom_site_fract_y
_atom_site_fract_z
Si Si1 0.120177 0.369804 0.428496
Si Si2 0.590146 0.321270 0.594983
Si Si3 0.589251 0.374697 0.701187
Si Si4 0.830051 0.309535 0.166289
Si Si5 0.502003 0.824967 0.623254
Si Si6 0.889249 0.529270 0.419615
O O1 0.358114 0.373072 0.519915
O O2 0.190542 0.364767 0.388914
O O3 0.992339 0.278994 0.412866
O O4 0.954020 0.450948 0.398444
O O5 0.681688 0.363879 0.669163
O O6 0.774841 0.320901 0.598331
O O7 0.456948 0.282361 0.681346
O O8 0.798166 0.375700 0.793479
O O9 0.384805 0.447999 0.649386
O O10 0.599263 0.272661 0.133423
O O11 0.000000 0.352524 0.250000
O O12 0.484158 0.881956 0.568591
O O13 0.000000 0.500000 0.500000
#
# Coordination Sequence:
#
# PCOD9308977 Si02
#       6
#     8   8   8   8   8   8
#     4  10  21  37  59  89 123 149 198 250 298 345
#     4  10  20  37  62  89 116 155 198 246 294 360
#     4   9  18  39  61  81 114 159 202 234 293 369
#     4   8  17  36  58  81 117 157 191 238 291 356
#     4  10  21  37  62  85 115 161 202 234 298 369
#     4  11  21  39  59  84 119 161 194 249 304 346
#
# _framework density 10.243449
#
# number of rings (size 3 to 8) (size 9 to 14) (size 15 to 20)
#    0.000    2.333    1.667    2.000    2.333    1.333 
#    0.000   11.667    0.000    0.000    0.000    0.000 
#    0.000    0.000    0.000    0.000    0.000    0.000 
#
# Total GULP energy -133935.334922 kJ/mol
# GULP energy per Si atom -5580.638955 kJ/mol
# Density = 1.022013 g / cm^3
# Si number density = 10.243449 Si / 1000 Ang^3
#
#
#
# Elastic Constant Matrix: (Units=GPa)
#
#
# Indices 1 2 3 4 5 6 
#
# 1 127.9352 8.6107 22.5653 0.0000 -0.6280 0.0000
# 2 8.6107 15.8345 12.3240 0.0000 -0.7318 0.0000
# 3 22.5653 12.3240 72.1859 -0.0001 -16.8939 0.0000
# 4 0.0000 0.0000 -0.0001 14.3214 0.0000 -0.4280
# 5 -0.6280 -0.7318 -16.8939 0.0000 39.6810 0.0000
# 6 0.0000 0.0000 0.0000 -0.4280 0.0000 31.6929
#
#
#
# Elastic Compliance Matrix: (Units=1/GPa)
#
#
# Indices 1 2 3 4 5 6 
#
# 1 0.008417 -0.002771 -0.002376 0.000000 -0.000929 0.000000
# 2 -0.002771 0.074438 -0.012807 0.000000 -0.004124 0.000000
# 3 -0.002376 -0.012807 0.018568 0.000000 0.007632 0.000000
# 4 0.000000 0.000000 0.000000 0.069854 0.000000 0.000943
# 5 -0.000929 -0.004124 0.007632 0.000000 0.028359 0.000000
# 6 0.000000 0.000000 0.000000 0.000943 0.000000 0.031566
#
#
# Mechanical properties :
#
#
# Convention : Reuss Voigt Hill
#
# Bulk Modulus (GPa) = 15.26368 33.66174 24.46271
# Shear Modulus (GPa) = 17.30413 28.63609 22.97011
#
# Velocity S-wave (km/s) = 2.90943 3.74274 3.35208
# Velocity P-wave (km/s) = 4.33047 5.92824 5.19119
#
# Compressibility (1/GPa) = 0.06551498
#
# Stress axis : x y z
#
# Youngs Moduli (GPa) = 118.80100 13.43408 53.85518
#
# Poissons Ratio (x) = 0.03723 0.12794
# Poissons Ratio (y) = 0.32923 0.68973
# Poissons Ratio (z) = 0.28223 0.17205
#
# Static dielectric constant tensor:
#      x y z
#    x 1.741850 0.000000 -0.037340 
#    y 0.000000 1.730450 0.000000 
#    z -0.037340 0.000000 1.778980 
# 
# From -- ./inp_files/289132.got.cif
#   From: 2010.05.17/outbox.ucp.g08.bks.cvg/sg15_145_cif.got.tgz:289132.got - 2010.06.11 12:40:34.
