data_PCOD9308630
_publ_section_title
;
Structure prediction by ZEFSAII (Michael W. Deem and Ramdas Pophale) SiO2 
 PCOD9308630
Probable space group: C 2/C
;
_chemical_formula_sum "Si O2"
_cell_formula_units_Z 20
_cell_length_a 9.000000
_cell_length_b 18.000000
_cell_length_c 12.000000
_cell_angle_alpha 90.000000
_cell_angle_beta 80.000000
_cell_angle_gamma 90.000000
_cell_volume 1914.466272
_symmetry_space_group_name_H-M "C 2/C"
_symmetry_group_IT_number 15
_symmetry_cell_setting 'monoclinic'
loop_
_space_group_symop_operation_xyz
x,y,z
-x,y,1/2-z
-x,-y,-z
x,-y,1/2+z
1/2+x,1/2+y,z
1/2-x,1/2+y,1/2-z
1/2-x,1/2-y,-z
1/2+x,1/2-y,1/2+z
loop_
_atom_site_type_symbol
_atom_site_label
_atom_site_fract_x
_atom_site_fract_y
_atom_site_fract_z
Si Si1 0.151547 0.122616 0.806428
Si Si2 0.181260 0.315589 0.586036
Si Si3 0.178428 0.293632 0.836870
Si Si4 0.137740 0.568672 0.910192
Si Si5 0.714151 0.917848 0.998830
O O1 0.187852 0.205516 0.843179
O O2 0.285304 0.102413 0.706506
O O3 0.000000 0.120765 0.750000
O O4 0.166985 0.073658 0.916176
O O5 0.250000 0.250000 0.500000
O O6 0.238169 0.315028 0.705666
O O7 0.198766 0.390101 0.512952
O O8 0.001432 0.306930 0.626083
O O9 0.249030 0.343977 0.923601
O O10 0.194761 0.484711 0.914186
O O11 0.957502 0.580949 0.929247
#
# Coordination Sequence:
#
# PCOD9308630 Si02
#       5
#     8   8   8   8   8
#     4  12  22  40  62  88 125 164 199 251 316 370
#     4  10  17  35  61  90 118 160 203 247 306 359
#     4  10  20  36  61  90 120 158 205 255 300 359
#     4  10  22  40  63  90 121 159 207 255 306 360
#     4  10  24  39  63  93 121 158 208 262 298 366
#
# _framework density 10.446776
#
# number of rings (size 3 to 8) (size 9 to 14) (size 15 to 20)
#    0.000    1.600    4.000    1.200    2.800    0.800 
#    0.000    0.000    0.000    0.000    0.000    0.000 
#    0.000    0.000    0.000    0.000    0.000    0.000 
#
# Total GULP energy -111518.494975 kJ/mol
# GULP energy per Si atom -5575.924749 kJ/mol
# Density = 1.042300 g / cm^3
# Si number density = 10.446776 Si / 1000 Ang^3
#
#
#
# Elastic Constant Matrix: (Units=GPa)
#
#
# Indices 1 2 3 4 5 6 
#
# 1 20.3069 29.0149 29.2742 0.0000 22.3373 0.0000
# 2 29.0149 55.6568 21.6610 0.0000 6.7940 0.0000
# 3 29.2742 21.6610 112.0131 0.0000 25.2301 0.0000
# 4 0.0000 0.0000 0.0000 34.9933 0.0000 -3.9812
# 5 22.3373 6.7940 25.2301 0.0000 25.8801 0.0000
# 6 0.0000 0.0000 0.0000 -3.9812 0.0000 18.6724
#
#
#
# Elastic Compliance Matrix: (Units=1/GPa)
#
#
# Indices 1 2 3 4 5 6 
#
# 1 -0.111931 0.047711 0.001393 0.000000 0.082725 0.000000
# 2 0.047711 -0.000839 -0.003948 0.000000 -0.037111 0.000000
# 3 0.001393 -0.003948 0.011999 0.000000 -0.011864 0.000000
# 4 0.000000 0.000000 0.000000 0.029287 0.000000 0.006244
# 5 0.082725 -0.037111 -0.011864 0.000000 -0.011453 0.000000
# 6 0.000000 0.000000 0.000000 0.006244 0.000000 0.054886
#
#
# Mechanical properties :
#
#
# Convention : Reuss Voigt Hill
#
# Bulk Modulus (GPa) = -95.62143 38.65299 -28.48422
# Shear Modulus (GPa) = -41.03469 23.11095 -8.96187
#
# Velocity S-wave (km/s) = -4.43650 3.32946 -2.07331
# Velocity P-wave (km/s) = 8.49168 5.77239 4.40387
#
# Compressibility (1/GPa) = -0.01045791
#
# Stress axis : x y z
#
# Youngs Moduli (GPa) = -8.93409 -1192.16880 83.33947
#
# Poissons Ratio (x) = 56.87972 -0.11611
# Poissons Ratio (y) = 0.42626 0.32902
# Poissons Ratio (z) = 0.01245 -4.70668
#
# Static dielectric constant tensor:
#      x y z
#    x 1.746190 0.000000 0.024040 
#    y 0.000000 1.847980 0.000000 
#    z 0.024040 0.000000 1.747490 
# 
# From -- ./inp_files/76726.got.cif
#   From: 2010.05.17/outbox.ucp.g08.bks.cvg/sg15_39_cif.got.tgz:76726.got - 2010.06.11 12:40:34.
