data_PCOD9308318
_publ_section_title
;
Structure prediction by ZEFSAII (Michael W. Deem and Ramdas Pophale) SiO2 
 PCOD9308318
Probable space group: C 2/C
;
_chemical_formula_sum "Si O2"
_cell_formula_units_Z 36
_cell_length_a 21.230034
_cell_length_b 6.836139
_cell_length_c 20.189298
_cell_angle_alpha 90.000000
_cell_angle_beta 146.980267
_cell_angle_gamma 90.000000
_cell_volume 1596.694369
_symmetry_space_group_name_H-M "C 2/C"
_symmetry_group_IT_number 15
_symmetry_cell_setting 'monoclinic'
loop_
_space_group_symop_operation_xyz
x,y,z
-x,y,1/2-z
-x,-y,-z
x,-y,1/2+z
1/2+x,1/2+y,z
1/2-x,1/2+y,1/2-z
1/2-x,1/2-y,-z
1/2+x,1/2-y,1/2+z
loop_
_atom_site_type_symbol
_atom_site_label
_atom_site_fract_x
_atom_site_fract_y
_atom_site_fract_z
Si Si1 0.275246 0.349640 0.093288
Si Si2 0.308949 0.546662 0.369788
Si Si3 0.083125 0.367774 0.117033
Si Si4 0.500000 0.468162 0.750000
Si Si5 0.604141 0.782741 0.453777
O O1 0.240146 0.203181 0.120727
O O2 0.411118 0.404302 0.215026
O O3 0.250000 0.250000 0.000000
O O4 0.194709 0.541747 0.028047
O O5 0.206810 0.467016 0.233900
O O6 0.398489 0.661099 0.402501
O O7 0.356449 0.366752 0.454365
O O8 0.022134 0.354363 0.134365
O O9 0.000000 0.500000 0.000000
O O10 0.416640 0.335747 0.631620
#
# Coordination Sequence:
#
# PCOD9308318 Si02
#       5
#     8   8   8   4   8
#     4  12  28  49  74 113 149 197 249 310 372 447
#     4  12  28  50  74 111 152 191 258 306 376 444
#     4  12  27  48  79 106 149 198 248 310 376 442
#     4  12  28  44  80 104 152 196 246 308 372 442
#     4  12  27  51  75 111 147 199 249 310 373 448
#
# _framework density 22.546579999999999
#
# number of rings (size 3 to 8) (size 9 to 14) (size 15 to 20)
#    0.000    0.000    4.444    4.000   12.444    0.000 
#    0.000    0.000    0.000    0.000    0.000    0.000 
#    0.000    0.000    0.000    0.000    0.000    0.000 
#
# Total GULP energy -100882.625761 kJ/mol
# GULP energy per Si atom -5604.590320 kJ/mol
# Density = 2.249526 g / cm^3
# Si number density = 22.546580 Si / 1000 Ang^3
#
#
#
# Elastic Constant Matrix: (Units=GPa)
#
#
# Indices 1 2 3 4 5 6 
#
# 1 94.0043 33.3295 -2.9343 0.0000 20.6709 0.0000
# 2 33.3295 115.9673 50.4902 -0.0001 18.6129 -0.0003
# 3 -2.9343 50.4902 91.6955 0.0000 -4.7722 0.0000
# 4 0.0000 -0.0001 0.0000 46.6464 0.0000 1.5026
# 5 20.6709 18.6129 -4.7722 0.0000 41.7817 0.0000
# 6 0.0000 -0.0003 0.0000 1.5026 0.0000 47.3900
#
#
#
# Elastic Compliance Matrix: (Units=1/GPa)
#
#
# Indices 1 2 3 4 5 6 
#
# 1 0.013151 -0.004160 0.002484 0.000000 -0.004369 0.000000
# 2 -0.004160 0.014252 -0.008253 0.000000 -0.005234 0.000000
# 3 0.002484 -0.008253 0.015750 0.000000 0.004247 0.000000
# 4 0.000000 0.000000 0.000000 0.021460 0.000000 -0.000680
# 5 -0.004369 -0.005234 0.004247 0.000000 0.028912 0.000000
# 6 0.000000 0.000000 0.000000 -0.000680 0.000000 0.021123
#
#
# Mechanical properties :
#
#
# Convention : Reuss Voigt Hill
#
# Bulk Modulus (GPa) = 42.92640 51.49309 47.20974
# Shear Modulus (GPa) = 35.14413 41.88239 38.51326
#
# Velocity S-wave (km/s) = 3.95236 4.31466 4.13748
# Velocity P-wave (km/s) = 6.31732 6.90723 6.61885
#
# Compressibility (1/GPa) = 0.02329569
#
# Stress axis : x y z
#
# Youngs Moduli (GPa) = 76.03962 70.16635 63.49014
#
# Poissons Ratio (x) = 0.29188 -0.15771
# Poissons Ratio (y) = 0.31631 0.52398
# Poissons Ratio (z) = -0.18888 0.57908
#
# Static dielectric constant tensor:
#      x y z
#    x 1.884480 0.000000 -0.012440 
#    y 0.000000 1.863360 0.000000 
#    z -0.012440 0.000000 1.807730 
# 
# From -- ./inp_files/115692.got.cif
#   From: 2010.05.17/outbox.cif.g08.bks.cpg/sg15_58_cif.got.tgz:115692.got - 2010.06.03 18:47:42.
