data_PCOD9308053
_publ_section_title
;
Structure prediction by ZEFSAII (Michael W. Deem and Ramdas Pophale) SiO2 
 PCOD9308053
Probable space group: C 2/C
;
_chemical_formula_sum "Si O2"
_cell_formula_units_Z 32
_cell_length_a 15.686526
_cell_length_b 5.504477
_cell_length_c 14.732022
_cell_angle_alpha 90.000000
_cell_angle_beta 66.952344
_cell_angle_gamma 90.000000
_cell_volume 1170.517114
_symmetry_space_group_name_H-M "C 2/C"
_symmetry_group_IT_number 15
_symmetry_cell_setting 'monoclinic'
loop_
_space_group_symop_operation_xyz
x,y,z
-x,y,1/2-z
-x,-y,-z
x,-y,1/2+z
1/2+x,1/2+y,z
1/2-x,1/2+y,1/2-z
1/2-x,1/2-y,-z
1/2+x,1/2-y,1/2+z
loop_
_atom_site_type_symbol
_atom_site_label
_atom_site_fract_x
_atom_site_fract_y
_atom_site_fract_z
Si Si1 0.151805 0.137170 0.188341
Si Si2 0.020218 0.472893 0.837333
Si Si3 0.141403 0.210002 0.530714
Si Si4 0.337684 0.623297 0.636612
O O1 0.243395 0.291451 0.128705
O O2 0.076397 0.297722 0.274084
O O3 0.187608 0.950052 0.249874
O O4 0.116621 0.999685 0.114330
O O5 0.086352 0.328182 0.877596
O O6 0.000000 0.335933 0.750000
O O7 0.918995 0.450927 0.924701
O O8 0.250000 0.250000 0.500000
O O9 0.124034 0.097572 0.439200
#
# Coordination Sequence:
#
# PCOD9308053 Si02
#       4
#     8   8   8   8
#     4  12  26  52  80 114 162 210 259 333 402 468
#     4  12  27  49  78 112 158 215 258 325 398 467
#     4  12  28  53  81 122 155 209 272 329 395 478
#     4  12  25  50  80 114 161 205 269 322 398 476
#
# _framework density 27.338346999999999
#
# number of rings (size 3 to 8) (size 9 to 14) (size 15 to 20)
#    0.000    0.000    5.000    4.500    3.500    1.000 
#    0.000    0.000    0.000    0.000    0.000    0.000 
#    0.000    0.000    0.000    0.000    0.000    0.000 
#
# Total GULP energy -89630.904120 kJ/mol
# GULP energy per Si atom -5601.931507 kJ/mol
# Density = 2.727612 g / cm^3
# Si number density = 27.338347 Si / 1000 Ang^3
#
#
#
# Elastic Constant Matrix: (Units=GPa)
#
#
# Indices 1 2 3 4 5 6 
#
# 1 137.2540 35.4007 38.3995 0.0002 -22.8594 0.0004
# 2 35.4007 76.0415 38.1243 0.0004 -14.2213 0.0012
# 3 38.3995 38.1243 127.0239 0.0000 12.6881 0.0000
# 4 0.0002 0.0004 0.0000 66.3131 0.0001 -1.0668
# 5 -22.8594 -14.2213 12.6881 0.0001 63.9938 0.0002
# 6 0.0004 0.0012 0.0000 -1.0668 0.0002 37.2637
#
#
#
# Elastic Compliance Matrix: (Units=1/GPa)
#
#
# Indices 1 2 3 4 5 6 
#
# 1 0.009102 -0.002482 -0.002322 0.000000 0.003160 0.000000
# 2 -0.002482 0.017507 -0.004901 0.000000 0.003976 -0.000001
# 3 -0.002322 -0.004901 0.010444 0.000000 -0.003990 0.000000
# 4 0.000000 0.000000 0.000000 0.015087 0.000000 0.000432
# 5 0.003160 0.003976 -0.003990 0.000000 0.018430 0.000000
# 6 0.000000 -0.000001 0.000000 0.000432 0.000000 0.026848
#
#
# Mechanical properties :
#
#
# Convention : Reuss Voigt Hill
#
# Bulk Modulus (GPa) = 56.68301 62.68536 59.68419
# Shear Modulus (GPa) = 40.74650 48.74046 44.74348
#
# Velocity S-wave (km/s) = 3.86483 4.22697 4.04995
# Velocity P-wave (km/s) = 6.37924 6.84122 6.61427
#
# Compressibility (1/GPa) = 0.01764197
#
# Stress axis : x y z
#
# Youngs Moduli (GPa) = 109.86645 57.11969 95.74785
#
# Poissons Ratio (x) = 0.14177 0.22235
# Poissons Ratio (y) = 0.27270 0.46929
# Poissons Ratio (z) = 0.25514 0.27996
#
# Static dielectric constant tensor:
#      x y z
#    x 2.099410 0.000000 -0.052570 
#    y 0.000000 2.203290 0.000000 
#    z -0.052570 0.000000 2.122440 
# 
# From -- ./inp_files/140787.got.cif
#   From: 2010.05.17/outbox.cif.g08.bks.cpg/sg15_71_cif.got.tgz:140787.got - 2010.06.03 18:47:42.
