data_PCOD9308135
_publ_section_title
;
Structure prediction by ZEFSAII (Michael W. Deem and Ramdas Pophale) SiO2 
 PCOD9308135
Probable space group: C 2/C
;
_chemical_formula_sum "Si O2"
_cell_formula_units_Z 40
_cell_length_a 21.847342
_cell_length_b 4.735174
_cell_length_c 24.150188
_cell_angle_alpha 90.000000
_cell_angle_beta 139.298602
_cell_angle_gamma 90.000000
_cell_volume 1629.222961
_symmetry_space_group_name_H-M "C 2/C"
_symmetry_group_IT_number 15
_symmetry_cell_setting 'monoclinic'
loop_
_space_group_symop_operation_xyz
x,y,z
-x,y,1/2-z
-x,-y,-z
x,-y,1/2+z
1/2+x,1/2+y,z
1/2-x,1/2+y,1/2-z
1/2-x,1/2-y,-z
1/2+x,1/2-y,1/2+z
loop_
_atom_site_type_symbol
_atom_site_label
_atom_site_fract_x
_atom_site_fract_y
_atom_site_fract_z
Si Si1 0.618468 0.706232 0.528354
Si Si2 0.211801 0.433926 0.922367
Si Si3 0.515046 0.764438 0.906183
Si Si4 0.586429 0.466176 0.843742
Si Si5 0.314793 0.090329 0.305525
O O1 0.706957 0.549734 0.560943
O O2 0.535916 0.474916 0.466573
O O3 0.651148 0.819166 0.610061
O O4 0.580209 0.972302 0.467428
O O5 0.142064 0.205417 0.847242
O O6 0.250000 0.250000 0.000000
O O7 0.345813 0.794073 0.097559
O O8 0.546937 0.622022 0.870831
O O9 0.407449 0.862488 0.832231
O O10 0.500000 0.350414 0.750000
O O11 0.226379 0.277053 0.225204
#
# Coordination Sequence:
#
# PCOD9308135 Si02
#       5
#     8   8   8   8   8
#     4  12  26  47  79 105 149 197 248 304 359 459
#     4  12  26  47  75 112 148 196 251 297 374 449
#     4  12  26  47  76 108 146 199 249 296 376 446
#     4  12  28  45  74 110 157 193 240 313 371 439
#     4  12  28  49  77 109 147 191 248 317 371 428
#
# _framework density 24.551579
#
# number of rings (size 3 to 8) (size 9 to 14) (size 15 to 20)
#    0.000    0.000    2.000    7.200    5.600    0.000 
#    0.000    0.000    0.000    0.000    0.000    0.000 
#    0.000    0.000    0.000    0.000    0.000    0.000 
#
# Total GULP energy -112151.838237 kJ/mol
# GULP energy per Si atom -5607.591912 kJ/mol
# Density = 2.449570 g / cm^3
# Si number density = 24.551579 Si / 1000 Ang^3
#
#
#
# Elastic Constant Matrix: (Units=GPa)
#
#
# Indices 1 2 3 4 5 6 
#
# 1 85.5272 23.5518 34.9110 0.0009 14.4450 0.0050
# 2 23.5518 139.9577 21.1750 0.0002 8.1585 -0.0037
# 3 34.9110 21.1750 102.5945 0.0013 18.1137 0.0118
# 4 0.0009 0.0002 0.0013 57.0157 -0.0201 2.5902
# 5 14.4450 8.1585 18.1137 -0.0201 22.3968 -0.0570
# 6 0.0050 -0.0037 0.0118 2.5902 -0.0570 1.1607
#
#
#
# Elastic Compliance Matrix: (Units=1/GPa)
#
#
# Indices 1 2 3 4 5 6 
#
# 1 0.014593 -0.001566 -0.003595 0.000014 -0.005935 -0.000354
# 2 -0.001566 0.007599 -0.000846 0.000000 -0.001074 -0.000014
# 3 -0.003595 -0.000846 0.012461 0.000021 -0.007453 -0.000527
# 4 0.000014 0.000000 0.000021 0.019518 -0.000119 -0.043564
# 5 -0.005935 -0.001074 -0.007453 -0.000119 0.054903 0.003061
# 6 -0.000354 -0.000014 -0.000527 -0.043564 0.003061 0.958951
#
#
# Mechanical properties :
#
#
# Convention : Reuss Voigt Hill
#
# Bulk Modulus (GPa) = 44.16948 54.15056 49.16002
# Shear Modulus (GPa) = 4.59734 32.67740 18.63737
#
# Velocity S-wave (km/s) = 1.36989 3.65220 2.75819
# Velocity P-wave (km/s) = 4.53119 6.31573 5.49637
#
# Compressibility (1/GPa) = 0.02264007
#
# Stress axis : x y z
#
# Youngs Moduli (GPa) = 68.52545 131.59420 80.25190
#
# Poissons Ratio (x) = 0.20606 0.28848
# Poissons Ratio (y) = 0.10730 0.06789
# Poissons Ratio (z) = 0.24632 0.11132
#
# Static dielectric constant tensor:
#      x y z
#    x 1.963990 -0.000020 0.017080 
#    y -0.000020 1.921310 0.000000 
#    z 0.017080 0.000000 2.011380 
# 
# From -- ./inp_files/301797.got.cif
#   From: 2010.05.17/outbox.cif.g08.bks.cpg/sg15_151_cif.got.tgz:301797.got - 2010.06.03 18:47:42.
