data_PCOD9308076
_publ_section_title
;
Structure prediction by ZEFSAII (Michael W. Deem and Ramdas Pophale) SiO2 
 PCOD9308076
Probable space group: C 2/C
;
_chemical_formula_sum "Si O2"
_cell_formula_units_Z 40
_cell_length_a 21.157577
_cell_length_b 9.454838
_cell_length_c 16.380081
_cell_angle_alpha 90.000000
_cell_angle_beta 152.527918
_cell_angle_gamma 90.000000
_cell_volume 1511.593156
_symmetry_space_group_name_H-M "C 2/C"
_symmetry_group_IT_number 15
_symmetry_cell_setting 'monoclinic'
loop_
_space_group_symop_operation_xyz
x,y,z
-x,y,1/2-z
-x,-y,-z
x,-y,1/2+z
1/2+x,1/2+y,z
1/2-x,1/2+y,1/2-z
1/2-x,1/2-y,-z
1/2+x,1/2-y,1/2+z
loop_
_atom_site_type_symbol
_atom_site_label
_atom_site_fract_x
_atom_site_fract_y
_atom_site_fract_z
Si Si1 0.918395 0.171211 0.982100
Si Si2 0.290771 0.655356 0.469298
Si Si3 0.343607 0.383603 0.631836
Si Si4 0.483025 0.815599 0.561533
Si Si5 0.758357 0.549746 0.309406
O O1 0.857294 0.353390 0.743479
O O2 0.800573 0.287912 0.850916
O O3 0.847597 0.025819 0.873389
O O4 0.013806 0.223611 0.017136
O O5 0.250000 0.750000 0.500000
O O6 0.335671 0.503372 0.554091
O O7 0.409155 0.728540 0.550344
O O8 0.250000 0.250000 0.500000
O O9 0.490236 0.328697 0.832213
O O10 0.291620 0.464418 0.654550
O O11 0.396227 0.958268 0.456691
#
# Coordination Sequence:
#
# PCOD9308076 Si02
#       5
#     8   8   8   8   8
#     4  12  28  55  89 122 176 228 295 355 435 519
#     4  12  26  50  88 123 173 223 288 353 430 512
#     4  12  29  55  80 129 178 222 282 363 446 507
#     4  12  25  53  88 127 167 230 291 354 424 522
#     4  12  27  54  85 124 168 230 292 352 431 520
#
# _framework density 26.462145
#
# number of rings (size 3 to 8) (size 9 to 14) (size 15 to 20)
#    0.000    0.000    4.000    4.200    0.000    5.600 
#   18.000    0.000    0.000    0.000    0.000    0.000 
#    0.000    0.000    0.000    0.000    0.000    0.000 
#
# Total GULP energy -112312.059474 kJ/mol
# GULP energy per Si atom -5615.602974 kJ/mol
# Density = 2.640192 g / cm^3
# Si number density = 26.462145 Si / 1000 Ang^3
#
#
#
# Elastic Constant Matrix: (Units=GPa)
#
#
# Indices 1 2 3 4 5 6 
#
# 1 135.7326 29.3637 46.9423 0.0000 3.3727 0.0000
# 2 29.3637 175.8717 85.1142 0.0000 -3.4059 0.0000
# 3 46.9423 85.1142 228.9316 0.0000 -1.3278 0.0000
# 4 0.0000 0.0000 0.0000 60.9153 0.0000 3.3915
# 5 3.3727 -3.4059 -1.3278 0.0000 54.4126 0.0000
# 6 0.0000 0.0000 0.0000 3.3915 0.0000 65.5398
#
#
#
# Elastic Compliance Matrix: (Units=1/GPa)
#
#
# Indices 1 2 3 4 5 6 
#
# 1 0.008010 -0.000673 -0.001396 0.000000 -0.000573 0.000000
# 2 -0.000673 0.006998 -0.002461 0.000000 0.000420 0.000000
# 3 -0.001396 -0.002461 0.005570 0.000000 0.000068 0.000000
# 4 0.000000 0.000000 0.000000 0.016464 0.000000 -0.000852
# 5 -0.000573 0.000420 0.000068 0.000000 0.018442 0.000000
# 6 0.000000 0.000000 0.000000 -0.000852 0.000000 0.015302
#
#
# Mechanical properties :
#
#
# Convention : Reuss Voigt Hill
#
# Bulk Modulus (GPa) = 86.82312 95.93069 91.37691
# Shear Modulus (GPa) = 59.74928 61.44794 60.59861
#
# Velocity S-wave (km/s) = 4.75691 4.82405 4.79060
# Velocity P-wave (km/s) = 7.94056 8.20728 8.07502
#
# Compressibility (1/GPa) = 0.01151767
#
# Stress axis : x y z
#
# Youngs Moduli (GPa) = 124.84563 142.90684 179.54304
#
# Poissons Ratio (x) = 0.09619 0.25055
# Poissons Ratio (y) = 0.08403 0.44189
# Poissons Ratio (z) = 0.17422 0.35172
#
# Static dielectric constant tensor:
#      x y z
#    x 2.154210 0.000000 -0.030520 
#    y 0.000000 2.012980 0.000000 
#    z -0.030520 0.000000 2.084950 
# 
# From -- ./inp_files/218825.got.cif
#   From: 2010.05.17/outbox.cif.g08.bks.cpg/sg15_110_cif.got.tgz:218825.got - 2010.06.03 18:47:42.
