data_PCOD9308505
_publ_section_title
;
Structure prediction by ZEFSAII (Michael W. Deem and Ramdas Pophale) SiO2 
 PCOD9308505
Probable space group: C 2/C
;
_chemical_formula_sum "Si O2"
_cell_formula_units_Z 40
_cell_length_a 7.026105
_cell_length_b 25.493680
_cell_length_c 12.662991
_cell_angle_alpha 90.000000
_cell_angle_beta 42.498351
_cell_angle_gamma 90.000000
_cell_volume 1532.333052
_symmetry_space_group_name_H-M "C 2/C"
_symmetry_group_IT_number 15
_symmetry_cell_setting 'monoclinic'
loop_
_space_group_symop_operation_xyz
x,y,z
-x,y,1/2-z
-x,-y,-z
x,-y,1/2+z
1/2+x,1/2+y,z
1/2-x,1/2+y,1/2-z
1/2-x,1/2-y,-z
1/2+x,1/2-y,1/2+z
loop_
_atom_site_type_symbol
_atom_site_label
_atom_site_fract_x
_atom_site_fract_y
_atom_site_fract_z
Si Si1 0.193165 0.762378 0.317968
Si Si2 0.896265 0.827904 0.617194
Si Si3 0.029353 0.354819 0.366180
Si Si4 0.574297 0.440953 0.845093
Si Si5 0.962959 0.468388 0.121732
O O1 0.500000 0.758017 0.250000
O O2 0.973809 0.790370 0.485840
O O3 0.173736 0.704876 0.277142
O O4 0.267645 0.805998 0.199741
O O5 0.217355 0.837776 0.532217
O O6 0.807505 0.888566 0.648355
O O7 0.000000 0.362455 0.250000
O O8 0.150454 0.409980 0.354890
O O9 0.500000 0.430787 0.750000
O O10 0.771795 0.491666 0.764394
O O11 0.281716 0.454072 0.022662
O O12 0.000000 0.500000 0.000000
#
# Coordination Sequence:
#
# PCOD9308505 Si02
#       5
#     8   8   8   8   8
#     4   9  15  24  39  62  91 121 147 184 239 285
#     4   9  16  25  40  64  93 121 149 188 236 283
#     4   8  15  27  41  64  93 122 152 191 236 280
#     4   9  17  29  45  67  95 124 158 195 231 276
#     4   9  17  29  45  65  92 126 161 196 233 278
#
# _framework density 26.103988000000001
#
# number of rings (size 3 to 8) (size 9 to 14) (size 15 to 20)
#    0.000    3.600    0.000    3.000    0.000    3.200 
#    0.000    9.000    0.000    0.000    0.000    1.400 
#    0.000   36.800    0.000   20.000    0.000    0.600 
#
# Total GULP energy -111488.472423 kJ/mol
# GULP energy per Si atom -5574.423621 kJ/mol
# Density = 2.604457 g / cm^3
# Si number density = 26.103988 Si / 1000 Ang^3
#
#
#
# Elastic Constant Matrix: (Units=GPa)
#
#
# Indices 1 2 3 4 5 6 
#
# 1 52.9989 12.6320 21.5140 0.0000 -11.6280 0.0000
# 2 12.6320 269.4497 75.8760 0.0000 -3.0254 0.0000
# 3 21.5140 75.8760 107.7297 0.0000 -18.0847 0.0000
# 4 0.0000 0.0000 0.0000 61.6936 0.0000 13.0921
# 5 -11.6280 -3.0254 -18.0847 0.0000 38.6432 0.0000
# 6 0.0000 0.0000 0.0000 13.0921 0.0000 9.3624
#
#
#
# Elastic Compliance Matrix: (Units=1/GPa)
#
#
# Indices 1 2 3 4 5 6 
#
# 1 0.021323 0.000033 -0.003478 0.000000 0.004791 0.000000
# 2 0.000033 0.004687 -0.003521 0.000000 -0.001271 0.000000
# 3 -0.003478 -0.003521 0.013278 0.000000 0.004892 0.000000
# 4 0.000000 0.000000 0.000000 0.023049 0.000000 -0.032231
# 5 0.004791 -0.001271 0.004892 0.000000 0.029509 0.000000
# 6 0.000000 0.000000 0.000000 -0.032231 0.000000 0.151881
#
#
# Mechanical properties :
#
#
# Convention : Reuss Voigt Hill
#
# Bulk Modulus (GPa) = 39.43545 72.24694 55.84120
# Shear Modulus (GPa) = 18.78915 43.28360 31.03638
#
# Velocity S-wave (km/s) = 2.68578 4.07642 3.45186
# Velocity P-wave (km/s) = 4.97572 7.06350 6.10945
#
# Compressibility (1/GPa) = 0.02535790
#
# Stress axis : x y z
#
# Youngs Moduli (GPa) = 46.89723 213.35742 75.31148
#
# Poissons Ratio (x) = -0.00713 0.26190
# Poissons Ratio (y) = -0.00157 0.26518
# Poissons Ratio (z) = 0.16309 0.75126
#
# Static dielectric constant tensor:
#      x y z
#    x 2.184620 0.000000 -0.014390 
#    y 0.000000 2.135380 0.000000 
#    z -0.014390 0.000000 2.097550 
# 
# From -- ./inp_files/240040.got.cif
#   From: 2010.05.17/outbox.cif.g08.bks.cpg/sg15_121_cif.got.tgz:240040.got - 2010.06.03 18:47:42.
