data_PCOD9308795
_publ_section_title
;
Structure prediction by ZEFSAII (Michael W. Deem and Ramdas Pophale) SiO2 
 PCOD9308795
Probable space group: C 2/C
;
_chemical_formula_sum "Si O2"
_cell_formula_units_Z 28
_cell_length_a 6.000000
_cell_length_b 27.000000
_cell_length_c 18.000000
_cell_angle_alpha 90.000000
_cell_angle_beta 70.000000
_cell_angle_gamma 90.000000
_cell_volume 2740.143682
_symmetry_space_group_name_H-M "C 2/C"
_symmetry_group_IT_number 15
_symmetry_cell_setting 'monoclinic'
loop_
_space_group_symop_operation_xyz
x,y,z
-x,y,1/2-z
-x,-y,-z
x,-y,1/2+z
1/2+x,1/2+y,z
1/2-x,1/2+y,1/2-z
1/2-x,1/2-y,-z
1/2+x,1/2-y,1/2+z
loop_
_atom_site_type_symbol
_atom_site_label
_atom_site_fract_x
_atom_site_fract_y
_atom_site_fract_z
Si Si1 0.256972 0.343040 0.517114
Si Si2 0.785015 0.621553 0.109042
Si Si3 0.259628 0.467818 0.184559
Si Si4 0.500000 0.383793 0.250000
Si Si5 0.078648 0.673715 0.871786
Si Si6 0.793816 0.091650 0.547308
Si Si7 0.000000 0.946665 0.750000
Si Si8 0.567754 0.275275 0.578525
O O1 0.158501 0.325825 0.449069
O O2 0.444232 0.386248 0.480440
O O3 0.366120 0.297412 0.548665
O O4 0.056589 0.366269 0.591267
O O5 0.675061 0.588947 0.185553
O O6 0.666118 0.675597 0.108017
O O7 0.772383 0.592079 0.031969
O O8 0.415317 0.421472 0.195851
O O9 0.253876 0.458838 0.096864
O O10 0.374432 0.517402 0.204237
O O11 0.000000 0.463375 0.250000
O O12 0.713942 0.349372 0.200185
O O13 0.864919 0.634490 0.895680
O O14 0.009858 0.729864 0.860649
O O15 0.750000 0.250000 0.500000
#
# Coordination Sequence:
#
# PCOD9308795 Si02
#       8
#     8   8   8   4   8   8   4   8
#     4  10  19  36  65  87 129 166 205 251 304 364
#     4  10  24  43  62  89 131 166 218 258 307 380
#     4  11  23  42  69  90 121 165 208 268 336 370
#     4  11  22  36  60  98 134 154 198 269 324 382
#     4  11  20  34  59  97 133 160 207 251 318 370
#     4  10  20  38  67  96 121 159 211 265 308 383
#     4  11  28  48  62  88 126 170 210 271 326 378
#     4  11  20  36  62  95 126 171 212 247 301 378
#
# _framework density 10.218442
#
# number of rings (size 3 to 8) (size 9 to 14) (size 15 to 20)
#    0.000    1.429    7.143    0.429    0.000    2.857 
#    2.571    1.429    0.000    0.000    0.000    0.000 
#    0.000    0.000    0.000    0.000    0.000    0.000 
#
# Total GULP energy -156274.986824 kJ/mol
# GULP energy per Si atom -5581.249529 kJ/mol
# Density = 1.019518 g / cm^3
# Si number density = 10.218442 Si / 1000 Ang^3
#
#
#
# Elastic Constant Matrix: (Units=GPa)
#
#
# Indices 1 2 3 4 5 6 
#
# 1 75.2027 45.5273 30.8264 0.0000 -17.3916 0.0000
# 2 45.5273 125.2894 68.9722 0.0000 -20.9242 0.0000
# 3 30.8264 68.9722 85.2138 0.0000 -25.1801 0.0000
# 4 0.0000 0.0000 0.0000 32.7042 0.0000 -5.5781
# 5 -17.3916 -20.9242 -25.1801 0.0000 20.0300 0.0000
# 6 0.0000 0.0000 0.0000 -5.5781 0.0000 -2.7710
#
#
#
# Elastic Compliance Matrix: (Units=1/GPa)
#
#
# Indices 1 2 3 4 5 6 
#
# 1 0.018970 -0.005524 0.001226 0.000000 0.012242 0.000000
# 2 -0.005524 0.016009 -0.011829 0.000000 -0.002943 0.000000
# 3 0.001226 -0.011829 0.027890 0.000000 0.023767 0.000000
# 4 0.000000 0.000000 0.000000 0.022762 0.000000 -0.045820
# 5 0.012242 -0.002943 0.023767 0.000000 0.087359 0.000000
# 6 0.000000 0.000000 0.000000 -0.045820 0.000000 -0.268642
#
#
# Mechanical properties :
#
#
# Convention : Reuss Voigt Hill
#
# Bulk Modulus (GPa) = 32.66434 64.03976 48.35205
# Shear Modulus (GPa) = -93.99698 19.35131 -37.32283
#
# Velocity S-wave (km/s) = -6.78923 3.08048 -4.27810
# Velocity P-wave (km/s) = 6.74095 6.63746 0.83203
#
# Compressibility (1/GPa) = 0.03061443
#
# Stress axis : x y z
#
# Youngs Moduli (GPa) = 52.71491 62.46377 35.85556
#
# Poissons Ratio (x) = 0.34502 -0.04395
# Poissons Ratio (y) = 0.29117 0.42415
# Poissons Ratio (z) = -0.06461 0.73891
#
# Static dielectric constant tensor:
#      x y z
#    x 1.787260 0.000000 0.002320 
#    y 0.000000 1.721520 0.000000 
#    z 0.002320 0.000000 1.739010 
# 
# From -- ./inp_files/186147.got.cif
#   From: 2010.05.17/outbox.ucp.g08.bks.cvg/sg15_94_cif.got.tgz:186147.got - 2010.06.11 12:40:34.
