data_PCOD9308840
_publ_section_title
;
Structure prediction by ZEFSAII (Michael W. Deem and Ramdas Pophale) SiO2 
 PCOD9308840
Probable space group: C 2/C
;
_chemical_formula_sum "Si O2"
_cell_formula_units_Z 32
_cell_length_a 30.000000
_cell_length_b 15.000000
_cell_length_c 21.000000
_cell_angle_alpha 90.000000
_cell_angle_beta 160.000000
_cell_angle_gamma 90.000000
_cell_volume 3232.090354
_symmetry_space_group_name_H-M "C 2/C"
_symmetry_group_IT_number 15
_symmetry_cell_setting 'monoclinic'
loop_
_space_group_symop_operation_xyz
x,y,z
-x,y,1/2-z
-x,-y,-z
x,-y,1/2+z
1/2+x,1/2+y,z
1/2-x,1/2+y,1/2-z
1/2-x,1/2-y,-z
1/2+x,1/2-y,1/2+z
loop_
_atom_site_type_symbol
_atom_site_label
_atom_site_fract_x
_atom_site_fract_y
_atom_site_fract_z
Si Si1 0.450587 0.429919 0.114614
Si Si2 0.848533 0.402276 0.831822
Si Si3 0.997803 0.768894 0.955807
Si Si4 0.235840 0.164065 0.570026
Si Si5 0.611364 0.853859 0.847685
Si Si6 0.496132 0.634502 0.332597
Si Si7 0.604598 0.696726 0.736824
Si Si8 0.423950 0.006680 0.306828
O O1 0.500000 0.393594 0.250000
O O2 0.480961 0.533686 0.156548
O O3 0.544678 0.387852 0.190057
O O4 0.303276 0.412719 0.891135
O O5 0.916036 0.423376 0.854325
O O6 0.890915 0.304426 0.910843
O O7 0.929279 0.466134 0.989222
O O8 0.856474 0.728085 0.748821
O O9 0.007684 0.852621 0.922917
O O10 0.027800 0.789107 0.068769
O O11 0.143274 0.167766 0.382569
O O12 0.313162 0.068750 0.671931
O O13 0.122771 0.179676 0.470497
O O14 0.500000 0.858887 0.750000
O O15 0.586343 0.778869 0.760582
O O16 0.612494 0.944965 0.807846
O O17 0.741804 0.823544 0.059758
#
# Coordination Sequence:
#
# PCOD9308840 Si02
#       8
#     8   8   8   8   8   8   8   8
#     4  12  23  41  66  91 125 169 219 264 314 387
#     4  10  21  38  65  93 121 164 211 262 313 379
#     4  11  25  39  62  96 133 159 210 267 317 385
#     4  10  21  42  67  94 122 166 212 268 311 384
#     4  11  24  41  64  94 132 170 214 258 317 380
#     4  11  22  40  70  92 117 170 217 258 325 378
#     4  11  26  39  60  95 133 171 204 263 324 377
#     4  10  19  41  68  92 121 166 217 258 312 380
#
# _framework density 9.9007129999999997
#
# number of rings (size 3 to 8) (size 9 to 14) (size 15 to 20)
#    0.000    1.250    3.750    2.250    5.250    1.500 
#    0.000    1.250   11.000    0.000    0.000    0.000 
#    0.000    0.000    0.000    0.000    0.000    0.000 
#
# Total GULP energy -178227.384329 kJ/mol
# GULP energy per Si atom -5569.605760 kJ/mol
# Density = 0.987818 g / cm^3
# Si number density = 9.900713 Si / 1000 Ang^3
#
#
#
# Elastic Constant Matrix: (Units=GPa)
#
#
# Indices 1 2 3 4 5 6 
#
# 1 62.1972 17.6816 42.1147 0.0000 -11.2959 0.0000
# 2 17.6816 7.1785 8.0614 0.0000 -5.0739 0.0000
# 3 42.1147 8.0614 127.9536 0.0000 -23.2424 0.0000
# 4 0.0000 0.0000 0.0000 20.2216 0.0000 -16.2673
# 5 -11.2959 -5.0739 -23.2424 0.0000 24.7630 0.0000
# 6 0.0000 0.0000 0.0000 -16.2673 0.0000 29.8198
#
#
#
# Elastic Compliance Matrix: (Units=1/GPa)
#
#
# Indices 1 2 3 4 5 6 
#
# 1 0.074651 -0.177931 -0.016634 0.000000 -0.018017 0.000000
# 2 -0.177931 0.589760 0.034497 0.000000 0.072056 0.000000
# 3 -0.016634 0.034497 0.013288 0.000000 0.011953 0.000000
# 4 0.000000 0.000000 0.000000 0.088125 0.000000 0.048074
# 5 -0.018017 0.072056 0.011953 0.000000 0.058147 0.000000
# 6 0.000000 0.000000 0.000000 0.048074 0.000000 0.059760
#
#
# Mechanical properties :
#
#
# Convention : Reuss Voigt Hill
#
# Bulk Modulus (GPa) = 2.79670 37.00498 19.90084
# Shear Modulus (GPa) = 3.77913 23.59234 13.68574
#
# Velocity S-wave (km/s) = 1.38299 3.45548 2.63182
# Velocity P-wave (km/s) = 1.99139 5.88634 4.39401
#
# Compressibility (1/GPa) = 0.35756384
#
# Stress axis : x y z
#
# Youngs Moduli (GPa) = 13.39562 1.69561 75.25637
#
# Poissons Ratio (x) = 0.30170 1.25178
# Poissons Ratio (y) = 2.38349 -2.59610
# Poissons Ratio (z) = 0.22282 -0.05849
#
# Static dielectric constant tensor:
#      x y z
#    x 1.713340 0.000000 -0.006390 
#    y 0.000000 1.757150 0.000000 
#    z -0.006390 0.000000 1.711050 
# 
# From -- ./inp_files/259458.got.cif
#   From: 2010.05.17/outbox.ucp.g08.bks.cvg/sg15_130_cif.got.tgz:259458.got - 2010.06.11 12:40:34.
