data_PCOD9308987
_publ_section_title
;
Structure prediction by ZEFSAII (Michael W. Deem and Ramdas Pophale) SiO2 
 PCOD9308987
Probable space group: C 2/C
;
_chemical_formula_sum "Si O2"
_cell_formula_units_Z 32
_cell_length_a 18.000000
_cell_length_b 6.000000
_cell_length_c 30.000000
_cell_angle_alpha 90.000000
_cell_angle_beta 90.000000
_cell_angle_gamma 90.000000
_cell_volume 3240.000000
_symmetry_space_group_name_H-M "C 2/C"
_symmetry_group_IT_number 15
_symmetry_cell_setting 'monoclinic'
loop_
_space_group_symop_operation_xyz
x,y,z
-x,y,1/2-z
-x,-y,-z
x,-y,1/2+z
1/2+x,1/2+y,z
1/2-x,1/2+y,1/2-z
1/2-x,1/2-y,-z
1/2+x,1/2-y,1/2+z
loop_
_atom_site_type_symbol
_atom_site_label
_atom_site_fract_x
_atom_site_fract_y
_atom_site_fract_z
Si Si1 0.613652 0.066488 0.588707
Si Si2 0.361052 0.132690 0.597078
Si Si3 0.045967 0.964516 0.544342
Si Si4 0.509903 0.213429 0.378108
Si Si5 0.761861 0.844981 0.858828
Si Si6 0.663141 0.241835 0.006191
Si Si7 0.374543 0.524239 0.670505
Si Si8 0.788537 0.947691 0.758494
O O1 0.552615 0.225756 0.566155
O O2 0.677311 0.208619 0.613032
O O3 0.567974 0.920211 0.625001
O O4 0.644074 0.933138 0.545671
O O5 0.365515 0.198508 0.544628
O O6 0.374184 0.328062 0.633423
O O7 0.424176 0.949031 0.606058
O O8 0.280139 0.029736 0.610740
O O9 0.127756 0.036860 0.527608
O O10 0.010365 0.119515 0.581932
O O11 0.000000 0.000000 0.500000
O O12 0.547443 0.345421 0.336950
O O13 0.694486 0.682403 0.843822
O O14 0.797744 0.936117 0.812494
O O15 0.750000 0.250000 0.000000
O O16 0.354907 0.453792 0.721391
O O17 0.749630 0.198342 0.751681
#
# Coordination Sequence:
#
# PCOD9308987 Si02
#       8
#     8   8   8   8   8   8   8   8
#     4  11  23  39  57  87 130 167 207 260 329 388
#     4  11  20  37  60  86 120 161 212 261 317 379
#     4  11  22  38  56  80 118 167 215 254 305 382
#     4  10  22  37  58  86 116 165 207 252 310 386
#     4  10  22  37  61  94 122 159 206 273 335 390
#     4  11  23  35  55  87 122 159 206 260 318 379
#     4  10  20  37  65  92 120 155 215 268 325 396
#     4  10  20  40  66 104 127 161 212 278 339 397
#
# _framework density 9.8765429999999999
#
# number of rings (size 3 to 8) (size 9 to 14) (size 15 to 20)
#    0.000    1.500    1.250    4.500    0.000    7.000 
#    0.000    0.000    0.000    4.500    0.000    0.000 
#    0.000    0.000    0.000    0.000    0.000    0.000 
#
# Total GULP energy -178281.093474 kJ/mol
# GULP energy per Si atom -5571.284171 kJ/mol
# Density = 0.985406 g / cm^3
# Si number density = 9.876543 Si / 1000 Ang^3
#
#
#
# Elastic Constant Matrix: (Units=GPa)
#
#
# Indices 1 2 3 4 5 6 
#
# 1 93.8556 30.5871 35.7858 0.0000 -36.4525 0.0000
# 2 30.5871 72.3325 22.0878 0.0000 -20.1826 0.0000
# 3 35.7858 22.0878 115.3322 0.0000 -41.2489 0.0000
# 4 0.0000 0.0000 0.0000 26.5850 0.0000 -7.5234
# 5 -36.4525 -20.1826 -41.2489 0.0000 39.8151 0.0000
# 6 0.0000 0.0000 0.0000 -7.5234 0.0000 33.2778
#
#
#
# Elastic Compliance Matrix: (Units=1/GPa)
#
#
# Indices 1 2 3 4 5 6 
#
# 1 0.017226 -0.003369 0.000524 0.000000 0.014606 0.000000
# 2 -0.003369 0.016766 -0.000364 0.000000 0.005038 0.000000
# 3 0.000524 -0.000364 0.013795 0.000000 0.014587 0.000000
# 4 0.000000 0.000000 0.000000 0.040186 0.000000 0.009085
# 5 0.014606 0.005038 0.014587 0.000000 0.056155 0.000000
# 6 0.000000 0.000000 0.000000 0.009085 0.000000 0.032104
#
#
# Mechanical properties :
#
#
# Convention : Reuss Voigt Hill
#
# Bulk Modulus (GPa) = 24.17222 50.93797 37.55510
# Shear Modulus (GPa) = 25.45328 32.80622 29.12975
#
# Velocity S-wave (km/s) = 3.59356 4.07973 3.84434
# Velocity P-wave (km/s) = 5.42973 6.93077 6.22566
#
# Compressibility (1/GPa) = 0.04136981
#
# Stress axis : x y z
#
# Youngs Moduli (GPa) = 58.05341 59.64325 72.49155
#
# Poissons Ratio (x) = 0.20092 -0.03801
# Poissons Ratio (y) = 0.19556 0.02639
# Poissons Ratio (z) = -0.03044 0.02171
#
# Static dielectric constant tensor:
#      x y z
#    x 1.701220 0.000000 -0.005540 
#    y 0.000000 1.769970 0.000000 
#    z -0.005540 0.000000 1.666270 
# 
# From -- ./inp_files/315087.got.cif
#   From: 2010.05.17/outbox.ucp.g08.bks.cvg/sg15_158_cif.got.tgz:315087.got - 2010.06.11 12:40:34.
