data_PCOD9308379
_publ_section_title
;
Structure prediction by ZEFSAII (Michael W. Deem and Ramdas Pophale) SiO2 
 PCOD9308379
Probable space group: C 2/C
;
_chemical_formula_sum "Si O2"
_cell_formula_units_Z 28
_cell_length_a 15.571563
_cell_length_b 5.095279
_cell_length_c 18.286641
_cell_angle_alpha 90.000000
_cell_angle_beta 52.867645
_cell_angle_gamma 90.000000
_cell_volume 1156.711152
_symmetry_space_group_name_H-M "C 2/C"
_symmetry_group_IT_number 15
_symmetry_cell_setting 'monoclinic'
loop_
_space_group_symop_operation_xyz
x,y,z
-x,y,1/2-z
-x,-y,-z
x,-y,1/2+z
1/2+x,1/2+y,z
1/2-x,1/2+y,1/2-z
1/2-x,1/2-y,-z
1/2+x,1/2-y,1/2+z
loop_
_atom_site_type_symbol
_atom_site_label
_atom_site_fract_x
_atom_site_fract_y
_atom_site_fract_z
Si Si1 0.028921 0.474832 0.656356
Si Si2 0.750000 0.750000 0.500000
Si Si3 0.402694 0.358621 0.007952
Si Si4 0.185221 0.373178 0.805312
O O1 0.135430 0.300331 0.603029
O O2 0.053694 0.691183 0.582103
O O3 0.000000 0.588252 0.750000
O O4 0.924926 0.319020 0.681428
O O5 0.685393 0.559364 0.475755
O O6 0.343510 0.160795 0.094654
O O7 0.500000 0.500000 0.000000
O O8 0.226954 0.660212 0.763618
#
# Coordination Sequence:
#
# PCOD9308379 Si02
#       4
#     8   4   8   8
#     4  12  29  51  83 124 173 223 290 364 432 526
#     4  12  28  50  84 122 166 220 288 356 432 514
#     4  12  27  55  84 120 174 224 292 356 440 515
#     4  12  28  52  88 126 171 234 289 354 445 527
#
# _framework density 24.206562000000002
#
# number of rings (size 3 to 8) (size 9 to 14) (size 15 to 20)
#    0.000    0.000    2.857    5.143    8.000    1.143 
#    5.143    0.000    0.000    0.000    0.000    0.000 
#    0.000    0.000    0.000    0.000    0.000    0.000 
#
# Total GULP energy -78037.903024 kJ/mol
# GULP energy per Si atom -5574.135930 kJ/mol
# Density = 2.415147 g / cm^3
# Si number density = 24.206562 Si / 1000 Ang^3
#
#
#
# Elastic Constant Matrix: (Units=GPa)
#
#
# Indices 1 2 3 4 5 6 
#
# 1 92.4982 -5.9350 56.0082 0.0079 -22.7334 0.0282
# 2 -5.9350 22.3641 18.4271 0.0305 17.1093 0.0316
# 3 56.0082 18.4271 187.3168 -0.0011 27.9426 0.0019
# 4 0.0079 0.0305 -0.0011 45.9667 -0.0011 13.5557
# 5 -22.7334 17.1093 27.9426 -0.0011 51.2974 0.0029
# 6 0.0282 0.0316 0.0019 13.5557 0.0029 26.0145
#
#
#
# Elastic Compliance Matrix: (Units=1/GPa)
#
#
# Indices 1 2 3 4 5 6 
#
# 1 0.018180 0.002216 -0.007342 0.000003 0.011317 -0.000025
# 2 0.002216 0.062092 -0.004167 -0.000023 -0.017458 -0.000063
# 3 -0.007342 -0.004167 0.008949 0.000000 -0.006739 0.000013
# 4 0.000003 -0.000023 0.000000 0.025705 0.000010 -0.013394
# 5 0.011317 -0.017458 -0.006739 0.000010 0.034003 0.000000
# 6 -0.000025 -0.000063 0.000013 -0.013394 0.000000 0.045420
#
#
# Mechanical properties :
#
#
# Convention : Reuss Voigt Hill
#
# Bulk Modulus (GPa) = 14.15708 48.79777 31.47743
# Shear Modulus (GPa) = 21.14348 40.23429 30.68888
#
# Velocity S-wave (km/s) = 2.95864 4.08134 3.56447
# Velocity P-wave (km/s) = 4.18719 6.51248 5.47471
#
# Compressibility (1/GPa) = 0.07063603
#
# Stress axis : x y z
#
# Youngs Moduli (GPa) = 55.00402 16.10523 111.74354
#
# Poissons Ratio (x) = -0.03570 0.82045
# Poissons Ratio (y) = -0.12191 0.46560
# Poissons Ratio (z) = 0.40385 0.06711
#
# Static dielectric constant tensor:
#      x y z
#    x 1.939290 -0.000010 0.007880 
#    y -0.000010 1.983150 0.000000 
#    z 0.007880 0.000000 1.945180 
# 
# From -- ./inp_files/201792.got.cif
#   From: 2010.05.17/outbox.cif.g08.bks.cpg/sg15_101_cif.got.tgz:201792.got - 2010.06.03 18:47:42.
