data_PCOD9308797
_publ_section_title
;
Structure prediction by ZEFSAII (Michael W. Deem and Ramdas Pophale) SiO2 
 PCOD9308797
Probable space group: C 2/C
;
_chemical_formula_sum "Si O2"
_cell_formula_units_Z 24
_cell_length_a 12.000000
_cell_length_b 21.000000
_cell_length_c 12.000000
_cell_angle_alpha 90.000000
_cell_angle_beta 80.000000
_cell_angle_gamma 90.000000
_cell_volume 2978.058645
_symmetry_space_group_name_H-M "C 2/C"
_symmetry_group_IT_number 15
_symmetry_cell_setting 'monoclinic'
loop_
_space_group_symop_operation_xyz
x,y,z
-x,y,1/2-z
-x,-y,-z
x,-y,1/2+z
1/2+x,1/2+y,z
1/2-x,1/2+y,1/2-z
1/2-x,1/2-y,-z
1/2+x,1/2-y,1/2+z
loop_
_atom_site_type_symbol
_atom_site_label
_atom_site_fract_x
_atom_site_fract_y
_atom_site_fract_z
Si Si1 0.824296 0.082534 0.330791
Si Si2 0.616805 0.561505 0.657515
Si Si3 0.930070 0.254730 0.999841
Si Si4 0.718648 0.702195 0.675426
Si Si5 0.310756 0.214003 0.093745
Si Si6 0.445152 0.609937 0.078661
O O1 0.737344 0.141146 0.377877
O O2 0.859996 0.094844 0.195569
O O3 0.932042 0.092879 0.393533
O O4 0.810198 0.004540 0.343235
O O5 0.500000 0.553641 0.750000
O O6 0.677200 0.627941 0.687710
O O7 0.585171 0.574457 0.532320
O O8 0.866049 0.239264 0.894656
O O9 0.053627 0.284767 0.955125
O O10 0.842453 0.293084 0.094705
O O11 0.945042 0.185244 0.053288
O O12 0.713350 0.741132 0.792911
O O13 0.250000 0.250000 0.000000
#
# Coordination Sequence:
#
# PCOD9308797 Si02
#       6
#     8   8   8   8   8   8
#     4  11  22  34  57  89 119 149 189 245 300 345
#     4  11  22  35  59  85 118 156 195 242 289 350
#     4  10  20  39  60  82 113 153 199 239 282 349
#     4  10  22  38  58  84 114 155 198 239 284 342
#     4  12  23  35  60  89 119 150 193 245 300 349
#     4  10  19  37  57  82 119 151 188 242 295 341
#
# _framework density 8.0589410000000008
#
# number of rings (size 3 to 8) (size 9 to 14) (size 15 to 20)
#    0.000    1.333    5.000    3.000    0.000    0.667 
#    0.000    0.833    0.000    0.000    4.333    0.000 
#    0.000    0.000    0.000    0.000    0.000    0.000 
#
# Total GULP energy -133774.737888 kJ/mol
# GULP energy per Si atom -5573.947412 kJ/mol
# Density = 0.804060 g / cm^3
# Si number density = 8.058941 Si / 1000 Ang^3
#
#
#
# Elastic Constant Matrix: (Units=GPa)
#
#
# Indices 1 2 3 4 5 6 
#
# 1 99.8489 45.7141 44.6622 0.0000 -19.7094 0.0000
# 2 45.7141 147.2887 48.9756 0.0000 -11.8821 0.0000
# 3 44.6622 48.9756 119.1503 0.0000 0.5757 0.0000
# 4 0.0000 0.0000 0.0000 29.9773 0.0000 -2.6824
# 5 -19.7094 -11.8821 0.5757 0.0000 30.9278 0.0000
# 6 0.0000 0.0000 0.0000 -2.6824 0.0000 35.2221
#
#
#
# Elastic Compliance Matrix: (Units=1/GPa)
#
#
# Indices 1 2 3 4 5 6 
#
# 1 0.014892 -0.002378 -0.004647 0.000000 0.008663 0.000000
# 2 -0.002378 0.008549 -0.002631 0.000000 0.001818 0.000000
# 3 -0.004647 -0.002631 0.011236 0.000000 -0.004181 0.000000
# 4 0.000000 0.000000 0.000000 0.033587 0.000000 0.002558
# 5 0.008663 0.001818 -0.004181 0.000000 0.038630 0.000000
# 6 0.000000 0.000000 0.000000 0.002558 0.000000 0.028586
#
#
# Mechanical properties :
#
#
# Convention : Reuss Voigt Hill
#
# Bulk Modulus (GPa) = 65.08089 71.66576 68.37333
# Shear Modulus (GPa) = 31.26640 34.35451 32.81045
#
# Velocity S-wave (km/s) = 4.40916 4.62177 4.51672
# Velocity P-wave (km/s) = 8.14780 8.54641 8.34948
#
# Compressibility (1/GPa) = 0.01536549
#
# Stress axis : x y z
#
# Youngs Moduli (GPa) = 67.14813 116.97079 88.99736
#
# Poissons Ratio (x) = 0.27818 0.41353
# Poissons Ratio (y) = 0.15969 0.23419
# Poissons Ratio (z) = 0.31201 0.30779
#
# Static dielectric constant tensor:
#      x y z
#    x 1.548020 0.000000 -0.000210 
#    y 0.000000 1.556840 0.000000 
#    z -0.000210 0.000000 1.552580 
# 
# From -- ./inp_files/87258.got.cif
#   From: 2010.05.17/outbox.ucp.g08.bks.cvg/sg15_44_cif.got.tgz:87258.got - 2010.06.11 12:40:34.
