data_PCOD9308352
_publ_section_title
;
Structure prediction by ZEFSAII (Michael W. Deem and Ramdas Pophale) SiO2 
 PCOD9308352
Probable space group: C 2/C
;
_chemical_formula_sum "Si O2"
_cell_formula_units_Z 36
_cell_length_a 20.215667
_cell_length_b 5.773242
_cell_length_c 24.244615
_cell_angle_alpha 90.000000
_cell_angle_beta 33.694386
_cell_angle_gamma 90.000000
_cell_volume 1569.750193
_symmetry_space_group_name_H-M "C 2/C"
_symmetry_group_IT_number 15
_symmetry_cell_setting 'monoclinic'
loop_
_space_group_symop_operation_xyz
x,y,z
-x,y,1/2-z
-x,-y,-z
x,-y,1/2+z
1/2+x,1/2+y,z
1/2-x,1/2+y,1/2-z
1/2-x,1/2-y,-z
1/2+x,1/2-y,1/2+z
loop_
_atom_site_type_symbol
_atom_site_label
_atom_site_fract_x
_atom_site_fract_y
_atom_site_fract_z
Si Si1 0.754616 0.208597 0.891422
Si Si2 0.292785 0.582697 0.745306
Si Si3 0.867243 0.624926 0.943591
Si Si4 0.041448 0.975119 0.534285
Si Si5 0.000000 0.573401 0.250000
O O1 0.750689 0.063947 0.837815
O O2 0.889380 0.269344 0.810037
O O3 0.676339 0.435712 0.937381
O O4 0.690347 0.096637 0.987923
O O5 0.259829 0.331258 0.740523
O O6 0.436066 0.608544 0.639951
O O7 0.940923 0.744857 0.941983
O O8 0.956095 0.577008 0.831933
O O9 0.750000 0.750000 0.000000
O O10 0.000000 0.000000 0.500000
#
# Coordination Sequence:
#
# PCOD9308352 Si02
#       5
#     8   8   8   8   4
#     4  12  28  49  76 115 163 209 278 342 412 496
#     4  12  29  49  83 119 164 218 275 338 423 498
#     4  12  29  49  79 113 162 211 276 344 413 497
#     4  12  27  50  79 115 161 212 273 345 415 494
#     4  12  28  50  78 114 160 224 276 336 428 498
#
# _framework density 22.933586999999999
#
# number of rings (size 3 to 8) (size 9 to 14) (size 15 to 20)
#    0.000    0.000    4.444    3.333   12.444    1.778 
#    0.000    0.000    0.000    0.000    0.000    0.000 
#    0.000    0.000    0.000    0.000    0.000    0.000 
#
# Total GULP energy -100515.173502 kJ/mol
# GULP energy per Si atom -5584.176306 kJ/mol
# Density = 2.288139 g / cm^3
# Si number density = 22.933587 Si / 1000 Ang^3
#
#
#
# Elastic Constant Matrix: (Units=GPa)
#
#
# Indices 1 2 3 4 5 6 
#
# 1 125.8640 60.4447 50.2180 -0.0070 11.0584 -0.0018
# 2 60.4447 77.8428 33.5055 0.0296 -3.5362 0.0158
# 3 50.2180 33.5055 164.3031 0.0110 12.2734 0.0034
# 4 -0.0070 0.0296 0.0110 27.3742 -0.0011 -22.9405
# 5 11.0584 -3.5362 12.2734 -0.0011 56.4131 0.0097
# 6 -0.0018 0.0158 0.0034 -22.9405 0.0097 16.2190
#
#
#
# Elastic Compliance Matrix: (Units=1/GPa)
#
#
# Indices 1 2 3 4 5 6 
#
# 1 0.013777 -0.009987 -0.001958 -0.000142 -0.002901 -0.000187
# 2 -0.009987 0.021453 -0.001595 0.000243 0.003649 0.000319
# 3 -0.001958 -0.001595 0.007104 0.000006 -0.001262 0.000010
# 4 -0.000142 0.000243 0.000006 -0.197106 0.000085 -0.278792
# 5 -0.002901 0.003649 -0.001262 0.000085 0.018798 0.000106
# 6 -0.000187 0.000319 0.000010 -0.278792 0.000106 -0.332673
#
#
# Mechanical properties :
#
#
# Convention : Reuss Voigt Hill
#
# Bulk Modulus (GPa) = 65.55033 72.92738 69.23885
# Shear Modulus (GPa) = -11.45523 34.92404 11.73441
#
# Velocity S-wave (km/s) = -2.23736 3.90658 2.26446
# Velocity P-wave (km/s) = 4.68725 7.22613 6.09045
#
# Compressibility (1/GPa) = 0.01525545
#
# Stress axis : x y z
#
# Youngs Moduli (GPa) = 72.58418 46.61254 140.76245
#
# Poissons Ratio (x) = 0.46552 0.27555
# Poissons Ratio (y) = 0.72490 0.22453
# Poissons Ratio (z) = 0.14209 0.07435
#
# Static dielectric constant tensor:
#      x y z
#    x 1.359300 -0.000030 0.135960 
#    y -0.000030 1.798820 0.000000 
#    z 0.135960 0.000000 1.770600 
# 
# From -- ./inp_files/115699.got.cif
#   From: 2010.05.17/outbox.cif.g08.bks.cpg/sg15_58_cif.got.tgz:115699.got - 2010.06.03 18:47:42.
