data_PCOD9308543
_publ_section_title
;
Structure prediction by ZEFSAII (Michael W. Deem and Ramdas Pophale) SiO2 
 PCOD9308543
Probable space group: C 2/C
;
_chemical_formula_sum "Si O2"
_cell_formula_units_Z 52
_cell_length_a 18.187948
_cell_length_b 17.581754
_cell_length_c 15.635417
_cell_angle_alpha 90.000000
_cell_angle_beta 151.734213
_cell_angle_gamma 90.000000
_cell_volume 2367.732050
_symmetry_space_group_name_H-M "C 2/C"
_symmetry_group_IT_number 15
_symmetry_cell_setting 'monoclinic'
loop_
_space_group_symop_operation_xyz
x,y,z
-x,y,1/2-z
-x,-y,-z
x,-y,1/2+z
1/2+x,1/2+y,z
1/2-x,1/2+y,1/2-z
1/2-x,1/2-y,-z
1/2+x,1/2-y,1/2+z
loop_
_atom_site_type_symbol
_atom_site_label
_atom_site_fract_x
_atom_site_fract_y
_atom_site_fract_z
Si Si1 0.109452 0.237540 0.002182
Si Si2 0.591441 0.136399 0.163447
Si Si3 0.000000 0.660865 0.250000
Si Si4 0.735345 0.349040 0.928411
Si Si5 0.381965 0.696629 0.022603
Si Si6 0.735852 0.462725 0.786331
Si Si7 0.580265 0.616639 0.611423
O O1 0.050537 0.306564 0.002564
O O2 0.977171 0.171921 0.872001
O O3 0.114556 0.281129 0.917331
O O4 0.262045 0.193854 0.185622
O O5 0.569589 0.114736 0.241413
O O6 0.631760 0.068243 0.141825
O O7 0.728887 0.348468 0.024205
O O8 0.561201 0.321324 0.726595
O O9 0.762745 0.426675 0.906881
O O10 0.847392 0.284544 0.005606
O O11 0.360416 0.668046 0.905334
O O12 0.704161 0.551941 0.760134
O O13 0.575764 0.425870 0.584024
#
# Coordination Sequence:
#
# PCOD9308543 Si02
#       7
#     8   8   4   8   8   8   8
#     4   9  17  29  48  71  94 123 162 205 241 292
#     4   9  17  29  49  69  94 125 163 203 241 292
#     4   8  18  28  48  72  92 122 160 204 240 288
#     4   9  17  30  51  75  97 122 167 205 247 285
#     4   9  17  30  51  75  95 126 162 209 243 291
#     4   9  17  30  47  71 100 131 160 199 247 300
#     4   9  17  30  47  71 100 129 161 196 252 296
#
# _framework density 21.961945
#
# number of rings (size 3 to 8) (size 9 to 14) (size 15 to 20)
#    0.923    2.154    0.000    1.385    0.000    0.000 
#    0.000    6.154    0.000    7.385    0.000    0.000 
#    0.000    0.000    0.000    0.000    0.000    0.000 
#
# Total GULP energy -144866.912115 kJ/mol
# GULP energy per Si atom -5571.804312 kJ/mol
# Density = 2.191196 g / cm^3
# Si number density = 21.961945 Si / 1000 Ang^3
#
#
#
# Elastic Constant Matrix: (Units=GPa)
#
#
# Indices 1 2 3 4 5 6 
#
# 1 83.6149 20.5523 14.1609 0.0000 19.0184 0.0000
# 2 20.5523 32.3241 6.7888 0.0000 10.6335 0.0000
# 3 14.1609 6.7888 35.0667 0.0000 7.4888 0.0000
# 4 0.0000 0.0000 0.0000 27.4946 0.0000 0.7101
# 5 19.0184 10.6335 7.4888 0.0000 17.4888 0.0000
# 6 0.0000 0.0000 0.0000 0.7101 0.0000 12.2385
#
#
#
# Elastic Compliance Matrix: (Units=1/GPa)
#
#
# Indices 1 2 3 4 5 6 
#
# 1 0.016966 -0.005655 -0.002807 0.000000 -0.013809 0.000000
# 2 -0.005655 0.040792 -0.001794 0.000000 -0.017885 0.000000
# 3 -0.002807 -0.001794 0.032043 0.000000 -0.009577 0.000000
# 4 0.000000 0.000000 0.000000 0.036425 0.000000 -0.002113
# 5 -0.013809 -0.017885 -0.009577 0.000000 0.087172 0.000000
# 6 0.000000 0.000000 0.000000 -0.002113 0.000000 0.081832
#
#
# Mechanical properties :
#
#
# Convention : Reuss Voigt Hill
#
# Bulk Modulus (GPa) = 14.43235 26.00107 20.21671
# Shear Modulus (GPa) = 14.75620 18.74462 16.75041
#
# Velocity S-wave (km/s) = 2.59491 2.92465 2.76470
# Velocity P-wave (km/s) = 3.94511 4.82386 4.40644
#
# Compressibility (1/GPa) = 0.06928881
#
# Stress axis : x y z
#
# Youngs Moduli (GPa) = 58.94139 24.51436 31.20759
#
# Poissons Ratio (x) = 0.13863 0.08761
# Poissons Ratio (y) = 0.33330 0.05599
# Poissons Ratio (z) = 0.16548 0.04398
#
# Static dielectric constant tensor:
#      x y z
#    x 1.849510 0.000000 0.016110 
#    y 0.000000 1.790580 0.000000 
#    z 0.016110 0.000000 1.863830 
# 
# From -- ./inp_files/252971.got.cif
#   From: 2010.05.17/outbox.cif.g08.bks.cpg/sg15_127_cif.got.tgz:252971.got - 2010.06.03 18:47:42.
