data_PCOD9308307
_publ_section_title
;
Structure prediction by ZEFSAII (Michael W. Deem and Ramdas Pophale) SiO2 
 PCOD9308307
Probable space group: C 2/C
;
_chemical_formula_sum "Si O2"
_cell_formula_units_Z 36
_cell_length_a 11.301791
_cell_length_b 12.107236
_cell_length_c 10.412167
_cell_angle_alpha 90.000000
_cell_angle_beta 100.208933
_cell_angle_gamma 90.000000
_cell_volume 1402.176354
_symmetry_space_group_name_H-M "C 2/C"
_symmetry_group_IT_number 15
_symmetry_cell_setting 'monoclinic'
loop_
_space_group_symop_operation_xyz
x,y,z
-x,y,1/2-z
-x,-y,-z
x,-y,1/2+z
1/2+x,1/2+y,z
1/2-x,1/2+y,1/2-z
1/2-x,1/2-y,-z
1/2+x,1/2-y,1/2+z
loop_
_atom_site_type_symbol
_atom_site_label
_atom_site_fract_x
_atom_site_fract_y
_atom_site_fract_z
Si Si1 0.304075 0.450922 0.081205
Si Si2 0.000000 0.902597 0.750000
Si Si3 0.391346 0.216569 0.556755
Si Si4 0.185390 0.491381 0.308003
Si Si5 0.076031 0.723416 0.374882
O O1 0.393520 0.514219 0.194650
O O2 0.191621 0.466571 0.156226
O O3 0.336307 0.322928 0.068329
O O4 0.294726 0.504240 0.937790
O O5 0.970149 0.816223 0.630932
O O6 0.250000 0.250000 0.500000
O O7 0.384245 0.113209 0.649452
O O8 0.473846 0.185781 0.453228
O O9 0.135652 0.613861 0.327094
O O10 0.000000 0.781710 0.250000
#
# Coordination Sequence:
#
# PCOD9308307 Si02
#       5
#     8   4   8   8   8
#     4  12  27  50  79 110 157 204 263 316 387 472
#     4  12  28  46  78 108 154 202 264 300 394 456
#     4  12  27  49  77 111 159 203 259 319 386 464
#     4  12  28  48  79 114 154 200 255 329 389 453
#     4  12  27  47  76 113 155 201 259 318 390 459
#
# _framework density 25.674375000000001
#
# number of rings (size 3 to 8) (size 9 to 14) (size 15 to 20)
#    0.000    0.000    3.333    5.333    7.778    1.778 
#    0.000    0.000    0.000    0.000    0.000    0.000 
#    0.000    0.000    0.000    0.000    0.000    0.000 
#
# Total GULP energy -100262.753904 kJ/mol
# GULP energy per Si atom -5570.152995 kJ/mol
# Density = 2.561594 g / cm^3
# Si number density = 25.674375 Si / 1000 Ang^3
#
#
#
# Elastic Constant Matrix: (Units=GPa)
#
#
# Indices 1 2 3 4 5 6 
#
# 1 50.8855 29.5173 33.8298 0.0000 3.5482 0.0000
# 2 29.5173 139.3105 -5.4653 0.0000 1.4333 0.0000
# 3 33.8298 -5.4653 96.2404 0.0000 19.8044 0.0000
# 4 0.0000 0.0000 0.0000 30.4165 0.0000 29.4626
# 5 3.5482 1.4333 19.8044 0.0000 34.7089 0.0000
# 6 0.0000 0.0000 0.0000 29.4626 0.0000 20.4351
#
#
#
# Elastic Compliance Matrix: (Units=1/GPa)
#
#
# Indices 1 2 3 4 5 6 
#
# 1 0.031885 -0.007288 -0.012478 0.000000 0.004161 0.000000
# 2 -0.007288 0.008871 0.003385 0.000000 -0.001553 0.000000
# 3 -0.012478 0.003385 0.016696 0.000000 -0.008391 0.000000
# 4 0.000000 0.000000 0.000000 -0.082907 0.000000 0.119533
# 5 0.004161 -0.001553 -0.008391 0.000000 0.033237 0.000000
# 6 0.000000 0.000000 0.000000 0.119533 0.000000 -0.123403
#
#
# Mechanical properties :
#
#
# Convention : Reuss Voigt Hill
#
# Bulk Modulus (GPa) = 40.50279 44.68892 42.59585
# Shear Modulus (GPa) = -66.99952 32.34908 -17.32522
#
# Velocity S-wave (km/s) = -5.11395 3.55346 -2.60052
# Velocity P-wave (km/s) = 4.36580 5.85491 2.75860
#
# Compressibility (1/GPa) = 0.02468966
#
# Stress axis : x y z
#
# Youngs Moduli (GPa) = 31.36228 112.72369 59.89517
#
# Poissons Ratio (x) = 0.82156 0.74740
# Poissons Ratio (y) = 0.22858 -0.20276
# Poissons Ratio (z) = 0.39135 -0.38160
#
# Static dielectric constant tensor:
#      x y z
#    x 2.229480 0.000000 -0.035830 
#    y 0.000000 1.969200 0.000000 
#    z -0.035830 0.000000 2.171740 
# 
# From -- ./inp_files/84486.got.cif
#   From: 2010.05.17/outbox.cif.g08.bks.cpg/sg15_43_cif.got.tgz:84486.got - 2010.06.03 18:47:42.
