data_PCOD9308753
_publ_section_title
;
Structure prediction by ZEFSAII (Michael W. Deem and Ramdas Pophale) SiO2 
 PCOD9308753
Probable space group: C 2/C
;
_chemical_formula_sum "Si O2"
_cell_formula_units_Z 32
_cell_length_a 15.000000
_cell_length_b 18.000000
_cell_length_c 24.000000
_cell_angle_alpha 90.000000
_cell_angle_beta 30.000000
_cell_angle_gamma 90.000000
_cell_volume 3240.000000
_symmetry_space_group_name_H-M "C 2/C"
_symmetry_group_IT_number 15
_symmetry_cell_setting 'monoclinic'
loop_
_space_group_symop_operation_xyz
x,y,z
-x,y,1/2-z
-x,-y,-z
x,-y,1/2+z
1/2+x,1/2+y,z
1/2-x,1/2+y,1/2-z
1/2-x,1/2-y,-z
1/2+x,1/2-y,1/2+z
loop_
_atom_site_type_symbol
_atom_site_label
_atom_site_fract_x
_atom_site_fract_y
_atom_site_fract_z
Si Si1 0.530124 0.878053 0.298783
Si Si2 0.704689 0.653847 0.057286
Si Si3 0.742372 0.970152 0.341959
Si Si4 0.635822 0.487918 0.097090
Si Si5 0.019178 0.328072 0.463953
Si Si6 0.381197 0.256076 0.690459
Si Si7 0.953732 0.456978 0.840083
Si Si8 0.098031 0.378021 0.865842
O O1 0.500000 0.864111 0.250000
O O2 0.351688 0.863670 0.430829
O O3 0.666707 0.818919 0.250194
O O4 0.561680 0.965412 0.288908
O O5 0.604934 0.576221 0.118255
O O6 0.572157 0.716706 0.109502
O O7 0.814469 0.672403 0.053711
O O8 0.764180 0.970041 0.398006
O O9 0.608069 0.905356 0.396888
O O10 0.937178 0.955038 0.209821
O O11 0.661011 0.047650 0.364227
O O12 0.754976 0.471174 0.976790
O O13 0.031009 0.331578 0.523470
O O14 0.109201 0.263626 0.379793
O O15 0.259034 0.323768 0.769237
O O16 0.000000 0.437848 0.750000
O O17 0.025910 0.398237 0.844694
#
# Coordination Sequence:
#
# PCOD9308753 Si02
#       8
#     8   8   8   8   8   8   8   8
#     4   9  19  32  56  81 121 161 190 232 302 377
#     4  10  19  35  52  86 130 159 193 236 307 372
#     4  11  20  35  64  99 125 153 217 257 301 360
#     4  10  19  35  62  98 124 156 202 264 304 352
#     4  11  22  37  58  89 129 162 203 253 302 374
#     4  11  24  34  54  93 129 160 195 246 310 375
#     4  10  22  43  64  88 119 167 210 252 317 369
#     4  12  22  37  65  88 120 166 205 259 305 365
#
# _framework density 9.8765429999999999
#
# number of rings (size 3 to 8) (size 9 to 14) (size 15 to 20)
#    0.000    1.500    3.750    4.125    3.500    0.000 
#    0.000    1.875    2.750    1.500    0.000    0.000 
#    0.000    0.000    0.000    0.000    0.000    0.000 
#
# Total GULP energy -178176.248038 kJ/mol
# GULP energy per Si atom -5568.007751 kJ/mol
# Density = 0.985406 g / cm^3
# Si number density = 9.876543 Si / 1000 Ang^3
#
#
#
# Elastic Constant Matrix: (Units=GPa)
#
#
# Indices 1 2 3 4 5 6 
#
# 1 69.5649 22.4993 32.8845 0.0005 32.5588 0.0013
# 2 22.4993 55.3673 23.6668 0.0060 -2.3671 -0.0003
# 3 32.8845 23.6668 66.2923 0.0082 11.9969 -0.0052
# 4 0.0005 0.0060 0.0082 15.4905 -0.0036 -1.9671
# 5 32.5588 -2.3671 11.9969 -0.0036 30.7105 0.0014
# 6 0.0013 -0.0003 -0.0052 -1.9671 0.0014 34.2909
#
#
#
# Elastic Compliance Matrix: (Units=1/GPa)
#
#
# Indices 1 2 3 4 5 6 
#
# 1 0.045236 -0.016910 -0.008057 -0.000001 -0.046114 -0.000001
# 2 -0.016910 0.028363 -0.005787 -0.000002 0.022374 -0.000001
# 3 -0.008057 -0.005787 0.021180 -0.000008 -0.000177 0.000003
# 4 -0.000001 -0.000002 -0.000008 0.065029 0.000012 0.003730
# 5 -0.046114 0.022374 -0.000177 0.000012 0.083246 -0.000001
# 6 -0.000001 -0.000001 0.000003 0.003730 -0.000001 0.029376
#
#
# Mechanical properties :
#
#
# Convention : Reuss Voigt Hill
#
# Bulk Modulus (GPa) = 30.05613 38.81396 34.43505
# Shear Modulus (GPa) = 14.49159 23.57663 19.03411
#
# Velocity S-wave (km/s) = 2.71151 3.45855 3.10756
# Velocity P-wave (km/s) = 5.00520 5.97001 5.50877
#
# Compressibility (1/GPa) = 0.03327108
#
# Stress axis : x y z
#
# Youngs Moduli (GPa) = 22.10623 35.25744 47.21542
#
# Poissons Ratio (x) = 0.59620 0.38043
# Poissons Ratio (y) = 0.37381 0.27322
# Poissons Ratio (z) = 0.17812 0.20402
#
# Static dielectric constant tensor:
#      x y z
#    x 1.719530 0.000000 -0.004890 
#    y 0.000000 1.731170 0.000000 
#    z -0.004890 0.000000 1.766910 
# 
# From -- ./inp_files/274807.got.cif
#   From: 2010.05.17/outbox.ucp.g08.bks.cvg/sg15_138_cif.got.tgz:274807.got - 2010.06.11 12:40:34.
