data_PCOD9308653
_publ_section_title
;
Structure prediction by ZEFSAII (Michael W. Deem and Ramdas Pophale) SiO2 
 PCOD9308653
Probable space group: C 2/C
;
_chemical_formula_sum "Si O2"
_cell_formula_units_Z 32
_cell_length_a 21.000000
_cell_length_b 24.000000
_cell_length_c 12.000000
_cell_angle_alpha 90.000000
_cell_angle_beta 40.000000
_cell_angle_gamma 90.000000
_cell_volume 3887.579463
_symmetry_space_group_name_H-M "C 2/C"
_symmetry_group_IT_number 15
_symmetry_cell_setting 'monoclinic'
loop_
_space_group_symop_operation_xyz
x,y,z
-x,y,1/2-z
-x,-y,-z
x,-y,1/2+z
1/2+x,1/2+y,z
1/2-x,1/2+y,1/2-z
1/2-x,1/2-y,-z
1/2+x,1/2-y,1/2+z
loop_
_atom_site_type_symbol
_atom_site_label
_atom_site_fract_x
_atom_site_fract_y
_atom_site_fract_z
Si Si1 0.665839 0.626859 0.736231
Si Si2 0.312834 0.659139 0.131811
Si Si3 0.991184 0.771087 0.093304
Si Si4 0.116355 0.077444 0.052154
Si Si5 0.117729 0.946936 0.088719
Si Si6 0.773798 0.165338 0.448119
Si Si7 0.581352 0.767643 0.236648
Si Si8 0.316623 0.804195 0.898797
O O1 0.584499 0.676405 0.823441
O O2 0.652796 0.577763 0.661571
O O3 0.773165 0.655106 0.556181
O O4 0.642059 0.602731 0.893137
O O5 0.282033 0.662678 0.302484
O O6 0.222639 0.672240 0.167912
O O7 0.408169 0.701331 0.988242
O O8 0.346334 0.597162 0.052183
O O9 0.928146 0.721375 0.238382
O O10 0.027693 0.746331 0.925468
O O11 0.185317 0.110577 0.046733
O O12 0.000000 0.084788 0.250000
O O13 0.140384 0.011320 0.029149
O O14 0.000000 0.943326 0.250000
O O15 0.662793 0.183001 0.632164
O O16 0.850145 0.213992 0.383543
O O17 0.500000 0.776534 0.250000
O O18 0.250000 0.750000 0.000000
#
# Coordination Sequence:
#
# PCOD9308653 Si02
#       8
#     8   8   8   8   8   8   8   8
#     4  10  20  35  50  78 111 142 178 223 265 327
#     4  10  19  34  53  78 114 143 179 220 264 325
#     4  10  18  32  55  76 110 144 175 217 270 321
#     4  11  23  34  53  77 113 145 180 223 269 326
#     4  10  21  33  53  76 108 144 184 217 269 328
#     4  10  21  34  52  82 114 147 184 220 268 334
#     4  10  19  32  53  79 115 148 180 216 273 327
#     4   9  20  32  51  78 107 142 179 216 270 318
#
# _framework density 8.2313430000000007
#
# number of rings (size 3 to 8) (size 9 to 14) (size 15 to 20)
#    0.000    2.000    1.250    3.375    1.750    6.000 
#    0.000    0.000    0.000    0.000    0.000    7.875 
#    0.000    0.000    0.000    0.000    0.000    0.000 
#
# Total GULP energy -178270.228172 kJ/mol
# GULP energy per Si atom -5570.944630 kJ/mol
# Density = 0.821261 g / cm^3
# Si number density = 8.231343 Si / 1000 Ang^3
#
#
#
# Elastic Constant Matrix: (Units=GPa)
#
#
# Indices 1 2 3 4 5 6 
#
# 1 67.7291 35.5291 36.9835 0.0000 3.5059 0.0000
# 2 35.5291 107.0736 41.3866 0.0000 1.1355 0.0000
# 3 36.9835 41.3866 104.2388 0.0000 5.0171 0.0000
# 4 0.0000 0.0000 0.0000 33.6805 0.0000 -0.4780
# 5 3.5059 1.1355 5.0171 0.0000 28.1055 0.0000
# 6 0.0000 0.0000 0.0000 -0.4780 0.0000 26.3260
#
#
#
# Elastic Compliance Matrix: (Units=1/GPa)
#
#
# Indices 1 2 3 4 5 6 
#
# 1 0.020128 -0.004642 -0.005232 0.000000 -0.001389 0.000000
# 2 -0.004642 0.012106 -0.003191 0.000000 0.000660 0.000000
# 3 -0.005232 -0.003191 0.012789 0.000000 -0.001501 0.000000
# 4 0.000000 0.000000 0.000000 0.029698 0.000000 0.000539
# 5 -0.001389 0.000660 -0.001501 0.000000 0.035995 0.000000
# 6 0.000000 0.000000 0.000000 0.000539 0.000000 0.037995
#
#
# Mechanical properties :
#
#
# Convention : Reuss Voigt Hill
#
# Bulk Modulus (GPa) = 52.92830 56.31555 54.62192
# Shear Modulus (GPa) = 27.60300 28.63191 28.11745
#
# Velocity S-wave (km/s) = 4.09920 4.17490 4.13722
# Velocity P-wave (km/s) = 7.39086 7.58432 7.48822
#
# Compressibility (1/GPa) = 0.01889348
#
# Stress axis : x y z
#
# Youngs Moduli (GPa) = 49.68083 82.60173 78.19329
#
# Poissons Ratio (x) = 0.38345 0.40907
# Poissons Ratio (y) = 0.23063 0.24954
# Poissons Ratio (z) = 0.25991 0.26361
#
# Static dielectric constant tensor:
#      x y z
#    x 1.590120 0.000000 0.013870 
#    y 0.000000 1.572430 0.000000 
#    z 0.013870 0.000000 1.576500 
# 
# From -- ./inp_files/114600.got.cif
#   From: 2010.05.17/outbox.ucp.g08.bks.cvg/sg15_58_cif.got.tgz:114600.got - 2010.06.11 12:40:34.
