data_PCOD9308705
_publ_section_title
;
Structure prediction by ZEFSAII (Michael W. Deem and Ramdas Pophale) SiO2 
 PCOD9308705
Probable space group: C 2/C
;
_chemical_formula_sum "Si O2"
_cell_formula_units_Z 26
_cell_length_a 15.000000
_cell_length_b 30.000000
_cell_length_c 9.000000
_cell_angle_alpha 90.000000
_cell_angle_beta 140.000000
_cell_angle_gamma 90.000000
_cell_volume 2603.289819
_symmetry_space_group_name_H-M "C 2/C"
_symmetry_group_IT_number 15
_symmetry_cell_setting 'monoclinic'
loop_
_space_group_symop_operation_xyz
x,y,z
-x,y,1/2-z
-x,-y,-z
x,-y,1/2+z
1/2+x,1/2+y,z
1/2-x,1/2+y,1/2-z
1/2-x,1/2-y,-z
1/2+x,1/2-y,1/2+z
loop_
_atom_site_type_symbol
_atom_site_label
_atom_site_fract_x
_atom_site_fract_y
_atom_site_fract_z
Si Si1 0.457669 0.791853 0.520870
Si Si2 0.412828 0.964567 0.991947
Si Si3 0.729752 0.361505 0.298401
Si Si4 0.317301 0.461565 0.279373
Si Si5 0.045771 0.813430 0.482522
Si Si6 0.000000 0.987720 0.250000
Si Si7 0.318367 0.135129 0.258291
O O1 0.500000 0.789495 0.750000
O O2 0.320593 0.822403 0.340521
O O3 0.444514 0.739366 0.457290
O O4 0.568257 0.824873 0.583109
O O5 0.364570 0.915951 0.862503
O O6 0.287657 0.997343 0.880476
O O7 0.500000 0.953767 0.250000
O O8 0.500000 0.000000 0.000000
O O9 0.741910 0.412625 0.257228
O O10 0.574986 0.342050 0.094730
O O11 0.780942 0.365855 0.534978
O O12 0.407807 0.458063 0.243898
O O13 0.409901 0.480212 0.531035
O O14 0.184268 0.843526 0.668043
O O15 0.000000 0.811327 0.250000
#
# Coordination Sequence:
#
# PCOD9308705 Si02
#       7
#     8   8   8   8   8   4   8
#     4   9  17  32  51  83 118 152 192 244 296 348
#     4  12  25  42  62  88 122 160 202 245 296 364
#     4  10  19  31  56  84 117 150 195 245 299 348
#     4  11  23  39  59  87 117 157 195 245 297 355
#     4   9  18  30  52  84 117 148 194 249 296 342
#     4  10  24  38  60  82 122 150 196 244 298 350
#     4  10  20  33  56  83 115 155 195 242 298 351
#
# _framework density 9.9873630000000002
#
# number of rings (size 3 to 8) (size 9 to 14) (size 15 to 20)
#    0.000    1.846    0.000    4.615    7.538    4.923 
#    0.000    0.000    0.000    0.923    4.000    0.000 
#    0.000    0.000    0.000    0.000    0.000    0.000 
#
# Total GULP energy -144938.581913 kJ/mol
# GULP energy per Si atom -5574.560843 kJ/mol
# Density = 0.996463 g / cm^3
# Si number density = 9.987363 Si / 1000 Ang^3
#
#
#
# Elastic Constant Matrix: (Units=GPa)
#
#
# Indices 1 2 3 4 5 6 
#
# 1 56.5629 24.1705 33.2287 0.0000 26.8349 0.0000
# 2 24.1705 203.8139 41.8834 0.0000 21.9991 0.0000
# 3 33.2287 41.8834 72.5883 0.0000 18.7392 0.0000
# 4 0.0000 0.0000 0.0000 -38.6344 0.0000 39.2567
# 5 26.8349 21.9991 18.7392 0.0000 28.7601 0.0000
# 6 0.0000 0.0000 0.0000 39.2567 0.0000 16.2209
#
#
#
# Elastic Compliance Matrix: (Units=1/GPa)
#
#
# Indices 1 2 3 4 5 6 
#
# 1 0.036567 0.000742 -0.009874 0.000000 -0.028253 0.000000
# 2 0.000742 0.005748 -0.002816 0.000000 -0.003254 0.000000
# 3 -0.009874 -0.002816 0.020422 0.000000 -0.001939 0.000000
# 4 0.000000 0.000000 0.000000 -0.007483 0.000000 0.018109
# 5 -0.028253 -0.003254 -0.001939 0.000000 0.064886 0.000000
# 6 0.000000 0.000000 0.000000 0.018109 0.000000 0.017822
#
#
# Mechanical properties :
#
#
# Convention : Reuss Voigt Hill
#
# Bulk Modulus (GPa) = 25.74566 59.05891 42.40229
# Shear Modulus (GPa) = 28.60332 16.84817 22.72575
#
# Velocity S-wave (km/s) = 3.78825 2.90741 3.37668
# Velocity P-wave (km/s) = 5.66141 6.39545 6.03959
#
# Compressibility (1/GPa) = 0.03884150
#
# Stress axis : x y z
#
# Youngs Moduli (GPa) = 27.34717 173.95925 48.96720
#
# Poissons Ratio (x) = -0.12909 0.48348
# Poissons Ratio (y) = -0.02029 0.13791
# Poissons Ratio (z) = 0.27001 0.48994
#
# Static dielectric constant tensor:
#      x y z
#    x 1.789100 0.000000 0.062120 
#    y 0.000000 1.671930 0.000000 
#    z 0.062120 0.000000 1.754560 
# 
# From -- ./inp_files/44921.got.cif
#   From: 2010.05.17/outbox.ucp.g08.bks.cvg/sg15_23_cif.got.tgz:44921.got - 2010.06.11 12:40:34.
