data_PCOD9308368
_publ_section_title
;
Structure prediction by ZEFSAII (Michael W. Deem and Ramdas Pophale) SiO2 
 PCOD9308368
Probable space group: C 2/C
;
_chemical_formula_sum "Si O2"
_cell_formula_units_Z 40
_cell_length_a 21.111536
_cell_length_b 9.097648
_cell_length_c 9.154539
_cell_angle_alpha 90.000000
_cell_angle_beta 121.011635
_cell_angle_gamma 90.000000
_cell_volume 1506.947189
_symmetry_space_group_name_H-M "C 2/C"
_symmetry_group_IT_number 15
_symmetry_cell_setting 'monoclinic'
loop_
_space_group_symop_operation_xyz
x,y,z
-x,y,1/2-z
-x,-y,-z
x,-y,1/2+z
1/2+x,1/2+y,z
1/2-x,1/2+y,1/2-z
1/2-x,1/2-y,-z
1/2+x,1/2-y,1/2+z
loop_
_atom_site_type_symbol
_atom_site_label
_atom_site_fract_x
_atom_site_fract_y
_atom_site_fract_z
Si Si1 0.039419 0.655014 0.167426
Si Si2 0.938836 0.874270 0.902501
Si Si3 0.794243 0.056159 0.802965
Si Si4 0.893848 0.304774 0.067392
Si Si5 0.808732 0.588056 0.083491
O O1 0.122508 0.698156 0.316358
O O2 0.000000 0.559984 0.250000
O O3 0.970270 0.762883 0.059938
O O4 0.062507 0.630922 0.023677
O O5 0.934225 0.788709 0.743244
O O6 0.166570 0.812398 0.063655
O O7 0.000000 0.000000 0.000000
O O8 0.738949 0.959120 0.834389
O O9 0.859864 0.948794 0.830345
O O10 0.746204 0.120757 0.613430
O O11 0.852380 0.437900 0.095830
#
# Coordination Sequence:
#
# PCOD9308368 Si02
#       5
#     8   8   8   8   8
#     4  12  31  50  82 120 167 219 279 345 419 500
#     4  12  29  52  81 124 163 218 275 344 423 502
#     4  12  27  51  85 120 165 218 281 343 418 504
#     4  12  28  54  85 114 173 213 278 348 420 489
#     4  12  29  54  81 125 162 224 281 344 427 497
#
# _framework density 26.543731000000001
#
# number of rings (size 3 to 8) (size 9 to 14) (size 15 to 20)
#    0.000    0.000    6.000    1.200    8.400    4.000 
#    0.000    0.000    0.000    0.000    0.000    0.000 
#    0.000    0.000    0.000    0.000    0.000    0.000 
#
# Total GULP energy -111759.423796 kJ/mol
# GULP energy per Si atom -5587.971190 kJ/mol
# Density = 2.648332 g / cm^3
# Si number density = 26.543731 Si / 1000 Ang^3
#
#
#
# Elastic Constant Matrix: (Units=GPa)
#
#
# Indices 1 2 3 4 5 6 
#
# 1 221.6292 28.8144 77.6063 0.0000 -16.2496 0.0000
# 2 28.8144 52.0829 31.2833 0.0000 -9.9610 0.0000
# 3 77.6063 31.2833 218.5397 0.0000 38.8343 0.0000
# 4 0.0000 0.0000 0.0000 55.4143 0.0000 26.7333
# 5 -16.2496 -9.9610 38.8343 0.0000 42.3593 0.0000
# 6 0.0000 0.0000 0.0000 26.7333 0.0000 18.3469
#
#
#
# Elastic Compliance Matrix: (Units=1/GPa)
#
#
# Indices 1 2 3 4 5 6 
#
# 1 0.005948 -0.000664 -0.002861 0.000000 0.004749 0.000000
# 2 -0.000664 0.024577 -0.005094 0.000000 0.010195 0.000000
# 3 -0.002861 -0.005094 0.008038 0.000000 -0.009665 0.000000
# 4 0.000000 0.000000 0.000000 0.060749 0.000000 -0.088518
# 5 0.004749 0.010195 -0.009665 0.000000 0.036687 0.000000
# 6 0.000000 0.000000 0.000000 -0.088518 0.000000 0.183485
#
#
# Mechanical properties :
#
#
# Convention : Reuss Voigt Hill
#
# Bulk Modulus (GPa) = 46.89206 85.29553 66.09380
# Shear Modulus (GPa) = 14.54196 46.86060 30.70128
#
# Velocity S-wave (km/s) = 2.34316 4.20624 3.40462
# Velocity P-wave (km/s) = 5.00248 7.46951 6.35683
#
# Compressibility (1/GPa) = 0.02132557
#
# Stress axis : x y z
#
# Youngs Moduli (GPa) = 168.11160 40.68852 124.40157
#
# Poissons Ratio (x) = 0.02702 0.35593
# Poissons Ratio (y) = 0.11165 0.63368
# Poissons Ratio (z) = 0.48099 0.20726
#
# Static dielectric constant tensor:
#      x y z
#    x 2.072580 0.000000 -0.158610 
#    y 0.000000 2.123100 0.000000 
#    z -0.158610 0.000000 2.973850 
# 
# From -- ./inp_files/60746.got.cif
#   From: 2010.05.17/outbox.cif.g08.bks.cpg/sg15_31_cif.got.tgz:60746.got - 2010.06.03 18:47:42.
