data_PCOD9308160
_publ_section_title
;
Structure prediction by ZEFSAII (Michael W. Deem and Ramdas Pophale) SiO2 
 PCOD9308160
Probable space group: C 2/C
;
_chemical_formula_sum "Si O2"
_cell_formula_units_Z 56
_cell_length_a 19.300374
_cell_length_b 15.308603
_cell_length_c 8.739032
_cell_angle_alpha 90.000000
_cell_angle_beta 120.467625
_cell_angle_gamma 90.000000
_cell_volume 2225.509542
_symmetry_space_group_name_H-M "C 2/C"
_symmetry_group_IT_number 15
_symmetry_cell_setting 'monoclinic'
loop_
_space_group_symop_operation_xyz
x,y,z
-x,y,1/2-z
-x,-y,-z
x,-y,1/2+z
1/2+x,1/2+y,z
1/2-x,1/2+y,1/2-z
1/2-x,1/2-y,-z
1/2+x,1/2-y,1/2+z
loop_
_atom_site_type_symbol
_atom_site_label
_atom_site_fract_x
_atom_site_fract_y
_atom_site_fract_z
Si Si1 0.742723 0.812953 0.642127
Si Si2 0.482454 0.280837 0.404779
Si Si3 0.401510 0.592260 0.275656
Si Si4 0.382569 0.878986 0.775265
Si Si5 0.305795 0.150219 0.870079
Si Si6 0.056401 0.439044 0.171256
Si Si7 0.633048 0.585324 0.616053
O O1 0.750000 0.750000 0.500000
O O2 0.808924 0.886116 0.702026
O O3 0.663224 0.860247 0.616091
O O4 0.774024 0.746092 0.801564
O O5 0.500000 0.303255 0.250000
O O6 0.545519 0.330872 0.586268
O O7 0.465340 0.176690 0.389951
O O8 0.397419 0.324332 0.347692
O O9 0.410562 0.495708 0.352437
O O10 0.402794 0.588097 0.094722
O O11 0.335721 0.843301 0.576364
O O12 0.387803 0.978531 0.721448
O O13 0.229556 0.087269 0.744991
O O14 0.380668 0.125222 0.842071
O O15 0.000000 0.407920 0.250000
O O16 0.000000 0.500000 0.000000
#
# Coordination Sequence:
#
# PCOD9308160 Si02
#       7
#     8   8   8   8   8   8   8
#     4  12  26  48  75 115 148 200 262 319 390 463
#     4  12  26  48  76 110 151 201 258 323 394 473
#     4  12  27  46  77 110 154 198 251 325 392 465
#     4  12  27  50  77 110 156 209 263 318 399 480
#     4  12  27  48  78 109 157 204 265 322 397 482
#     4  12  28  50  76 116 156 205 263 330 403 478
#     4  12  27  49  76 113 151 200 258 317 397 469
#
# _framework density 25.162776999999998
#
# number of rings (size 3 to 8) (size 9 to 14) (size 15 to 20)
#    0.000    0.000    4.286    4.286   10.000    0.000 
#    0.000    0.000    0.000    0.000    0.000    0.000 
#    0.000    0.000    0.000    0.000    0.000    0.000 
#
# Total GULP energy -156411.811331 kJ/mol
# GULP energy per Si atom -5586.136119 kJ/mol
# Density = 2.510551 g / cm^3
# Si number density = 25.162777 Si / 1000 Ang^3
#
#
#
# Elastic Constant Matrix: (Units=GPa)
#
#
# Indices 1 2 3 4 5 6 
#
# 1 161.1744 25.1870 53.3211 0.0000 -9.4409 0.0000
# 2 25.1870 94.4760 -3.0552 0.0000 -5.7186 0.0000
# 3 53.3211 -3.0552 108.6643 0.0000 -7.4950 0.0000
# 4 0.0000 0.0000 0.0000 42.3250 0.0000 -21.5563
# 5 -9.4409 -5.7186 -7.4950 0.0000 39.2527 0.0000
# 6 0.0000 0.0000 0.0000 -21.5563 0.0000 57.6519
#
#
#
# Elastic Compliance Matrix: (Units=1/GPa)
#
#
# Indices 1 2 3 4 5 6 
#
# 1 0.007872 -0.002173 -0.003866 0.000000 0.000839 0.000000
# 2 -0.002173 0.011297 0.001481 0.000000 0.001406 0.000000
# 3 -0.003866 0.001481 0.011240 0.000000 0.001432 0.000000
# 4 0.000000 0.000000 0.000000 0.029184 0.000000 0.010912
# 5 0.000839 0.001406 0.001432 0.000000 0.026156 0.000000
# 6 0.000000 0.000000 0.000000 0.010912 0.000000 0.021426
#
#
# Mechanical properties :
#
#
# Convention : Reuss Voigt Hill
#
# Bulk Modulus (GPa) = 46.96395 57.24671 52.10533
# Shear Modulus (GPa) = 40.52221 47.10339 43.81280
#
# Velocity S-wave (km/s) = 4.01734 4.33129 4.17727
# Velocity P-wave (km/s) = 6.34218 6.91472 6.63463
#
# Compressibility (1/GPa) = 0.02129293
#
# Stress axis : x y z
#
# Youngs Moduli (GPa) = 127.02983 88.51910 88.96688
#
# Poissons Ratio (x) = 0.19235 0.34395
# Poissons Ratio (y) = 0.27603 -0.13175
# Poissons Ratio (z) = 0.49111 -0.13108
#
# Static dielectric constant tensor:
#      x y z
#    x 2.766850 0.000000 -0.737370 
#    y 0.000000 2.688490 0.000000 
#    z -0.737370 0.000000 3.135220 
# 
# From -- ./inp_files/49125.got.cif
#   From: 2010.05.17/outbox.cif.g08.bks.cpg/sg15_25_cif.got.tgz:49125.got - 2010.06.03 18:47:42.
