data_PCOD9308685
_publ_section_title
;
Structure prediction by ZEFSAII (Michael W. Deem and Ramdas Pophale) SiO2 
 PCOD9308685
Probable space group: C 2/C
;
_chemical_formula_sum "Si O2"
_cell_formula_units_Z 22
_cell_length_a 18.000000
_cell_length_b 12.000000
_cell_length_c 30.000000
_cell_angle_alpha 90.000000
_cell_angle_beta 20.000000
_cell_angle_gamma 90.000000
_cell_volume 2216.290529
_symmetry_space_group_name_H-M "C 2/C"
_symmetry_group_IT_number 15
_symmetry_cell_setting 'monoclinic'
loop_
_space_group_symop_operation_xyz
x,y,z
-x,y,1/2-z
-x,-y,-z
x,-y,1/2+z
1/2+x,1/2+y,z
1/2-x,1/2+y,1/2-z
1/2-x,1/2-y,-z
1/2+x,1/2-y,1/2+z
loop_
_atom_site_type_symbol
_atom_site_label
_atom_site_fract_x
_atom_site_fract_y
_atom_site_fract_z
Si Si1 0.646047 0.145430 0.472286
Si Si2 0.661681 0.570551 0.877500
Si Si3 0.724533 0.537593 0.742513
Si Si4 0.000000 0.666768 0.750000
Si Si5 0.381158 0.416817 0.362231
Si Si6 0.550067 0.828027 0.925170
O O1 0.432399 0.122567 0.623012
O O2 0.805444 0.253636 0.379613
O O3 0.541082 0.134371 0.482102
O O4 0.803098 0.043410 0.396541
O O5 0.674468 0.515393 0.822087
O O6 0.593973 0.697597 0.904143
O O7 0.888053 0.589932 0.775881
O O8 0.500000 0.500000 0.000000
O O9 0.531680 0.586805 0.820688
O O10 0.779974 0.416912 0.690160
O O11 0.500000 0.379635 0.250000
O O12 0.161004 0.346770 0.486050
#
# Coordination Sequence:
#
# PCOD9308685 Si02
#       6
#     8   8   8   4   8   8
#     4  10  18  36  67  97 120 158 218 264 311 376
#     4  11  27  46  60  89 131 173 215 261 314 386
#     4  11  22  37  65  98 129 164 218 262 311 383
#     4  10  22  44  66  84 128 180 212 266 322 362
#     4  11  16  33  64  98 129 155 197 269 317 362
#     4  10  21  38  63  95 125 166 212 260 319 374
#
# _framework density 9.9264960000000002
#
# number of rings (size 3 to 8) (size 9 to 14) (size 15 to 20)
#    0.000    1.455    4.545    2.182    0.000    7.273 
#    1.636    0.000    0.000    0.000    0.000    0.000 
#    0.000    0.000    0.000    0.000    0.000    0.000 
#
# Total GULP energy -122599.285509 kJ/mol
# GULP energy per Si atom -5572.694796 kJ/mol
# Density = 0.990390 g / cm^3
# Si number density = 9.926496 Si / 1000 Ang^3
#
#
#
# Elastic Constant Matrix: (Units=GPa)
#
#
# Indices 1 2 3 4 5 6 
#
# 1 124.8421 27.2335 66.5102 0.0048 -3.7900 -0.0248
# 2 27.2335 42.0409 10.6783 -0.0143 -8.3974 0.0177
# 3 66.5102 10.6783 77.2685 -0.0235 -9.1557 -0.0553
# 4 0.0048 -0.0143 -0.0235 17.9703 0.0052 -7.4286
# 5 -3.7900 -8.3974 -9.1557 0.0052 48.1209 0.0342
# 6 -0.0248 0.0177 -0.0553 -7.4286 0.0342 16.1908
#
#
#
# Elastic Compliance Matrix: (Units=1/GPa)
#
#
# Indices 1 2 3 4 5 6 
#
# 1 0.017119 -0.008091 -0.013939 -0.000039 -0.002716 -0.000025
# 2 -0.008091 0.029151 0.003543 0.000013 0.005124 -0.000037
# 3 -0.013939 0.003543 0.024956 0.000073 0.004269 0.000085
# 4 -0.000039 0.000013 0.000073 0.068673 -0.000017 0.031508
# 5 -0.002716 0.005124 0.004269 -0.000017 0.022274 -0.000050
# 6 -0.000025 -0.000037 0.000085 0.031508 -0.000050 0.076220
#
#
# Mechanical properties :
#
#
# Convention : Reuss Voigt Hill
#
# Bulk Modulus (GPa) = 29.19503 50.33280 39.76392
# Shear Modulus (GPa) = 17.43471 25.77170 21.60321
#
# Velocity S-wave (km/s) = 2.96664 3.60686 3.30230
# Velocity P-wave (km/s) = 5.14511 6.53863 5.88328
#
# Compressibility (1/GPa) = 0.03425241
#
# Stress axis : x y z
#
# Youngs Moduli (GPa) = 58.41550 34.30379 40.07009
#
# Poissons Ratio (x) = 0.27756 0.55853
# Poissons Ratio (y) = 0.47266 -0.14198
# Poissons Ratio (z) = 0.81425 -0.12155
#
# Static dielectric constant tensor:
#      x y z
#    x 1.715500 0.000010 0.024820 
#    y 0.000010 1.722960 0.000050 
#    z 0.024820 0.000050 1.786330 
# 
# From -- ./inp_files/316151.got.cif
#   From: 2010.05.17/outbox.ucp.g08.bks.cvg/sg15_159_cif.got.tgz:316151.got - 2010.06.11 12:40:34.
