data_PCOD9308268
_publ_section_title
;
Structure prediction by ZEFSAII (Michael W. Deem and Ramdas Pophale) SiO2 
 PCOD9308268
Probable space group: C 2/C
;
_chemical_formula_sum "Si O2"
_cell_formula_units_Z 36
_cell_length_a 32.762839
_cell_length_b 7.260933
_cell_length_c 13.681215
_cell_angle_alpha 90.000000
_cell_angle_beta 23.902752
_cell_angle_gamma 90.000000
_cell_volume 1318.719777
_symmetry_space_group_name_H-M "C 2/C"
_symmetry_group_IT_number 15
_symmetry_cell_setting 'monoclinic'
loop_
_space_group_symop_operation_xyz
x,y,z
-x,y,1/2-z
-x,-y,-z
x,-y,1/2+z
1/2+x,1/2+y,z
1/2-x,1/2+y,1/2-z
1/2-x,1/2-y,-z
1/2+x,1/2-y,1/2+z
loop_
_atom_site_type_symbol
_atom_site_label
_atom_site_fract_x
_atom_site_fract_y
_atom_site_fract_z
Si Si1 0.500000 0.310531 0.750000
Si Si2 0.011359 0.490902 0.591989
Si Si3 0.645151 0.494170 0.582216
Si Si4 0.786246 0.397186 0.116535
Si Si5 0.343272 0.654782 0.239852
O O1 0.558263 0.443357 0.696442
O O2 0.554536 0.169833 0.553314
O O3 0.075567 0.306841 0.472765
O O4 0.000000 0.500000 0.500000
O O5 0.895221 0.491252 0.880760
O O6 0.686926 0.699836 0.485929
O O7 0.611938 0.449905 0.763804
O O8 0.737054 0.378876 0.331159
O O9 0.706824 0.511378 0.225448
O O10 0.250000 0.750000 0.500000
#
# Coordination Sequence:
#
# PCOD9308268 Si02
#       5
#     4   8   8   8   8
#     4  12  28  50  86 122 176 222 290 352 434 518
#     4  12  27  51  81 125 169 223 283 356 431 518
#     4  12  29  52  79 123 163 227 284 350 433 511
#     4  12  29  50  82 119 169 221 285 354 428 511
#     4  12  26  51  83 117 167 219 284 352 430 510
#
# _framework density 27.299205000000001
#
# number of rings (size 3 to 8) (size 9 to 14) (size 15 to 20)
#    0.000    0.000    4.444    3.333   12.444    2.667 
#    0.000    0.000    0.000    0.000    0.000    0.000 
#    0.000    0.000    0.000    0.000    0.000    0.000 
#
# Total GULP energy -100888.498350 kJ/mol
# GULP energy per Si atom -5604.916575 kJ/mol
# Density = 2.723707 g / cm^3
# Si number density = 27.299205 Si / 1000 Ang^3
#
#
#
# Elastic Constant Matrix: (Units=GPa)
#
#
# Indices 1 2 3 4 5 6 
#
# 1 217.4000 100.2107 75.8794 0.0000 -3.2885 0.0000
# 2 100.2107 183.9216 37.0594 0.0000 -12.3758 0.0000
# 3 75.8794 37.0594 118.9552 0.0000 -6.8780 0.0000
# 4 0.0000 0.0000 0.0000 67.9712 0.0000 -2.0036
# 5 -3.2885 -12.3758 -6.8780 0.0000 54.9331 0.0000
# 6 0.0000 0.0000 0.0000 -2.0036 0.0000 46.0655
#
#
#
# Elastic Compliance Matrix: (Units=1/GPa)
#
#
# Indices 1 2 3 4 5 6 
#
# 1 0.007441 -0.003352 -0.003747 0.000000 -0.000779 0.000000
# 2 -0.003352 0.007376 -0.000076 0.000000 0.001452 0.000000
# 3 -0.003747 -0.000076 0.010885 0.000000 0.001121 0.000000
# 4 0.000000 0.000000 0.000000 0.014731 0.000000 0.000641
# 5 -0.000779 0.001452 0.001121 0.000000 0.018625 0.000000
# 6 0.000000 0.000000 0.000000 0.000641 0.000000 0.021736
#
#
# Mechanical properties :
#
#
# Convention : Reuss Voigt Hill
#
# Bulk Modulus (GPa) = 88.08620 105.17509 96.63064
# Shear Modulus (GPa) = 50.54158 54.26913 52.40535
#
# Velocity S-wave (km/s) = 4.30745 4.46347 4.38615
# Velocity P-wave (km/s) = 7.55486 8.07303 7.81824
#
# Compressibility (1/GPa) = 0.01135252
#
# Stress axis : x y z
#
# Youngs Moduli (GPa) = 134.39350 135.57075 91.86606
#
# Poissons Ratio (x) = 0.45437 0.34425
# Poissons Ratio (y) = 0.45042 0.00700
# Poissons Ratio (z) = 0.50361 0.01033
#
# Static dielectric constant tensor:
#      x y z
#    x 2.189500 0.000000 -0.066430 
#    y 0.000000 2.235930 0.000000 
#    z -0.066430 0.000000 2.234890 
# 
# From -- ./inp_files/170968.got.cif
#   From: 2010.05.17/outbox.cif.g08.bks.cpg/sg15_86_cif.got.tgz:170968.got - 2010.06.03 18:47:42.
