data_PCOD9308475
_publ_section_title
;
Structure prediction by ZEFSAII (Michael W. Deem and Ramdas Pophale) SiO2 
 PCOD9308475
Probable space group: C 2/C
;
_chemical_formula_sum "Si O2"
_cell_formula_units_Z 40
_cell_length_a 12.265181
_cell_length_b 24.906651
_cell_length_c 8.367910
_cell_angle_alpha 90.000000
_cell_angle_beta 33.597916
_cell_angle_gamma 90.000000
_cell_volume 1414.539384
_symmetry_space_group_name_H-M "C 2/C"
_symmetry_group_IT_number 15
_symmetry_cell_setting 'monoclinic'
loop_
_space_group_symop_operation_xyz
x,y,z
-x,y,1/2-z
-x,-y,-z
x,-y,1/2+z
1/2+x,1/2+y,z
1/2-x,1/2+y,1/2-z
1/2-x,1/2-y,-z
1/2+x,1/2-y,1/2+z
loop_
_atom_site_type_symbol
_atom_site_label
_atom_site_fract_x
_atom_site_fract_y
_atom_site_fract_z
Si Si1 0.260438 0.610998 0.520204
Si Si2 0.760231 0.918565 0.523671
Si Si3 0.743883 0.677936 0.289077
Si Si4 0.129513 0.202341 0.927822
Si Si5 0.234747 0.990086 0.685079
O O1 0.500000 0.607749 0.250000
O O2 0.196100 0.643233 0.439912
O O3 0.217229 0.655772 0.709284
O O4 0.220336 0.549236 0.521737
O O5 0.697872 0.858152 0.633095
O O6 0.692764 0.956333 0.753428
O O7 0.000000 0.919625 0.250000
O O8 0.700608 0.949657 0.436600
O O9 0.800878 0.739619 0.211189
O O10 0.509904 0.679845 0.539603
O O11 0.000000 0.213242 0.250000
O O12 0.000000 0.000000 0.000000
#
# Coordination Sequence:
#
# PCOD9308475 Si02
#       5
#     8   8   8   8   8
#     4   8  13  22  38  62  89 116 148 191 235 276
#     4   9  17  28  44  69  99 126 155 198 248 295
#     4   9  17  28  44  67  95 125 160 198 236 281
#     4   9  16  28  45  68  94 125 163 201 234 280
#     4   9  15  24  41  66  97 124 148 192 254 296
#
# _framework density 28.277754999999999
#
# number of rings (size 3 to 8) (size 9 to 14) (size 15 to 20)
#    0.000    3.600    0.000    4.200    0.000    1.600 
#    0.000    1.000    0.000    0.000    0.000   12.600 
#    0.000    0.000    0.000    5.800    0.000    0.000 
#
# Total GULP energy -111671.182871 kJ/mol
# GULP energy per Si atom -5583.559144 kJ/mol
# Density = 2.821339 g / cm^3
# Si number density = 28.277755 Si / 1000 Ang^3
#
#
#
# Elastic Constant Matrix: (Units=GPa)
#
#
# Indices 1 2 3 4 5 6 
#
# 1 101.3325 48.8257 32.8379 0.0000 -0.8949 0.0000
# 2 48.8257 284.5593 53.2174 0.0000 30.0105 0.0000
# 3 32.8379 53.2174 97.9307 0.0000 -0.1718 0.0000
# 4 0.0000 0.0000 0.0000 48.8728 0.0000 33.0826
# 5 -0.8949 30.0105 -0.1718 0.0000 32.7561 0.0000
# 6 0.0000 0.0000 0.0000 33.0826 0.0000 -0.5872
#
#
#
# Elastic Compliance Matrix: (Units=1/GPa)
#
#
# Indices 1 2 3 4 5 6 
#
# 1 0.011644 -0.001622 -0.003020 0.000000 0.001788 0.000000
# 2 -0.001622 0.004612 -0.001970 0.000000 -0.004280 0.000000
# 3 -0.003020 -0.001970 0.012298 0.000000 0.001787 0.000000
# 4 0.000000 0.000000 0.000000 0.000523 0.000000 0.029455
# 5 0.001788 -0.004280 0.001787 0.000000 0.034509 0.000000
# 6 0.000000 0.000000 0.000000 0.029455 0.000000 -0.043514
#
#
# Mechanical properties :
#
#
# Convention : Reuss Voigt Hill
#
# Bulk Modulus (GPa) = 65.22972 83.73159 74.48066
# Shear Modulus (GPa) = 130.18676 39.47110 84.82893
#
# Velocity S-wave (km/s) = 6.79253 3.74014 5.48303
# Velocity P-wave (km/s) = 9.19976 6.95171 8.15358
#
# Compressibility (1/GPa) = 0.01533043
#
# Stress axis : x y z
#
# Youngs Moduli (GPa) = 85.87793 216.80946 81.31556
#
# Poissons Ratio (x) = 0.35161 0.24559
# Poissons Ratio (y) = 0.13927 0.16020
# Poissons Ratio (z) = 0.25937 0.42715
#
# Static dielectric constant tensor:
#      x y z
#    x 2.225080 0.000000 -0.082330 
#    y 0.000000 2.169440 0.000000 
#    z -0.082330 0.000000 2.455740 
# 
# From -- ./inp_files/43036.got.cif
#   From: 2010.05.17/outbox.cif.g08.bks.cpg/sg15_22_cif.got.tgz:43036.got - 2010.06.03 18:47:42.
