data_PCOD9308713
_publ_section_title
;
Structure prediction by ZEFSAII (Michael W. Deem and Ramdas Pophale) SiO2 
 PCOD9308713
Probable space group: C 2/C
;
_chemical_formula_sum "Si O2"
_cell_formula_units_Z 22
_cell_length_a 18.000000
_cell_length_b 15.000000
_cell_length_c 9.000000
_cell_angle_alpha 90.000000
_cell_angle_beta 60.000000
_cell_angle_gamma 90.000000
_cell_volume 2104.441731
_symmetry_space_group_name_H-M "C 2/C"
_symmetry_group_IT_number 15
_symmetry_cell_setting 'monoclinic'
loop_
_space_group_symop_operation_xyz
x,y,z
-x,y,1/2-z
-x,-y,-z
x,-y,1/2+z
1/2+x,1/2+y,z
1/2-x,1/2+y,1/2-z
1/2-x,1/2-y,-z
1/2+x,1/2-y,1/2+z
loop_
_atom_site_type_symbol
_atom_site_label
_atom_site_fract_x
_atom_site_fract_y
_atom_site_fract_z
Si Si1 0.608133 0.012254 0.048039
Si Si2 0.500000 0.723870 0.250000
Si Si3 0.277721 0.996420 0.810056
Si Si4 0.522956 0.852588 0.960258
Si Si5 0.301281 0.793136 0.815975
Si Si6 0.690027 0.324398 0.479435
O O1 0.700149 0.026571 0.878596
O O2 0.571185 0.919923 0.025264
O O3 0.629876 0.000563 0.197654
O O4 0.547250 0.090851 0.056365
O O5 0.513416 0.780085 0.388954
O O6 0.408332 0.676529 0.366993
O O7 0.257645 0.890633 0.827030
O O8 0.222664 0.073855 0.940704
O O9 0.596620 0.813923 0.778644
O O10 0.302905 0.717982 0.689686
O O11 0.250000 0.750000 0.000000
O O12 0.750000 0.250000 0.500000
#
# Coordination Sequence:
#
# PCOD9308713 Si02
#       6
#     8   4   8   8   8   8
#     4  10  19  32  56  86 117 150 192 249 312 351
#     4  10  20  36  58  90 120 156 208 242 284 360
#     4  11  21  36  59  85 117 156 197 243 300 357
#     4   9  18  32  54  86 121 152 193 251 301 352
#     4  10  22  37  58  87 119 158 198 242 303 359
#     4  11  22  39  63  87 119 163 203 247 297 355
#
# _framework density 10.454079
#
# number of rings (size 3 to 8) (size 9 to 14) (size 15 to 20)
#    0.000    1.818    0.000    6.545    0.000    5.818 
#    0.000    1.818    0.000   21.818    0.000    0.000 
#    0.000    0.000    0.000    0.000    0.000    0.000 
#
# Total GULP energy -122566.929128 kJ/mol
# GULP energy per Si atom -5571.224051 kJ/mol
# Density = 1.043028 g / cm^3
# Si number density = 10.454079 Si / 1000 Ang^3
#
#
#
# Elastic Constant Matrix: (Units=GPa)
#
#
# Indices 1 2 3 4 5 6 
#
# 1 56.4205 37.1927 43.1400 0.0000 -10.5555 0.0000
# 2 37.1927 123.6200 59.3352 0.0000 -27.6838 0.0000
# 3 43.1400 59.3352 152.0374 0.0000 -33.8476 0.0000
# 4 0.0000 0.0000 0.0000 39.9419 0.0000 -8.5483
# 5 -10.5555 -27.6838 -33.8476 0.0000 27.4728 0.0000
# 6 0.0000 0.0000 0.0000 -8.5483 0.0000 31.5837
#
#
#
# Elastic Compliance Matrix: (Units=1/GPa)
#
#
# Indices 1 2 3 4 5 6 
#
# 1 0.025104 -0.005488 -0.005602 0.000000 -0.002786 0.000000
# 2 -0.005488 0.012316 -0.001317 0.000000 0.008680 0.000000
# 3 -0.005602 -0.001317 0.010894 0.000000 0.009943 0.000000
# 4 0.000000 0.000000 0.000000 0.026576 0.000000 0.007193
# 5 -0.002786 0.008680 0.009943 0.000000 0.056325 0.000000
# 6 0.000000 0.000000 0.000000 0.007193 0.000000 0.033609
#
#
# Mechanical properties :
#
#
# Convention : Reuss Voigt Hill
#
# Bulk Modulus (GPa) = 42.55194 67.93487 55.24341
# Shear Modulus (GPa) = 25.32020 32.62703 28.97361
#
# Velocity S-wave (km/s) = 3.48375 3.95459 3.72661
# Velocity P-wave (km/s) = 6.04798 7.30851 6.70792
#
# Compressibility (1/GPa) = 0.02350069
#
# Stress axis : x y z
#
# Youngs Moduli (GPa) = 39.83502 81.19255 91.79110
#
# Poissons Ratio (x) = 0.44559 0.51417
# Poissons Ratio (y) = 0.21862 0.12090
# Poissons Ratio (z) = 0.22314 0.10694
#
# Static dielectric constant tensor:
#      x y z
#    x 1.812330 0.000000 0.014170 
#    y 0.000000 1.772140 0.000000 
#    z 0.014170 0.000000 1.719310 
# 
# From -- ./inp_files/47411.got.cif
#   From: 2010.05.17/outbox.ucp.g08.bks.cvg/sg15_24_cif.got.tgz:47411.got - 2010.06.11 12:40:34.
