data_PCOD9308992
_publ_section_title
;
Structure prediction by ZEFSAII (Michael W. Deem and Ramdas Pophale) SiO2 
 PCOD9308992
Probable space group: C 2/C
;
_chemical_formula_sum "Si O2"
_cell_formula_units_Z 24
_cell_length_a 27.000000
_cell_length_b 9.000000
_cell_length_c 15.000000
_cell_angle_alpha 90.000000
_cell_angle_beta 40.000000
_cell_angle_gamma 90.000000
_cell_volume 2342.960837
_symmetry_space_group_name_H-M "C 2/C"
_symmetry_group_IT_number 15
_symmetry_cell_setting 'monoclinic'
loop_
_space_group_symop_operation_xyz
x,y,z
-x,y,1/2-z
-x,-y,-z
x,-y,1/2+z
1/2+x,1/2+y,z
1/2-x,1/2+y,1/2-z
1/2-x,1/2-y,-z
1/2+x,1/2-y,1/2+z
loop_
_atom_site_type_symbol
_atom_site_label
_atom_site_fract_x
_atom_site_fract_y
_atom_site_fract_z
Si Si1 0.087782 0.268506 0.902248
Si Si2 0.913564 0.802388 0.678665
Si Si3 0.676787 0.582742 0.029839
Si Si4 0.851823 0.511774 0.330587
Si Si5 0.660431 0.091193 0.463901
Si Si6 0.176307 0.019153 0.338071
O O1 0.113261 0.355750 0.777797
O O2 0.096553 0.374088 0.977508
O O3 0.147566 0.135314 0.835642
O O4 0.002933 0.197456 0.027526
O O5 0.892391 0.636289 0.737217
O O6 0.865310 0.851914 0.659364
O O7 0.883238 0.903296 0.804733
O O8 0.759643 0.518314 0.945853
O O9 0.683245 0.752115 0.981796
O O10 0.655576 0.487935 0.971225
O O11 0.863479 0.515484 0.421601
O O12 0.733368 0.034789 0.306892
#
# Coordination Sequence:
#
# PCOD9308992 Si02
#       6
#     8   8   8   8   8   8
#     4  11  25  38  62  98 128 162 217 270 321 378
#     4  11  22  43  63  92 129 168 212 267 323 388
#     4  10  20  37  67  89 121 171 217 253 319 394
#     4  11  20  39  65  90 124 170 212 264 317 385
#     4  10  20  38  62  91 122 171 215 255 311 394
#     4  11  21  38  65  90 127 169 215 260 321 386
#
# _framework density 10.243449
#
# number of rings (size 3 to 8) (size 9 to 14) (size 15 to 20)
#    0.000    1.333    5.000    2.000    0.000    6.667 
#    0.000    0.000    0.000    2.000    0.000    0.000 
#    0.000    0.000    0.000    0.000    0.000    0.000 
#
# Total GULP energy -134042.735889 kJ/mol
# GULP energy per Si atom -5585.113995 kJ/mol
# Density = 1.022013 g / cm^3
# Si number density = 10.243449 Si / 1000 Ang^3
#
#
#
# Elastic Constant Matrix: (Units=GPa)
#
#
# Indices 1 2 3 4 5 6 
#
# 1 49.5997 -7.4550 26.5018 0.0001 0.9210 0.0002
# 2 -7.4550 5.6212 10.9695 -0.0004 -9.4927 0.0005
# 3 26.5018 10.9695 112.3294 0.0000 -0.9012 0.0002
# 4 0.0001 -0.0004 0.0000 34.5107 0.0000 14.6293
# 5 0.9210 -9.4927 -0.9012 0.0000 12.7194 0.0001
# 6 0.0002 0.0005 0.0002 14.6293 0.0001 16.7573
#
#
#
# Elastic Compliance Matrix: (Units=1/GPa)
#
#
# Indices 1 2 3 4 5 6 
#
# 1 0.012750 -0.048739 0.001453 -0.000002 -0.037195 0.000003
# 2 -0.048739 -0.228998 0.032537 -0.000009 -0.165071 0.000016
# 3 0.001453 0.032537 0.005579 0.000001 0.024573 -0.000002
# 4 -0.000002 -0.000009 0.000001 0.046000 -0.000006 -0.040158
# 5 -0.037195 -0.165071 0.024573 -0.000006 -0.040141 0.000011
# 6 0.000003 0.000016 -0.000002 -0.040158 0.000011 0.094734
#
#
# Mechanical properties :
#
#
# Convention : Reuss Voigt Hill
#
# Bulk Modulus (GPa) = -4.16378 25.28699 10.56161
# Shear Modulus (GPa) = -31.12662 21.96639 -4.58012
#
# Velocity S-wave (km/s) = -3.90210 3.27802 -1.49682
# Velocity P-wave (km/s) = 4.72638 5.16692 1.47620
#
# Compressibility (1/GPa) = -0.24016651
#
# Stress axis : x y z
#
# Youngs Moduli (GPa) = 78.43127 -4.36684 179.23460
#
# Poissons Ratio (x) = -0.21284 -0.26044
# Poissons Ratio (y) = 3.82268 -5.83183
# Poissons Ratio (z) = -0.11397 0.14209
#
# Static dielectric constant tensor:
#      x y z
#    x 1.777600 0.000000 -0.001620 
#    y 0.000000 1.759350 0.000000 
#    z -0.001620 0.000000 1.706000 
# 
# From -- ./inp_files/176912.got.cif
#   From: 2010.05.17/outbox.ucp.g08.bks.cvg/sg15_89_cif.got.tgz:176912.got - 2010.06.11 12:40:34.
