data_PCOD9308754
_publ_section_title
;
Structure prediction by ZEFSAII (Michael W. Deem and Ramdas Pophale) SiO2 
 PCOD9308754
Probable space group: C 2/C
;
_chemical_formula_sum "Si O2"
_cell_formula_units_Z 30
_cell_length_a 24.000000
_cell_length_b 21.000000
_cell_length_c 21.000000
_cell_angle_alpha 90.000000
_cell_angle_beta 20.000000
_cell_angle_gamma 90.000000
_cell_volume 3619.941197
_symmetry_space_group_name_H-M "C 2/C"
_symmetry_group_IT_number 15
_symmetry_cell_setting 'monoclinic'
loop_
_space_group_symop_operation_xyz
x,y,z
-x,y,1/2-z
-x,-y,-z
x,-y,1/2+z
1/2+x,1/2+y,z
1/2-x,1/2+y,1/2-z
1/2-x,1/2-y,-z
1/2+x,1/2-y,1/2+z
loop_
_atom_site_type_symbol
_atom_site_label
_atom_site_fract_x
_atom_site_fract_y
_atom_site_fract_z
Si Si1 0.017884 0.317703 0.870445
Si Si2 0.886951 0.462566 0.714920
Si Si3 0.500000 0.150649 0.250000
Si Si4 0.863136 0.814610 0.206001
Si Si5 0.274329 0.009120 0.192574
Si Si6 0.059122 0.026264 0.115347
Si Si7 0.477165 0.407772 0.980727
Si Si8 0.123149 0.105293 0.678981
O O1 0.101742 0.386928 0.786269
O O2 0.015337 0.307266 0.796974
O O3 0.100151 0.259485 0.818945
O O4 0.830973 0.323277 0.093742
O O5 0.838479 0.472689 0.693580
O O6 0.072926 0.490568 0.516762
O O7 0.743787 0.495594 0.911317
O O8 0.320517 0.113873 0.450941
O O9 0.908117 0.852103 0.223863
O O10 0.952152 0.841744 0.046671
O O11 0.148911 0.951630 0.342712
O O12 0.160383 0.066347 0.291745
O O13 0.055890 0.076833 0.059431
O O14 0.000000 0.049351 0.250000
O O15 0.934013 0.966439 0.239621
O O16 0.000000 0.119852 0.750000
#
# Coordination Sequence:
#
# PCOD9308754 Si02
#       8
#     8   8   4   8   8   8   8   8
#     4  11  24  35  51  78 110 150 197 223 268 323
#     4  10  19  35  54  81 112 142 184 229 277 336
#     4  10  24  36  52  74 114 158 198 226 262 322
#     4  11  24  35  54  77 109 153 192 229 268 322
#     4   9  18  32  58  79 106 142 174 231 291 327
#     4  10  21  36  58  81 111 146 180 231 296 339
#     4  10  19  36  54  79 110 139 185 232 285 329
#     4  10  21  37  54  78 113 155 190 225 276 323
#
# _framework density 8.2874269999999992
#
# number of rings (size 3 to 8) (size 9 to 14) (size 15 to 20)
#    0.000    1.867    1.333    4.000    8.400    1.067 
#    0.000    0.000    0.000    0.000    0.000    0.933 
#    0.000    0.000    0.000    0.000    0.000    0.000 
#
# Total GULP energy -167047.754568 kJ/mol
# GULP energy per Si atom -5568.258486 kJ/mol
# Density = 0.826856 g / cm^3
# Si number density = 8.287427 Si / 1000 Ang^3
#
#
#
# Elastic Constant Matrix: (Units=GPa)
#
#
# Indices 1 2 3 4 5 6 
#
# 1 60.4192 25.9530 32.8564 -0.0045 12.6487 0.0039
# 2 25.9530 59.6363 27.1767 0.0009 9.2406 0.0112
# 3 32.8564 27.1767 125.8253 0.0314 9.5356 -0.0001
# 4 -0.0045 0.0009 0.0314 19.1519 -0.0074 2.7537
# 5 12.6487 9.2406 9.5356 -0.0074 35.9001 -0.0030
# 6 0.0039 0.0112 -0.0001 2.7537 -0.0030 24.0080
#
#
#
# Elastic Compliance Matrix: (Units=1/GPa)
#
#
# Indices 1 2 3 4 5 6 
#
# 1 0.022978 -0.007373 -0.004019 0.000011 -0.005130 -0.000002
# 2 -0.007373 0.021486 -0.002544 0.000002 -0.002257 -0.000009
# 3 -0.004019 -0.002544 0.009582 -0.000017 -0.000474 0.000004
# 4 0.000011 0.000002 -0.000017 0.053090 0.000011 -0.006089
# 5 -0.005130 -0.002257 -0.000474 0.000011 0.030370 0.000005
# 6 -0.000002 -0.000009 0.000004 -0.006089 0.000005 0.042351
#
#
# Mechanical properties :
#
#
# Convention : Reuss Voigt Hill
#
# Bulk Modulus (GPa) = 38.20646 46.42811 42.31729
# Shear Modulus (GPa) = 23.09956 26.47163 24.78559
#
# Velocity S-wave (km/s) = 3.73721 4.00070 3.87120
# Velocity P-wave (km/s) = 6.45935 7.02943 6.75041
#
# Compressibility (1/GPa) = 0.02617359
#
# Stress axis : x y z
#
# Youngs Moduli (GPa) = 43.52045 46.54135 104.35751
#
# Poissons Ratio (x) = 0.34316 0.41939
# Poissons Ratio (y) = 0.32089 0.26552
# Poissons Ratio (z) = 0.17490 0.11842
#
# Static dielectric constant tensor:
#      x y z
#    x 1.607400 0.000000 -0.023980 
#    y 0.000000 1.577700 0.000010 
#    z -0.023980 0.000010 1.591020 
# 
# From -- ./inp_files/256117.got.cif
#   From: 2010.05.17/outbox.ucp.g08.bks.cvg/sg15_129_cif.got.tgz:256117.got - 2010.06.11 12:40:34.
