data_PCOD9308109
_publ_section_title
;
Structure prediction by ZEFSAII (Michael W. Deem and Ramdas Pophale) SiO2 
 PCOD9308109
Probable space group: C 2/C
;
_chemical_formula_sum "Si O2"
_cell_formula_units_Z 52
_cell_length_a 9.290161
_cell_length_b 12.235554
_cell_length_c 25.948925
_cell_angle_alpha 90.000000
_cell_angle_beta 52.031280
_cell_angle_gamma 90.000000
_cell_volume 2325.324304
_symmetry_space_group_name_H-M "C 2/C"
_symmetry_group_IT_number 15
_symmetry_cell_setting 'monoclinic'
loop_
_space_group_symop_operation_xyz
x,y,z
-x,y,1/2-z
-x,-y,-z
x,-y,1/2+z
1/2+x,1/2+y,z
1/2-x,1/2+y,1/2-z
1/2-x,1/2-y,-z
1/2+x,1/2-y,1/2+z
loop_
_atom_site_type_symbol
_atom_site_label
_atom_site_fract_x
_atom_site_fract_y
_atom_site_fract_z
Si Si1 0.250000 0.750000 0.500000
Si Si2 0.272856 0.161234 0.739776
Si Si3 0.517859 0.956061 0.438335
Si Si4 0.027470 0.060469 0.439956
Si Si5 0.572493 0.481695 0.149297
Si Si6 0.546124 0.966686 0.652777
Si Si7 0.500000 0.201178 0.250000
Si Si8 0.000000 0.166964 0.250000
O O1 0.368354 0.862434 0.462568
O O2 0.444255 0.681132 0.463658
O O3 0.345738 0.250660 0.763734
O O4 0.181658 0.225602 0.712152
O O5 0.438635 0.079024 0.689850
O O6 0.102864 0.091561 0.798876
O O7 0.500000 0.000000 0.500000
O O8 0.730990 0.927992 0.385208
O O9 0.480996 0.046860 0.402279
O O10 0.240866 0.040711 0.382138
O O11 0.933813 0.014023 0.409051
O O12 0.000000 0.000000 0.500000
O O13 0.558370 0.587762 0.190044
O O14 0.471483 0.874491 0.706791
#
# Coordination Sequence:
#
# PCOD9308109 Si02
#       8
#     4   8   8   8   8   8   4   4
#     4  12  28  50  78 106 144 204 252 296 378 422
#     4  12  26  46  75 110 147 196 240 295 376 440
#     4  12  26  52  75 106 149 193 247 312 361 431
#     4  12  26  49  76 108 147 195 248 309 363 431
#     4  12  26  49  73 110 155 184 248 310 356 443
#     4  12  26  47  75 110 154 186 248 308 358 443
#     4  12  26  46  74 110 144 200 238 298 374 436
#     4  12  26  46  74 110 146 196 234 296 374 434
#
# _framework density 22.362469999999998
#
# number of rings (size 3 to 8) (size 9 to 14) (size 15 to 20)
#    0.000    0.000    3.077    7.385    6.462    1.231 
#    2.769    1.538    0.000    0.000    0.000    0.000 
#    0.000    0.000    0.000    0.000    0.000    0.000 
#
# Total GULP energy -144789.166143 kJ/mol
# GULP energy per Si atom -5568.814082 kJ/mol
# Density = 2.231157 g / cm^3
# Si number density = 22.362470 Si / 1000 Ang^3
#
#
#
# Elastic Constant Matrix: (Units=GPa)
#
#
# Indices 1 2 3 4 5 6 
#
# 1 160.3179 62.3771 59.9639 0.0000 -10.9928 0.0000
# 2 62.3771 117.9009 73.5832 0.0000 0.6919 0.0000
# 3 59.9639 73.5832 96.6436 0.0000 2.7180 0.0000
# 4 0.0000 0.0000 0.0000 7.7284 0.0000 -1.9080
# 5 -10.9928 0.6919 2.7180 0.0000 67.3349 0.0000
# 6 0.0000 0.0000 0.0000 -1.9080 0.0000 33.1728
#
#
#
# Elastic Compliance Matrix: (Units=1/GPa)
#
#
# Indices 1 2 3 4 5 6 
#
# 1 0.008595 -0.002288 -0.003636 0.000000 0.001574 0.000000
# 2 -0.002288 0.016778 -0.011352 0.000000 -0.000088 0.000000
# 3 -0.003636 -0.011352 0.021284 0.000000 -0.001336 0.000000
# 4 0.000000 0.000000 0.000000 0.131257 0.000000 0.007549
# 5 0.001574 -0.000088 -0.001336 0.000000 0.015163 0.000000
# 6 0.000000 0.000000 0.000000 0.007549 0.000000 0.030579
#
#
# Mechanical properties :
#
#
# Convention : Reuss Voigt Hill
#
# Bulk Modulus (GPa) = 82.60430 85.19010 83.89720
# Shear Modulus (GPa) = 19.06626 33.57643 26.32135
#
# Velocity S-wave (km/s) = 2.92310 3.87908 3.43451
# Velocity P-wave (km/s) = 6.95785 7.63157 7.30248
#
# Compressibility (1/GPa) = 0.01210591
#
# Stress axis : x y z
#
# Youngs Moduli (GPa) = 116.34065 59.60261 46.98330
#
# Poissons Ratio (x) = 0.13636 0.17081
# Poissons Ratio (y) = 0.26617 0.53337
# Poissons Ratio (z) = 0.42296 0.67663
#
# Static dielectric constant tensor:
#      x y z
#    x 1.844530 0.000000 -0.015420 
#    y 0.000000 1.834030 0.000000 
#    z -0.015420 0.000000 1.864640 
# 
# From -- ./inp_files/287921.got.cif
#   From: 2010.05.17/outbox.cif.g08.bks.cpg/sg15_144_cif.got.tgz:287921.got - 2010.06.03 18:47:42.
