data_PCOD9308552
_publ_section_title
;
Structure prediction by ZEFSAII (Michael W. Deem and Ramdas Pophale) SiO2 
 PCOD9308552
Probable space group: C 2/C
;
_chemical_formula_sum "Si O2"
_cell_formula_units_Z 24
_cell_length_a 19.584986
_cell_length_b 6.988220
_cell_length_c 11.838140
_cell_angle_alpha 90.000000
_cell_angle_beta 148.024203
_cell_angle_gamma 90.000000
_cell_volume 858.003946
_symmetry_space_group_name_H-M "C 2/C"
_symmetry_group_IT_number 15
_symmetry_cell_setting 'monoclinic'
loop_
_space_group_symop_operation_xyz
x,y,z
-x,y,1/2-z
-x,-y,-z
x,-y,1/2+z
1/2+x,1/2+y,z
1/2-x,1/2+y,1/2-z
1/2-x,1/2-y,-z
1/2+x,1/2-y,1/2+z
loop_
_atom_site_type_symbol
_atom_site_label
_atom_site_fract_x
_atom_site_fract_y
_atom_site_fract_z
Si Si1 0.812039 0.500283 0.992483
Si Si2 0.639552 0.367261 0.065372
Si Si3 0.448059 0.309162 0.320987
O O1 0.776340 0.585490 0.817477
O O2 0.844944 0.282236 0.012736
O O3 0.677113 0.550917 0.864691
O O4 0.913225 0.614733 0.209683
O O5 0.551705 0.278060 0.043486
O O6 0.569647 0.569976 0.949620
#
# Coordination Sequence:
#
# PCOD9308552 Si02
#       3
#     8   8   8
#     4   9  17  36  69 105 140 188 236 292 356 425
#     4   9  17  36  69 105 140 188 236 292 356 425
#     4   8  18  36  67 106 146 184 239 288 356 426
#
# _framework density 27.971900000000002
#
# number of rings (size 3 to 8) (size 9 to 14) (size 15 to 20)
#    2.000    1.333    0.000    0.000    0.000    0.000 
#    0.000    5.000    0.000    8.000    0.000   14.000 
#    0.000    0.000    0.000    0.000    0.000    0.000 
#
# Total GULP energy -67128.058187 kJ/mol
# GULP energy per Si atom -5594.004849 kJ/mol
# Density = 2.790823 g / cm^3
# Si number density = 27.971900 Si / 1000 Ang^3
#
#
#
# Elastic Constant Matrix: (Units=GPa)
#
#
# Indices 1 2 3 4 5 6 
#
# 1 83.4608 37.5469 -4.1784 0.0000 0.6997 0.0000
# 2 37.5469 189.8975 66.1456 0.0000 -14.1787 0.0000
# 3 -4.1784 66.1456 117.2284 0.0000 -17.0699 0.0000
# 4 0.0000 0.0000 0.0000 58.6757 0.0000 -21.7108
# 5 0.6997 -14.1787 -17.0699 0.0000 30.0969 0.0000
# 6 0.0000 0.0000 0.0000 -21.7108 0.0000 55.1291
#
#
#
# Elastic Compliance Matrix: (Units=1/GPa)
#
#
# Indices 1 2 3 4 5 6 
#
# 1 0.013733 -0.003611 0.002434 0.000000 -0.000640 0.000000
# 2 -0.003611 0.007536 -0.004198 0.000000 0.001253 0.000000
# 3 0.002434 -0.004198 0.011652 0.000000 0.004574 0.000000
# 4 0.000000 0.000000 0.000000 0.019950 0.000000 0.007857
# 5 -0.000640 0.001253 0.004574 0.000000 0.036425 0.000000
# 6 0.000000 0.000000 0.000000 0.007857 0.000000 0.021233
#
#
# Mechanical properties :
#
#
# Convention : Reuss Voigt Hill
#
# Bulk Modulus (GPa) = 45.10548 65.51278 55.30913
# Shear Modulus (GPa) = 38.85879 48.18519 43.52199
#
# Velocity S-wave (km/s) = 3.73125 4.15496 3.94879
# Velocity P-wave (km/s) = 5.89265 6.81836 6.37233
#
# Compressibility (1/GPa) = 0.02217026
#
# Stress axis : x y z
#
# Youngs Moduli (GPa) = 72.81557 132.69846 85.82166
#
# Poissons Ratio (x) = 0.47916 -0.20887
# Poissons Ratio (y) = 0.26293 0.36031
# Poissons Ratio (z) = -0.17721 0.55711
#
# Static dielectric constant tensor:
#      x y z
#    x 2.281310 0.000000 -0.040130 
#    y 0.000000 2.073790 0.000000 
#    z -0.040130 0.000000 2.251630 
# 
# From -- ./inp_files/157830.got.cif
#   From: 2010.05.17/outbox.cif.g08.bks.cpg/sg15_79_cif.got.tgz:157830.got - 2010.06.03 18:47:42.
