data_PCOD9308684
_publ_section_title
;
Structure prediction by ZEFSAII (Michael W. Deem and Ramdas Pophale) SiO2 
 PCOD9308684
Probable space group: C 2/C
;
_chemical_formula_sum "Si O2"
_cell_formula_units_Z 28
_cell_length_a 24.000000
_cell_length_b 9.000000
_cell_length_c 15.000000
_cell_angle_alpha 90.000000
_cell_angle_beta 110.000000
_cell_angle_gamma 90.000000
_cell_volume 3044.604091
_symmetry_space_group_name_H-M "C 2/C"
_symmetry_group_IT_number 15
_symmetry_cell_setting 'monoclinic'
loop_
_space_group_symop_operation_xyz
x,y,z
-x,y,1/2-z
-x,-y,-z
x,-y,1/2+z
1/2+x,1/2+y,z
1/2-x,1/2+y,1/2-z
1/2-x,1/2-y,-z
1/2+x,1/2-y,1/2+z
loop_
_atom_site_type_symbol
_atom_site_label
_atom_site_fract_x
_atom_site_fract_y
_atom_site_fract_z
Si Si1 0.577688 0.938817 0.130984
Si Si2 0.652858 0.430858 0.032738
Si Si3 0.254535 0.068998 0.973541
Si Si4 0.257446 0.712152 0.152414
Si Si5 0.857459 0.428980 0.143811
Si Si6 0.942865 0.325200 0.034206
Si Si7 0.183278 0.772045 0.626666
O O1 0.605962 0.967750 0.245562
O O2 0.513860 0.848643 0.095285
O O3 0.630353 0.844956 0.113137
O O4 0.567175 0.086349 0.064824
O O5 0.702347 0.317289 0.097137
O O6 0.650005 0.570431 0.097506
O O7 0.688801 0.516214 0.971925
O O8 0.591498 0.337034 0.987584
O O9 0.260537 0.946225 0.896970
O O10 0.275612 0.219426 0.934283
O O11 0.305500 0.035413 0.076133
O O12 0.317492 0.781031 0.140766
O O13 0.273139 0.714208 0.264984
O O14 0.905348 0.404938 0.092183
#
# Coordination Sequence:
#
# PCOD9308684 Si02
#       7
#     8   8   8   8   8   8   8
#     4  10  23  36  62  87 108 158 200 240 288 346
#     4  11  21  34  58  84 117 160 179 244 303 339
#     4  11  19  37  58  85 117 152 195 244 291 351
#     4  10  19  35  58  83 112 154 192 235 294 349
#     4  10  18  36  62  84 111 146 198 244 287 341
#     4  11  20  40  60  84 117 150 202 239 285 356
#     4  11  22  35  54  88 122 147 195 240 293 353
#
# _framework density 9.1965979999999998
#
# number of rings (size 3 to 8) (size 9 to 14) (size 15 to 20)
#    0.000    1.429    4.286    2.571    0.000    2.857 
#    0.000    1.429    0.000    0.000    3.714    0.000 
#    0.000    0.000    0.000    0.000    0.000    0.000 
#
# Total GULP energy -155917.470104 kJ/mol
# GULP energy per Si atom -5568.481075 kJ/mol
# Density = 0.917567 g / cm^3
# Si number density = 9.196598 Si / 1000 Ang^3
#
#
#
# Elastic Constant Matrix: (Units=GPa)
#
#
# Indices 1 2 3 4 5 6 
#
# 1 105.3462 6.3013 25.8982 0.0000 8.7326 0.0000
# 2 6.3013 62.3950 4.7603 0.0000 8.7049 0.0000
# 3 25.8982 4.7603 91.5917 0.0000 15.8620 0.0000
# 4 0.0000 0.0000 0.0000 10.3369 0.0000 4.3669
# 5 8.7326 8.7049 15.8620 0.0000 32.4417 0.0000
# 6 0.0000 0.0000 0.0000 4.3669 0.0000 27.1263
#
#
#
# Elastic Compliance Matrix: (Units=1/GPa)
#
#
# Indices 1 2 3 4 5 6 
#
# 1 0.010291 -0.000656 -0.002651 0.000000 -0.001298 0.000000
# 2 -0.000656 0.016693 0.000069 0.000000 -0.004336 0.000000
# 3 -0.002651 0.000069 0.012612 0.000000 -0.005471 0.000000
# 4 0.000000 0.000000 0.000000 0.103799 0.000000 -0.016710
# 5 -0.001298 -0.004336 -0.005471 0.000000 0.035012 0.000000
# 6 0.000000 0.000000 0.000000 -0.016710 0.000000 0.039555
#
#
# Mechanical properties :
#
#
# Convention : Reuss Voigt Hill
#
# Bulk Modulus (GPa) = 30.19396 37.02806 33.61101
# Shear Modulus (GPa) = 21.23341 28.80587 25.01964
#
# Velocity S-wave (km/s) = 3.40136 3.96171 3.69218
# Velocity P-wave (km/s) = 5.64598 6.41108 6.04066
#
# Compressibility (1/GPa) = 0.03311920
#
# Stress axis : x y z
#
# Youngs Moduli (GPa) = 97.17171 59.90585 79.29246
#
# Poissons Ratio (x) = 0.03930 0.21020
# Poissons Ratio (y) = 0.06374 -0.00546
# Poissons Ratio (z) = 0.25760 -0.00412
#
# Static dielectric constant tensor:
#      x y z
#    x 1.638960 0.000000 -0.056510 
#    y 0.000000 1.719660 0.000000 
#    z -0.056510 0.000000 1.664600 
# 
# From -- ./inp_files/171949.got.cif
#   From: 2010.05.17/outbox.ucp.g08.bks.cvg/sg15_86_cif.got.tgz:171949.got - 2010.06.11 12:40:34.
