data_PCOD9308819
_publ_section_title
;
Structure prediction by ZEFSAII (Michael W. Deem and Ramdas Pophale) SiO2 
 PCOD9308819
Probable space group: C 2/C
;
_chemical_formula_sum "Si O2"
_cell_formula_units_Z 28
_cell_length_a 24.000000
_cell_length_b 18.000000
_cell_length_c 9.000000
_cell_angle_alpha 90.000000
_cell_angle_beta 130.000000
_cell_angle_gamma 90.000000
_cell_volume 2978.380795
_symmetry_space_group_name_H-M "C 2/C"
_symmetry_group_IT_number 15
_symmetry_cell_setting 'monoclinic'
loop_
_space_group_symop_operation_xyz
x,y,z
-x,y,1/2-z
-x,-y,-z
x,-y,1/2+z
1/2+x,1/2+y,z
1/2-x,1/2+y,1/2-z
1/2-x,1/2-y,-z
1/2+x,1/2-y,1/2+z
loop_
_atom_site_type_symbol
_atom_site_label
_atom_site_fract_x
_atom_site_fract_y
_atom_site_fract_z
Si Si1 0.867661 0.296075 0.274892
Si Si2 0.174130 0.265266 0.632889
Si Si3 0.812350 0.010090 0.162742
Si Si4 0.941805 0.907325 0.278965
Si Si5 0.316162 0.344399 0.872368
Si Si6 0.982323 0.228391 0.044559
Si Si7 0.750556 0.895398 0.279098
O O1 0.836338 0.219977 0.290513
O O2 0.828163 0.362375 0.300666
O O3 0.954965 0.281433 0.418224
O O4 0.841897 0.298652 0.059137
O O5 0.239719 0.315706 0.808751
O O6 0.099037 0.262700 0.595539
O O7 0.201249 0.179903 0.657611
O O8 0.813744 0.076883 0.284380
O O9 0.892268 0.973562 0.264811
O O10 0.762310 0.944713 0.149689
O O11 0.781257 0.050523 0.962052
O O12 0.981249 0.852560 0.464011
O O13 0.000000 0.930176 0.250000
O O14 0.880842 0.854410 0.099378
O O15 0.000000 0.218621 0.250000
#
# Coordination Sequence:
#
# PCOD9308819 Si02
#       7
#     8   8   8   8   8   8   8
#     4  10  19  39  65  87 121 168 212 259 294 369
#     4  10  19  38  65  91 115 166 221 252 298 368
#     4  12  23  39  59  92 127 165 202 252 314 371
#     4  12  25  41  56  94 133 164 194 256 320 373
#     4  11  21  37  61  85 125 164 208 258 300 366
#     4  10  22  40  65  91 121 161 212 256 307 364
#     4  11  21  38  63  91 123 165 213 251 306 368
#
# _framework density 9.4010809999999996
#
# number of rings (size 3 to 8) (size 9 to 14) (size 15 to 20)
#    0.000    1.143    7.143    0.857    0.000    1.143 
#    2.571    0.000    0.000    0.857    3.714    0.000 
#    0.000    0.000    0.000    0.000    0.000    0.000 
#
# Total GULP energy -156313.189446 kJ/mol
# GULP energy per Si atom -5582.613909 kJ/mol
# Density = 0.937968 g / cm^3
# Si number density = 9.401081 Si / 1000 Ang^3
#
#
#
# Elastic Constant Matrix: (Units=GPa)
#
#
# Indices 1 2 3 4 5 6 
#
# 1 158.5092 61.6973 20.5990 0.0000 30.6005 0.0000
# 2 61.6973 101.4459 26.3205 0.0000 7.0601 0.0000
# 3 20.5990 26.3205 43.3723 0.0000 14.1874 0.0000
# 4 0.0000 0.0000 0.0000 33.9968 0.0000 4.6118
# 5 30.6005 7.0601 14.1874 0.0000 28.9017 0.0000
# 6 0.0000 0.0000 0.0000 4.6118 0.0000 33.5167
#
#
#
# Elastic Compliance Matrix: (Units=1/GPa)
#
#
# Indices 1 2 3 4 5 6 
#
# 1 0.010513 -0.006246 0.002310 0.000000 -0.010739 0.000000
# 2 -0.006246 0.015424 -0.008725 0.000000 0.007128 0.000000
# 3 0.002310 -0.008725 0.032590 0.000000 -0.016312 0.000000
# 4 0.000000 0.000000 0.000000 0.029974 0.000000 -0.004124
# 5 -0.010739 0.007128 -0.016312 0.000000 0.052237 0.000000
# 6 0.000000 0.000000 0.000000 -0.004124 0.000000 0.030403
#
#
# Mechanical properties :
#
#
# Convention : Reuss Voigt Hill
#
# Bulk Modulus (GPa) = 30.11619 57.84012 43.97815
# Shear Modulus (GPa) = 24.09288 32.26373 28.17830
#
# Velocity S-wave (km/s) = 3.58353 4.14691 3.87547
# Velocity P-wave (km/s) = 5.75973 7.33201 6.59291
#
# Compressibility (1/GPa) = 0.03320473
#
# Stress axis : x y z
#
# Youngs Moduli (GPa) = 95.12229 64.83545 30.68434
#
# Poissons Ratio (x) = 0.40494 -0.07088
# Poissons Ratio (y) = 0.59410 0.26773
# Poissons Ratio (z) = -0.21974 0.56571
#
# Static dielectric constant tensor:
#      x y z
#    x 1.692910 0.000000 -0.005690 
#    y 0.000000 1.623670 0.000000 
#    z -0.005690 0.000000 1.709600 
# 
# From -- ./inp_files/62764.got.cif
#   From: 2010.05.17/outbox.ucp.g08.bks.cvg/sg15_32_cif.got.tgz:62764.got - 2010.06.11 12:40:34.
