data_PCOD9308330
_publ_section_title
;
Structure prediction by ZEFSAII (Michael W. Deem and Ramdas Pophale) SiO2 
 PCOD9308330
Probable space group: C 2/C
;
_chemical_formula_sum "Si O2"
_cell_formula_units_Z 48
_cell_length_a 19.886437
_cell_length_b 15.416222
_cell_length_c 10.684007
_cell_angle_alpha 90.000000
_cell_angle_beta 38.361039
_cell_angle_gamma 90.000000
_cell_volume 2032.783727
_symmetry_space_group_name_H-M "C 2/C"
_symmetry_group_IT_number 15
_symmetry_cell_setting 'monoclinic'
loop_
_space_group_symop_operation_xyz
x,y,z
-x,y,1/2-z
-x,-y,-z
x,-y,1/2+z
1/2+x,1/2+y,z
1/2-x,1/2+y,1/2-z
1/2-x,1/2-y,-z
1/2+x,1/2-y,1/2+z
loop_
_atom_site_type_symbol
_atom_site_label
_atom_site_fract_x
_atom_site_fract_y
_atom_site_fract_z
Si Si1 0.065911 0.989433 0.774028
Si Si2 0.677671 0.106603 0.339007
Si Si3 0.172098 0.175549 0.168196
Si Si4 0.964222 0.273637 0.564627
Si Si5 0.587765 0.075237 0.030205
Si Si6 0.777283 0.140190 0.924711
O O1 0.114140 0.895501 0.665011
O O2 0.000000 0.022809 0.750000
O O3 0.166688 0.048261 0.657263
O O4 0.000000 0.000000 0.000000
O O5 0.758299 0.120251 0.334971
O O6 0.582462 0.178147 0.490025
O O7 0.640468 0.006530 0.381488
O O8 0.731760 0.140871 0.131941
O O9 0.069743 0.217555 0.385585
O O10 0.250000 0.250000 0.000000
O O11 0.871540 0.210992 0.760116
O O12 0.011413 0.355562 0.572379
O O13 0.500000 0.030872 0.250000
O O14 0.681064 0.131487 0.963677
#
# Coordination Sequence:
#
# PCOD9308330 Si02
#       6
#     8   8   8   8   8   8
#     4  12  27  51  79 113 156 210 262 327 396 473
#     4  12  28  48  77 111 154 208 256 325 401 468
#     4  12  30  47  76 115 155 202 262 331 394 468
#     4  12  28  47  78 109 154 206 264 322 392 474
#     4  12  28  48  74 112 155 203 261 326 403 472
#     4  12  27  49  78 112 153 203 269 319 389 481
#
# _framework density 23.612939999999998
#
# number of rings (size 3 to 8) (size 9 to 14) (size 15 to 20)
#    0.000    0.000    5.000    3.000    9.333    0.000 
#    0.000    0.000    0.000    0.000    0.000    0.000 
#    0.000    0.000    0.000    0.000    0.000    0.000 
#
# Total GULP energy -133996.078209 kJ/mol
# GULP energy per Si atom -5583.169925 kJ/mol
# Density = 2.355920 g / cm^3
# Si number density = 23.612940 Si / 1000 Ang^3
#
#
#
# Elastic Constant Matrix: (Units=GPa)
#
#
# Indices 1 2 3 4 5 6 
#
# 1 111.9041 25.4089 25.5340 0.0000 -26.8456 0.0000
# 2 25.4089 159.4140 60.5142 0.0000 -15.8357 0.0000
# 3 25.5340 60.5142 116.2032 0.0000 -14.6186 0.0000
# 4 0.0000 0.0000 0.0000 48.9930 0.0000 -13.6853
# 5 -26.8456 -15.8357 -14.6186 0.0000 26.4744 0.0000
# 6 0.0000 0.0000 0.0000 -13.6853 0.0000 35.1265
#
#
#
# Elastic Compliance Matrix: (Units=1/GPa)
#
#
# Indices 1 2 3 4 5 6 
#
# 1 0.011979 -0.000404 -0.000993 0.000000 0.011357 0.000000
# 2 -0.000404 0.008004 -0.003792 0.000000 0.002284 0.000000
# 3 -0.000993 -0.003792 0.011162 0.000000 0.002888 0.000000
# 4 0.000000 0.000000 0.000000 0.022904 0.000000 0.008923
# 5 0.011357 0.002284 0.002888 0.000000 0.052250 0.000000
# 6 0.000000 0.000000 0.000000 0.008923 0.000000 0.031945
#
#
# Mechanical properties :
#
#
# Convention : Reuss Voigt Hill
#
# Bulk Modulus (GPa) = 48.15471 67.82616 57.99043
# Shear Modulus (GPa) = 32.14541 40.52305 36.33423
#
# Velocity S-wave (km/s) = 3.69365 4.14712 3.92694
# Velocity P-wave (km/s) = 6.21517 7.19152 6.72110
#
# Compressibility (1/GPa) = 0.02076640
#
# Stress axis : x y z
#
# Youngs Moduli (GPa) = 83.47864 124.94259 89.59097
#
# Poissons Ratio (x) = 0.05051 0.08896
# Poissons Ratio (y) = 0.03374 0.33972
# Poissons Ratio (z) = 0.08289 0.47377
#
# Static dielectric constant tensor:
#      x y z
#    x 1.869820 0.000000 -0.019380 
#    y 0.000000 2.110780 0.000000 
#    z -0.019380 0.000000 1.994750 
# 
# From -- ./inp_files/112931.got.cif
#   From: 2010.05.17/outbox.cif.g08.bks.cpg/sg15_57_cif.got.tgz:112931.got - 2010.06.03 18:47:42.
