data_PCOD9308603
_publ_section_title
;
Structure prediction by ZEFSAII (Michael W. Deem and Ramdas Pophale) SiO2 
 PCOD9308603
Probable space group: C 2/C
;
_chemical_formula_sum "Si O2"
_cell_formula_units_Z 26
_cell_length_a 12.000000
_cell_length_b 21.000000
_cell_length_c 12.000000
_cell_angle_alpha 90.000000
_cell_angle_beta 110.000000
_cell_angle_gamma 90.000000
_cell_volume 2841.630485
_symmetry_space_group_name_H-M "C 2/C"
_symmetry_group_IT_number 15
_symmetry_cell_setting 'monoclinic'
loop_
_space_group_symop_operation_xyz
x,y,z
-x,y,1/2-z
-x,-y,-z
x,-y,1/2+z
1/2+x,1/2+y,z
1/2-x,1/2+y,1/2-z
1/2-x,1/2-y,-z
1/2+x,1/2-y,1/2+z
loop_
_atom_site_type_symbol
_atom_site_label
_atom_site_fract_x
_atom_site_fract_y
_atom_site_fract_z
Si Si1 0.774640 0.224977 0.174360
Si Si2 0.092452 0.613876 0.131270
Si Si3 0.151252 0.837741 0.033676
Si Si4 0.897403 0.840672 0.904579
Si Si5 0.729234 0.536391 0.461308
Si Si6 0.500000 0.562662 0.250000
Si Si7 0.669627 0.906958 0.906514
O O1 0.654774 0.183128 0.148083
O O2 0.835876 0.192938 0.086726
O O3 0.856353 0.215825 0.309347
O O4 0.739135 0.296646 0.137659
O O5 0.164230 0.570845 0.068666
O O6 0.126969 0.586525 0.264100
O O7 0.950410 0.614564 0.071165
O O8 0.186803 0.911198 0.036952
O O9 0.014013 0.829221 0.016553
O O10 0.783075 0.860649 0.936256
O O11 0.939287 0.894919 0.828134
O O12 0.611803 0.527002 0.344111
O O13 0.779370 0.472283 0.528727
#
# Coordination Sequence:
#
# PCOD9308603 Si02
#       7
#     8   8   8   8   8   4   8
#     4   9  15  30  52  71  97 129 168 208 249 296
#     4   9  18  34  50  76 101 136 174 206 248 304
#     4   9  17  27  52  74  95 128 166 209 257 294
#     4  10  16  32  49  76  98 129 171 205 250 308
#     4  10  18  32  51  77 106 130 166 216 255 293
#     4  10  16  30  48  72 102 132 160 208 252 296
#     4  10  19  30  55  75  99 143 170 200 254 319
#
# _framework density 9.1496770000000005
#
# number of rings (size 3 to 8) (size 9 to 14) (size 15 to 20)
#    0.000    2.462    6.154    0.462    0.000    2.462 
#    0.000    0.769   23.692    0.000    0.000    0.000 
#    0.000    0.000    0.000    0.000    0.000    0.000 
#
# Total GULP energy -144777.021860 kJ/mol
# GULP energy per Si atom -5568.346995 kJ/mol
# Density = 0.912885 g / cm^3
# Si number density = 9.149677 Si / 1000 Ang^3
#
#
#
# Elastic Constant Matrix: (Units=GPa)
#
#
# Indices 1 2 3 4 5 6 
#
# 1 129.4635 6.3164 12.7633 0.0000 20.7705 0.0000
# 2 6.3164 22.0417 7.8828 0.0000 6.5122 0.0000
# 3 12.7633 7.8828 6.3799 0.0000 1.9459 0.0000
# 4 0.0000 0.0000 0.0000 22.1711 0.0000 -2.6175
# 5 20.7705 6.5122 1.9459 0.0000 15.9168 0.0000
# 6 0.0000 0.0000 0.0000 -2.6175 0.0000 -10.1073
#
#
#
# Elastic Compliance Matrix: (Units=1/GPa)
#
#
# Indices 1 2 3 4 5 6 
#
# 1 0.014728 0.018381 -0.045725 0.000000 -0.021150 0.000000
# 2 0.018381 0.112219 -0.160074 0.000000 -0.050329 0.000000
# 3 -0.045725 -0.160074 0.423621 0.000000 0.073372 0.000000
# 4 0.000000 0.000000 0.000000 0.043766 0.000000 -0.011334
# 5 -0.021150 -0.050329 0.073372 0.000000 0.102048 0.000000
# 6 0.000000 0.000000 0.000000 -0.011334 0.000000 -0.096003
#
#
# Mechanical properties :
#
#
# Convention : Reuss Voigt Hill
#
# Bulk Modulus (GPa) = 5.69050 23.53444 14.61247
# Shear Modulus (GPa) = 4.83656 14.32428 9.58042
#
# Velocity S-wave (km/s) = 1.62750 2.80085 2.29058
# Velocity P-wave (km/s) = 2.57839 4.83202 3.87276
#
# Compressibility (1/GPa) = 0.17573147
#
# Stress axis : x y z
#
# Youngs Moduli (GPa) = 67.89575 8.91118 2.36060
#
# Poissons Ratio (x) = -0.16379 0.10794
# Poissons Ratio (y) = -1.24797 0.37787
# Poissons Ratio (z) = 3.10452 1.42645
#
# Static dielectric constant tensor:
#      x y z
#    x 1.668040 0.000000 -0.002180 
#    y 0.000000 1.630100 0.000000 
#    z -0.002180 0.000000 1.632390 
# 
# From -- ./inp_files/89109.got.cif
#   From: 2010.05.17/outbox.ucp.g08.bks.cvg/sg15_45_cif.got.tgz:89109.got - 2010.06.11 12:40:34.
