data_PCOD9308487
_publ_section_title
;
Structure prediction by ZEFSAII (Michael W. Deem and Ramdas Pophale) SiO2 
 PCOD9308487
Probable space group: C 2/C
;
_chemical_formula_sum "Si O2"
_cell_formula_units_Z 40
_cell_length_a 22.205271
_cell_length_b 21.055885
_cell_length_c 10.026715
_cell_angle_alpha 90.000000
_cell_angle_beta 161.773213
_cell_angle_gamma 90.000000
_cell_volume 1466.310209
_symmetry_space_group_name_H-M "C 2/C"
_symmetry_group_IT_number 15
_symmetry_cell_setting 'monoclinic'
loop_
_space_group_symop_operation_xyz
x,y,z
-x,y,1/2-z
-x,-y,-z
x,-y,1/2+z
1/2+x,1/2+y,z
1/2-x,1/2+y,1/2-z
1/2-x,1/2-y,-z
1/2+x,1/2-y,1/2+z
loop_
_atom_site_type_symbol
_atom_site_label
_atom_site_fract_x
_atom_site_fract_y
_atom_site_fract_z
Si Si1 0.236052 0.365448 0.447360
Si Si2 0.115937 0.085537 0.633144
Si Si3 0.160163 0.463330 0.479693
Si Si4 0.267451 0.297722 0.239682
Si Si5 0.227304 0.665491 0.205201
O O1 0.099528 0.419385 0.225649
O O2 0.191784 0.331197 0.216101
O O3 0.253960 0.316410 0.605836
O O4 0.441409 0.401420 0.865569
O O5 0.246650 0.148980 0.903841
O O6 0.229873 0.020799 0.858277
O O7 0.000000 0.085129 0.250000
O O8 0.281467 0.409582 0.820384
O O9 0.000000 0.485331 0.250000
O O10 0.191846 0.227196 0.050574
O O11 0.500000 0.288548 0.750000
O O12 0.000000 0.660237 0.750000
#
# Coordination Sequence:
#
# PCOD9308487 Si02
#       5
#     8   8   8   8   8
#     4   8  14  24  43  62  80 105 138 168 202 235
#     4   9  17  28  41  61  85 109 134 165 203 243
#     4   9  17  27  42  61  83 108 138 165 201 243
#     4   8  14  24  38  62  86 104 129 172 208 232
#     4   8  14  23  40  62  86 100 133 170 208 230
#
# _framework density 27.279357999999998
#
# number of rings (size 3 to 8) (size 9 to 14) (size 15 to 20)
#    1.200    2.800    0.000    1.200    0.000    0.000 
#    0.000    4.000    0.000    1.200    0.000    1.400 
#    0.000    1.000    0.000    0.000    0.000    0.000 
#
# Total GULP energy -111372.299438 kJ/mol
# GULP energy per Si atom -5568.614972 kJ/mol
# Density = 2.721727 g / cm^3
# Si number density = 27.279358 Si / 1000 Ang^3
#
#
#
# Elastic Constant Matrix: (Units=GPa)
#
#
# Indices 1 2 3 4 5 6 
#
# 1 93.6502 37.4459 54.9688 0.0000 42.5448 0.0000
# 2 37.4459 215.5597 44.4025 0.0000 13.0502 0.0000
# 3 54.9688 44.4025 98.5589 0.0000 15.8316 0.0000
# 4 0.0000 0.0000 0.0000 1.2891 0.0000 -9.6056
# 5 42.5448 13.0502 15.8316 0.0000 45.5858 0.0000
# 6 0.0000 0.0000 0.0000 -9.6056 0.0000 -6.8802
#
#
#
# Elastic Compliance Matrix: (Units=1/GPa)
#
#
# Indices 1 2 3 4 5 6 
#
# 1 0.027585 -0.001140 -0.011426 0.000000 -0.021450 0.000000
# 2 -0.001140 0.005182 -0.001728 0.000000 0.000180 0.000000
# 3 -0.011426 -0.001728 0.016421 0.000000 0.005455 0.000000
# 4 0.000000 0.000000 0.000000 0.068028 0.000000 -0.094976
# 5 -0.021450 0.000180 0.005455 0.000000 0.040010 0.000000
# 6 0.000000 0.000000 0.000000 -0.094976 0.000000 -0.012746
#
#
# Mechanical properties :
#
#
# Convention : Reuss Voigt Hill
#
# Bulk Modulus (GPa) = 48.54118 75.71146 62.12632
# Shear Modulus (GPa) = 27.78805 26.06239 26.92522
#
# Velocity S-wave (km/s) = 3.19509 3.09429 3.14509
# Velocity P-wave (km/s) = 5.60751 6.37029 6.00103
#
# Compressibility (1/GPa) = 0.02060106
#
# Stress axis : x y z
#
# Youngs Moduli (GPa) = 36.25155 192.97232 60.89835
#
# Poissons Ratio (x) = 0.21994 0.69581
# Poissons Ratio (y) = 0.04132 0.10523
# Poissons Ratio (z) = 0.41420 0.33344
#
# Static dielectric constant tensor:
#      x y z
#    x 2.259740 0.000000 -0.015460 
#    y 0.000000 2.272070 0.000000 
#    z -0.015460 0.000000 2.306600 
# 
# From -- ./inp_files/135630.got.cif
#   From: 2010.05.17/outbox.cif.g08.bks.cpg/sg15_68_cif.got.tgz:135630.got - 2010.06.03 18:47:42.
