data_PCOD9308960
_publ_section_title
;
Structure prediction by ZEFSAII (Michael W. Deem and Ramdas Pophale) SiO2 
 PCOD9308960
Probable space group: C 2/C
;
_chemical_formula_sum "Si O2"
_cell_formula_units_Z 20
_cell_length_a 6.000000
_cell_length_b 27.000000
_cell_length_c 12.000000
_cell_angle_alpha 90.000000
_cell_angle_beta 80.000000
_cell_angle_gamma 90.000000
_cell_volume 1914.466272
_symmetry_space_group_name_H-M "C 2/C"
_symmetry_group_IT_number 15
_symmetry_cell_setting 'monoclinic'
loop_
_space_group_symop_operation_xyz
x,y,z
-x,y,1/2-z
-x,-y,-z
x,-y,1/2+z
1/2+x,1/2+y,z
1/2-x,1/2+y,1/2-z
1/2-x,1/2-y,-z
1/2+x,1/2-y,1/2+z
loop_
_atom_site_type_symbol
_atom_site_label
_atom_site_fract_x
_atom_site_fract_y
_atom_site_fract_z
Si Si1 0.168609 0.494221 0.633479
Si Si2 0.756371 0.179102 0.564154
Si Si3 0.000000 0.219250 0.750000
Si Si4 0.928982 0.770235 0.628708
Si Si5 0.000000 0.066003 0.250000
Si Si6 0.341574 0.079481 0.036840
O O1 0.377674 0.469732 0.674719
O O2 0.237958 0.538390 0.545976
O O3 0.000000 0.509843 0.750000
O O4 0.050779 0.449795 0.573942
O O5 0.853173 0.185189 0.680454
O O6 0.568710 0.222113 0.576051
O O7 0.636067 0.129074 0.536294
O O8 0.972204 0.188838 0.463731
O O9 0.833180 0.254343 0.837719
O O10 0.000000 0.782020 0.750000
O O11 0.817093 0.092873 0.343250
#
# Coordination Sequence:
#
# PCOD9308960 Si02
#       6
#     8   8   4   8   4   8
#     4   9  20  38  57  83 119 155 194 251 307 357
#     4  10  21  36  59  87 120 158 207 246 300 367
#     4  10  20  37  58  86 120 166 200 252 305 354
#     4   9  20  38  58  82 122 160 200 251 301 357
#     4  10  20  37  58  82 118 152 196 248 307 362
#     4  10  21  36  59  86 117 155 201 250 301 368
#
# _framework density 10.446776
#
# number of rings (size 3 to 8) (size 9 to 14) (size 15 to 20)
#    0.000    2.400    0.000    1.200    1.400    4.800 
#    0.000    0.000    8.800    0.000    0.000    0.000 
#    0.000    0.000    0.000    0.000    0.000    0.000 
#
# Total GULP energy -111461.728462 kJ/mol
# GULP energy per Si atom -5573.086423 kJ/mol
# Density = 1.042300 g / cm^3
# Si number density = 10.446776 Si / 1000 Ang^3
#
#
#
# Elastic Constant Matrix: (Units=GPa)
#
#
# Indices 1 2 3 4 5 6 
#
# 1 29.0958 4.4422 9.1300 0.0000 -6.6723 0.0000
# 2 4.4422 74.2086 24.4834 0.0000 9.4673 0.0000
# 3 9.1300 24.4834 73.6582 0.0000 0.0627 0.0000
# 4 0.0000 0.0000 0.0000 29.0302 0.0000 1.3234
# 5 -6.6723 9.4673 0.0627 0.0000 42.2519 0.0000
# 6 0.0000 0.0000 0.0000 1.3234 0.0000 3.9783
#
#
#
# Elastic Compliance Matrix: (Units=1/GPa)
#
#
# Indices 1 2 3 4 5 6 
#
# 1 0.037346 -0.001694 -0.004071 0.000000 0.006283 0.000000
# 2 -0.001694 0.015712 -0.005009 0.000000 -0.003781 0.000000
# 3 -0.004071 -0.005009 0.015746 0.000000 0.000456 0.000000
# 4 0.000000 0.000000 0.000000 0.034977 0.000000 -0.011635
# 5 0.006283 -0.003781 0.000456 0.000000 0.025506 0.000000
# 6 0.000000 0.000000 0.000000 -0.011635 0.000000 0.255234
#
#
# Mechanical properties :
#
#
# Convention : Reuss Voigt Hill
#
# Bulk Modulus (GPa) = 21.16201 28.11931 24.64066
# Shear Modulus (GPa) = 11.85334 24.31254 18.08294
#
# Velocity S-wave (km/s) = 2.38443 3.41492 2.94510
# Velocity P-wave (km/s) = 4.21084 5.38855 4.83568
#
# Compressibility (1/GPa) = 0.04725449
#
# Stress axis : x y z
#
# Youngs Moduli (GPa) = 26.77639 63.64574 63.51002
#
# Poissons Ratio (x) = 0.10781 0.25857
# Poissons Ratio (y) = 0.04536 0.31814
# Poissons Ratio (z) = 0.10902 0.31882
#
# Static dielectric constant tensor:
#      x y z
#    x 1.795900 0.000000 -0.031950 
#    y 0.000000 1.716680 0.000000 
#    z -0.031950 0.000000 1.807970 
# 
# From -- ./inp_files/73124.got.cif
#   From: 2010.05.17/outbox.ucp.g08.bks.cvg/sg15_37_cif.got.tgz:73124.got - 2010.06.11 12:40:34.
