data_PCOD9308538
_publ_section_title
;
Structure prediction by ZEFSAII (Michael W. Deem and Ramdas Pophale) SiO2 
 PCOD9308538
Probable space group: C 2/C
;
_chemical_formula_sum "Si O2"
_cell_formula_units_Z 24
_cell_length_a 8.292744
_cell_length_b 11.909077
_cell_length_c 10.513049
_cell_angle_alpha 90.000000
_cell_angle_beta 100.893561
_cell_angle_gamma 90.000000
_cell_volume 1019.547994
_symmetry_space_group_name_H-M "C 2/C"
_symmetry_group_IT_number 15
_symmetry_cell_setting 'monoclinic'
loop_
_space_group_symop_operation_xyz
x,y,z
-x,y,1/2-z
-x,-y,-z
x,-y,1/2+z
1/2+x,1/2+y,z
1/2-x,1/2+y,1/2-z
1/2-x,1/2-y,-z
1/2+x,1/2-y,1/2+z
loop_
_atom_site_type_symbol
_atom_site_label
_atom_site_fract_x
_atom_site_fract_y
_atom_site_fract_z
Si Si1 0.976283 0.171135 0.491616
Si Si2 0.159080 0.396736 0.083606
Si Si3 0.263185 0.517829 0.862641
O O1 0.967694 0.294533 0.433317
O O2 0.839162 0.162460 0.583782
O O3 0.146585 0.128868 0.572667
O O4 0.907085 0.077441 0.382789
O O5 0.181085 0.462962 0.216362
O O6 0.144447 0.471873 0.954973
#
# Coordination Sequence:
#
# PCOD9308538 Si02
#       3
#     8   8   8
#     4   8  17  27  49  76 101 136 168 205 266 300
#     4   9  16  30  49  77 100 134 171 210 257 307
#     4   9  16  29  51  73 102 133 171 211 255 306
#
# _framework density 23.539843999999999
#
# number of rings (size 3 to 8) (size 9 to 14) (size 15 to 20)
#    2.000    1.333    0.000    1.000    0.000    0.000 
#    0.000    1.667    0.000    2.000    0.000    0.000 
#    0.000    0.000    0.000    0.000    0.000    0.000 
#
# Total GULP energy -66990.563297 kJ/mol
# GULP energy per Si atom -5582.546941 kJ/mol
# Density = 2.348627 g / cm^3
# Si number density = 23.539844 Si / 1000 Ang^3
#
#
#
# Elastic Constant Matrix: (Units=GPa)
#
#
# Indices 1 2 3 4 5 6 
#
# 1 62.3790 10.1808 25.9464 0.0000 4.8308 0.0000
# 2 10.1808 111.8450 86.7555 0.0000 1.2335 0.0000
# 3 25.9464 86.7555 214.4391 0.0000 -10.5128 0.0000
# 4 0.0000 0.0000 0.0000 11.2082 0.0000 8.7454
# 5 4.8308 1.2335 -10.5128 0.0000 24.8627 0.0000
# 6 0.0000 0.0000 0.0000 8.7454 0.0000 28.6543
#
#
#
# Elastic Compliance Matrix: (Units=1/GPa)
#
#
# Indices 1 2 3 4 5 6 
#
# 1 0.017339 0.000388 -0.002473 0.000000 -0.004434 0.000000
# 2 0.000388 0.013252 -0.005560 0.000000 -0.003084 0.000000
# 3 -0.002473 -0.005560 0.007402 0.000000 0.003886 0.000000
# 4 0.000000 0.000000 0.000000 0.117109 0.000000 -0.035742
# 5 -0.004434 -0.003084 0.003886 0.000000 0.042879 0.000000
# 6 0.000000 0.000000 0.000000 -0.035742 0.000000 0.045807
#
#
# Mechanical properties :
#
#
# Convention : Reuss Voigt Hill
#
# Bulk Modulus (GPa) = 44.04039 70.49205 57.26622
# Shear Modulus (GPa) = 18.75151 30.66374 24.70763
#
# Velocity S-wave (km/s) = 2.82545 3.61311 3.24328
# Velocity P-wave (km/s) = 5.42159 6.88600 6.19720
#
# Compressibility (1/GPa) = 0.02270643
#
# Stress axis : x y z
#
# Youngs Moduli (GPa) = 57.67203 75.46039 135.09442
#
# Poissons Ratio (x) = -0.02931 0.33403
# Poissons Ratio (y) = -0.02240 0.75106
# Poissons Ratio (z) = 0.14260 0.41952
#
# Static dielectric constant tensor:
#      x y z
#    x 2.048760 0.000000 0.028880 
#    y 0.000000 1.919260 0.000000 
#    z 0.028880 0.000000 1.807670 
# 
# From -- ./inp_files/21017.got.cif
#   From: 2010.05.17/outbox.cif.g08.bks.cpg/sg15_11_cif.got.tgz:21017.got - 2010.06.03 18:47:42.
