data_PCOD9308356
_publ_section_title
;
Structure prediction by ZEFSAII (Michael W. Deem and Ramdas Pophale) SiO2 
 PCOD9308356
Probable space group: C 2/C
;
_chemical_formula_sum "Si O2"
_cell_formula_units_Z 32
_cell_length_a 15.831297
_cell_length_b 11.090054
_cell_length_c 19.923308
_cell_angle_alpha 90.000000
_cell_angle_beta 159.480369
_cell_angle_gamma 90.000000
_cell_volume 1226.124805
_symmetry_space_group_name_H-M "C 2/C"
_symmetry_group_IT_number 15
_symmetry_cell_setting 'monoclinic'
loop_
_space_group_symop_operation_xyz
x,y,z
-x,y,1/2-z
-x,-y,-z
x,-y,1/2+z
1/2+x,1/2+y,z
1/2-x,1/2+y,1/2-z
1/2-x,1/2-y,-z
1/2+x,1/2-y,1/2+z
loop_
_atom_site_type_symbol
_atom_site_label
_atom_site_fract_x
_atom_site_fract_y
_atom_site_fract_z
Si Si1 0.551935 0.366105 0.019366
Si Si2 0.896498 0.280303 0.747667
Si Si3 0.838352 0.546617 0.943795
Si Si4 0.417530 0.191464 0.570855
O O1 0.115350 0.132359 0.755141
O O2 0.389938 0.300954 0.954733
O O3 0.470273 0.295391 0.892962
O O4 0.500000 0.500000 0.000000
O O5 0.000000 0.304278 0.750000
O O6 0.836508 0.636150 0.719757
O O7 0.025282 0.373749 0.895733
O O8 0.778642 0.416709 0.930844
O O9 0.000000 0.500000 0.000000
O O10 0.250000 0.250000 0.500000
#
# Coordination Sequence:
#
# PCOD9308356 Si02
#       4
#     8   8   8   8
#     4  12  27  50  83 115 167 212 283 346 425 498
#     4  12  28  53  81 119 166 224 282 351 425 515
#     4  12  28  53  83 121 169 223 286 353 435 511
#     4  12  29  52  81 121 163 227 281 352 422 515
#
# _framework density 26.098483999999999
#
# number of rings (size 3 to 8) (size 9 to 14) (size 15 to 20)
#    0.000    0.000    5.000    3.000    3.500    2.000 
#    0.000    0.000    0.000    0.000    0.000    0.000 
#    0.000    0.000    0.000    0.000    0.000    0.000 
#
# Total GULP energy -89246.546278 kJ/mol
# GULP energy per Si atom -5577.909142 kJ/mol
# Density = 2.603908 g / cm^3
# Si number density = 26.098484 Si / 1000 Ang^3
#
#
#
# Elastic Constant Matrix: (Units=GPa)
#
#
# Indices 1 2 3 4 5 6 
#
# 1 247.1479 102.2184 46.0131 0.0007 26.2031 -0.0013
# 2 102.2184 155.9527 8.4455 -0.0001 -8.3398 -0.0015
# 3 46.0131 8.4455 72.6913 0.0060 13.4515 0.0012
# 4 0.0007 -0.0001 0.0060 46.7644 0.0037 9.5141
# 5 26.2031 -8.3398 13.4515 0.0037 52.1424 0.0003
# 6 -0.0013 -0.0015 0.0012 9.5141 0.0003 48.5587
#
#
#
# Elastic Compliance Matrix: (Units=1/GPa)
#
#
# Indices 1 2 3 4 5 6 
#
# 1 0.006857 -0.004500 -0.003200 0.000001 -0.003340 0.000000
# 2 -0.004500 0.009489 0.001099 0.000000 0.003495 0.000000
# 3 -0.003200 0.001099 0.016093 -0.000002 -0.002368 0.000000
# 4 0.000001 0.000000 -0.000002 0.022272 -0.000001 -0.004364
# 5 -0.003340 0.003495 -0.002368 -0.000001 0.022027 0.000000
# 6 0.000000 0.000000 0.000000 -0.004364 0.000000 0.021449
#
#
# Mechanical properties :
#
#
# Convention : Reuss Voigt Hill
#
# Bulk Modulus (GPa) = 51.98048 87.68287 69.83168
# Shear Modulus (GPa) = 42.44528 50.76743 46.60636
#
# Velocity S-wave (km/s) = 4.03718 4.41526 4.23044
# Velocity P-wave (km/s) = 6.45694 7.72415 7.11880
#
# Compressibility (1/GPa) = 0.01923799
#
# Stress axis : x y z
#
# Youngs Moduli (GPa) = 145.83561 105.38571 62.14044
#
# Poissons Ratio (x) = 0.47421 0.19882
# Poissons Ratio (y) = 0.65623 -0.06829
# Poissons Ratio (z) = 0.46661 -0.11582
#
# Static dielectric constant tensor:
#      x y z
#    x 2.051270 0.000030 -0.075870 
#    y 0.000030 2.307300 -0.000010 
#    z -0.075870 -0.000010 2.330050 
# 
# From -- ./inp_files/241830.got.cif
#   From: 2010.05.17/outbox.cif.g08.bks.cpg/sg15_121_cif.got.tgz:241830.got - 2010.06.03 18:47:42.
