data_PCOD9308775
_publ_section_title
;
Structure prediction by ZEFSAII (Michael W. Deem and Ramdas Pophale) SiO2 
 PCOD9308775
Probable space group: C 2/C
;
_chemical_formula_sum "Si O2"
_cell_formula_units_Z 24
_cell_length_a 27.000000
_cell_length_b 12.000000
_cell_length_c 21.000000
_cell_angle_alpha 90.000000
_cell_angle_beta 160.000000
_cell_angle_gamma 90.000000
_cell_volume 2327.105055
_symmetry_space_group_name_H-M "C 2/C"
_symmetry_group_IT_number 15
_symmetry_cell_setting 'monoclinic'
loop_
_space_group_symop_operation_xyz
x,y,z
-x,y,1/2-z
-x,-y,-z
x,-y,1/2+z
1/2+x,1/2+y,z
1/2-x,1/2+y,1/2-z
1/2-x,1/2-y,-z
1/2+x,1/2-y,1/2+z
loop_
_atom_site_type_symbol
_atom_site_label
_atom_site_fract_x
_atom_site_fract_y
_atom_site_fract_z
Si Si1 0.873962 0.475271 0.446545
Si Si2 0.034700 0.703373 0.635971
Si Si3 0.091081 0.959012 0.171747
Si Si4 0.358432 0.691168 0.033941
Si Si5 0.074783 0.295962 0.639706
Si Si6 0.692494 0.482231 0.597907
O O1 0.754461 0.499361 0.356329
O O2 0.963875 0.361021 0.551774
O O3 0.784517 0.476090 0.271253
O O4 0.991192 0.573661 0.590891
O O5 0.004895 0.720146 0.525098
O O6 0.916293 0.766826 0.535418
O O7 0.197251 0.741463 0.852380
O O8 0.111151 0.827623 0.202261
O O9 0.976984 0.983497 0.089091
O O10 0.000000 0.000000 0.000000
O O11 0.500000 0.706507 0.250000
O O12 0.308799 0.563887 0.963627
O O13 0.221520 0.368083 0.810806
#
# Coordination Sequence:
#
# PCOD9308775 Si02
#       6
#     8   8   8   8   8   8
#     4  10  19  36  56  85 121 150 188 244 304 355
#     4  11  23  37  59  86 119 156 199 246 304 356
#     4  10  21  29  55  92 118 148 187 240 302 361
#     4  12  25  41  59  84 121 164 203 245 295 360
#     4  11  19  36  59  87 126 150 187 248 308 358
#     4  10  20  36  54  85 116 154 196 236 302 354
#
# _framework density 10.313243
#
# number of rings (size 3 to 8) (size 9 to 14) (size 15 to 20)
#    0.000    1.333    3.333    4.500    9.333    0.000 
#    0.000    0.000    0.000    1.000    0.000    0.000 
#    0.000    0.000    0.000    0.000    0.000    0.000 
#
# Total GULP energy -133630.007282 kJ/mol
# GULP energy per Si atom -5567.916970 kJ/mol
# Density = 1.028977 g / cm^3
# Si number density = 10.313243 Si / 1000 Ang^3
#
#
#
# Elastic Constant Matrix: (Units=GPa)
#
#
# Indices 1 2 3 4 5 6 
#
# 1 37.2153 -3.3787 21.6059 0.0001 28.0431 0.0001
# 2 -3.3787 31.5028 -21.2960 0.0002 -10.5967 0.0002
# 3 21.6059 -21.2960 86.8830 0.0003 25.3395 0.0002
# 4 0.0001 0.0002 0.0003 17.5377 0.0001 9.6881
# 5 28.0431 -10.5967 25.3395 0.0001 30.3678 0.0001
# 6 0.0001 0.0002 0.0002 9.6881 0.0001 12.2264
#
#
#
# Elastic Compliance Matrix: (Units=1/GPa)
#
#
# Indices 1 2 3 4 5 6 
#
# 1 0.101797 -0.024271 -0.001820 0.000000 -0.100954 0.000001
# 2 -0.024271 0.045086 0.007879 -0.000001 0.031571 -0.000001
# 3 -0.001820 0.007879 0.016655 0.000000 -0.009466 0.000000
# 4 0.000000 -0.000001 0.000000 0.101410 -0.000001 -0.080356
# 5 -0.100954 0.031571 -0.009466 -0.000001 0.145071 -0.000001
# 6 0.000001 -0.000001 0.000000 -0.080356 -0.000001 0.145464
#
#
# Mechanical properties :
#
#
# Convention : Reuss Voigt Hill
#
# Bulk Modulus (GPa) = 7.86706 16.60706 12.23706
# Shear Modulus (GPa) = 7.88298 22.60438 15.24368
#
# Velocity S-wave (km/s) = 1.95706 3.31402 2.72147
# Velocity P-wave (km/s) = 2.98816 4.76575 3.97753
#
# Compressibility (1/GPa) = 0.12711224
#
# Stress axis : x y z
#
# Youngs Moduli (GPa) = 9.82352 22.17976 60.04356
#
# Poissons Ratio (x) = 0.53833 0.10930
# Poissons Ratio (y) = 0.23843 -0.47309
# Poissons Ratio (z) = 0.01788 -0.17476
#
# Static dielectric constant tensor:
#      x y z
#    x 1.806460 0.000000 0.054290 
#    y 0.000000 1.815130 0.000000 
#    z 0.054290 0.000000 1.729520 
# 
# From -- ./inp_files/110651.got.cif
#   From: 2010.05.17/outbox.ucp.g08.bks.cvg/sg15_56_cif.got.tgz:110651.got - 2010.06.11 12:40:34.
