data_PCOD9308021
_publ_section_title
;
Structure prediction by ZEFSAII (Michael W. Deem and Ramdas Pophale) SiO2 
 PCOD9308021
Probable space group: C 2/C
;
_chemical_formula_sum "Si O2"
_cell_formula_units_Z 32
_cell_length_a 12.462262
_cell_length_b 14.661247
_cell_length_c 8.314156
_cell_angle_alpha 90.000000
_cell_angle_beta 67.102507
_cell_angle_gamma 90.000000
_cell_volume 1399.397302
_symmetry_space_group_name_H-M "C 2/C"
_symmetry_group_IT_number 15
_symmetry_cell_setting 'monoclinic'
loop_
_space_group_symop_operation_xyz
x,y,z
-x,y,1/2-z
-x,-y,-z
x,-y,1/2+z
1/2+x,1/2+y,z
1/2-x,1/2+y,1/2-z
1/2-x,1/2-y,-z
1/2+x,1/2-y,1/2+z
loop_
_atom_site_type_symbol
_atom_site_label
_atom_site_fract_x
_atom_site_fract_y
_atom_site_fract_z
Si Si1 0.263898 0.304193 0.659296
Si Si2 0.132001 0.460839 0.900939
Si Si3 0.741413 0.125484 0.654902
Si Si4 0.500221 0.397994 0.442410
O O1 0.250000 0.250000 0.500000
O O2 0.160094 0.376856 0.759889
O O3 0.292154 0.226366 0.773098
O O4 0.381800 0.359041 0.577002
O O5 0.211035 0.548486 0.807334
O O6 0.176835 0.415821 0.039327
O O7 0.000000 0.500000 0.000000
O O8 0.879426 0.138259 0.557638
O O9 0.500000 0.387117 0.250000
O O10 0.500000 0.500000 0.500000
#
# Coordination Sequence:
#
# PCOD9308021 Si02
#       4
#     8   8   8   8
#     4  12  27  49  80 115 156 207 263 325 397 470
#     4  12  28  52  77 112 162 204 259 329 404 470
#     4  12  26  49  78 113 151 209 260 322 393 470
#     4  12  25  48  78 107 155 199 260 321 384 469
#
# _framework density 22.866990000000001
#
# number of rings (size 3 to 8) (size 9 to 14) (size 15 to 20)
#    0.000    0.000    5.000    4.500    3.500    0.000 
#    4.500    0.000    0.000    0.000    0.000    0.000 
#    0.000    0.000    0.000    0.000    0.000    0.000 
#
# Total GULP energy -89476.420620 kJ/mol
# GULP energy per Si atom -5592.276289 kJ/mol
# Density = 2.281494 g / cm^3
# Si number density = 22.866990 Si / 1000 Ang^3
#
#
#
# Elastic Constant Matrix: (Units=GPa)
#
#
# Indices 1 2 3 4 5 6 
#
# 1 157.8744 57.1310 62.0484 0.0000 -9.7761 0.0000
# 2 57.1310 170.2653 62.4012 0.0000 -17.2429 0.0000
# 3 62.0484 62.4012 96.1890 0.0000 -9.2864 0.0000
# 4 0.0000 0.0000 0.0000 49.0276 0.0000 -14.5818
# 5 -9.7761 -17.2429 -9.2864 0.0000 34.0049 0.0000
# 6 0.0000 0.0000 0.0000 -14.5818 0.0000 40.7591
#
#
#
# Elastic Compliance Matrix: (Units=1/GPa)
#
#
# Indices 1 2 3 4 5 6 
#
# 1 0.008659 -0.001072 -0.004830 0.000000 0.000627 0.000000
# 2 -0.001072 0.008070 -0.004292 0.000000 0.002612 0.000000
# 3 -0.004830 -0.004292 0.016384 0.000000 0.000909 0.000000
# 4 0.000000 0.000000 0.000000 0.022825 0.000000 0.008166
# 5 0.000627 0.002612 0.000909 0.000000 0.031161 0.000000
# 6 0.000000 0.000000 0.000000 0.008166 0.000000 0.027456
#
#
# Mechanical properties :
#
#
# Convention : Reuss Voigt Hill
#
# Bulk Modulus (GPa) = 78.57869 87.49888 83.03879
# Shear Modulus (GPa) = 35.92362 40.94153 38.43258
#
# Velocity S-wave (km/s) = 3.96786 4.23593 4.10408
# Velocity P-wave (km/s) = 7.44512 7.89123 7.67142
#
# Compressibility (1/GPa) = 0.01272610
#
# Stress axis : x y z
#
# Youngs Moduli (GPa) = 115.48560 123.91082 61.03572
#
# Poissons Ratio (x) = 0.13282 0.29479
# Poissons Ratio (y) = 0.12379 0.26196
# Poissons Ratio (z) = 0.55777 0.53181
#
# Static dielectric constant tensor:
#      x y z
#    x 1.769280 0.000000 0.054630 
#    y 0.000000 1.396880 0.000000 
#    z 0.054630 0.000000 1.947600 
# 
# From -- ./inp_files/27890.got.cif
#   From: 2010.05.17/outbox.cif.g08.bks.cpg/sg15_14_cif.got.tgz:27890.got - 2010.06.03 18:47:42.
