data_PCOD9308296
_publ_section_title
;
Structure prediction by ZEFSAII (Michael W. Deem and Ramdas Pophale) SiO2 
 PCOD9308296
Probable space group: C 2/C
;
_chemical_formula_sum "Si O2"
_cell_formula_units_Z 32
_cell_length_a 19.706992
_cell_length_b 7.673803
_cell_length_c 14.328093
_cell_angle_alpha 90.000000
_cell_angle_beta 31.320368
_cell_angle_gamma 90.000000
_cell_volume 1126.353536
_symmetry_space_group_name_H-M "C 2/C"
_symmetry_group_IT_number 15
_symmetry_cell_setting 'monoclinic'
loop_
_space_group_symop_operation_xyz
x,y,z
-x,y,1/2-z
-x,-y,-z
x,-y,1/2+z
1/2+x,1/2+y,z
1/2-x,1/2+y,1/2-z
1/2-x,1/2-y,-z
1/2+x,1/2-y,1/2+z
loop_
_atom_site_type_symbol
_atom_site_label
_atom_site_fract_x
_atom_site_fract_y
_atom_site_fract_z
Si Si1 0.538797 0.347922 0.364692
Si Si2 0.250476 0.615859 0.216515
Si Si3 0.406696 0.021287 0.424697
Si Si4 0.695531 0.443747 0.544541
O O1 0.398954 0.369763 0.583698
O O2 0.661404 0.275796 0.280936
O O3 0.489274 0.184665 0.360980
O O4 0.569402 0.502909 0.254830
O O5 0.155788 0.556375 0.410035
O O6 0.279605 0.492229 0.092710
O O7 0.500000 0.902683 0.250000
O O8 0.294589 0.067996 0.484724
O O9 0.750000 0.250000 0.500000
#
# Coordination Sequence:
#
# PCOD9308296 Si02
#       4
#     8   8   8   8
#     4  12  26  57  86 119 170 232 279 352 438 513
#     4  12  28  51  88 124 168 234 287 346 441 510
#     4  12  27  50  85 118 174 224 290 349 423 519
#     4  12  29  50  83 129 170 217 293 363 424 516
#
# _framework density 28.410261999999999
#
# number of rings (size 3 to 8) (size 9 to 14) (size 15 to 20)
#    0.000    0.000    5.000    3.750    3.500    3.000 
#    0.000    0.000    0.000    0.000    0.000    0.000 
#    0.000    0.000    0.000    0.000    0.000    0.000 
#
# Total GULP energy -89314.249503 kJ/mol
# GULP energy per Si atom -5582.140594 kJ/mol
# Density = 2.834560 g / cm^3
# Si number density = 28.410262 Si / 1000 Ang^3
#
#
#
# Elastic Constant Matrix: (Units=GPa)
#
#
# Indices 1 2 3 4 5 6 
#
# 1 93.1284 26.4433 50.8021 -0.0009 23.9809 0.0004
# 2 26.4433 136.3898 104.7556 -0.0019 1.2353 0.0011
# 3 50.8021 104.7556 299.1373 -0.0012 41.2782 0.0006
# 4 -0.0009 -0.0019 -0.0012 67.6526 0.0008 1.6067
# 5 23.9809 1.2353 41.2782 0.0008 60.1925 -0.0002
# 6 0.0004 0.0011 0.0006 1.6067 -0.0002 34.0301
#
#
#
# Elastic Compliance Matrix: (Units=1/GPa)
#
#
# Indices 1 2 3 4 5 6 
#
# 1 0.012899 -0.001707 -0.000981 0.000000 -0.004431 0.000000
# 2 -0.001707 0.010589 -0.003846 0.000000 0.003100 0.000000
# 3 -0.000981 -0.003846 0.005292 0.000000 -0.003159 0.000000
# 4 0.000000 0.000000 0.000000 0.014798 0.000000 -0.000699
# 5 -0.004431 0.003100 -0.003159 0.000000 0.020482 0.000000
# 6 0.000000 0.000000 0.000000 -0.000699 0.000000 0.029419
#
#
# Mechanical properties :
#
#
# Convention : Reuss Voigt Hill
#
# Bulk Modulus (GPa) = 63.64822 99.18418 81.41620
# Shear Modulus (GPa) = 44.72899 55.48534 50.10717
#
# Velocity S-wave (km/s) = 3.97217 4.42407 4.20420
# Velocity P-wave (km/s) = 6.59465 7.81561 7.23095
#
# Compressibility (1/GPa) = 0.01571136
#
# Stress axis : x y z
#
# Youngs Moduli (GPa) = 77.52613 94.43975 188.94845
#
# Poissons Ratio (x) = 0.16120 0.18544
# Poissons Ratio (y) = 0.13233 0.72670
# Poissons Ratio (z) = 0.07609 0.36322
#
# Static dielectric constant tensor:
#      x y z
#    x 2.266170 0.000000 -0.125330 
#    y 0.000000 2.403790 0.000000 
#    z -0.125330 0.000000 2.459570 
# 
# From -- ./inp_files/171610.got.cif
#   From: 2010.05.17/outbox.cif.g08.bks.cpg/sg15_86_cif.got.tgz:171610.got - 2010.06.03 18:47:42.
