data_PCOD9308213
_publ_section_title
;
Structure prediction by ZEFSAII (Michael W. Deem and Ramdas Pophale) SiO2 
 PCOD9308213
Probable space group: C 2/C
;
_chemical_formula_sum "Si O2"
_cell_formula_units_Z 24
_cell_length_a 8.856838
_cell_length_b 14.359531
_cell_length_c 7.896311
_cell_angle_alpha 90.000000
_cell_angle_beta 71.655686
_cell_angle_gamma 90.000000
_cell_volume 953.219356
_symmetry_space_group_name_H-M "C 2/C"
_symmetry_group_IT_number 15
_symmetry_cell_setting 'monoclinic'
loop_
_space_group_symop_operation_xyz
x,y,z
-x,y,1/2-z
-x,-y,-z
x,-y,1/2+z
1/2+x,1/2+y,z
1/2-x,1/2+y,1/2-z
1/2-x,1/2-y,-z
1/2+x,1/2-y,1/2+z
loop_
_atom_site_type_symbol
_atom_site_label
_atom_site_fract_x
_atom_site_fract_y
_atom_site_fract_z
Si Si1 0.309150 0.144725 0.975813
Si Si2 0.378613 0.832522 0.949412
Si Si3 0.689084 0.475119 0.198144
O O1 0.241280 0.089285 0.837651
O O2 0.250000 0.250000 0.000000
O O3 0.497154 0.156311 0.938935
O O4 0.245449 0.081584 0.155267
O O5 0.500000 0.821183 0.750000
O O6 0.250000 0.750000 0.000000
O O7 0.273890 0.924748 0.008648
O O8 0.500000 0.471899 0.250000
#
# Coordination Sequence:
#
# PCOD9308213 Si02
#       3
#     8   8   8
#     4  12  27  49  79 117 161 216 273 339 409 484
#     4  12  26  49  79 117 160 212 274 342 409 489
#     4  12  27  50  79 118 163 216 275 339 408 489
#
# _framework density 25.177835000000002
#
# number of rings (size 3 to 8) (size 9 to 14) (size 15 to 20)
#    0.000    0.000    0.000   10.000    0.000    5.333 
#    0.000    0.000    0.000    0.000    0.000    0.000 
#    0.000    0.000    0.000    0.000    0.000    0.000 
#
# Total GULP energy -67123.256840 kJ/mol
# GULP energy per Si atom -5593.604737 kJ/mol
# Density = 2.512053 g / cm^3
# Si number density = 25.177835 Si / 1000 Ang^3
#
#
#
# Elastic Constant Matrix: (Units=GPa)
#
#
# Indices 1 2 3 4 5 6 
#
# 1 264.1303 115.8129 69.2762 0.0000 -25.7142 0.0000
# 2 115.8129 255.7265 72.6763 0.0000 -4.0886 0.0000
# 3 69.2762 72.6763 165.4908 0.0000 8.3388 0.0000
# 4 0.0000 0.0000 0.0000 33.8509 0.0000 -5.5941
# 5 -25.7142 -4.0886 8.3388 0.0000 49.5470 0.0000
# 6 0.0000 0.0000 0.0000 -5.5941 0.0000 44.4786
#
#
#
# Elastic Compliance Matrix: (Units=1/GPa)
#
#
# Indices 1 2 3 4 5 6 
#
# 1 0.005306 -0.001926 -0.001519 0.000000 0.002851 0.000000
# 2 -0.001926 0.005192 -0.001457 0.000000 -0.000326 0.000000
# 3 -0.001519 -0.001457 0.007427 0.000000 -0.002159 0.000000
# 4 0.000000 0.000000 0.000000 0.030168 0.000000 0.003794
# 5 0.002851 -0.000326 -0.002159 0.000000 0.021999 0.000000
# 6 0.000000 0.000000 0.000000 0.003794 0.000000 0.022960
#
#
# Mechanical properties :
#
#
# Convention : Reuss Voigt Hill
#
# Bulk Modulus (GPa) = 123.14372 133.43095 128.28734
# Shear Modulus (GPa) = 47.36468 54.08081 50.72274
#
# Velocity S-wave (km/s) = 4.34199 4.63963 4.49328
# Velocity P-wave (km/s) = 8.61121 9.04500 8.83077
#
# Compressibility (1/GPa) = 0.00812059
#
# Stress axis : x y z
#
# Youngs Moduli (GPa) = 188.45107 192.62095 134.63737
#
# Poissons Ratio (x) = 0.37095 0.20454
# Poissons Ratio (y) = 0.36292 0.19621
# Poissons Ratio (z) = 0.28630 0.28071
#
# Static dielectric constant tensor:
#      x y z
#    x 1.670200 0.000000 -0.031830 
#    y 0.000000 1.929110 0.000000 
#    z -0.031830 0.000000 2.174820 
# 
# From -- ./inp_files/20997.got.cif
#   From: 2010.05.17/outbox.cif.g08.bks.cpg/sg15_11_cif.got.tgz:20997.got - 2010.06.03 18:47:42.
