data_PCOD9308120
_publ_section_title
;
Structure prediction by ZEFSAII (Michael W. Deem and Ramdas Pophale) SiO2 
 PCOD9308120
Probable space group: C 2/C
;
_chemical_formula_sum "Si O2"
_cell_formula_units_Z 40
_cell_length_a 16.175860
_cell_length_b 14.079415
_cell_length_c 11.027801
_cell_angle_alpha 90.000000
_cell_angle_beta 42.073568
_cell_angle_gamma 90.000000
_cell_volume 1682.946553
_symmetry_space_group_name_H-M "C 2/C"
_symmetry_group_IT_number 15
_symmetry_cell_setting 'monoclinic'
loop_
_space_group_symop_operation_xyz
x,y,z
-x,y,1/2-z
-x,-y,-z
x,-y,1/2+z
1/2+x,1/2+y,z
1/2-x,1/2+y,1/2-z
1/2-x,1/2-y,-z
1/2+x,1/2-y,1/2+z
loop_
_atom_site_type_symbol
_atom_site_label
_atom_site_fract_x
_atom_site_fract_y
_atom_site_fract_z
Si Si1 0.051976 0.960743 0.814996
Si Si2 0.510223 0.741778 0.457686
Si Si3 0.749049 0.273076 0.859737
Si Si4 0.464479 0.057530 0.658705
Si Si5 0.280287 0.484939 0.527039
O O1 0.059962 0.847243 0.827271
O O2 0.188842 0.014561 0.651143
O O3 0.917165 0.976283 0.894011
O O4 0.000000 0.000000 0.000000
O O5 0.621005 0.757839 0.435169
O O6 0.375365 0.730857 0.666589
O O7 0.489068 0.836281 0.402978
O O8 0.747011 0.388882 0.871924
O O9 0.750000 0.250000 0.000000
O O10 0.500000 0.011211 0.750000
O O11 0.317752 0.060626 0.827631
O O12 0.500000 0.000000 0.500000
#
# Coordination Sequence:
#
# PCOD9308120 Si02
#       5
#     8   8   8   8   8
#     4   8  22  44  74 101 137 185 250 313 371 448
#     4  12  26  46  77 108 145 200 262 317 384 459
#     4  12  28  45  72 106 155 201 253 320 386 464
#     4  12  27  46  77 110 157 198 252 320 390 464
#     4   9  23  47  71 103 150 190 253 304 391 449
#
# _framework density 23.767838000000001
#
# number of rings (size 3 to 8) (size 9 to 14) (size 15 to 20)
#    1.200    0.000    2.000    2.400   11.200    1.600 
#    0.000    0.000    0.000    0.000    0.000    0.000 
#    0.000    0.000    0.000    0.000    0.000    0.000 
#
# Total GULP energy -111364.618795 kJ/mol
# GULP energy per Si atom -5568.230940 kJ/mol
# Density = 2.371374 g / cm^3
# Si number density = 23.767838 Si / 1000 Ang^3
#
#
#
# Elastic Constant Matrix: (Units=GPa)
#
#
# Indices 1 2 3 4 5 6 
#
# 1 80.8158 -9.3088 17.0526 0.0000 -2.0399 0.0000
# 2 -9.3088 79.4876 12.3178 0.0000 14.4151 0.0000
# 3 17.0526 12.3178 160.0424 0.0000 -16.9711 0.0000
# 4 0.0000 0.0000 0.0000 44.8688 0.0000 4.3292
# 5 -2.0399 14.4151 -16.9711 0.0000 38.6389 0.0000
# 6 0.0000 0.0000 0.0000 4.3292 0.0000 35.9073
#
#
#
# Elastic Compliance Matrix: (Units=1/GPa)
#
#
# Indices 1 2 3 4 5 6 
#
# 1 0.012911 0.001891 -0.001598 0.000000 -0.000726 0.000000
# 2 0.001891 0.014199 -0.001936 0.000000 -0.006047 0.000000
# 3 -0.001598 -0.001936 0.006959 0.000000 0.003694 0.000000
# 4 0.000000 0.000000 0.000000 0.022550 0.000000 -0.002719
# 5 -0.000726 -0.006047 0.003694 0.000000 0.029721 0.000000
# 6 0.000000 0.000000 0.000000 -0.002719 0.000000 0.028177
#
#
# Mechanical properties :
#
#
# Convention : Reuss Voigt Hill
#
# Bulk Modulus (GPa) = 32.48479 40.05209 36.26844
# Shear Modulus (GPa) = 39.04333 43.90194 41.47264
#
# Velocity S-wave (km/s) = 4.05742 4.30247 4.18174
# Velocity P-wave (km/s) = 5.97054 6.44745 6.21357
#
# Compressibility (1/GPa) = 0.03078364
#
# Stress axis : x y z
#
# Youngs Moduli (GPa) = 77.45596 70.42891 143.69114
#
# Poissons Ratio (x) = -0.13320 0.22964
# Poissons Ratio (y) = -0.14649 0.27813
# Poissons Ratio (z) = 0.12379 0.13632
#
# Static dielectric constant tensor:
#      x y z
#    x 1.602840 0.000000 -0.433860 
#    y 0.000000 1.965960 0.000000 
#    z -0.433860 0.000000 1.403700 
# 
# From -- ./inp_files/105143.got.cif
#   From: 2010.05.17/outbox.cif.g08.bks.cpg/sg15_53_cif.got.tgz:105143.got - 2010.06.03 18:47:42.
