data_PCOD9308110
_publ_section_title
;
Structure prediction by ZEFSAII (Michael W. Deem and Ramdas Pophale) SiO2 
 PCOD9308110
Probable space group: C 2/C
;
_chemical_formula_sum "Si O2"
_cell_formula_units_Z 24
_cell_length_a 11.914071
_cell_length_b 13.539136
_cell_length_c 8.830328
_cell_angle_alpha 90.000000
_cell_angle_beta 137.580760
_cell_angle_gamma 90.000000
_cell_volume 960.820643
_symmetry_space_group_name_H-M "C 2/C"
_symmetry_group_IT_number 15
_symmetry_cell_setting 'monoclinic'
loop_
_space_group_symop_operation_xyz
x,y,z
-x,y,1/2-z
-x,-y,-z
x,-y,1/2+z
1/2+x,1/2+y,z
1/2-x,1/2+y,1/2-z
1/2-x,1/2-y,-z
1/2+x,1/2-y,1/2+z
loop_
_atom_site_type_symbol
_atom_site_label
_atom_site_fract_x
_atom_site_fract_y
_atom_site_fract_z
Si Si1 0.122725 0.459582 0.495202
Si Si2 0.739119 0.333942 0.360592
Si Si3 0.076201 0.189002 0.156650
O O1 0.208796 0.560599 0.521822
O O2 0.264702 0.383305 0.683230
O O3 0.000000 0.500000 0.500000
O O4 0.000000 0.415788 0.250000
O O5 0.750000 0.250000 0.500000
O O6 0.859161 0.292045 0.348150
O O7 0.437429 0.345344 0.398214
O O8 0.000000 0.191291 0.250000
#
# Coordination Sequence:
#
# PCOD9308110 Si02
#       3
#     8   8   8
#     4  12  26  47  72 104 145 192 243 301 365 436
#     4  12  26  47  74 106 144 192 245 302 364 436
#     4  12  26  46  74 110 147 192 246 307 367 434
#
# _framework density 24.978648
#
# number of rings (size 3 to 8) (size 9 to 14) (size 15 to 20)
#    0.000    0.000    0.000   11.000    0.000    5.333 
#    0.000    0.000    0.000    0.000    0.000    0.000 
#    0.000    0.000    0.000    0.000    0.000    0.000 
#
# Total GULP energy -67310.076035 kJ/mol
# GULP energy per Si atom -5609.173003 kJ/mol
# Density = 2.492180 g / cm^3
# Si number density = 24.978648 Si / 1000 Ang^3
#
#
#
# Elastic Constant Matrix: (Units=GPa)
#
#
# Indices 1 2 3 4 5 6 
#
# 1 140.9833 24.8364 63.9832 0.0000 -9.8239 0.0000
# 2 24.8364 134.2120 42.0466 0.0000 -2.4514 0.0000
# 3 63.9832 42.0466 217.3422 0.0000 10.8738 0.0000
# 4 0.0000 0.0000 0.0000 42.4999 0.0000 -2.5639
# 5 -9.8239 -2.4514 10.8738 0.0000 41.1538 0.0000
# 6 0.0000 0.0000 0.0000 -2.5639 0.0000 36.5820
#
#
#
# Elastic Compliance Matrix: (Units=1/GPa)
#
#
# Indices 1 2 3 4 5 6 
#
# 1 0.008547 -0.000749 -0.002504 0.000000 0.002657 0.000000
# 2 -0.000749 0.008029 -0.001366 0.000000 0.000661 0.000000
# 3 -0.002504 -0.001366 0.005712 0.000000 -0.002188 0.000000
# 4 0.000000 0.000000 0.000000 0.023629 0.000000 0.001656
# 5 0.002657 0.000661 -0.002188 0.000000 0.025551 0.000000
# 6 0.000000 0.000000 0.000000 0.001656 0.000000 0.027452
#
#
# Mechanical properties :
#
#
# Convention : Reuss Voigt Hill
#
# Bulk Modulus (GPa) = 76.62521 83.80777 80.21649
# Shear Modulus (GPa) = 44.44137 48.15858 46.29998
#
# Velocity S-wave (km/s) = 4.22260 4.39565 4.31000
# Velocity P-wave (km/s) = 7.38354 7.70629 7.54664
#
# Compressibility (1/GPa) = 0.01305053
#
# Stress axis : x y z
#
# Youngs Moduli (GPa) = 117.00663 124.54159 175.07036
#
# Poissons Ratio (x) = 0.09322 0.43840
# Poissons Ratio (y) = 0.08758 0.23916
# Poissons Ratio (z) = 0.29300 0.17013
#
# Static dielectric constant tensor:
#      x y z
#    x 2.078700 0.000000 -0.011750 
#    y 0.000000 1.975540 0.000000 
#    z -0.011750 0.000000 1.973450 
# 
# From -- ./inp_files/28562.got.cif
#   From: 2010.05.17/outbox.cif.g08.bks.cpg/sg15_15_cif.got.tgz:28562.got - 2010.06.03 18:47:42.
