data_PCOD9308954
_publ_section_title
;
Structure prediction by ZEFSAII (Michael W. Deem and Ramdas Pophale) SiO2 
 PCOD9308954
Probable space group: C 2/C
;
_chemical_formula_sum "Si O2"
_cell_formula_units_Z 24
_cell_length_a 9.000000
_cell_length_b 21.000000
_cell_length_c 27.000000
_cell_angle_alpha 90.000000
_cell_angle_beta 150.000000
_cell_angle_gamma 90.000000
_cell_volume 2551.500000
_symmetry_space_group_name_H-M "C 2/C"
_symmetry_group_IT_number 15
_symmetry_cell_setting 'monoclinic'
loop_
_space_group_symop_operation_xyz
x,y,z
-x,y,1/2-z
-x,-y,-z
x,-y,1/2+z
1/2+x,1/2+y,z
1/2-x,1/2+y,1/2-z
1/2-x,1/2-y,-z
1/2+x,1/2-y,1/2+z
loop_
_atom_site_type_symbol
_atom_site_label
_atom_site_fract_x
_atom_site_fract_y
_atom_site_fract_z
Si Si1 0.466878 0.350072 0.994246
Si Si2 0.606655 0.476735 0.841194
Si Si3 0.555684 0.229719 0.649008
Si Si4 0.643442 0.626276 0.151735
Si Si5 0.254014 0.588740 0.537338
Si Si6 0.321678 0.281301 0.117228
O O1 0.455014 0.383222 0.935170
O O2 0.245192 0.288388 0.925945
O O3 0.401520 0.394331 0.024518
O O4 0.784478 0.313911 0.088528
O O5 0.500000 0.483633 0.750000
O O6 0.429295 0.426988 0.827025
O O7 0.615736 0.541233 0.879943
O O8 0.937686 0.445454 0.934471
O O9 0.508089 0.306336 0.631920
O O10 0.636410 0.213451 0.615149
O O11 0.837613 0.217599 0.765812
O O12 0.000000 0.634466 0.250000
O O13 0.244888 0.658756 0.560245
#
# Coordination Sequence:
#
# PCOD9308954 Si02
#       6
#     8   8   8   8   8   8
#     4  11  21  39  67 101 135 165 215 279 329 395
#     4  11  26  45  68  89 129 185 224 269 320 390
#     4  10  20  36  67  98 132 171 206 272 340 386
#     4  11  20  42  66  96 131 174 222 266 325 390
#     4  11  25  44  63  96 132 174 223 272 327 389
#     4  10  20  39  64  96 137 169 212 269 338 398
#
# _framework density 9.4062319999999993
#
# number of rings (size 3 to 8) (size 9 to 14) (size 15 to 20)
#    0.000    1.333    3.333    5.500    2.333    1.333 
#    3.000    0.000    0.000    0.000    0.000    0.000 
#    0.000    0.000    0.000    0.000    0.000    0.000 
#
# Total GULP energy -133620.931202 kJ/mol
# GULP energy per Si atom -5567.538800 kJ/mol
# Density = 0.938482 g / cm^3
# Si number density = 9.406232 Si / 1000 Ang^3
#
#
#
# Elastic Constant Matrix: (Units=GPa)
#
#
# Indices 1 2 3 4 5 6 
#
# 1 131.0753 50.3440 44.9920 0.0032 -18.1804 0.0076
# 2 50.3440 87.7578 26.7195 -0.0070 -13.5178 -0.0014
# 3 44.9920 26.7195 115.3110 -0.0203 -11.1495 -0.0032
# 4 0.0032 -0.0070 -0.0203 29.1960 -0.0019 -9.6434
# 5 -18.1804 -13.5178 -11.1495 -0.0019 44.4828 0.0047
# 6 0.0076 -0.0014 -0.0032 -9.6434 0.0047 49.8975
#
#
#
# Elastic Compliance Matrix: (Units=1/GPa)
#
#
# Indices 1 2 3 4 5 6 
#
# 1 0.010838 -0.005010 -0.002856 -0.000005 0.002191 -0.000003
# 2 -0.005010 0.015005 -0.001311 0.000004 0.002183 0.000002
# 3 -0.002856 -0.001311 0.010186 0.000008 0.000987 0.000002
# 4 -0.000005 0.000004 0.000008 0.036587 0.000002 0.007071
# 5 0.002191 0.002183 0.000987 0.000002 0.024287 -0.000002
# 6 -0.000003 0.000002 0.000002 0.007071 -0.000002 0.021408
#
#
# Mechanical properties :
#
#
# Convention : Reuss Voigt Hill
#
# Bulk Modulus (GPa) = 56.57942 64.25059 60.41501
# Shear Modulus (GPa) = 35.07418 38.85450 36.96434
#
# Velocity S-wave (km/s) = 4.32257 4.54955 4.43751
# Velocity P-wave (km/s) = 7.41981 7.86290 7.64457
#
# Compressibility (1/GPa) = 0.01767427
#
# Stress axis : x y z
#
# Youngs Moduli (GPa) = 92.26997 66.64593 98.17676
#
# Poissons Ratio (x) = 0.33391 0.28038
# Poissons Ratio (y) = 0.46230 0.12869
# Poissons Ratio (z) = 0.26351 0.08736
#
# Static dielectric constant tensor:
#      x y z
#    x 1.676680 0.000000 0.005950 
#    y 0.000000 1.672250 0.000000 
#    z 0.005950 0.000000 1.716890 
# 
# From -- ./inp_files/290157.got.cif
#   From: 2010.05.17/outbox.ucp.g08.bks.cvg/sg15_146_cif.got.tgz:290157.got - 2010.06.11 12:40:34.
