data_PCOD9308474
_publ_section_title
;
Structure prediction by ZEFSAII (Michael W. Deem and Ramdas Pophale) SiO2 
 PCOD9308474
Probable space group: C 2/C
;
_chemical_formula_sum "Si O2"
_cell_formula_units_Z 48
_cell_length_a 6.900325
_cell_length_b 32.082936
_cell_length_c 10.085013
_cell_angle_alpha 90.000000
_cell_angle_beta 68.995439
_cell_angle_gamma 90.000000
_cell_volume 2084.292082
_symmetry_space_group_name_H-M "C 2/C"
_symmetry_group_IT_number 15
_symmetry_cell_setting 'monoclinic'
loop_
_space_group_symop_operation_xyz
x,y,z
-x,y,1/2-z
-x,-y,-z
x,-y,1/2+z
1/2+x,1/2+y,z
1/2-x,1/2+y,1/2-z
1/2-x,1/2-y,-z
1/2+x,1/2-y,1/2+z
loop_
_atom_site_type_symbol
_atom_site_label
_atom_site_fract_x
_atom_site_fract_y
_atom_site_fract_z
Si Si1 0.989522 0.245749 0.906536
Si Si2 0.949614 0.315294 0.414850
Si Si3 0.900446 0.153609 0.908586
Si Si4 0.348910 0.992796 0.412248
Si Si5 0.615874 0.095279 0.581555
Si Si6 0.680722 0.083838 0.094760
O O1 0.028617 0.196088 0.909085
O O2 0.000000 0.257441 0.750000
O O3 0.750000 0.250000 0.000000
O O4 0.108638 0.277745 0.972468
O O5 0.174124 0.330255 0.416602
O O6 0.000000 0.302461 0.250000
O O7 0.811408 0.357414 0.459205
O O8 0.000000 0.134097 0.750000
O O9 0.850679 0.120222 0.035713
O O10 0.500000 0.988984 0.250000
O O11 0.247711 0.946930 0.450577
O O12 0.500000 0.000000 0.500000
O O13 0.232909 0.036568 0.416707
O O14 0.500000 0.098856 0.750000
O O15 0.445857 0.086157 0.511334
O O16 0.500000 0.090407 0.250000
#
# Coordination Sequence:
#
# PCOD9308474 Si02
#       6
#     8   8   8   8   8   8
#     4   9  18  32  48  67  96 130 160 198 246 289
#     4   9  17  30  50  74  92 122 169 209 238 283
#     4   9  18  32  47  68 101 135 157 192 251 302
#     4   8  13  22  37  64  94 113 141 194 239 271
#     4   8  14  24  40  67  95 116 142 194 248 277
#     4   9  16  26  46  72  91 118 165 205 230 274
#
# _framework density 23.029401
#
# number of rings (size 3 to 8) (size 9 to 14) (size 15 to 20)
#    0.000    3.333    0.000    0.000    0.000    6.000 
#    0.000    7.500    0.000    4.000    0.000  116.667 
#    0.000    0.000    0.000    2.500    0.000    0.500 
#
# Total GULP energy -133603.707040 kJ/mol
# GULP energy per Si atom -5566.821127 kJ/mol
# Density = 2.297698 g / cm^3
# Si number density = 23.029401 Si / 1000 Ang^3
#
#
#
# Elastic Constant Matrix: (Units=GPa)
#
#
# Indices 1 2 3 4 5 6 
#
# 1 37.7968 37.9426 33.2548 0.0000 -3.6470 0.0000
# 2 37.9426 237.1095 81.4215 0.0000 10.7254 0.0000
# 3 33.2548 81.4215 108.1427 0.0000 13.1538 0.0000
# 4 0.0000 0.0000 0.0000 26.7959 0.0000 13.5285
# 5 -3.6470 10.7254 13.1538 0.0000 29.4097 0.0000
# 6 0.0000 0.0000 0.0000 13.5285 0.0000 13.3479
#
#
#
# Elastic Compliance Matrix: (Units=1/GPa)
#
#
# Indices 1 2 3 4 5 6 
#
# 1 0.040880 -0.003054 -0.011658 0.000000 0.011397 0.000000
# 2 -0.003054 0.005917 -0.003392 0.000000 -0.001020 0.000000
# 3 -0.011658 -0.003392 0.016298 0.000000 -0.007498 0.000000
# 4 0.000000 0.000000 0.000000 0.076427 0.000000 -0.077460
# 5 0.011397 -0.001020 -0.007498 0.000000 0.039141 0.000000
# 6 0.000000 0.000000 0.000000 -0.077460 0.000000 0.153426
#
#
# Mechanical properties :
#
#
# Convention : Reuss Voigt Hill
#
# Bulk Modulus (GPa) = 37.19246 76.47629 56.83438
# Shear Modulus (GPa) = 13.25354 29.27271 21.26313
#
# Velocity S-wave (km/s) = 2.40157 3.56912 3.04189
# Velocity P-wave (km/s) = 4.88622 7.08978 6.08852
#
# Compressibility (1/GPa) = 0.02688717
#
# Stress axis : x y z
#
# Youngs Moduli (GPa) = 24.46209 169.00443 61.35868
#
# Poissons Ratio (x) = 0.51614 0.71530
# Poissons Ratio (y) = 0.07471 0.20812
# Poissons Ratio (z) = 0.28517 0.57323
#
# Static dielectric constant tensor:
#      x y z
#    x 1.840940 0.000000 0.032730 
#    y 0.000000 2.066470 0.000000 
#    z 0.032730 0.000000 1.771850 
# 
# From -- ./inp_files/92330.got.cif
#   From: 2010.05.17/outbox.cif.g08.bks.cpg/sg15_47_cif.got.tgz:92330.got - 2010.06.03 18:47:42.
