data_PCOD9308744
_publ_section_title
;
Structure prediction by ZEFSAII (Michael W. Deem and Ramdas Pophale) SiO2 
 PCOD9308744
Probable space group: C 2/C
;
_chemical_formula_sum "Si O2"
_cell_formula_units_Z 30
_cell_length_a 24.000000
_cell_length_b 9.000000
_cell_length_c 18.000000
_cell_angle_alpha 90.000000
_cell_angle_beta 60.000000
_cell_angle_gamma 90.000000
_cell_volume 3367.106770
_symmetry_space_group_name_H-M "C 2/C"
_symmetry_group_IT_number 15
_symmetry_cell_setting 'monoclinic'
loop_
_space_group_symop_operation_xyz
x,y,z
-x,y,1/2-z
-x,-y,-z
x,-y,1/2+z
1/2+x,1/2+y,z
1/2-x,1/2+y,1/2-z
1/2-x,1/2-y,-z
1/2+x,1/2-y,1/2+z
loop_
_atom_site_type_symbol
_atom_site_label
_atom_site_fract_x
_atom_site_fract_y
_atom_site_fract_z
Si Si1 0.313288 0.664625 0.265649
Si Si2 0.589777 0.235885 0.308151
Si Si3 0.906516 0.990016 0.987240
Si Si4 0.508967 0.721107 0.491440
Si Si5 0.607698 0.486614 0.174061
Si Si6 0.931975 0.607801 0.666900
Si Si7 0.802420 0.888628 0.166127
Si Si8 0.500000 0.738670 0.250000
O O1 0.330659 0.559178 0.324944
O O2 0.376169 0.766126 0.206671
O O3 0.258606 0.788174 0.311674
O O4 0.293822 0.547108 0.213882
O O5 0.532564 0.263272 0.405840
O O6 0.584697 0.345066 0.239468
O O7 0.653164 0.292538 0.307958
O O8 0.591500 0.057782 0.297518
O O9 0.890958 0.046112 0.914781
O O10 0.930503 0.122234 0.024341
O O11 0.965250 0.871533 0.960890
O O12 0.843645 0.918266 0.064955
O O13 0.534988 0.869027 0.435222
O O14 0.558685 0.624609 0.206874
O O15 0.985476 0.655588 0.690769
#
# Coordination Sequence:
#
# PCOD9308744 Si02
#       8
#     8   8   8   8   8   8   8   4
#     4  10  21  36  60  79 112 146 199 235 289 334
#     4  10  22  34  58  84 118 147 193 231 296 338
#     4  10  19  34  60  83 117 151 195 232 289 342
#     4  10  19  34  56  87 116 150 191 238 280 345
#     4  10  20  36  54  84 114 156 183 234 284 351
#     4  11  20  36  54  87 114 151 188 243 280 344
#     4  10  20  38  58  85 105 155 193 246 279 347
#     4  10  20  32  54  78 118 150 186 224 288 332
#
# _framework density 8.9097259999999991
#
# number of rings (size 3 to 8) (size 9 to 14) (size 15 to 20)
#    0.000    1.867    2.667    2.000    3.733    2.133 
#    0.000    0.000    0.000    7.200    0.000    0.000 
#    0.000    0.000    0.000    0.000    0.000    0.000 
#
# Total GULP energy -167012.701145 kJ/mol
# GULP energy per Si atom -5567.090038 kJ/mol
# Density = 0.888945 g / cm^3
# Si number density = 8.909726 Si / 1000 Ang^3
#
#
#
# Elastic Constant Matrix: (Units=GPa)
#
#
# Indices 1 2 3 4 5 6 
#
# 1 74.1657 34.3701 58.4266 0.0000 1.9787 0.0000
# 2 34.3701 125.1784 49.4177 0.0000 9.1023 0.0000
# 3 58.4266 49.4177 97.7613 0.0000 20.5585 0.0000
# 4 0.0000 0.0000 0.0000 28.4806 0.0000 -6.3888
# 5 1.9787 9.1023 20.5585 0.0000 21.7889 0.0000
# 6 0.0000 0.0000 0.0000 -6.3888 0.0000 28.7144
#
#
#
# Elastic Compliance Matrix: (Units=1/GPa)
#
#
# Indices 1 2 3 4 5 6 
#
# 1 0.030305 -0.001234 -0.021230 0.000000 0.017795 0.000000
# 2 -0.001234 0.010040 -0.004341 0.000000 0.000013 0.000000
# 3 -0.021230 -0.004341 0.030346 0.000000 -0.024891 0.000000
# 4 0.000000 0.000000 0.000000 0.036956 0.000000 0.008223
# 5 0.017795 0.000013 -0.024891 0.000000 0.067759 0.000000
# 6 0.000000 0.000000 0.000000 0.008223 0.000000 0.036655
#
#
# Mechanical properties :
#
#
# Convention : Reuss Voigt Hill
#
# Bulk Modulus (GPa) = 58.54203 64.61490 61.57847
# Shear Modulus (GPa) = 18.42544 26.12284 22.27414
#
# Velocity S-wave (km/s) = 3.21909 3.83296 3.53936
# Velocity P-wave (km/s) = 6.83673 7.47853 7.16482
#
# Compressibility (1/GPa) = 0.01708175
#
# Stress axis : x y z
#
# Youngs Moduli (GPa) = 32.99775 99.60222 32.95353
#
# Poissons Ratio (x) = 0.12286 0.69961
# Poissons Ratio (y) = 0.04070 0.14304
# Poissons Ratio (z) = 0.70055 0.43235
#
# Static dielectric constant tensor:
#      x y z
#    x 1.619260 0.000000 -0.004480 
#    y 0.000000 1.616950 0.000000 
#    z -0.004480 0.000000 1.646210 
# 
# From -- ./inp_files/218598.got.cif
#   From: 2010.05.17/outbox.ucp.g08.bks.cvg/sg15_110_cif.got.tgz:218598.got - 2010.06.11 12:40:34.
