data_PCOD9308375
_publ_section_title
;
Structure prediction by ZEFSAII (Michael W. Deem and Ramdas Pophale) SiO2 
 PCOD9308375
Probable space group: C 2/C
;
_chemical_formula_sum "Si O2"
_cell_formula_units_Z 24
_cell_length_a 20.148963
_cell_length_b 7.908340
_cell_length_c 14.177657
_cell_angle_alpha 90.000000
_cell_angle_beta 154.025396
_cell_angle_gamma 90.000000
_cell_volume 989.440212
_symmetry_space_group_name_H-M "C 2/C"
_symmetry_group_IT_number 15
_symmetry_cell_setting 'monoclinic'
loop_
_space_group_symop_operation_xyz
x,y,z
-x,y,1/2-z
-x,-y,-z
x,-y,1/2+z
1/2+x,1/2+y,z
1/2-x,1/2+y,1/2-z
1/2-x,1/2-y,-z
1/2+x,1/2-y,1/2+z
loop_
_atom_site_type_symbol
_atom_site_label
_atom_site_fract_x
_atom_site_fract_y
_atom_site_fract_z
Si Si1 0.675605 0.876433 0.507689
Si Si2 0.165848 0.562931 0.680583
Si Si3 0.175712 0.095053 0.958272
O O1 0.764998 0.732610 0.682759
O O2 0.669257 0.034070 0.573278
O O3 0.773616 0.936370 0.542930
O O4 0.500000 0.839747 0.250000
O O5 0.000000 0.500000 0.500000
O O6 0.265298 0.424955 0.861284
O O7 0.000000 0.109382 0.750000
O O8 0.250000 0.250000 0.000000
#
# Coordination Sequence:
#
# PCOD9308375 Si02
#       3
#     8   8   8
#     4  12  27  54  81 116 161 205 270 331 399 473
#     4  12  28  48  83 113 155 209 263 325 403 472
#     4  12  28  50  79 116 160 208 266 329 398 478
#
# _framework density 24.256139000000001
#
# number of rings (size 3 to 8) (size 9 to 14) (size 15 to 20)
#    0.000    0.000    3.333    5.000    9.333    1.333 
#    0.000    0.000    0.000    0.000    0.000    0.000 
#    0.000    0.000    0.000    0.000    0.000    0.000 
#
# Total GULP energy -67037.128954 kJ/mol
# GULP energy per Si atom -5586.427413 kJ/mol
# Density = 2.420093 g / cm^3
# Si number density = 24.256139 Si / 1000 Ang^3
#
#
#
# Elastic Constant Matrix: (Units=GPa)
#
#
# Indices 1 2 3 4 5 6 
#
# 1 178.5417 35.7269 64.7134 0.0000 -0.9113 0.0000
# 2 35.7269 144.7086 58.0607 0.0000 2.8809 0.0000
# 3 64.7134 58.0607 244.0799 0.0000 20.0159 0.0000
# 4 0.0000 0.0000 0.0000 40.7719 0.0000 -3.7999
# 5 -0.9113 2.8809 20.0159 0.0000 56.5781 0.0000
# 6 0.0000 0.0000 0.0000 -3.7999 0.0000 42.9369
#
#
#
# Elastic Compliance Matrix: (Units=1/GPa)
#
#
# Indices 1 2 3 4 5 6 
#
# 1 0.006346 -0.000976 -0.001506 0.000000 0.000685 0.000000
# 2 -0.000976 0.007793 -0.001608 0.000000 0.000156 0.000000
# 3 -0.001506 -0.001608 0.005020 0.000000 -0.001718 0.000000
# 4 0.000000 0.000000 0.000000 0.024731 0.000000 0.002189
# 5 0.000685 0.000156 -0.001718 0.000000 0.018286 0.000000
# 6 0.000000 0.000000 0.000000 0.002189 0.000000 0.023484
#
#
# Mechanical properties :
#
#
# Convention : Reuss Voigt Hill
#
# Bulk Modulus (GPa) = 91.08827 98.25914 94.67370
# Shear Modulus (GPa) = 51.28253 55.31265 53.29759
#
# Velocity S-wave (km/s) = 4.60304 4.78049 4.69260
# Velocity P-wave (km/s) = 8.11695 8.43016 8.27504
#
# Compressibility (1/GPa) = 0.01097836
#
# Stress axis : x y z
#
# Youngs Moduli (GPa) = 157.58605 128.31355 199.20979
#
# Poissons Ratio (x) = 0.12522 0.30011
# Poissons Ratio (y) = 0.15379 0.32032
# Poissons Ratio (z) = 0.23740 0.20632
#
# Static dielectric constant tensor:
#      x y z
#    x 1.945050 0.000000 -0.013620 
#    y 0.000000 2.110410 0.000000 
#    z -0.013620 0.000000 1.768050 
# 
# From -- ./inp_files/35977.got.cif
#   From: 2010.05.17/outbox.cif.g08.bks.cpg/sg15_18_cif.got.tgz:35977.got - 2010.06.03 18:47:42.
