data_PCOD9308044
_publ_section_title
;
Structure prediction by ZEFSAII (Michael W. Deem and Ramdas Pophale) SiO2 
 PCOD9308044
Probable space group: C 2/C
;
_chemical_formula_sum "Si O2"
_cell_formula_units_Z 36
_cell_length_a 12.761603
_cell_length_b 11.406643
_cell_length_c 11.557140
_cell_angle_alpha 90.000000
_cell_angle_beta 97.023879
_cell_angle_gamma 90.000000
_cell_volume 1669.713280
_symmetry_space_group_name_H-M "C 2/C"
_symmetry_group_IT_number 15
_symmetry_cell_setting 'monoclinic'
loop_
_space_group_symop_operation_xyz
x,y,z
-x,y,1/2-z
-x,-y,-z
x,-y,1/2+z
1/2+x,1/2+y,z
1/2-x,1/2+y,1/2-z
1/2-x,1/2-y,-z
1/2+x,1/2-y,1/2+z
loop_
_atom_site_type_symbol
_atom_site_label
_atom_site_fract_x
_atom_site_fract_y
_atom_site_fract_z
Si Si1 0.855801 0.221310 0.083636
Si Si2 0.674577 0.878459 0.199025
Si Si3 0.436143 0.224909 0.027606
Si Si4 0.000000 0.435043 0.750000
Si Si5 0.104028 0.957933 0.342435
O O1 0.847015 0.279226 0.208704
O O2 0.872627 0.082956 0.097949
O O3 0.750000 0.250000 0.000000
O O4 0.955585 0.275314 0.030705
O O5 0.794499 0.921982 0.220023
O O6 0.592683 0.983213 0.212285
O O7 0.651721 0.827192 0.069052
O O8 0.452537 0.145841 0.142891
O O9 0.412682 0.356230 0.065762
O O10 0.000000 0.965380 0.250000
#
# Coordination Sequence:
#
# PCOD9308044 Si02
#       5
#     8   8   8   4   8
#     4  12  27  48  75 109 151 198 248 305 376 445
#     4  12  27  47  76 107 148 197 250 310 370 447
#     4  12  25  50  73 111 145 198 252 307 373 444
#     4  12  26  48  78 106 148 192 258 300 372 446
#     4  12  27  48  76 110 154 191 247 311 373 442
#
# _framework density 21.560587999999999
#
# number of rings (size 3 to 8) (size 9 to 14) (size 15 to 20)
#    0.000    0.000    3.333    6.000    6.222    1.778 
#    0.000    0.000    0.000    0.000    0.000    0.000 
#    0.000    0.000    0.000    0.000    0.000    0.000 
#
# Total GULP energy -100947.191627 kJ/mol
# GULP energy per Si atom -5608.177313 kJ/mol
# Density = 2.151151 g / cm^3
# Si number density = 21.560588 Si / 1000 Ang^3
#
#
#
# Elastic Constant Matrix: (Units=GPa)
#
#
# Indices 1 2 3 4 5 6 
#
# 1 109.6280 42.2592 23.3457 0.0000 18.2261 0.0000
# 2 42.2592 147.1059 85.1393 0.0000 28.8712 0.0000
# 3 23.3457 85.1393 144.5135 0.0000 19.2347 0.0000
# 4 0.0000 0.0000 0.0000 30.4152 0.0000 18.7681
# 5 18.2261 28.8712 19.2347 0.0000 30.9072 0.0000
# 6 0.0000 0.0000 0.0000 18.7681 0.0000 24.0856
#
#
#
# Elastic Compliance Matrix: (Units=1/GPa)
#
#
# Indices 1 2 3 4 5 6 
#
# 1 0.010691 -0.002378 0.000237 0.000000 -0.004231 0.000000
# 2 -0.002378 0.012144 -0.005939 0.000000 -0.006246 0.000000
# 3 0.000237 -0.005939 0.010533 0.000000 -0.001147 0.000000
# 4 0.000000 0.000000 0.000000 0.063329 0.000000 -0.049347
# 5 -0.004231 -0.006246 -0.001147 0.000000 0.041398 0.000000
# 6 0.000000 0.000000 0.000000 -0.049347 0.000000 0.079971
#
#
# Mechanical properties :
#
#
# Convention : Reuss Voigt Hill
#
# Bulk Modulus (GPa) = 58.11223 78.08174 68.09698
# Shear Modulus (GPa) = 20.83652 33.78182 27.30917
#
# Velocity S-wave (km/s) = 3.11210 3.96262 3.56283
# Velocity P-wave (km/s) = 6.31863 7.56506 6.96976
#
# Compressibility (1/GPa) = 0.01720808
#
# Stress axis : x y z
#
# Youngs Moduli (GPa) = 93.53314 82.34426 94.93807
#
# Poissons Ratio (x) = 0.19583 -0.02251
# Poissons Ratio (y) = 0.22244 0.56385
# Poissons Ratio (z) = -0.02217 0.48906
#
# Static dielectric constant tensor:
#      x y z
#    x 1.776870 0.000000 -0.006860 
#    y 0.000000 1.748000 0.000000 
#    z -0.006860 0.000000 1.748810 
# 
# From -- ./inp_files/84448.got.cif
#   From: 2010.05.17/outbox.cif.g08.bks.cpg/sg15_43_cif.got.tgz:84448.got - 2010.06.03 18:47:42.
