data_PCOD9308226
_publ_section_title
;
Structure prediction by ZEFSAII (Michael W. Deem and Ramdas Pophale) SiO2 
 PCOD9308226
Probable space group: C 2/C
;
_chemical_formula_sum "Si O2"
_cell_formula_units_Z 52
_cell_length_a 24.561887
_cell_length_b 9.390724
_cell_length_c 11.735262
_cell_angle_alpha 90.000000
_cell_angle_beta 63.103357
_cell_angle_gamma 90.000000
_cell_volume 2413.975005
_symmetry_space_group_name_H-M "C 2/C"
_symmetry_group_IT_number 15
_symmetry_cell_setting 'monoclinic'
loop_
_space_group_symop_operation_xyz
x,y,z
-x,y,1/2-z
-x,-y,-z
x,-y,1/2+z
1/2+x,1/2+y,z
1/2-x,1/2+y,1/2-z
1/2-x,1/2-y,-z
1/2+x,1/2-y,1/2+z
loop_
_atom_site_type_symbol
_atom_site_label
_atom_site_fract_x
_atom_site_fract_y
_atom_site_fract_z
Si Si1 0.559205 0.421057 0.991087
Si Si2 0.302938 0.645657 0.412831
Si Si3 0.632499 0.829131 0.338584
Si Si4 0.000000 0.794463 0.250000
Si Si5 0.444937 0.094147 0.105846
Si Si6 0.858522 0.170897 0.603510
Si Si7 0.251788 0.657497 0.882053
O O1 0.546899 0.396161 0.137190
O O2 0.500000 0.500000 0.000000
O O3 0.575197 0.261974 0.937822
O O4 0.611727 0.521030 0.890307
O O5 0.250000 0.750000 0.500000
O O6 0.339673 0.732525 0.285193
O O7 0.340393 0.631981 0.492889
O O8 0.274547 0.499149 0.395359
O O9 0.685240 0.846135 0.384759
O O10 0.607439 0.978443 0.316506
O O11 0.966457 0.690541 0.191819
O O12 0.410142 0.207004 0.057300
O O13 0.500000 0.000000 0.000000
O O14 0.801830 0.209283 0.740044
O O15 0.250000 0.750000 0.000000
#
# Coordination Sequence:
#
# PCOD9308226 Si02
#       7
#     8   8   8   4   8   8   8
#     4  12  26  50  74 109 145 200 261 311 380 457
#     4  12  27  46  74 111 148 195 248 309 377 457
#     4  12  27  48  76 112 155 196 251 317 385 455
#     4  12  28  48  78 110 150 208 258 320 398 442
#     4  12  28  50  73 109 152 200 253 313 383 459
#     4  12  27  49  75 110 152 195 255 314 382 451
#     4  12  29  48  79 111 148 199 250 314 386 456
#
# _framework density 21.541233999999999
#
# number of rings (size 3 to 8) (size 9 to 14) (size 15 to 20)
#    0.000    0.000    6.154    1.846   10.769    0.000 
#    0.000    0.000    0.000    0.000    0.000    0.000 
#    0.000    0.000    0.000    0.000    0.000    0.000 
#
# Total GULP energy -145171.124531 kJ/mol
# GULP energy per Si atom -5583.504790 kJ/mol
# Density = 2.149221 g / cm^3
# Si number density = 21.541234 Si / 1000 Ang^3
#
#
#
# Elastic Constant Matrix: (Units=GPa)
#
#
# Indices 1 2 3 4 5 6 
#
# 1 125.5105 43.0267 30.2449 0.0000 6.6276 0.0000
# 2 43.0267 119.2261 36.1162 0.0000 -12.7324 0.0000
# 3 30.2449 36.1162 112.3578 0.0000 -6.1544 0.0000
# 4 0.0000 0.0000 0.0000 47.1499 0.0000 -0.8974
# 5 6.6276 -12.7324 -6.1544 0.0000 25.1094 0.0000
# 6 0.0000 0.0000 0.0000 -0.8974 0.0000 46.4402
#
#
#
# Elastic Compliance Matrix: (Units=1/GPa)
#
#
# Indices 1 2 3 4 5 6 
#
# 1 0.009865 -0.003536 -0.001784 0.000000 -0.004834 0.000000
# 2 -0.003536 0.010981 -0.002252 0.000000 0.005950 0.000000
# 3 -0.001784 -0.002252 0.010204 0.000000 0.001830 0.000000
# 4 0.000000 0.000000 0.000000 0.021217 0.000000 0.000410
# 5 -0.004834 0.005950 0.001830 0.000000 0.044567 0.000000
# 6 0.000000 0.000000 0.000000 0.000410 0.000000 0.021541
#
#
# Mechanical properties :
#
#
# Convention : Reuss Voigt Hill
#
# Bulk Modulus (GPa) = 62.86554 63.98556 63.42555
# Shear Modulus (GPa) = 36.01778 40.25368 38.13573
#
# Velocity S-wave (km/s) = 4.09349 4.32751 4.21213
# Velocity P-wave (km/s) = 7.18258 7.39852 7.29135
#
# Compressibility (1/GPa) = 0.01590697
#
# Stress axis : x y z
#
# Youngs Moduli (GPa) = 101.37169 91.06610 97.99709
#
# Poissons Ratio (x) = 0.32200 0.17479
# Poissons Ratio (y) = 0.35844 0.22069
# Poissons Ratio (z) = 0.18081 0.20508
#
# Static dielectric constant tensor:
#      x y z
#    x 1.814800 0.000000 -0.087700 
#    y 0.000000 1.805530 0.000000 
#    z -0.087700 0.000000 1.745840 
# 
# From -- ./inp_files/121835.got.cif
#   From: 2010.05.17/outbox.cif.g08.bks.cpg/sg15_61_cif.got.tgz:121835.got - 2010.06.03 18:47:42.
