data_PCOD9308417
_publ_section_title
;
Structure prediction by ZEFSAII (Michael W. Deem and Ramdas Pophale) SiO2 
 PCOD9308417
Probable space group: C 2/C
;
_chemical_formula_sum "Si O2"
_cell_formula_units_Z 16
_cell_length_a 26.886429
_cell_length_b 5.093886
_cell_length_c 9.506877
_cell_angle_alpha 90.000000
_cell_angle_beta 27.330973
_cell_angle_gamma 90.000000
_cell_volume 597.799787
_symmetry_space_group_name_H-M "C 2/C"
_symmetry_group_IT_number 15
_symmetry_cell_setting 'monoclinic'
loop_
_space_group_symop_operation_xyz
x,y,z
-x,y,1/2-z
-x,-y,-z
x,-y,1/2+z
1/2+x,1/2+y,z
1/2-x,1/2+y,1/2-z
1/2-x,1/2-y,-z
1/2+x,1/2-y,1/2+z
loop_
_atom_site_type_symbol
_atom_site_label
_atom_site_fract_x
_atom_site_fract_y
_atom_site_fract_z
Si Si1 0.566537 0.320072 0.225122
Si Si2 0.267161 0.000155 0.055210
O O1 0.500000 0.266583 0.250000
O O2 0.500000 0.500000 0.500000
O O3 0.673781 0.479293 0.906312
O O4 0.616661 0.056500 0.166975
O O5 0.250000 0.250000 0.000000
O O6 0.250000 0.750000 0.000000
#
# Coordination Sequence:
#
# PCOD9308417 Si02
#       2
#     8   8
#     4  12  28  57  93 136 181 241 300 377 459 533
#     4  12  28  57  85 135 184 231 301 375 444 548
#
# _framework density 26.764814000000001
#
# number of rings (size 3 to 8) (size 9 to 14) (size 15 to 20)
#    0.000    0.000    5.000    3.000    0.000    2.000 
#    9.000    0.000    0.000    0.000    0.000    0.000 
#    0.000    0.000    0.000    0.000    0.000    0.000 
#
# Total GULP energy -44988.228902 kJ/mol
# GULP energy per Si atom -5623.528613 kJ/mol
# Density = 2.670390 g / cm^3
# Si number density = 26.764814 Si / 1000 Ang^3
#
#
#
# Elastic Constant Matrix: (Units=GPa)
#
#
# Indices 1 2 3 4 5 6 
#
# 1 296.5363 110.0018 82.5782 0.0000 -18.6055 0.0000
# 2 110.0018 232.7518 88.4066 0.0000 9.2836 0.0000
# 3 82.5782 88.4066 244.6646 0.0000 3.0670 0.0000
# 4 0.0000 0.0000 0.0000 44.2122 0.0000 -11.2216
# 5 -18.6055 9.2836 3.0670 0.0000 58.6133 0.0000
# 6 0.0000 0.0000 0.0000 -11.2216 0.0000 65.6836
#
#
#
# Elastic Compliance Matrix: (Units=1/GPa)
#
#
# Indices 1 2 3 4 5 6 
#
# 1 0.004393 -0.001824 -0.000845 0.000000 0.001727 0.000000
# 2 -0.001824 0.005766 -0.001450 0.000000 -0.001416 0.000000
# 3 -0.000845 -0.001450 0.004900 0.000000 -0.000295 0.000000
# 4 0.000000 0.000000 0.000000 0.023643 0.000000 0.004039
# 5 0.001727 -0.001416 -0.000295 0.000000 0.017849 0.000000
# 6 0.000000 0.000000 0.000000 0.004039 0.000000 0.015915
#
#
# Mechanical properties :
#
#
# Convention : Reuss Voigt Hill
#
# Bulk Modulus (GPa) = 146.62238 148.43620 147.52929
# Shear Modulus (GPa) = 60.25763 66.56623 63.41193
#
# Velocity S-wave (km/s) = 4.75001 4.99247 4.87275
# Velocity P-wave (km/s) = 9.21869 9.42406 9.32194
#
# Compressibility (1/GPa) = 0.00682024
#
# Stress axis : x y z
#
# Youngs Moduli (GPa) = 227.65594 173.44067 204.07598
#
# Poissons Ratio (x) = 0.31633 0.17248
# Poissons Ratio (y) = 0.41522 0.29591
# Poissons Ratio (z) = 0.19241 0.25149
#
# Static dielectric constant tensor:
#      x y z
#    x 2.135640 0.000000 -0.051600 
#    y 0.000000 2.146860 0.000000 
#    z -0.051600 0.000000 2.126980 
# 
# From -- ./inp_files/35869.got.cif
#   From: 2010.05.17/outbox.cif.g08.bks.cpg/sg15_18_cif.got.tgz:35869.got - 2010.06.03 18:47:42.
