data_PCOD9308895
_publ_section_title
;
Structure prediction by ZEFSAII (Michael W. Deem and Ramdas Pophale) SiO2 
 PCOD9308895
Probable space group: C 2/C
;
_chemical_formula_sum "Si O2"
_cell_formula_units_Z 26
_cell_length_a 12.000000
_cell_length_b 9.000000
_cell_length_c 27.000000
_cell_angle_alpha 90.000000
_cell_angle_beta 100.000000
_cell_angle_gamma 90.000000
_cell_volume 2871.699408
_symmetry_space_group_name_H-M "C 2/C"
_symmetry_group_IT_number 15
_symmetry_cell_setting 'monoclinic'
loop_
_space_group_symop_operation_xyz
x,y,z
-x,y,1/2-z
-x,-y,-z
x,-y,1/2+z
1/2+x,1/2+y,z
1/2-x,1/2+y,1/2-z
1/2-x,1/2-y,-z
1/2+x,1/2-y,1/2+z
loop_
_atom_site_type_symbol
_atom_site_label
_atom_site_fract_x
_atom_site_fract_y
_atom_site_fract_z
Si Si1 0.000000 0.402155 0.750000
Si Si2 0.892025 0.200239 0.559097
Si Si3 0.803318 0.295669 0.660885
Si Si4 0.129003 0.663252 0.087734
Si Si5 0.178537 0.619699 0.884369
Si Si6 0.710899 0.004990 0.496671
Si Si7 0.421479 0.095085 0.837074
O O1 0.095306 0.308269 0.789408
O O2 0.062965 0.508944 0.714403
O O3 0.843981 0.218912 0.611858
O O4 0.833398 0.060076 0.527188
O O5 0.854025 0.342724 0.523047
O O6 0.026976 0.218077 0.573838
O O7 0.788297 0.468942 0.642992
O O8 0.686547 0.209728 0.668472
O O9 0.237614 0.744901 0.119091
O O10 0.094776 0.532224 0.122547
O O11 0.155433 0.587753 0.036865
O O12 0.201645 0.584875 0.944520
O O13 0.047595 0.656924 0.860943
#
# Coordination Sequence:
#
# PCOD9308895 Si02
#       7
#     4   8   8   8   8   8   8
#     4  10  22  42  64  92 108 150 208 252 316 354
#     4  10  20  35  62  89 121 166 204 237 298 357
#     4  10  21  44  63  87 121 156 194 256 306 358
#     4  12  21  37  63  88 126 163 199 245 293 352
#     4  10  24  38  59  95 126 160 202 239 293 363
#     4  10  20  35  57  94 125 164 205 235 290 354
#     4  11  23  43  65  86 122 156 197 257 305 360
#
# _framework density 9.0538720000000001
#
# number of rings (size 3 to 8) (size 9 to 14) (size 15 to 20)
#    0.000    1.538    6.154    0.923    0.000    4.308 
#    0.000    0.000    0.000    0.000    0.000    0.000 
#    0.000    0.000    0.000    0.000    0.000    0.000 
#
# Total GULP energy -144953.699374 kJ/mol
# GULP energy per Si atom -5575.142284 kJ/mol
# Density = 0.903327 g / cm^3
# Si number density = 9.053872 Si / 1000 Ang^3
#
#
#
# Elastic Constant Matrix: (Units=GPa)
#
#
# Indices 1 2 3 4 5 6 
#
# 1 148.0209 40.7316 41.4480 0.0000 26.7282 0.0000
# 2 40.7316 25.0844 19.6834 0.0000 3.9895 0.0000
# 3 41.4480 19.6834 106.8487 0.0000 19.4387 0.0000
# 4 0.0000 0.0000 0.0000 18.6701 0.0000 7.3237
# 5 26.7282 3.9895 19.4387 0.0000 32.6169 0.0000
# 6 0.0000 0.0000 0.0000 7.3237 0.0000 45.0156
#
#
#
# Elastic Compliance Matrix: (Units=1/GPa)
#
#
# Indices 1 2 3 4 5 6 
#
# 1 0.014482 -0.022160 0.000146 0.000000 -0.009244 0.000000
# 2 -0.022160 0.080524 -0.008692 0.000000 0.013490 0.000000
# 3 0.000146 -0.008692 0.012037 0.000000 -0.006230 0.000000
# 4 0.000000 0.000000 0.000000 0.057213 0.000000 -0.009308
# 5 -0.009244 0.013490 -0.006230 0.000000 0.040297 0.000000
# 6 0.000000 0.000000 0.000000 -0.009308 0.000000 0.023729
#
#
# Mechanical properties :
#
#
# Convention : Reuss Voigt Hill
#
# Bulk Modulus (GPa) = 21.91492 53.74224 37.82858
# Shear Modulus (GPa) = 16.39863 31.13323 23.76593
#
# Velocity S-wave (km/s) = 3.01261 4.15098 3.62674
# Velocity P-wave (km/s) = 4.92238 7.26070 6.20273
#
# Compressibility (1/GPa) = 0.04563102
#
# Stress axis : x y z
#
# Youngs Moduli (GPa) = 69.05141 12.41871 83.07751
#
# Poissons Ratio (x) = 0.27520 -0.01215
# Poissons Ratio (y) = 1.53019 0.72210
# Poissons Ratio (z) = -0.01010 0.10794
#
# Static dielectric constant tensor:
#      x y z
#    x 1.656430 0.000000 -0.003150 
#    y 0.000000 1.634500 0.000000 
#    z -0.003150 0.000000 1.618140 
# 
# From -- ./inp_files/291109.got.cif
#   From: 2010.05.17/outbox.ucp.g08.bks.cvg/sg15_146_cif.got.tgz:291109.got - 2010.06.11 12:40:34.
