data_PCOD9308689
_publ_section_title
;
Structure prediction by ZEFSAII (Michael W. Deem and Ramdas Pophale) SiO2 
 PCOD9308689
Probable space group: C 2/C
;
_chemical_formula_sum "Si O2"
_cell_formula_units_Z 30
_cell_length_a 12.000000
_cell_length_b 18.000000
_cell_length_c 15.000000
_cell_angle_alpha 90.000000
_cell_angle_beta 70.000000
_cell_angle_gamma 90.000000
_cell_volume 3044.604091
_symmetry_space_group_name_H-M "C 2/C"
_symmetry_group_IT_number 15
_symmetry_cell_setting 'monoclinic'
loop_
_space_group_symop_operation_xyz
x,y,z
-x,y,1/2-z
-x,-y,-z
x,-y,1/2+z
1/2+x,1/2+y,z
1/2-x,1/2+y,1/2-z
1/2-x,1/2-y,-z
1/2+x,1/2-y,1/2+z
loop_
_atom_site_type_symbol
_atom_site_label
_atom_site_fract_x
_atom_site_fract_y
_atom_site_fract_z
Si Si1 0.244384 0.096729 0.098455
Si Si2 0.026531 0.342761 0.041426
Si Si3 0.500000 0.633650 0.750000
Si Si4 0.998009 0.068111 0.433952
Si Si5 0.617488 0.108581 0.772056
Si Si6 0.527160 0.703182 0.936255
Si Si7 0.803260 0.733337 0.859268
Si Si8 0.680517 0.511824 0.759688
O O1 0.209866 0.179095 0.141555
O O2 0.133338 0.073870 0.069219
O O3 0.253935 0.038877 0.174180
O O4 0.369867 0.103080 0.017378
O O5 0.099818 0.292155 0.094152
O O6 0.920571 0.387805 0.115205
O O7 0.988408 0.285634 0.975166
O O8 0.500892 0.680422 0.841412
O O9 0.609992 0.576859 0.727963
O O10 0.025655 0.142462 0.481542
O O11 0.089653 0.042841 0.333254
O O12 0.000000 0.000000 0.500000
O O13 0.500000 0.089217 0.750000
O O14 0.653510 0.193213 0.740979
O O15 0.723452 0.056882 0.709968
O O16 0.670366 0.703136 0.912840
#
# Coordination Sequence:
#
# PCOD9308689 Si02
#       8
#     8   8   4   8   8   8   8   8
#     4  11  21  35  61  96 122 156 202 263 306 356
#     4  10  21  37  65  90 118 164 208 262 293 364
#     4  12  22  38  60  90 132 166 188 256 320 382
#     4  12  20  33  60  91 128 151 200 254 309 372
#     4  10  23  40  63  86 126 167 208 252 314 368
#     4  11  20  37  61  93 122 157 206 255 316 364
#     4  10  18  37  65  93 121 153 204 265 303 352
#     4  12  24  38  58  94 127 167 199 252 326 369
#
# _framework density 9.8534980000000001
#
# number of rings (size 3 to 8) (size 9 to 14) (size 15 to 20)
#    0.000    1.067    6.667    0.800    3.733    1.600 
#    0.000    0.667    5.867    0.000    0.000    0.000 
#    0.000    0.000    0.000    0.000    0.000    0.000 
#
# Total GULP energy -167204.050065 kJ/mol
# GULP energy per Si atom -5573.468335 kJ/mol
# Density = 0.983107 g / cm^3
# Si number density = 9.853498 Si / 1000 Ang^3
#
#
#
# Elastic Constant Matrix: (Units=GPa)
#
#
# Indices 1 2 3 4 5 6 
#
# 1 38.0599 32.4895 6.1392 0.0000 -2.8801 0.0000
# 2 32.4895 64.2910 45.4139 0.0000 -6.4408 0.0000
# 3 6.1392 45.4139 70.5522 0.0000 -12.0665 0.0000
# 4 0.0000 0.0000 0.0000 11.6780 0.0000 -0.7033
# 5 -2.8801 -6.4408 -12.0665 0.0000 18.6490 0.0000
# 6 0.0000 0.0000 0.0000 -0.7033 0.0000 26.6153
#
#
#
# Elastic Compliance Matrix: (Units=1/GPa)
#
#
# Indices 1 2 3 4 5 6 
#
# 1 0.072549 -0.059538 0.034195 0.000000 0.012767 0.000000
# 2 -0.059538 0.077471 -0.046870 0.000000 -0.012765 0.000000
# 3 0.034195 -0.046870 0.044418 0.000000 0.017834 0.000000
# 4 0.000000 0.000000 0.000000 0.085767 0.000000 0.002267
# 5 0.012767 -0.012765 0.017834 0.000000 0.062724 0.000000
# 6 0.000000 0.000000 0.000000 0.002267 0.000000 0.037632
#
#
# Mechanical properties :
#
#
# Convention : Reuss Voigt Hill
#
# Bulk Modulus (GPa) = 19.99534 37.88760 28.94147
# Shear Modulus (GPa) = 9.23088 17.31249 13.27169
#
# Velocity S-wave (km/s) = 2.16662 2.96716 2.59791
# Velocity P-wave (km/s) = 4.05306 5.56829 4.86997
#
# Compressibility (1/GPa) = 0.05001164
#
# Stress axis : x y z
#
# Youngs Moduli (GPa) = 13.78377 12.90801 22.51323
#
# Poissons Ratio (x) = 0.76852 -0.76984
# Poissons Ratio (y) = 0.82066 1.05520
# Poissons Ratio (z) = -0.47133 0.60500
#
# Static dielectric constant tensor:
#      x y z
#    x 1.498220 0.000000 0.255390 
#    y 0.000000 1.850080 0.000000 
#    z 0.255390 0.000000 1.454290 
# 
# From -- ./inp_files/146050.got.cif
#   From: 2010.05.17/outbox.ucp.g08.bks.cvg/sg15_74_cif.got.tgz:146050.got - 2010.06.11 12:40:34.
