data_PCOD9308462
_publ_section_title
;
Structure prediction by ZEFSAII (Michael W. Deem and Ramdas Pophale) SiO2 
 PCOD9308462
Probable space group: C 2/C
;
_chemical_formula_sum "Si O2"
_cell_formula_units_Z 56
_cell_length_a 11.875436
_cell_length_b 7.092997
_cell_length_c 30.919173
_cell_angle_alpha 90.000000
_cell_angle_beta 134.037213
_cell_angle_gamma 90.000000
_cell_volume 1872.271086
_symmetry_space_group_name_H-M "C 2/C"
_symmetry_group_IT_number 15
_symmetry_cell_setting 'monoclinic'
loop_
_space_group_symop_operation_xyz
x,y,z
-x,y,1/2-z
-x,-y,-z
x,-y,1/2+z
1/2+x,1/2+y,z
1/2-x,1/2+y,1/2-z
1/2-x,1/2-y,-z
1/2+x,1/2-y,1/2+z
loop_
_atom_site_type_symbol
_atom_site_label
_atom_site_fract_x
_atom_site_fract_y
_atom_site_fract_z
Si Si1 0.075535 0.238675 0.421637
Si Si2 0.071846 0.211072 0.937521
Si Si3 0.644671 0.743686 0.349236
Si Si4 0.784105 0.220817 0.703312
Si Si5 0.195734 0.791925 0.771822
Si Si6 0.493168 0.725137 0.006117
Si Si7 0.151153 0.794192 0.369379
O O1 0.067514 0.013910 0.428538
O O2 0.174887 0.314328 0.406654
O O3 0.897913 0.282717 0.359708
O O4 0.103941 0.307411 0.478744
O O5 0.052105 0.284256 0.883324
O O6 0.250000 0.250000 0.000000
O O7 0.970128 0.293035 0.950371
O O8 0.468328 0.795147 0.287660
O O9 0.740964 0.794131 0.330987
O O10 0.632917 0.518463 0.356475
O O11 0.834129 0.006853 0.723725
O O12 0.793974 0.302611 0.753923
O O13 0.868300 0.298097 0.682856
O O14 0.670120 0.771423 0.067705
O O15 0.500000 0.500000 0.000000
#
# Coordination Sequence:
#
# PCOD9308462 Si02
#       7
#     8   8   8   8   8   8   8
#     4   8  13  21  33  51  76 109 135 159 199 247
#     4   8  12  18  30  51  80 112 132 154 197 253
#     4   8  14  24  38  52  71 105 138 161 193 252
#     4   9  16  25  38  55  75 104 135 171 205 241
#     4   9  16  26  40  55  72  99 138 171 205 243
#     4   8  12  17  28  50  80 109 128 155 200 244
#     4   8  13  21  33  50  74 108 135 157 195 246
#
# _framework density 29.910197
#
# number of rings (size 3 to 8) (size 9 to 14) (size 15 to 20)
#    0.000    3.714    0.000    0.000    0.000    0.000 
#    0.000    0.000    0.000   13.714    0.000    0.000 
#    0.000    0.000    0.000 2206.286    0.000    0.714 
#
# Total GULP energy -156497.792413 kJ/mol
# GULP energy per Si atom -5589.206872 kJ/mol
# Density = 2.984212 g / cm^3
# Si number density = 29.910197 Si / 1000 Ang^3
#
#
#
# Elastic Constant Matrix: (Units=GPa)
#
#
# Indices 1 2 3 4 5 6 
#
# 1 210.6600 2.4878 89.0839 0.0000 -105.9305 0.0000
# 2 2.4878 128.7958 3.3551 0.0000 5.2482 0.0000
# 3 89.0839 3.3551 288.1507 0.0000 -103.2062 0.0000
# 4 0.0000 0.0000 0.0000 21.1370 0.0000 5.7888
# 5 -105.9305 5.2482 -103.2062 0.0000 108.3554 0.0000
# 6 0.0000 0.0000 0.0000 5.7888 0.0000 25.6545
#
#
#
# Elastic Compliance Matrix: (Units=1/GPa)
#
#
# Indices 1 2 3 4 5 6 
#
# 1 0.009447 -0.000600 0.000614 0.000000 0.009850 0.000000
# 2 -0.000600 0.007840 -0.000382 0.000000 -0.001330 0.000000
# 3 0.000614 -0.000382 0.005322 0.000000 0.005688 0.000000
# 4 0.000000 0.000000 0.000000 0.050427 0.000000 -0.011378
# 5 0.009850 -0.001330 0.005688 0.000000 0.024341 0.000000
# 6 0.000000 0.000000 0.000000 -0.011378 0.000000 0.041547
#
#
# Mechanical properties :
#
#
# Convention : Reuss Voigt Hill
#
# Bulk Modulus (GPa) = 45.71644 90.82890 68.27267
# Shear Modulus (GPa) = 34.02472 66.54134 50.28303
#
# Velocity S-wave (km/s) = 3.37644 4.72179 4.10461
# Velocity P-wave (km/s) = 5.52433 7.75630 6.73344
#
# Compressibility (1/GPa) = 0.02187397
#
# Stress axis : x y z
#
# Youngs Moduli (GPa) = 105.84829 127.55131 187.88553
#
# Poissons Ratio (x) = 0.07651 -0.11541
# Poissons Ratio (y) = 0.06350 0.07183
# Poissons Ratio (z) = -0.06502 0.04876
#
# Static dielectric constant tensor:
#      x y z
#    x 2.765370 0.000000 -0.128850 
#    y 0.000000 2.228090 0.000000 
#    z -0.128850 0.000000 2.311360 
# 
# From -- ./inp_files/291837.got.cif
#   From: 2010.05.17/outbox.cif.g08.bks.cpg/sg15_146_cif.got.tgz:291837.got - 2010.06.03 18:47:42.
