data_PCOD9308479
_publ_section_title
;
Structure prediction by ZEFSAII (Michael W. Deem and Ramdas Pophale) SiO2 
 PCOD9308479
Probable space group: C 2/C
;
_chemical_formula_sum "Si O2"
_cell_formula_units_Z 32
_cell_length_a 19.991086
_cell_length_b 6.879314
_cell_length_c 7.988543
_cell_angle_alpha 90.000000
_cell_angle_beta 99.901490
_cell_angle_gamma 90.000000
_cell_volume 1082.259874
_symmetry_space_group_name_H-M "C 2/C"
_symmetry_group_IT_number 15
_symmetry_cell_setting 'monoclinic'
loop_
_space_group_symop_operation_xyz
x,y,z
-x,y,1/2-z
-x,-y,-z
x,-y,1/2+z
1/2+x,1/2+y,z
1/2-x,1/2+y,1/2-z
1/2-x,1/2-y,-z
1/2+x,1/2-y,1/2+z
loop_
_atom_site_type_symbol
_atom_site_label
_atom_site_fract_x
_atom_site_fract_y
_atom_site_fract_z
Si Si1 0.455868 0.732522 0.564988
Si Si2 0.918926 0.692954 0.558906
Si Si3 0.832517 0.798897 0.188288
Si Si4 0.210786 0.622574 0.848432
O O1 0.500000 0.700378 0.750000
O O2 0.508111 0.702915 0.434595
O O3 0.384880 0.621966 0.571358
O O4 0.437528 0.963084 0.560070
O O5 0.876383 0.741655 0.372188
O O6 0.865849 0.713798 0.691277
O O7 0.804669 0.596218 0.106663
O O8 0.765948 0.904882 0.226000
O O9 0.250000 0.750000 0.000000
#
# Coordination Sequence:
#
# PCOD9308479 Si02
#       4
#     8   8   8   8
#     4   8  13  23  41  64  85 106 139 181 216 246
#     4   8  14  25  42  64  86 108 142 182 214 245
#     4   9  16  27  44  65  89 116 143 176 217 256
#     4   9  17  29  43  63  90 116 144 178 215 256
#
# _framework density 29.567758999999999
#
# number of rings (size 3 to 8) (size 9 to 14) (size 15 to 20)
#    0.000    3.500    0.000    0.000    0.000    0.000 
#    0.000   11.250    0.000    1.500    0.000   70.000 
#    0.000    0.000    0.000    0.000    0.000    0.000 
#
# Total GULP energy -89471.044724 kJ/mol
# GULP energy per Si atom -5591.940295 kJ/mol
# Density = 2.950046 g / cm^3
# Si number density = 29.567759 Si / 1000 Ang^3
#
#
#
# Elastic Constant Matrix: (Units=GPa)
#
#
# Indices 1 2 3 4 5 6 
#
# 1 355.1480 39.5329 71.4852 0.0000 -100.6251 0.0000
# 2 39.5329 84.6165 27.6892 0.0000 13.3875 0.0000
# 3 71.4852 27.6892 130.6501 0.0000 -10.7563 0.0000
# 4 0.0000 0.0000 0.0000 33.9531 0.0000 -7.1421
# 5 -100.6251 13.3875 -10.7563 0.0000 61.3200 0.0000
# 6 0.0000 0.0000 0.0000 -7.1421 0.0000 40.8538
#
#
#
# Elastic Compliance Matrix: (Units=1/GPa)
#
#
# Indices 1 2 3 4 5 6 
#
# 1 0.007383 -0.004838 -0.001958 0.000000 0.012829 0.000000
# 2 -0.004838 0.016560 -0.001840 0.000000 -0.011878 0.000000
# 3 -0.001958 -0.001840 0.009014 0.000000 -0.001230 0.000000
# 4 0.000000 0.000000 0.000000 0.030577 0.000000 0.005345
# 5 0.012829 -0.011878 -0.001230 0.000000 0.039737 0.000000
# 6 0.000000 0.000000 0.000000 0.005345 0.000000 0.025412
#
#
# Mechanical properties :
#
#
# Convention : Reuss Voigt Hill
#
# Bulk Modulus (GPa) = 63.75970 94.20323 78.98147
# Shear Modulus (GPa) = 33.07230 56.00588 44.53909
#
# Velocity S-wave (km/s) = 3.34807 4.35691 3.88537
# Velocity P-wave (km/s) = 6.04622 7.56568 6.84822
#
# Compressibility (1/GPa) = 0.01568389
#
# Stress axis : x y z
#
# Youngs Moduli (GPa) = 135.44304 60.38689 110.93677
#
# Poissons Ratio (x) = 0.29217 0.21723
# Poissons Ratio (y) = 0.65532 0.20415
# Poissons Ratio (z) = 0.26522 0.11112
#
# Static dielectric constant tensor:
#      x y z
#    x 2.403050 0.000000 -0.117300 
#    y 0.000000 2.338330 0.000000 
#    z -0.117300 0.000000 2.251760 
# 
# From -- ./inp_files/59806.got.cif
#   From: 2010.05.17/outbox.cif.g08.bks.cpg/sg15_30_cif.got.tgz:59806.got - 2010.06.03 18:47:42.
