data_PCOD9308098
_publ_section_title
;
Structure prediction by ZEFSAII (Michael W. Deem and Ramdas Pophale) SiO2 
 PCOD9308098
Probable space group: C 2/C
;
_chemical_formula_sum "Si O2"
_cell_formula_units_Z 40
_cell_length_a 13.737220
_cell_length_b 14.148103
_cell_length_c 16.851382
_cell_angle_alpha 90.000000
_cell_angle_beta 147.959573
_cell_angle_gamma 90.000000
_cell_volume 1737.529976
_symmetry_space_group_name_H-M "C 2/C"
_symmetry_group_IT_number 15
_symmetry_cell_setting 'monoclinic'
loop_
_space_group_symop_operation_xyz
x,y,z
-x,y,1/2-z
-x,-y,-z
x,-y,1/2+z
1/2+x,1/2+y,z
1/2-x,1/2+y,1/2-z
1/2-x,1/2-y,-z
1/2+x,1/2-y,1/2+z
loop_
_atom_site_type_symbol
_atom_site_label
_atom_site_fract_x
_atom_site_fract_y
_atom_site_fract_z
Si Si1 0.712182 0.982197 0.880753
Si Si2 0.366913 0.319372 0.526885
Si Si3 0.452026 0.606121 0.807913
Si Si4 0.829176 0.533026 0.330223
Si Si5 0.723070 0.243930 0.204140
O O1 0.500000 0.958273 0.750000
O O2 0.712666 0.004388 0.787205
O O3 0.779039 0.076501 0.973278
O O4 0.861669 0.904320 0.010895
O O5 0.250000 0.250000 0.500000
O O6 0.356115 0.295138 0.426772
O O7 0.577000 0.291474 0.686564
O O8 0.500000 0.625234 0.750000
O O9 0.345649 0.505831 0.742014
O O10 0.315210 0.685098 0.749918
O O11 0.866387 0.643141 0.341355
O O12 0.000000 0.500000 0.500000
#
# Coordination Sequence:
#
# PCOD9308098 Si02
#       5
#     8   8   8   8   8
#     4  12  26  49  76 114 157 203 261 330 394 470
#     4  12  26  45  74 116 153 196 261 324 397 462
#     4  12  27  50  79 115 158 208 264 322 403 480
#     4  12  26  48  76 110 154 206 260 322 392 467
#     4  12  26  47  77 110 157 203 257 325 389 474
#
# _framework density 23.021186
#
# number of rings (size 3 to 8) (size 9 to 14) (size 15 to 20)
#    0.000    0.000    4.000    6.000    5.600    0.800 
#    0.000    6.000    0.000    0.000    0.000    0.000 
#    0.000    0.000    0.000    0.000    0.000    0.000 
#
# Total GULP energy -111695.397834 kJ/mol
# GULP energy per Si atom -5584.769892 kJ/mol
# Density = 2.296879 g / cm^3
# Si number density = 23.021186 Si / 1000 Ang^3
#
#
#
# Elastic Constant Matrix: (Units=GPa)
#
#
# Indices 1 2 3 4 5 6 
#
# 1 117.2806 20.1681 28.3207 0.0003 -11.5931 0.0000
# 2 20.1681 106.3237 7.8918 0.0000 6.8868 0.0001
# 3 28.3207 7.8918 152.3285 -0.0001 12.7531 0.0001
# 4 0.0003 0.0000 -0.0001 8.6785 0.0002 16.6691
# 5 -11.5931 6.8868 12.7531 0.0002 40.5818 0.0001
# 6 0.0000 0.0001 0.0001 16.6691 0.0001 10.6945
#
#
#
# Elastic Compliance Matrix: (Units=1/GPa)
#
#
# Indices 1 2 3 4 5 6 
#
# 1 0.009717 -0.001935 -0.002019 0.000000 0.003739 0.000000
# 2 -0.001935 0.009915 0.000034 0.000000 -0.002246 0.000000
# 3 -0.002019 0.000034 0.007176 0.000000 -0.002838 0.000000
# 4 0.000000 0.000000 0.000000 -0.057793 0.000000 0.090080
# 5 0.003739 -0.002246 -0.002838 0.000000 0.026983 -0.000001
# 6 0.000000 0.000000 0.000000 0.090080 -0.000001 -0.046899
#
#
# Mechanical properties :
#
#
# Convention : Reuss Voigt Hill
#
# Bulk Modulus (GPa) = 52.72316 54.29935 53.51125
# Shear Modulus (GPa) = -136.09793 33.29442 -51.40176
#
# Velocity S-wave (km/s) = -7.69720 3.80709 -4.73038
# Velocity P-wave (km/s) = 7.48626 6.55462 2.55744
#
# Compressibility (1/GPa) = 0.01896700
#
# Stress axis : x y z
#
# Youngs Moduli (GPa) = 102.91714 100.85408 139.35382
#
# Poissons Ratio (x) = 0.19519 0.28139
# Poissons Ratio (y) = 0.19918 -0.00477
# Poissons Ratio (z) = 0.20781 -0.00345
#
# Static dielectric constant tensor:
#      x y z
#    x 1.889780 0.000000 0.000390 
#    y 0.000000 1.876230 0.000000 
#    z 0.000390 0.000000 1.892840 
# 
# From -- ./inp_files/37984.got.cif
#   From: 2010.05.17/outbox.cif.g08.bks.cpg/sg15_19_cif.got.tgz:37984.got - 2010.06.03 18:47:42.
