data_PCOD9308234
_publ_section_title
;
Structure prediction by ZEFSAII (Michael W. Deem and Ramdas Pophale) SiO2 
 PCOD9308234
Probable space group: C 2/C
;
_chemical_formula_sum "Si O2"
_cell_formula_units_Z 20
_cell_length_a 4.722082
_cell_length_b 13.794202
_cell_length_c 11.635242
_cell_angle_alpha 90.000000
_cell_angle_beta 80.174906
_cell_angle_gamma 90.000000
_cell_volume 746.773104
_symmetry_space_group_name_H-M "C 2/C"
_symmetry_group_IT_number 15
_symmetry_cell_setting 'monoclinic'
loop_
_space_group_symop_operation_xyz
x,y,z
-x,y,1/2-z
-x,-y,-z
x,-y,1/2+z
1/2+x,1/2+y,z
1/2-x,1/2+y,1/2-z
1/2-x,1/2-y,-z
1/2+x,1/2-y,1/2+z
loop_
_atom_site_type_symbol
_atom_site_label
_atom_site_fract_x
_atom_site_fract_y
_atom_site_fract_z
Si Si1 0.000000 0.570446 0.750000
Si Si2 0.583047 0.595540 0.363378
Si Si3 0.451386 0.844646 0.491241
O O1 0.253669 0.499613 0.691542
O O2 0.927474 0.631969 0.642270
O O3 0.500000 0.648973 0.250000
O O4 0.285727 0.576130 0.450128
O O5 0.802758 0.653256 0.429653
O O6 0.250000 0.750000 0.500000
#
# Coordination Sequence:
#
# PCOD9308234 Si02
#       3
#     4   8   8
#     4  12  28  46  86 104 160 204 256 312 376 458
#     4  12  26  50  77 112 154 201 258 308 381 461
#     4  12  29  49  77 116 156 198 257 316 386 449
#
# _framework density 26.781897000000001
#
# number of rings (size 3 to 8) (size 9 to 14) (size 15 to 20)
#    0.000    0.000    4.000    3.600    8.400    0.000 
#    7.200    0.000    0.000    0.000    0.000    0.000 
#    0.000    0.000    0.000    0.000    0.000    0.000 
#
# Total GULP energy -56113.942302 kJ/mol
# GULP energy per Si atom -5611.394230 kJ/mol
# Density = 2.672094 g / cm^3
# Si number density = 26.781897 Si / 1000 Ang^3
#
#
#
# Elastic Constant Matrix: (Units=GPa)
#
#
# Indices 1 2 3 4 5 6 
#
# 1 202.4144 36.5647 100.6726 0.0000 41.9071 0.0000
# 2 36.5647 97.3890 73.4873 0.0000 25.9540 0.0000
# 3 100.6726 73.4873 277.1574 0.0000 45.3884 0.0000
# 4 0.0000 0.0000 0.0000 44.7662 0.0000 -4.5940
# 5 41.9071 25.9540 45.3884 0.0000 80.0253 0.0000
# 6 0.0000 0.0000 0.0000 -4.5940 0.0000 29.3879
#
#
#
# Elastic Compliance Matrix: (Units=1/GPa)
#
#
# Indices 1 2 3 4 5 6 
#
# 1 0.006385 -0.000424 -0.001854 0.000000 -0.002155 0.000000
# 2 -0.000424 0.013320 -0.002984 0.000000 -0.002406 0.000000
# 3 -0.001854 -0.002984 0.005242 0.000000 -0.001035 0.000000
# 4 0.000000 0.000000 0.000000 0.022702 0.000000 0.003549
# 5 -0.002155 -0.002406 -0.001035 0.000000 0.014991 0.000000
# 6 0.000000 0.000000 0.000000 0.003549 0.000000 0.034582
#
#
# Mechanical properties :
#
#
# Convention : Reuss Voigt Hill
#
# Bulk Modulus (GPa) = 69.33188 110.93445 90.13316
# Shear Modulus (GPa) = 44.42288 55.25164 49.83726
#
# Velocity S-wave (km/s) = 4.07712 4.54698 4.31844
# Velocity P-wave (km/s) = 6.93597 8.31132 7.65460
#
# Compressibility (1/GPa) = 0.01442338
#
# Stress axis : x y z
#
# Youngs Moduli (GPa) = 156.61306 75.07602 190.76564
#
# Poissons Ratio (x) = 0.03184 0.35368
# Poissons Ratio (y) = 0.06642 0.56919
# Poissons Ratio (z) = 0.29036 0.22400
#
# Static dielectric constant tensor:
#      x y z
#    x 2.064090 0.000000 0.028690 
#    y 0.000000 2.306550 0.000000 
#    z 0.028690 0.000000 2.131580 
# 
# From -- ./inp_files/19063.got.cif
#   From: 2010.05.17/outbox.cif.g08.bks.cpg/sg15_10_cif.got.tgz:19063.got - 2010.06.03 18:47:42.
