data_PCOD9308736
_publ_section_title
;
Structure prediction by ZEFSAII (Michael W. Deem and Ramdas Pophale) SiO2 
 PCOD9308736
Probable space group: C 2/C
;
_chemical_formula_sum "Si O2"
_cell_formula_units_Z 32
_cell_length_a 12.000000
_cell_length_b 12.000000
_cell_length_c 24.000000
_cell_angle_alpha 90.000000
_cell_angle_beta 80.000000
_cell_angle_gamma 90.000000
_cell_volume 3403.495594
_symmetry_space_group_name_H-M "C 2/C"
_symmetry_group_IT_number 15
_symmetry_cell_setting 'monoclinic'
loop_
_space_group_symop_operation_xyz
x,y,z
-x,y,1/2-z
-x,-y,-z
x,-y,1/2+z
1/2+x,1/2+y,z
1/2-x,1/2+y,1/2-z
1/2-x,1/2-y,-z
1/2+x,1/2-y,1/2+z
loop_
_atom_site_type_symbol
_atom_site_label
_atom_site_fract_x
_atom_site_fract_y
_atom_site_fract_z
Si Si1 0.498482 0.144993 0.184988
Si Si2 0.085629 0.654403 0.998361
Si Si3 0.600319 0.047784 0.413106
Si Si4 0.727190 0.728711 0.662161
Si Si5 0.651548 0.507533 0.598394
Si Si6 0.886526 0.873021 0.223875
Si Si7 0.829098 0.096649 0.023945
Si Si8 0.397437 0.430946 0.639366
O O1 0.500000 0.110466 0.250000
O O2 0.447117 0.059199 0.145335
O O3 0.626844 0.181574 0.161381
O O4 0.426271 0.261001 0.187879
O O5 0.079882 0.571515 0.945559
O O6 0.110810 0.781873 0.980851
O O7 0.194897 0.616315 0.025288
O O8 0.972788 0.634673 0.043940
O O9 0.735344 0.065909 0.402975
O O10 0.692682 0.627136 0.622456
O O11 0.706607 0.669048 0.723685
O O12 0.841036 0.806217 0.652098
O O13 0.633229 0.531466 0.534547
O O14 0.534799 0.451401 0.630058
O O15 0.000000 0.902786 0.250000
O O16 0.854228 0.977422 0.188153
O O17 0.857616 0.039941 0.079970
#
# Coordination Sequence:
#
# PCOD9308736 Si02
#       8
#     8   8   8   8   8   8   8   8
#     4   9  18  37  60  88 112 157 212 254 308 379
#     4   9  19  36  60  91 123 166 204 264 309 382
#     4  10  19  33  60  87 127 167 200 252 331 364
#     4  10  21  39  66  91 118 161 219 264 309 372
#     4  11  22  38  61  97 126 167 204 261 316 391
#     4   9  20  40  61  87 119 160 213 264 317 371
#     4  10  20  36  63  92 122 159 220 255 313 384
#     4  12  21  37  68  94 121 163 217 268 309 384
#
# _framework density 9.4020980000000005
#
# number of rings (size 3 to 8) (size 9 to 14) (size 15 to 20)
#    0.000    2.250    2.500    4.125    0.000    2.000 
#    0.000    0.625   13.750    3.000    0.000    0.000 
#    0.000    0.000    0.000    0.000    0.000    0.000 
#
# Total GULP energy -178337.812479 kJ/mol
# GULP energy per Si atom -5573.056640 kJ/mol
# Density = 0.938070 g / cm^3
# Si number density = 9.402098 Si / 1000 Ang^3
#
#
#
# Elastic Constant Matrix: (Units=GPa)
#
#
# Indices 1 2 3 4 5 6 
#
# 1 109.3528 44.9086 51.6869 0.0000 -7.0108 0.0000
# 2 44.9086 65.3683 49.8698 0.0000 10.0271 0.0000
# 3 51.6869 49.8698 114.0813 0.0000 7.8350 0.0000
# 4 0.0000 0.0000 0.0000 34.9492 0.0000 6.2244
# 5 -7.0108 10.0271 7.8350 0.0000 32.8573 0.0000
# 6 0.0000 0.0000 0.0000 6.2244 0.0000 36.8864
#
#
#
# Elastic Compliance Matrix: (Units=1/GPa)
#
#
# Indices 1 2 3 4 5 6 
#
# 1 0.014641 -0.008486 -0.003371 0.000000 0.006518 0.000000
# 2 -0.008486 0.028605 -0.008068 0.000000 -0.008616 0.000000
# 3 -0.003371 -0.008068 0.013928 0.000000 -0.001579 0.000000
# 4 0.000000 0.000000 0.000000 0.029500 0.000000 -0.004978
# 5 0.006518 -0.008616 -0.001579 0.000000 0.034831 0.000000
# 6 0.000000 0.000000 0.000000 -0.004978 0.000000 0.027950
#
#
# Mechanical properties :
#
#
# Convention : Reuss Voigt Hill
#
# Bulk Modulus (GPa) = 57.72542 64.63701 61.18121
# Shear Modulus (GPa) = 25.63040 30.42770 28.02905
#
# Velocity S-wave (km/s) = 3.69591 4.02697 3.86498
# Velocity P-wave (km/s) = 6.99841 7.48801 7.24735
#
# Compressibility (1/GPa) = 0.01732339
#
# Stress axis : x y z
#
# Youngs Moduli (GPa) = 68.29997 34.95919 71.79632
#
# Poissons Ratio (x) = 0.29668 0.24205
# Poissons Ratio (y) = 0.57962 0.57923
# Poissons Ratio (z) = 0.23027 0.28204
#
# Static dielectric constant tensor:
#      x y z
#    x 1.665200 0.000000 -0.050320 
#    y 0.000000 1.653300 0.000000 
#    z -0.050320 0.000000 1.730760 
# 
# From -- ./inp_files/268826.got.cif
#   From: 2010.05.17/outbox.ucp.g08.bks.cvg/sg15_135_cif.got.tgz:268826.got - 2010.06.11 12:40:34.
