data_PCOD9308328
_publ_section_title
;
Structure prediction by ZEFSAII (Michael W. Deem and Ramdas Pophale) SiO2 
 PCOD9308328
Probable space group: C 2/C
;
_chemical_formula_sum "Si O2"
_cell_formula_units_Z 40
_cell_length_a 27.924119
_cell_length_b 4.769922
_cell_length_c 10.970618
_cell_angle_alpha 90.000000
_cell_angle_beta 88.645877
_cell_angle_gamma 90.000000
_cell_volume 1460.832927
_symmetry_space_group_name_H-M "C 2/C"
_symmetry_group_IT_number 15
_symmetry_cell_setting 'monoclinic'
loop_
_space_group_symop_operation_xyz
x,y,z
-x,y,1/2-z
-x,-y,-z
x,-y,1/2+z
1/2+x,1/2+y,z
1/2-x,1/2+y,1/2-z
1/2-x,1/2-y,-z
1/2+x,1/2-y,1/2+z
loop_
_atom_site_type_symbol
_atom_site_label
_atom_site_fract_x
_atom_site_fract_y
_atom_site_fract_z
Si Si1 0.500000 0.253897 0.750000
Si Si2 0.922131 0.555081 0.094470
Si Si3 0.814434 0.437405 0.695828
Si Si4 0.822653 0.930741 0.854647
Si Si5 0.250000 0.250000 0.500000
Si Si6 0.928496 0.052072 0.930827
O O1 0.538725 0.059219 0.815428
O O2 0.472041 0.447881 0.847574
O O3 0.868481 0.518876 0.147071
O O4 0.928527 0.876152 0.056425
O O5 0.928277 0.374621 0.969983
O O6 0.807457 0.121000 0.740418
O O7 0.777800 0.551088 0.599883
O O8 0.808778 0.614503 0.822486
O O9 0.879250 0.971495 0.866989
O O10 0.798350 0.058539 0.974448
#
# Coordination Sequence:
#
# PCOD9308328 Si02
#       6
#     4   8   8   8   4   8
#     4  12  28  48  82 110 164 208 262 332 390 466
#     4  12  27  49  77 114 155 205 260 322 389 472
#     4  12  27  49  77 112 153 199 257 320 390 461
#     4  12  27  50  76 113 152 200 255 319 388 465
#     4  12  28  48  82 108 154 202 252 326 386 462
#     4  12  27  50  76 113 153 205 261 317 394 463
#
# _framework density 27.381640999999998
#
# number of rings (size 3 to 8) (size 9 to 14) (size 15 to 20)
#    0.000    0.000    4.000    4.800    0.000    3.200 
#    0.000    0.000    0.000    0.000    0.000    0.000 
#    0.000    0.000    0.000    0.000    0.000    0.000 
#
# Total GULP energy -112080.252112 kJ/mol
# GULP energy per Si atom -5604.012606 kJ/mol
# Density = 2.731932 g / cm^3
# Si number density = 27.381641 Si / 1000 Ang^3
#
#
#
# Elastic Constant Matrix: (Units=GPa)
#
#
# Indices 1 2 3 4 5 6 
#
# 1 168.0408 3.0410 28.2235 0.0000 3.8830 0.0000
# 2 3.0410 94.2101 18.6594 0.0000 7.0558 0.0000
# 3 28.2235 18.6594 98.9203 0.0000 0.7494 0.0000
# 4 0.0000 0.0000 0.0000 48.4078 0.0000 14.9354
# 5 3.8830 7.0558 0.7494 0.0000 52.9941 0.0000
# 6 0.0000 0.0000 0.0000 14.9354 0.0000 24.5105
#
#
#
# Elastic Compliance Matrix: (Units=1/GPa)
#
#
# Indices 1 2 3 4 5 6 
#
# 1 0.006264 0.000193 -0.001820 0.000000 -0.000459 0.000000
# 2 0.000193 0.011143 -0.002146 0.000000 -0.001467 0.000000
# 3 -0.001820 -0.002146 0.011031 0.000000 0.000263 0.000000
# 4 0.000000 0.000000 0.000000 0.025441 0.000000 -0.015502
# 5 -0.000459 -0.001467 0.000263 0.000000 0.019095 0.000000
# 6 0.000000 0.000000 0.000000 -0.015502 0.000000 0.050245
#
#
# Mechanical properties :
#
#
# Convention : Reuss Voigt Hill
#
# Bulk Modulus (GPa) = 47.86554 51.22435 49.54494
# Shear Modulus (GPa) = 36.30302 45.93231 41.11767
#
# Velocity S-wave (km/s) = 3.64513 4.10016 3.87932
# Velocity P-wave (km/s) = 5.93589 6.41586 6.18053
#
# Compressibility (1/GPa) = 0.02089186
#
# Stress axis : x y z
#
# Youngs Moduli (GPa) = 159.64919 89.74035 90.65198
#
# Poissons Ratio (x) = -0.01729 0.16499
# Poissons Ratio (y) = -0.03076 0.19452
# Poissons Ratio (z) = 0.29056 0.19257
#
# Static dielectric constant tensor:
#      x y z
#    x 2.070190 0.000000 -0.002170 
#    y 0.000000 2.035480 0.000000 
#    z -0.002170 0.000000 2.335530 
# 
# From -- ./inp_files/120839.got.cif
#   From: 2010.05.17/outbox.cif.g08.bks.cpg/sg15_61_cif.got.tgz:120839.got - 2010.06.03 18:47:42.
