data_PCOD9308969
_publ_section_title
;
Structure prediction by ZEFSAII (Michael W. Deem and Ramdas Pophale) SiO2 
 PCOD9308969
Probable space group: C 2/C
;
_chemical_formula_sum "Si O2"
_cell_formula_units_Z 30
_cell_length_a 18.000000
_cell_length_b 9.000000
_cell_length_c 27.000000
_cell_angle_alpha 90.000000
_cell_angle_beta 50.000000
_cell_angle_gamma 90.000000
_cell_volume 3350.678394
_symmetry_space_group_name_H-M "C 2/C"
_symmetry_group_IT_number 15
_symmetry_cell_setting 'monoclinic'
loop_
_space_group_symop_operation_xyz
x,y,z
-x,y,1/2-z
-x,-y,-z
x,-y,1/2+z
1/2+x,1/2+y,z
1/2-x,1/2+y,1/2-z
1/2-x,1/2-y,-z
1/2+x,1/2-y,1/2+z
loop_
_atom_site_type_symbol
_atom_site_label
_atom_site_fract_x
_atom_site_fract_y
_atom_site_fract_z
Si Si1 0.635596 0.573704 0.619813
Si Si2 0.500000 0.611038 0.250000
Si Si3 0.383777 0.570214 0.993418
Si Si4 0.159922 0.333212 0.340608
Si Si5 0.301386 0.892939 0.606181
Si Si6 0.834417 0.666089 0.782818
Si Si7 0.015229 0.764205 0.516097
Si Si8 0.290798 0.865345 0.856687
O O1 0.546936 0.490049 0.686144
O O2 0.626649 0.586176 0.562806
O O3 0.728562 0.472695 0.597692
O O4 0.648576 0.734953 0.641143
O O5 0.579994 0.720002 0.239361
O O6 0.452041 0.689465 0.994091
O O7 0.432319 0.411563 0.985126
O O8 0.283278 0.580711 0.067904
O O9 0.186362 0.490266 0.354360
O O10 0.168539 0.339780 0.276688
O O11 0.231204 0.214207 0.337218
O O12 0.055057 0.293305 0.409776
O O13 0.257840 0.745515 0.651033
O O14 0.402031 0.850881 0.536454
O O15 0.842517 0.505978 0.807463
#
# Coordination Sequence:
#
# PCOD9308969 Si02
#       8
#     8   4   8   8   8   8   8   8
#     4  10  22  41  62  84 121 165 196 246 313 349
#     4  10  24  42  56  84 124 154 200 252 288 372
#     4  10  20  38  61  91 120 156 196 253 304 350
#     4  10  21  37  61  87 120 156 194 246 306 352
#     4  10  21  39  59  88 120 154 205 251 290 371
#     4  11  21  41  59  86 119 156 200 246 303 349
#     4  10  20  37  60  92 122 150 204 250 292 369
#     4  10  21  39  62  88 119 151 207 245 288 372
#
# _framework density 8.9534109999999991
#
# number of rings (size 3 to 8) (size 9 to 14) (size 15 to 20)
#    0.000    1.867    1.333    2.400    0.000    1.067 
#   14.400    0.000    0.000    0.000    0.000    0.000 
#    0.000    0.000    0.000    0.000    0.000    0.000 
#
# Total GULP energy -167214.836376 kJ/mol
# GULP energy per Si atom -5573.827879 kJ/mol
# Density = 0.893303 g / cm^3
# Si number density = 8.953411 Si / 1000 Ang^3
#
#
#
# Elastic Constant Matrix: (Units=GPa)
#
#
# Indices 1 2 3 4 5 6 
#
# 1 93.1200 34.9737 61.0704 0.0000 29.9791 -0.0002
# 2 34.9737 103.0562 52.4103 0.0000 7.7943 -0.0002
# 3 61.0704 52.4103 137.6331 0.0000 27.7130 0.0000
# 4 0.0000 0.0000 0.0000 40.7882 0.0000 -2.6656
# 5 29.9791 7.7943 27.7130 0.0000 46.4835 0.0000
# 6 -0.0002 -0.0002 0.0000 -2.6656 0.0000 28.3095
#
#
#
# Elastic Compliance Matrix: (Units=1/GPa)
#
#
# Indices 1 2 3 4 5 6 
#
# 1 0.017741 -0.002763 -0.005238 0.000000 -0.007856 0.000000
# 2 -0.002763 0.012491 -0.003941 0.000000 0.002037 0.000000
# 3 -0.005238 -0.003941 0.011679 0.000000 -0.002924 0.000000
# 4 0.000000 0.000000 0.000000 0.024669 0.000000 0.002323
# 5 -0.007856 0.002037 -0.002924 0.000000 0.027981 0.000000
# 6 0.000000 0.000000 0.000000 0.002323 0.000000 0.035543
#
#
# Mechanical properties :
#
#
# Convention : Reuss Voigt Hill
#
# Bulk Modulus (GPa) = 55.46917 70.07981 62.77449
# Shear Modulus (GPa) = 31.25076 35.47322 33.36199
#
# Velocity S-wave (km/s) = 4.18208 4.45566 4.32103
# Velocity P-wave (km/s) = 7.37316 8.10502 7.74774
#
# Compressibility (1/GPa) = 0.01802803
#
# Stress axis : x y z
#
# Youngs Moduli (GPa) = 56.36758 80.05707 85.62074
#
# Poissons Ratio (x) = 0.22116 0.44850
# Poissons Ratio (y) = 0.15572 0.33742
# Poissons Ratio (z) = 0.29526 0.31550
#
# Static dielectric constant tensor:
#      x y z
#    x 1.629560 0.000000 -0.045660 
#    y 0.000000 1.634540 0.000000 
#    z -0.045660 0.000000 1.604390 
# 
# From -- ./inp_files/213885.got.cif
#   From: 2010.05.17/outbox.ucp.g08.bks.cvg/sg15_107_cif.got.tgz:213885.got - 2010.06.11 12:40:34.
