data_PCOD9308208
_publ_section_title
;
Structure prediction by ZEFSAII (Michael W. Deem and Ramdas Pophale) SiO2 
 PCOD9308208
Probable space group: C 2/C
;
_chemical_formula_sum "Si O2"
_cell_formula_units_Z 36
_cell_length_a 27.476449
_cell_length_b 4.994310
_cell_length_c 21.787014
_cell_angle_alpha 90.000000
_cell_angle_beta 149.225317
_cell_angle_gamma 90.000000
_cell_volume 1529.741524
_symmetry_space_group_name_H-M "C 2/C"
_symmetry_group_IT_number 15
_symmetry_cell_setting 'monoclinic'
loop_
_space_group_symop_operation_xyz
x,y,z
-x,y,1/2-z
-x,-y,-z
x,-y,1/2+z
1/2+x,1/2+y,z
1/2-x,1/2+y,1/2-z
1/2-x,1/2-y,-z
1/2+x,1/2-y,1/2+z
loop_
_atom_site_type_symbol
_atom_site_label
_atom_site_fract_x
_atom_site_fract_y
_atom_site_fract_z
Si Si1 0.600568 0.657936 0.455596
Si Si2 0.531863 0.751718 0.075063
Si Si3 0.316063 0.998995 0.554425
Si Si4 0.760498 0.583163 0.719915
Si Si5 0.000000 0.236090 0.750000
O O1 0.520535 0.739212 0.417123
O O2 0.684009 0.519247 0.585020
O O3 0.555863 0.459662 0.356902
O O4 0.648542 0.914707 0.475093
O O5 0.644565 0.786393 0.204577
O O6 0.500000 0.500000 0.000000
O O7 0.500000 0.000000 0.000000
O O8 0.250000 0.750000 0.500000
O O9 0.419538 0.921527 0.694863
O O10 0.250000 0.250000 0.500000
O O11 0.780764 0.314397 0.780119
#
# Coordination Sequence:
#
# PCOD9308208 Si02
#       5
#     8   8   8   8   4
#     4  12  29  52  85 120 172 219 280 354 422 506
#     4  12  26  50  80 119 166 216 271 340 426 501
#     4  12  29  54  80 119 165 225 286 339 418 507
#     4  12  26  49  78 120 162 210 274 337 414 502
#     4  12  30  56  84 126 172 222 288 346 438 502
#
# _framework density 23.533387999999999
#
# number of rings (size 3 to 8) (size 9 to 14) (size 15 to 20)
#    0.000    0.000    6.667    0.667    9.333    0.000 
#    0.000    0.000    0.000    0.000    0.000    0.000 
#    0.000    0.000    0.000    0.000    0.000    0.000 
#
# Total GULP energy -100731.876286 kJ/mol
# GULP energy per Si atom -5596.215349 kJ/mol
# Density = 2.347982 g / cm^3
# Si number density = 23.533388 Si / 1000 Ang^3
#
#
#
# Elastic Constant Matrix: (Units=GPa)
#
#
# Indices 1 2 3 4 5 6 
#
# 1 170.6533 60.7019 60.8855 0.0028 25.5159 0.0010
# 2 60.7019 189.0342 55.9354 0.0140 0.1214 0.0033
# 3 60.8855 55.9354 185.9047 0.0040 14.3669 0.0009
# 4 0.0028 0.0140 0.0040 43.9700 0.0013 5.0598
# 5 25.5159 0.1214 14.3669 0.0013 55.4667 0.0002
# 6 0.0010 0.0033 0.0009 5.0598 0.0002 18.8323
#
#
#
# Elastic Compliance Matrix: (Units=1/GPa)
#
#
# Indices 1 2 3 4 5 6 
#
# 1 0.007605 -0.001947 -0.001669 0.000000 -0.003062 0.000000
# 2 -0.001947 0.006316 -0.001358 -0.000002 0.001233 0.000000
# 3 -0.001669 -0.001358 0.006403 0.000000 -0.000888 0.000000
# 4 0.000000 -0.000002 0.000000 0.023468 -0.000001 -0.006305
# 5 -0.003062 0.001233 -0.000888 -0.000001 0.019665 0.000000
# 6 0.000000 0.000000 0.000000 -0.006305 0.000000 0.054794
#
#
# Mechanical properties :
#
#
# Convention : Reuss Voigt Hill
#
# Bulk Modulus (GPa) = 96.35890 100.07087 98.21488
# Shear Modulus (GPa) = 37.97723 48.19175 43.08449
#
# Velocity S-wave (km/s) = 4.02152 4.53018 4.28341
# Velocity P-wave (km/s) = 7.91189 8.36532 8.14176
#
# Compressibility (1/GPa) = 0.01037787
#
# Stress axis : x y z
#
# Youngs Moduli (GPa) = 131.48609 158.32236 156.18056
#
# Poissons Ratio (x) = 0.30818 0.26059
# Poissons Ratio (y) = 0.25594 0.21213
# Poissons Ratio (z) = 0.21938 0.21504
#
# Static dielectric constant tensor:
#      x y z
#    x 2.010970 0.000000 -0.045820 
#    y 0.000000 1.883840 0.000000 
#    z -0.045820 0.000000 1.992140 
# 
# From -- ./inp_files/256834.got.cif
#   From: 2010.05.17/outbox.cif.g08.bks.cpg/sg15_129_cif.got.tgz:256834.got - 2010.06.03 18:47:42.
