data_PCOD9308212
_publ_section_title
;
Structure prediction by ZEFSAII (Michael W. Deem and Ramdas Pophale) SiO2 
 PCOD9308212
Probable space group: C 2/C
;
_chemical_formula_sum "Si O2"
_cell_formula_units_Z 40
_cell_length_a 13.877287
_cell_length_b 12.315487
_cell_length_c 8.927746
_cell_angle_alpha 90.000000
_cell_angle_beta 87.912541
_cell_angle_gamma 90.000000
_cell_volume 1524.788783
_symmetry_space_group_name_H-M "C 2/C"
_symmetry_group_IT_number 15
_symmetry_cell_setting 'monoclinic'
loop_
_space_group_symop_operation_xyz
x,y,z
-x,y,1/2-z
-x,-y,-z
x,-y,1/2+z
1/2+x,1/2+y,z
1/2-x,1/2+y,1/2-z
1/2-x,1/2-y,-z
1/2+x,1/2-y,1/2+z
loop_
_atom_site_type_symbol
_atom_site_label
_atom_site_fract_x
_atom_site_fract_y
_atom_site_fract_z
Si Si1 0.707840 0.915107 0.109081
Si Si2 0.157230 0.203674 0.595257
Si Si3 0.608389 0.897897 0.794552
Si Si4 0.897727 0.964490 0.931022
Si Si5 0.903809 0.758188 0.714748
O O1 0.639492 0.907098 0.965355
O O2 0.817541 0.918223 0.048529
O O3 0.683271 0.814649 0.219548
O O4 0.679314 0.024424 0.196511
O O5 0.250000 0.250000 0.500000
O O6 0.126498 0.277112 0.733969
O O7 0.083906 0.223628 0.461456
O O8 0.150896 0.076196 0.623536
O O9 0.500000 0.926715 0.750000
O O10 0.903331 0.872887 0.801959
O O11 0.000000 0.000000 0.000000
O O12 0.000000 0.693535 0.750000
#
# Coordination Sequence:
#
# PCOD9308212 Si02
#       5
#     8   8   8   8   8
#     4  12  27  50  79 115 155 204 261 319 389 464
#     4  12  26  50  77 110 159 200 258 321 384 456
#     4  12  26  49  81 113 154 204 257 321 394 460
#     4  12  28  49  77 113 159 208 255 315 389 463
#     4  12  26  49  79 114 155 200 259 323 386 460
#
# _framework density 26.233142000000001
#
# number of rings (size 3 to 8) (size 9 to 14) (size 15 to 20)
#    0.000    0.000    4.000    5.400    0.000    2.400 
#    0.000    0.000    0.000    0.000    0.000    0.000 
#    0.000    0.000    0.000    0.000    0.000    0.000 
#
# Total GULP energy -112162.777008 kJ/mol
# GULP energy per Si atom -5608.138850 kJ/mol
# Density = 2.617343 g / cm^3
# Si number density = 26.233142 Si / 1000 Ang^3
#
#
#
# Elastic Constant Matrix: (Units=GPa)
#
#
# Indices 1 2 3 4 5 6 
#
# 1 127.5377 16.7409 -2.2905 0.0000 -10.7386 0.0000
# 2 16.7409 174.7001 41.4413 0.0000 -7.6679 0.0000
# 3 -2.2905 41.4413 130.4833 0.0000 11.1851 0.0000
# 4 0.0000 0.0000 0.0000 32.6075 0.0000 4.8841
# 5 -10.7386 -7.6679 11.1851 0.0000 42.8759 0.0000
# 6 0.0000 0.0000 0.0000 4.8841 0.0000 38.0146
#
#
#
# Elastic Compliance Matrix: (Units=1/GPa)
#
#
# Indices 1 2 3 4 5 6 
#
# 1 0.008098 -0.000748 0.000222 0.000000 0.001836 0.000000
# 2 -0.000748 0.006377 -0.002169 0.000000 0.001519 0.000000
# 3 0.000222 -0.002169 0.008577 0.000000 -0.002570 0.000000
# 4 0.000000 0.000000 0.000000 0.031270 0.000000 -0.004017
# 5 0.001836 0.001519 -0.002570 0.000000 0.024725 0.000000
# 6 0.000000 0.000000 0.000000 -0.004017 0.000000 0.026822
#
#
# Mechanical properties :
#
#
# Convention : Reuss Voigt Hill
#
# Bulk Modulus (GPa) = 56.61726 60.50051 58.55889
# Shear Modulus (GPa) = 42.68256 47.82157 45.25207
#
# Velocity S-wave (km/s) = 4.03804 4.27423 4.15781
# Velocity P-wave (km/s) = 6.58561 6.88995 6.73950
#
# Compressibility (1/GPa) = 0.01766246
#
# Stress axis : x y z
#
# Youngs Moduli (GPa) = 123.49294 156.81676 116.59457
#
# Poissons Ratio (x) = 0.11732 -0.02592
# Poissons Ratio (y) = 0.09239 0.25285
# Poissons Ratio (z) = -0.02746 0.34007
#
# Static dielectric constant tensor:
#      x y z
#    x 2.368630 0.000000 0.212710 
#    y 0.000000 1.991050 0.000000 
#    z 0.212710 0.000000 2.122080 
# 
# From -- ./inp_files/46113.got.cif
#   From: 2010.05.17/outbox.cif.g08.bks.cpg/sg15_24_cif.got.tgz:46113.got - 2010.06.03 18:47:42.
