data_PCOD9308471
_publ_section_title
;
Structure prediction by ZEFSAII (Michael W. Deem and Ramdas Pophale) SiO2 
 PCOD9308471
Probable space group: C 2/C
;
_chemical_formula_sum "Si O2"
_cell_formula_units_Z 48
_cell_length_a 13.079502
_cell_length_b 9.319358
_cell_length_c 14.922235
_cell_angle_alpha 90.000000
_cell_angle_beta 61.023502
_cell_angle_gamma 90.000000
_cell_volume 1591.215629
_symmetry_space_group_name_H-M "C 2/C"
_symmetry_group_IT_number 15
_symmetry_cell_setting 'monoclinic'
loop_
_space_group_symop_operation_xyz
x,y,z
-x,y,1/2-z
-x,-y,-z
x,-y,1/2+z
1/2+x,1/2+y,z
1/2-x,1/2+y,1/2-z
1/2-x,1/2-y,-z
1/2+x,1/2-y,1/2+z
loop_
_atom_site_type_symbol
_atom_site_label
_atom_site_fract_x
_atom_site_fract_y
_atom_site_fract_z
Si Si1 0.783250 0.589998 0.380710
Si Si2 0.844743 0.102908 0.446520
Si Si3 0.528557 0.841001 0.334747
Si Si4 0.275479 0.407094 0.784265
Si Si5 0.039478 0.142627 0.828554
Si Si6 0.587480 0.163612 0.999078
O O1 0.712065 0.445867 0.436661
O O2 0.811684 0.600842 0.263554
O O3 0.692876 0.722166 0.435233
O O4 0.873949 0.593338 0.423867
O O5 0.914201 0.249637 0.410370
O O6 0.757473 0.094267 0.398345
O O7 0.942703 0.982135 0.385183
O O8 0.500000 0.908468 0.250000
O O9 0.629203 0.720950 0.271364
O O10 0.566573 0.912458 0.412641
O O11 0.341454 0.558010 0.736812
O O12 0.000000 0.208518 0.750000
O O13 0.023323 0.242692 0.921032
#
# Coordination Sequence:
#
# PCOD9308471 Si02
#       6
#     8   8   8   8   8   8
#     4   9  15  21  31  51  78 101 120 152 198 233
#     4   8  13  21  33  49  71 101 132 155 179 221
#     4   8  13  21  33  49  71 101 132 155 179 221
#     4   8  13  21  33  49  71 101 132 155 179 221
#     4   8  13  21  33  49  71 101 132 155 179 221
#     4   9  15  21  31  51  78 101 120 152 198 233
#
# _framework density 30.165617999999998
#
# number of rings (size 3 to 8) (size 9 to 14) (size 15 to 20)
#    0.000    3.667    0.000    3.000    0.000    4.000 
#    0.000    0.000    0.000    0.000    0.000    2.333 
#    0.000   20.000    0.000    0.000    0.000    0.000 
#
# Total GULP energy -134486.272017 kJ/mol
# GULP energy per Si atom -5603.594667 kJ/mol
# Density = 3.009696 g / cm^3
# Si number density = 30.165618 Si / 1000 Ang^3
#
#
#
# Elastic Constant Matrix: (Units=GPa)
#
#
# Indices 1 2 3 4 5 6 
#
# 1 111.4037 44.2846 63.4550 0.0000 46.3487 0.0000
# 2 44.2846 75.1568 62.3992 0.0000 -0.0541 0.0000
# 3 63.4550 62.3992 253.3055 0.0000 35.1713 0.0000
# 4 0.0000 0.0000 0.0000 45.7667 0.0000 -1.6711
# 5 46.3487 -0.0541 35.1713 0.0000 58.6700 0.0000
# 6 0.0000 0.0000 0.0000 -1.6711 0.0000 57.1294
#
#
#
# Elastic Compliance Matrix: (Units=1/GPa)
#
#
# Indices 1 2 3 4 5 6 
#
# 1 0.020560 -0.012236 0.000131 0.000000 -0.016333 0.000000
# 2 -0.012236 0.024413 -0.004684 0.000000 0.012496 0.000000
# 3 0.000131 -0.004684 0.005545 0.000000 -0.003432 0.000000
# 4 0.000000 0.000000 0.000000 0.021873 0.000000 0.000640
# 5 -0.016333 0.012496 -0.003432 0.000000 0.032016 0.000000
# 6 0.000000 0.000000 0.000000 0.000640 0.000000 0.017523
#
#
# Mechanical properties :
#
#
# Convention : Reuss Voigt Hill
#
# Bulk Modulus (GPa) = 59.02372 86.68260 72.85316
# Shear Modulus (GPa) = 31.02610 50.29505 40.66058
#
# Velocity S-wave (km/s) = 3.21054 4.08768 3.67537
# Velocity P-wave (km/s) = 5.77516 7.14681 6.49728
#
# Compressibility (1/GPa) = 0.01694234
#
# Stress axis : x y z
#
# Youngs Moduli (GPa) = 48.63711 40.96199 180.33282
#
# Poissons Ratio (x) = 0.50119 -0.02368
# Poissons Ratio (y) = 0.59510 0.84465
# Poissons Ratio (z) = -0.00639 0.19186
#
# Static dielectric constant tensor:
#      x y z
#    x 2.405170 0.000000 -0.027570 
#    y 0.000000 2.375950 0.000000 
#    z -0.027570 0.000000 2.162390 
# 
# From -- ./inp_files/144698.got.cif
#   From: 2010.05.17/outbox.cif.g08.bks.cpg/sg15_73_cif.got.tgz:144698.got - 2010.06.03 18:47:42.
