data_PCOD9308088
_publ_section_title
;
Structure prediction by ZEFSAII (Michael W. Deem and Ramdas Pophale) SiO2 
 PCOD9308088
Probable space group: C 2/C
;
_chemical_formula_sum "Si O2"
_cell_formula_units_Z 20
_cell_length_a 7.295362
_cell_length_b 23.811279
_cell_length_c 8.151330
_cell_angle_alpha 90.000000
_cell_angle_beta 143.483736
_cell_angle_gamma 90.000000
_cell_volume 842.582036
_symmetry_space_group_name_H-M "C 2/C"
_symmetry_group_IT_number 15
_symmetry_cell_setting 'monoclinic'
loop_
_space_group_symop_operation_xyz
x,y,z
-x,y,1/2-z
-x,-y,-z
x,-y,1/2+z
1/2+x,1/2+y,z
1/2-x,1/2+y,1/2-z
1/2-x,1/2-y,-z
1/2+x,1/2-y,1/2+z
loop_
_atom_site_type_symbol
_atom_site_label
_atom_site_fract_x
_atom_site_fract_y
_atom_site_fract_z
Si Si1 0.000000 0.208101 0.250000
Si Si2 0.365293 0.351676 0.995821
Si Si3 0.219619 0.541058 0.760884
O O1 0.894452 0.172828 0.332977
O O2 0.250000 0.250000 0.500000
O O3 0.000000 0.365243 0.750000
O O4 0.500000 0.316228 0.250000
O O5 0.606492 0.403608 0.174074
O O6 0.000000 0.559578 0.750000
O O7 0.000000 0.500000 0.500000
O O8 0.500000 0.500000 0.000000
#
# Coordination Sequence:
#
# PCOD9308088 Si02
#       3
#     4   8   8
#     4  12  30  52  82 116 152 202 268 332 396 458
#     4  12  28  49  80 113 159 205 260 324 392 464
#     4  12  26  44  71 111 155 201 254 308 375 462
#
# _framework density 23.736561999999999
#
# number of rings (size 3 to 8) (size 9 to 14) (size 15 to 20)
#    0.000    0.000    0.000    9.600   14.000    4.800 
#    0.000    0.000    0.000    0.000    0.000    0.000 
#    0.000    0.000    0.000    0.000    0.000    0.000 
#
# Total GULP energy -55845.450252 kJ/mol
# GULP energy per Si atom -5584.545025 kJ/mol
# Density = 2.368254 g / cm^3
# Si number density = 23.736562 Si / 1000 Ang^3
#
#
#
# Elastic Constant Matrix: (Units=GPa)
#
#
# Indices 1 2 3 4 5 6 
#
# 1 259.2118 76.6581 91.8902 0.0000 6.0105 0.0000
# 2 76.6581 74.8909 57.7581 0.0000 -2.8918 0.0000
# 3 91.8902 57.7581 256.3993 0.0000 17.0146 0.0000
# 4 0.0000 0.0000 0.0000 38.0904 0.0000 -2.9306
# 5 6.0105 -2.8918 17.0146 0.0000 56.4775 0.0000
# 6 0.0000 0.0000 0.0000 -2.9306 0.0000 16.8176
#
#
#
# Elastic Compliance Matrix: (Units=1/GPa)
#
#
# Indices 1 2 3 4 5 6 
#
# 1 0.005714 -0.005235 -0.000827 0.000000 -0.000627 0.000000
# 2 -0.005235 0.021173 -0.003064 0.000000 0.002564 0.000000
# 3 -0.000827 -0.003064 0.004991 0.000000 -0.001572 0.000000
# 4 0.000000 0.000000 0.000000 0.026610 0.000000 0.004637
# 5 -0.000627 0.002564 -0.001572 0.000000 0.018378 0.000000
# 6 0.000000 0.000000 0.000000 0.004637 0.000000 0.060270
#
#
# Mechanical properties :
#
#
# Convention : Reuss Voigt Hill
#
# Bulk Modulus (GPa) = 73.38461 115.90166 94.64314
# Shear Modulus (GPa) = 31.26395 46.55680 38.91038
#
# Velocity S-wave (km/s) = 3.63316 4.43357 4.05317
# Velocity P-wave (km/s) = 6.97016 8.66851 7.86531
#
# Compressibility (1/GPa) = 0.01362684
#
# Stress axis : x y z
#
# Youngs Moduli (GPa) = 175.01826 47.22979 200.36257
#
# Poissons Ratio (x) = 0.24725 0.16566
# Poissons Ratio (y) = 0.91623 0.61382
# Poissons Ratio (z) = 0.14471 0.14469
#
# Static dielectric constant tensor:
#      x y z
#    x 1.990830 0.000000 -0.162710 
#    y 0.000000 2.112560 0.000000 
#    z -0.162710 0.000000 1.904610 
# 
# From -- ./inp_files/23279.got.cif
#   From: 2010.05.17/outbox.cif.g08.bks.cpg/sg15_12_cif.got.tgz:23279.got - 2010.06.03 18:47:42.
