data_PCOD9308742
_publ_section_title
;
Structure prediction by ZEFSAII (Michael W. Deem and Ramdas Pophale) SiO2 
 PCOD9308742
Probable space group: C 2/C
;
_chemical_formula_sum "Si O2"
_cell_formula_units_Z 24
_cell_length_a 15.000000
_cell_length_b 30.000000
_cell_length_c 15.000000
_cell_angle_alpha 90.000000
_cell_angle_beta 20.000000
_cell_angle_gamma 90.000000
_cell_volume 2308.635967
_symmetry_space_group_name_H-M "C 2/C"
_symmetry_group_IT_number 15
_symmetry_cell_setting 'monoclinic'
loop_
_space_group_symop_operation_xyz
x,y,z
-x,y,1/2-z
-x,-y,-z
x,-y,1/2+z
1/2+x,1/2+y,z
1/2-x,1/2+y,1/2-z
1/2-x,1/2-y,-z
1/2+x,1/2-y,1/2+z
loop_
_atom_site_type_symbol
_atom_site_label
_atom_site_fract_x
_atom_site_fract_y
_atom_site_fract_z
Si Si1 0.093483 0.406296 0.994074
Si Si2 0.928632 0.950142 0.043102
Si Si3 0.514425 0.147141 0.088439
Si Si4 0.034492 0.895599 0.123399
Si Si5 0.210588 0.680729 0.483181
Si Si6 0.757787 0.273479 0.739270
O O1 0.860038 0.441311 0.222261
O O2 0.365899 0.430006 0.719397
O O3 0.119653 0.369438 0.045350
O O4 0.026271 0.378575 0.967317
O O5 0.965039 0.924434 0.102495
O O6 0.000000 0.000000 0.000000
O O7 0.321462 0.122762 0.337691
O O8 0.401077 0.195504 0.175945
O O9 0.814834 0.143048 0.831661
O O10 0.000000 0.920013 0.250000
O O11 0.500000 0.680620 0.250000
O O12 0.218423 0.705986 0.381834
O O13 0.000000 0.700468 0.750000
O O14 0.953310 0.231390 0.548526
#
# Coordination Sequence:
#
# PCOD9308742 Si02
#       6
#     8   8   8   8   8   8
#     4   9  19  35  53  74 103 145 185 212 256 321
#     4  10  19  34  56  81 109 140 175 220 270 321
#     4   9  19  35  55  76 102 139 178 214 259 322
#     4  10  19  34  57  81 104 135 179 222 261 312
#     4  11  22  36  54  78 110 146 186 226 264 315
#     4  11  22  36  56  80 107 141 180 224 274 325
#
# _framework density 10.395749
#
# number of rings (size 3 to 8) (size 9 to 14) (size 15 to 20)
#    0.000    2.000    0.000    4.000    0.000    7.333 
#    0.000    2.500    0.000   12.000    0.000    0.000 
#    0.000    0.000    0.000    0.000    0.000    0.000 
#
# Total GULP energy -133882.554068 kJ/mol
# GULP energy per Si atom -5578.439753 kJ/mol
# Density = 1.037209 g / cm^3
# Si number density = 10.395749 Si / 1000 Ang^3
#
#
#
# Elastic Constant Matrix: (Units=GPa)
#
#
# Indices 1 2 3 4 5 6 
#
# 1 42.4655 11.9357 36.8656 -0.0616 -13.3542 0.0855
# 2 11.9357 38.6643 -0.2045 -0.0422 1.8632 0.0146
# 3 36.8656 -0.2045 97.3509 0.4611 -8.6667 0.1064
# 4 -0.0616 -0.0422 0.4611 -35.3025 -0.0225 -9.2156
# 5 -13.3542 1.8632 -8.6667 -0.0225 20.1625 -0.0768
# 6 0.0855 0.0146 0.1064 -9.2156 -0.0768 3.5474
#
#
#
# Elastic Compliance Matrix: (Units=1/GPa)
#
#
# Indices 1 2 3 4 5 6 
#
# 1 0.052904 -0.017830 -0.017473 -0.000182 0.029175 -0.000520
# 2 -0.017830 0.031991 0.005723 0.000067 -0.012305 0.000033
# 3 -0.017473 0.005723 0.016452 0.000176 -0.005029 0.000252
# 4 -0.000182 0.000067 0.000176 -0.016877 -0.000237 -0.043850
# 5 0.029175 -0.012305 -0.005029 -0.000237 0.067897 0.000352
# 6 -0.000520 0.000033 0.000252 -0.043850 0.000352 0.167995
#
#
# Mechanical properties :
#
#
# Convention : Reuss Voigt Hill
#
# Bulk Modulus (GPa) = 23.70316 30.63048 27.16682
# Shear Modulus (GPa) = 12.70380 6.34040 9.52210
#
# Velocity S-wave (km/s) = 2.47454 1.74818 2.14237
# Velocity P-wave (km/s) = 4.42602 4.34040 4.38342
#
# Compressibility (1/GPa) = 0.04218847
#
# Stress axis : x y z
#
# Youngs Moduli (GPa) = 18.90216 31.25873 60.78249
#
# Poissons Ratio (x) = 0.55734 1.06204
# Poissons Ratio (y) = 0.33702 -0.34788
# Poissons Ratio (z) = 0.33027 -0.17890
#
# Static dielectric constant tensor:
#      x y z
#    x 1.738380 -0.000110 0.009320 
#    y -0.000110 1.780510 0.000030 
#    z 0.009320 0.000030 1.759520 
# 
# From -- ./inp_files/157598.got.cif
#   From: 2010.05.17/outbox.ucp.g08.bks.cvg/sg15_79_cif.got.tgz:157598.got - 2010.06.11 12:40:34.
