data_PCOD9308442
_publ_section_title
;
Structure prediction by ZEFSAII (Michael W. Deem and Ramdas Pophale) SiO2 
 PCOD9308442
Probable space group: C 2/C
;
_chemical_formula_sum "Si O2"
_cell_formula_units_Z 36
_cell_length_a 7.186621
_cell_length_b 6.889609
_cell_length_c 31.664948
_cell_angle_alpha 90.000000
_cell_angle_beta 119.484146
_cell_angle_gamma 90.000000
_cell_volume 1364.780599
_symmetry_space_group_name_H-M "C 2/C"
_symmetry_group_IT_number 15
_symmetry_cell_setting 'monoclinic'
loop_
_space_group_symop_operation_xyz
x,y,z
-x,y,1/2-z
-x,-y,-z
x,-y,1/2+z
1/2+x,1/2+y,z
1/2-x,1/2+y,1/2-z
1/2-x,1/2-y,-z
1/2+x,1/2-y,1/2+z
loop_
_atom_site_type_symbol
_atom_site_label
_atom_site_fract_x
_atom_site_fract_y
_atom_site_fract_z
Si Si1 0.000000 0.777423 0.750000
Si Si2 0.566854 0.019928 0.440867
Si Si3 0.789800 0.396244 0.702827
Si Si4 0.011548 0.805718 0.989626
Si Si5 0.081052 0.285040 0.660957
O O1 0.165126 0.775942 0.723234
O O2 0.195678 0.873625 0.798193
O O3 0.533308 0.181833 0.473100
O O4 0.490267 0.101963 0.388163
O O5 0.834434 0.014381 0.467180
O O6 0.423128 0.839139 0.440593
O O7 0.090399 0.291411 0.821040
O O8 0.648440 0.560129 0.664805
O O9 0.000000 0.515317 0.750000
O O10 0.250000 0.750000 0.000000
#
# Coordination Sequence:
#
# PCOD9308442 Si02
#       5
#     4   8   8   8   8
#     4   6  18  30  50  74 106 136 174 216 260 310
#     4   8  14  27  50  72 101 134 174 215 263 315
#     4   7  17  32  52  73 111 137 178 216 266 310
#     4   7  14  28  46  76 100 136 169 222 262 314
#     4   9  15  34  51  80 101 145 174 222 261 323
#
# _framework density 26.377866000000001
#
# number of rings (size 3 to 8) (size 9 to 14) (size 15 to 20)
#    3.333    0.444    0.000    0.000    0.000    0.000 
#    8.000    4.444    0.000   10.667    0.000    0.000 
#    0.000    0.000    0.000    0.000    0.000    0.000 
#
# Total GULP energy -100243.703730 kJ/mol
# GULP energy per Si atom -5569.094652 kJ/mol
# Density = 2.631783 g / cm^3
# Si number density = 26.377866 Si / 1000 Ang^3
#
#
#
# Elastic Constant Matrix: (Units=GPa)
#
#
# Indices 1 2 3 4 5 6 
#
# 1 196.1866 63.6039 65.8967 0.0000 -26.8076 0.0000
# 2 63.6039 128.2444 -21.9463 0.0000 -8.5752 0.0000
# 3 65.8967 -21.9463 97.4948 0.0000 5.3628 0.0000
# 4 0.0000 0.0000 0.0000 18.7609 0.0000 -9.0687
# 5 -26.8076 -8.5752 5.3628 0.0000 40.1198 0.0000
# 6 0.0000 0.0000 0.0000 -9.0687 0.0000 45.0444
#
#
#
# Elastic Compliance Matrix: (Units=1/GPa)
#
#
# Indices 1 2 3 4 5 6 
#
# 1 0.011776 -0.007031 -0.009965 0.000000 0.007698 0.000000
# 2 -0.007031 0.012399 0.007712 0.000000 -0.003079 0.000000
# 3 -0.009965 0.007712 0.019145 0.000000 -0.007569 0.000000
# 4 0.000000 0.000000 0.000000 0.059049 0.000000 0.011888
# 5 0.007698 -0.003079 -0.007569 0.000000 0.030423 0.000000
# 6 0.000000 0.000000 0.000000 0.011888 0.000000 0.024594
#
#
# Mechanical properties :
#
#
# Convention : Reuss Voigt Hill
#
# Bulk Modulus (GPa) = 40.40105 70.78162 55.59133
# Shear Modulus (GPa) = 27.14409 41.74311 34.44360
#
# Velocity S-wave (km/s) = 3.21136 3.98239 3.61747
# Velocity P-wave (km/s) = 5.39444 6.93093 6.21039
#
# Compressibility (1/GPa) = 0.02475183
#
# Stress axis : x y z
#
# Youngs Moduli (GPa) = 84.92122 80.65450 52.23329
#
# Poissons Ratio (x) = 0.56707 0.52052
# Poissons Ratio (y) = 0.59707 -0.40285
# Poissons Ratio (z) = 0.84626 -0.62204
#
# Static dielectric constant tensor:
#      x y z
#    x 2.343470 0.000000 0.471370 
#    y 0.000000 2.181820 0.000000 
#    z 0.471370 0.000000 2.319220 
# 
# From -- ./inp_files/285099.got.cif
#   From: 2010.05.17/outbox.cif.g08.bks.cpg/sg15_143_cif.got.tgz:285099.got - 2010.06.03 18:47:42.
