data_PCOD9308651
_publ_section_title
;
Structure prediction by ZEFSAII (Michael W. Deem and Ramdas Pophale) SiO2 
 PCOD9308651
Probable space group: C 2/C
;
_chemical_formula_sum "Si O2"
_cell_formula_units_Z 30
_cell_length_a 21.000000
_cell_length_b 15.000000
_cell_length_c 12.000000
_cell_angle_alpha 90.000000
_cell_angle_beta 120.000000
_cell_angle_gamma 90.000000
_cell_volume 3273.576026
_symmetry_space_group_name_H-M "C 2/C"
_symmetry_group_IT_number 15
_symmetry_cell_setting 'monoclinic'
loop_
_space_group_symop_operation_xyz
x,y,z
-x,y,1/2-z
-x,-y,-z
x,-y,1/2+z
1/2+x,1/2+y,z
1/2-x,1/2+y,1/2-z
1/2-x,1/2-y,-z
1/2+x,1/2-y,1/2+z
loop_
_atom_site_type_symbol
_atom_site_label
_atom_site_fract_x
_atom_site_fract_y
_atom_site_fract_z
Si Si1 0.985279 0.777510 0.360457
Si Si2 0.763370 0.316934 0.774376
Si Si3 0.627517 0.120437 0.305385
Si Si4 0.362252 0.812221 0.438108
Si Si5 0.000000 0.286463 0.250000
Si Si6 0.621812 0.920095 0.262551
Si Si7 0.766752 0.856859 0.515729
Si Si8 0.105916 0.810463 0.018110
O O1 0.934822 0.690248 0.289582
O O2 0.939067 0.835744 0.409267
O O3 0.000000 0.817747 0.250000
O O4 0.061510 0.743454 0.482135
O O5 0.800941 0.374042 0.710632
O O6 0.701814 0.251186 0.668514
O O7 0.730985 0.373369 0.849575
O O8 0.833123 0.260639 0.883752
O O9 0.650776 0.149775 0.449652
O O10 0.598021 0.020372 0.268247
O O11 0.368468 0.894974 0.358406
O O12 0.938478 0.349414 0.249988
O O13 0.044962 0.230511 0.381495
O O14 0.697828 0.902367 0.395220
O O15 0.750000 0.750000 0.500000
O O16 0.841515 0.873185 0.511628
#
# Coordination Sequence:
#
# PCOD9308651 Si02
#       8
#     8   8   8   8   4   8   8   8
#     4   9  20  35  48  80 112 143 184 219 271 329
#     4  10  19  38  53  74 108 151 190 232 256 325
#     4  10  25  35  52  82 119 148 179 223 279 335
#     4  11  20  37  56  74 110 154 190 216 272 333
#     4  12  20  30  54  84 112 150 178 222 280 322
#     4  12  23  34  55  83 117 149 180 223 280 331
#     4  10  18  35  52  76 107 147 191 229 256 318
#     4  10  18  32  53  77 108 143 189 228 261 309
#
# _framework density 9.1642899999999994
#
# number of rings (size 3 to 8) (size 9 to 14) (size 15 to 20)
#    0.000    1.600    6.667    0.400    4.667    0.533 
#    0.000    0.000    0.000    0.000    0.000    0.933 
#   14.000    0.133    0.000    0.000    0.000    0.000 
#
# Total GULP energy -167141.659103 kJ/mol
# GULP energy per Si atom -5571.388637 kJ/mol
# Density = 0.914343 g / cm^3
# Si number density = 9.164290 Si / 1000 Ang^3
#
#
#
# Elastic Constant Matrix: (Units=GPa)
#
#
# Indices 1 2 3 4 5 6 
#
# 1 132.5626 2.2454 53.3652 0.0000 -21.9941 0.0000
# 2 2.2454 1.1939 6.6096 0.0000 3.7324 0.0000
# 3 53.3652 6.6096 129.5430 0.0000 1.1515 0.0000
# 4 0.0000 0.0000 0.0000 9.2161 0.0000 2.3376
# 5 -21.9941 3.7324 1.1515 0.0000 41.8464 0.0000
# 6 0.0000 0.0000 0.0000 2.3376 0.0000 9.7788
#
#
#
# Elastic Compliance Matrix: (Units=1/GPa)
#
#
# Indices 1 2 3 4 5 6 
#
# 1 0.010602 -0.029687 -0.002926 0.000000 0.008301 0.000000
# 2 -0.029687 1.955477 -0.085875 0.000000 -0.187656 0.000000
# 3 -0.002926 -0.085875 0.013255 0.000000 0.005757 0.000000
# 4 0.000000 0.000000 0.000000 0.115510 0.000000 -0.027612
# 5 0.008301 -0.187656 0.005757 0.000000 0.044839 0.000000
# 6 0.000000 0.000000 0.000000 -0.027612 0.000000 0.108863
#
#
# Mechanical properties :
#
#
# Convention : Reuss Voigt Hill
#
# Bulk Modulus (GPa) = 0.57393 43.08221 21.82807
# Shear Modulus (GPa) = 1.63063 25.57355 13.60209
#
# Velocity S-wave (km/s) = 0.94424 3.73940 2.72715
# Velocity P-wave (km/s) = 1.22581 6.49620 4.67457
#
# Compressibility (1/GPa) = 1.74235768
#
# Stress axis : x y z
#
# Youngs Moduli (GPa) = 94.32404 0.51138 75.44132
#
# Poissons Ratio (x) = 0.01518 0.22078
# Poissons Ratio (y) = 2.80022 6.47850
# Poissons Ratio (z) = 0.27604 0.04391
#
# Static dielectric constant tensor:
#      x y z
#    x 1.706910 0.000000 -0.059620 
#    y 0.000000 1.598120 0.000000 
#    z -0.059620 0.000000 1.673910 
# 
# From -- ./inp_files/112762.got.cif
#   From: 2010.05.17/outbox.ucp.g08.bks.cvg/sg15_57_cif.got.tgz:112762.got - 2010.06.11 12:40:34.
