data_PCOD9308539
_publ_section_title
;
Structure prediction by ZEFSAII (Michael W. Deem and Ramdas Pophale) SiO2 
 PCOD9308539
Probable space group: C 2/C
;
_chemical_formula_sum "Si O2"
_cell_formula_units_Z 32
_cell_length_a 7.415987
_cell_length_b 8.340014
_cell_length_c 21.855082
_cell_angle_alpha 90.000000
_cell_angle_beta 47.923220
_cell_angle_gamma 90.000000
_cell_volume 1003.314092
_symmetry_space_group_name_H-M "C 2/C"
_symmetry_group_IT_number 15
_symmetry_cell_setting 'monoclinic'
loop_
_space_group_symop_operation_xyz
x,y,z
-x,y,1/2-z
-x,-y,-z
x,-y,1/2+z
1/2+x,1/2+y,z
1/2-x,1/2+y,1/2-z
1/2-x,1/2-y,-z
1/2+x,1/2-y,1/2+z
loop_
_atom_site_type_symbol
_atom_site_label
_atom_site_fract_x
_atom_site_fract_y
_atom_site_fract_z
Si Si1 0.410931 0.608886 0.461507
Si Si2 0.215070 0.257089 0.676239
Si Si3 0.512987 0.848244 0.982528
Si Si4 0.220138 0.622396 0.307373
O O1 0.500000 0.500000 0.500000
O O2 0.615331 0.582725 0.358010
O O3 0.248591 0.735114 0.549238
O O4 0.179636 0.503022 0.482827
O O5 0.357659 0.237696 0.573963
O O6 0.072838 0.302011 0.781880
O O7 0.265859 0.071674 0.687704
O O8 0.560235 0.821036 0.900612
O O9 0.500000 0.679013 0.250000
#
# Coordination Sequence:
#
# PCOD9308539 Si02
#       4
#     8   8   8   8
#     4   8  17  31  50  72 103 129 179 212 261 341
#     4   8  17  28  52  73  92 136 179 204 265 337
#     4   9  17  30  51  73 103 136 171 219 277 314
#     4   9  15  30  53  67  99 137 170 213 271 321
#
# _framework density 31.894297000000002
#
# number of rings (size 3 to 8) (size 9 to 14) (size 15 to 20)
#    3.000    0.000    2.500    0.000    0.000    1.000 
#    0.000    2.500    0.000   12.000    0.000    0.000 
#    0.000    0.000    0.000    0.000    0.000    0.000 
#
# Total GULP energy -89214.707466 kJ/mol
# GULP energy per Si atom -5575.919217 kJ/mol
# Density = 3.182170 g / cm^3
# Si number density = 31.894297 Si / 1000 Ang^3
#
#
#
# Elastic Constant Matrix: (Units=GPa)
#
#
# Indices 1 2 3 4 5 6 
#
# 1 366.2218 114.6231 130.3345 -0.0001 25.6356 0.0000
# 2 114.6231 188.3912 76.2626 -0.0001 26.4985 0.0000
# 3 130.3345 76.2626 335.1372 -0.0001 9.7152 0.0001
# 4 -0.0001 -0.0001 -0.0001 78.6590 0.0001 11.1435
# 5 25.6356 26.4985 9.7152 0.0001 90.9163 0.0000
# 6 0.0000 0.0000 0.0001 11.1435 0.0000 77.4111
#
#
#
# Elastic Compliance Matrix: (Units=1/GPa)
#
#
# Indices 1 2 3 4 5 6 
#
# 1 0.003673 -0.001766 -0.001015 0.000000 -0.000413 0.000000
# 2 -0.001766 0.006927 -0.000848 0.000000 -0.001430 0.000000
# 3 -0.001015 -0.000848 0.003567 0.000000 0.000152 0.000000
# 4 0.000000 0.000000 0.000000 0.012978 0.000000 -0.001868
# 5 -0.000413 -0.001430 0.000152 0.000000 0.011516 0.000000
# 6 0.000000 0.000000 0.000000 -0.001868 0.000000 0.013187
#
#
# Mechanical properties :
#
#
# Convention : Reuss Voigt Hill
#
# Bulk Modulus (GPa) = 144.72198 170.24341 157.48269
# Shear Modulus (GPa) = 81.42060 87.29928 84.35994
#
# Velocity S-wave (km/s) = 5.05803 5.23745 5.14852
# Velocity P-wave (km/s) = 8.92108 9.49040 9.21014
#
# Compressibility (1/GPa) = 0.00690980
#
# Stress axis : x y z
#
# Youngs Moduli (GPa) = 272.22792 144.35875 280.34573
#
# Poissons Ratio (x) = 0.25497 0.28447
# Poissons Ratio (y) = 0.48081 0.23773
# Poissons Ratio (z) = 0.27623 0.12241
#
# Static dielectric constant tensor:
#      x y z
#    x 2.556750 0.000000 -0.047350 
#    y 0.000000 2.403030 0.000000 
#    z -0.047350 0.000000 2.380820 
# 
# From -- ./inp_files/140542.got.cif
#   From: 2010.05.17/outbox.cif.g08.bks.cpg/sg15_71_cif.got.tgz:140542.got - 2010.06.03 18:47:42.
