data_PCOD9308571
_publ_section_title
;
Structure prediction by ZEFSAII (Michael W. Deem and Ramdas Pophale) SiO2 
 PCOD9308571
Probable space group: C 2/C
;
_chemical_formula_sum "Si O2"
_cell_formula_units_Z 64
_cell_length_a 11.071961
_cell_length_b 14.933770
_cell_length_c 24.260839
_cell_angle_alpha 90.000000
_cell_angle_beta 141.201615
_cell_angle_gamma 90.000000
_cell_volume 2513.492698
_symmetry_space_group_name_H-M "C 2/C"
_symmetry_group_IT_number 15
_symmetry_cell_setting 'monoclinic'
loop_
_space_group_symop_operation_xyz
x,y,z
-x,y,1/2-z
-x,-y,-z
x,-y,1/2+z
1/2+x,1/2+y,z
1/2-x,1/2+y,1/2-z
1/2-x,1/2-y,-z
1/2+x,1/2-y,1/2+z
loop_
_atom_site_type_symbol
_atom_site_label
_atom_site_fract_x
_atom_site_fract_y
_atom_site_fract_z
Si Si1 0.934199 0.036361 0.144307
Si Si2 0.218077 0.464199 0.176252
Si Si3 0.817820 0.717231 0.881227
Si Si4 0.505014 0.121070 0.114660
Si Si5 0.279789 0.206673 0.407757
Si Si6 0.651074 0.391227 0.095430
Si Si7 0.256140 0.407579 0.881325
Si Si8 0.868986 0.142876 0.578855
O O1 0.872263 0.138243 0.119685
O O2 0.824989 0.992586 0.158029
O O3 0.867704 0.966417 0.075471
O O4 0.157717 0.014555 0.233260
O O5 0.202844 0.358350 0.172474
O O6 0.019470 0.516103 0.104131
O O7 0.789828 0.820298 0.855178
O O8 0.661427 0.687827 0.872705
O O9 0.023295 0.702325 0.985658
O O10 0.674510 0.165446 0.137446
O O11 0.440133 0.115445 0.155097
O O12 0.318824 0.167056 0.022173
O O13 0.223817 0.311121 0.386561
O O14 0.745337 0.488326 0.136420
O O15 0.572575 0.343166 0.122919
O O16 0.451955 0.401573 0.989065
#
# Coordination Sequence:
#
# PCOD9308571 Si02
#       8
#     8   8   8   8   8   8   8   8
#     4   9  17  29  48  71  95 124 159 202 249 292
#     4   9  17  29  48  71  95 124 159 202 249 292
#     4   9  16  28  49  75  99 125 161 203 245 289
#     4   9  16  28  49  74  96 123 163 205 242 286
#     4   9  16  28  49  75  99 125 161 203 245 289
#     4   9  17  29  47  73 102 129 159 198 242 287
#     4   9  17  29  47  73 102 129 159 198 242 287
#     4   9  16  28  49  74  96 123 163 205 242 286
#
# _framework density 25.462575999999999
#
# number of rings (size 3 to 8) (size 9 to 14) (size 15 to 20)
#    0.000    3.000    0.000    1.500    0.000    6.000 
#    0.000    1.250    0.000   30.750    0.000    0.000 
#    0.000    0.000    0.000    0.000    0.000    0.250 
#
# Total GULP energy -178181.792430 kJ/mol
# GULP energy per Si atom -5568.181013 kJ/mol
# Density = 2.540462 g / cm^3
# Si number density = 25.462576 Si / 1000 Ang^3
#
#
#
# Elastic Constant Matrix: (Units=GPa)
#
#
# Indices 1 2 3 4 5 6 
#
# 1 41.7229 22.5152 0.6245 0.0000 4.3739 0.0000
# 2 22.5152 233.8885 19.1428 0.0000 10.5684 0.0000
# 3 0.6245 19.1428 41.6411 0.0000 8.0884 0.0000
# 4 0.0000 0.0000 0.0000 6.8840 0.0000 -0.3982
# 5 4.3739 10.5684 8.0884 0.0000 7.9080 0.0000
# 6 0.0000 0.0000 0.0000 -0.3982 0.0000 21.8989
#
#
#
# Elastic Compliance Matrix: (Units=1/GPa)
#
#
# Indices 1 2 3 4 5 6 
#
# 1 0.026715 -0.002164 0.003622 0.000000 -0.015589 0.000000
# 2 -0.002164 0.004769 -0.001441 0.000000 -0.003703 0.000000
# 3 0.003622 -0.001441 0.030746 0.000000 -0.031526 0.000000
# 4 0.000000 0.000000 0.000000 0.145418 0.000000 0.002644
# 5 -0.015589 -0.003703 -0.031526 0.000000 0.172271 0.000000
# 6 0.000000 0.000000 0.000000 0.002644 0.000000 0.045712
#
#
# Mechanical properties :
#
#
# Convention : Reuss Voigt Hill
#
# Bulk Modulus (GPa) = 16.06009 44.64637 30.35323
# Shear Modulus (GPa) = 11.20193 25.66952 18.43572
#
# Velocity S-wave (km/s) = 2.09974 3.17855 2.69370
# Velocity P-wave (km/s) = 3.49279 5.57163 4.64987
#
# Compressibility (1/GPa) = 0.06226614
#
# Stress axis : x y z
#
# Youngs Moduli (GPa) = 37.43163 209.68404 32.52430
#
# Poissons Ratio (x) = 0.45371 -0.11781
# Poissons Ratio (y) = 0.08099 0.04686
# Poissons Ratio (z) = -0.13558 0.30208
#
# Static dielectric constant tensor:
#      x y z
#    x 2.094860 0.000000 -0.026680 
#    y 0.000000 2.067070 0.000000 
#    z -0.026680 0.000000 2.113820 
# 
# From -- ./inp_files/293106.got.cif
#   From: 2010.05.17/outbox.cif.g08.bks.cpg/sg15_147_cif.got.tgz:293106.got - 2010.06.03 18:47:42.
