data_PCOD9308195
_publ_section_title
;
Structure prediction by ZEFSAII (Michael W. Deem and Ramdas Pophale) SiO2 
 PCOD9308195
Probable space group: C 2/C
;
_chemical_formula_sum "Si O2"
_cell_formula_units_Z 28
_cell_length_a 10.502532
_cell_length_b 18.523450
_cell_length_c 10.001460
_cell_angle_alpha 90.000000
_cell_angle_beta 139.270236
_cell_angle_gamma 90.000000
_cell_volume 1269.563960
_symmetry_space_group_name_H-M "C 2/C"
_symmetry_group_IT_number 15
_symmetry_cell_setting 'monoclinic'
loop_
_space_group_symop_operation_xyz
x,y,z
-x,y,1/2-z
-x,-y,-z
x,-y,1/2+z
1/2+x,1/2+y,z
1/2-x,1/2+y,1/2-z
1/2-x,1/2-y,-z
1/2+x,1/2-y,1/2+z
loop_
_atom_site_type_symbol
_atom_site_label
_atom_site_fract_x
_atom_site_fract_y
_atom_site_fract_z
Si Si1 0.779600 0.320283 0.115307
Si Si2 0.625197 0.974870 0.977209
Si Si3 0.784000 0.181128 0.621826
Si Si4 0.500000 0.430891 0.750000
O O1 0.749558 0.301317 0.247850
O O2 0.000000 0.344492 0.250000
O O3 0.750000 0.250000 0.000000
O O4 0.613097 0.378625 0.944168
O O5 0.652588 0.888913 0.993466
O O6 0.500000 0.996464 0.750000
O O7 0.829186 0.015861 0.159859
O O8 0.500000 0.000000 0.000000
O O9 0.750000 0.250000 0.500000
O O10 0.000000 0.157479 0.750000
#
# Coordination Sequence:
#
# PCOD9308195 Si02
#       4
#     8   8   8   4
#     4  12  26  49  77 112 157 210 259 317 392 482
#     4  12  28  50  78 113 154 206 261 323 397 472
#     4  12  27  48  77 116 158 198 257 334 399 460
#     4  12  26  48  82 110 154 200 272 312 388 482
#
# _framework density 22.054818999999998
#
# number of rings (size 3 to 8) (size 9 to 14) (size 15 to 20)
#    0.000    0.000    2.857    6.857    4.000    2.286 
#    0.000    0.000    0.000    0.000    0.000    0.000 
#    0.000    0.000    0.000    0.000    0.000    0.000 
#
# Total GULP energy -78277.934274 kJ/mol
# GULP energy per Si atom -5591.281020 kJ/mol
# Density = 2.200462 g / cm^3
# Si number density = 22.054819 Si / 1000 Ang^3
#
#
#
# Elastic Constant Matrix: (Units=GPa)
#
#
# Indices 1 2 3 4 5 6 
#
# 1 220.4292 71.8657 108.6739 0.0000 -14.2656 0.0000
# 2 71.8657 191.4794 77.0572 0.0000 -9.1567 0.0000
# 3 108.6739 77.0572 145.6002 0.0000 -7.5654 0.0000
# 4 0.0000 0.0000 0.0000 14.1522 0.0000 20.6500
# 5 -14.2656 -9.1567 -7.5654 0.0000 51.5896 0.0000
# 6 0.0000 0.0000 0.0000 20.6500 0.0000 30.3048
#
#
#
# Elastic Compliance Matrix: (Units=1/GPa)
#
#
# Indices 1 2 3 4 5 6 
#
# 1 0.007318 -0.000657 -0.005054 0.000001 0.001166 0.000000
# 2 -0.000657 0.006718 -0.003035 0.000000 0.000566 0.000000
# 3 -0.005054 -0.003035 0.012239 -0.000001 -0.000141 0.000001
# 4 0.000001 0.000000 -0.000001 12.336046 0.000000 -8.405906
# 5 0.001166 0.000566 -0.000141 0.000000 0.019786 0.000000
# 6 0.000000 0.000000 0.000001 -8.405906 0.000000 5.760868
#
#
# Mechanical properties :
#
#
# Convention : Reuss Voigt Hill
#
# Bulk Modulus (GPa) = 113.86310 119.18917 116.52614
# Shear Modulus (GPa) = 0.27528 39.20345 19.73936
#
# Velocity S-wave (km/s) = 0.35368 4.22067 2.99492
# Velocity P-wave (km/s) = 7.20459 8.82676 8.05661
#
# Compressibility (1/GPa) = 0.00878248
#
# Stress axis : x y z
#
# Youngs Moduli (GPa) = 136.65485 148.86038 81.70496
#
# Poissons Ratio (x) = 0.09780 0.41290
# Poissons Ratio (y) = 0.08979 0.24801
# Poissons Ratio (z) = 0.69059 0.45186
#
# Static dielectric constant tensor:
#      x y z
#    x 1.695660 0.000000 0.003470 
#    y 0.000000 1.867380 0.000000 
#    z 0.003470 0.000000 1.812180 
# 
# From -- ./inp_files/22617.got.cif
#   From: 2010.05.17/outbox.cif.g08.bks.cpg/sg15_12_cif.got.tgz:22617.got - 2010.06.03 18:47:42.
