data_PCOD9308125
_publ_section_title
;
Structure prediction by ZEFSAII (Michael W. Deem and Ramdas Pophale) SiO2 
 PCOD9308125
Probable space group: C 2/C
;
_chemical_formula_sum "Si O2"
_cell_formula_units_Z 28
_cell_length_a 14.113631
_cell_length_b 8.903392
_cell_length_c 14.824889
_cell_angle_alpha 90.000000
_cell_angle_beta 147.239985
_cell_angle_gamma 90.000000
_cell_volume 1008.046280
_symmetry_space_group_name_H-M "C 2/C"
_symmetry_group_IT_number 15
_symmetry_cell_setting 'monoclinic'
loop_
_space_group_symop_operation_xyz
x,y,z
-x,y,1/2-z
-x,-y,-z
x,-y,1/2+z
1/2+x,1/2+y,z
1/2-x,1/2+y,1/2-z
1/2-x,1/2-y,-z
1/2+x,1/2-y,1/2+z
loop_
_atom_site_type_symbol
_atom_site_label
_atom_site_fract_x
_atom_site_fract_y
_atom_site_fract_z
Si Si1 0.061731 0.286408 0.386247
Si Si2 0.651468 0.816737 0.796991
Si Si3 0.000000 0.500000 0.500000
Si Si4 0.014990 0.034976 0.617182
O O1 0.250000 0.250000 0.500000
O O2 0.000000 0.380959 0.250000
O O3 0.052288 0.363180 0.474068
O O4 0.969462 0.124491 0.322739
O O5 0.500000 0.804885 0.750000
O O6 0.672753 0.644720 0.774316
O O7 0.593793 0.912705 0.664023
O O8 0.829470 0.880167 0.983202
O O9 0.000000 0.000000 0.500000
#
# Coordination Sequence:
#
# PCOD9308125 Si02
#       4
#     8   8   4   8
#     4  12  28  52  80 122 166 216 276 342 423 506
#     4  12  28  51  79 119 162 219 275 348 419 509
#     4  12  26  46  86 114 170 206 278 336 420 490
#     4  12  28  51  82 117 163 216 279 344 422 498
#
# _framework density 27.776503000000002
#
# number of rings (size 3 to 8) (size 9 to 14) (size 15 to 20)
#    0.000    0.000    2.857    6.000    8.000    0.000 
#    0.000    0.000    0.000    0.000    0.000    0.000 
#    0.000    0.000    0.000    0.000    0.000    0.000 
#
# Total GULP energy -78100.987887 kJ/mol
# GULP energy per Si atom -5578.641992 kJ/mol
# Density = 2.771328 g / cm^3
# Si number density = 27.776503 Si / 1000 Ang^3
#
#
#
# Elastic Constant Matrix: (Units=GPa)
#
#
# Indices 1 2 3 4 5 6 
#
# 1 145.6258 26.3253 59.1048 0.0000 -43.9249 0.0000
# 2 26.3253 166.2111 31.3793 0.0000 -16.8128 0.0000
# 3 59.1048 31.3793 146.9402 0.0001 -39.8141 0.0001
# 4 0.0000 0.0000 0.0001 39.9085 0.0001 -3.3958
# 5 -43.9249 -16.8128 -39.8141 0.0001 65.9871 0.0001
# 6 0.0000 0.0000 0.0001 -3.3958 0.0001 36.2628
#
#
#
# Elastic Compliance Matrix: (Units=1/GPa)
#
#
# Indices 1 2 3 4 5 6 
#
# 1 0.009331 -0.000560 -0.002378 0.000000 0.004634 0.000000
# 2 -0.000560 0.006352 -0.000949 0.000000 0.000673 0.000000
# 3 -0.002378 -0.000949 0.008930 0.000000 0.003563 0.000000
# 4 0.000000 0.000000 0.000000 0.025259 0.000000 0.002365
# 5 0.004634 0.000673 0.003563 0.000000 0.020560 0.000000
# 6 0.000000 0.000000 0.000000 0.002365 0.000000 0.027798
#
#
# Mechanical properties :
#
#
# Convention : Reuss Voigt Hill
#
# Bulk Modulus (GPa) = 59.38506 76.93288 68.15897
# Shear Modulus (GPa) = 44.79561 51.22953 48.01257
#
# Velocity S-wave (km/s) = 4.02022 4.29925 4.16207
# Velocity P-wave (km/s) = 6.55558 7.23892 6.90570
#
# Compressibility (1/GPa) = 0.01683925
#
# Stress axis : x y z
#
# Youngs Moduli (GPa) = 107.16905 157.42090 111.97956
#
# Poissons Ratio (x) = 0.08819 0.26630
# Poissons Ratio (y) = 0.06004 0.10625
# Poissons Ratio (z) = 0.25486 0.14937
#
# Static dielectric constant tensor:
#      x y z
#    x 2.364080 0.000000 0.169840 
#    y 0.000000 2.317850 0.000000 
#    z 0.169840 0.000000 2.166810 
# 
# From -- ./inp_files/150850.got.cif
#   From: 2010.05.17/outbox.cif.g08.bks.cpg/sg15_76_cif.got.tgz:150850.got - 2010.06.03 18:47:42.
