data_PCOD9308864
_publ_section_title
;
Structure prediction by ZEFSAII (Michael W. Deem and Ramdas Pophale) SiO2 
 PCOD9308864
Probable space group: C 2/C
;
_chemical_formula_sum "Si O2"
_cell_formula_units_Z 30
_cell_length_a 27.000000
_cell_length_b 21.000000
_cell_length_c 9.000000
_cell_angle_alpha 90.000000
_cell_angle_beta 40.000000
_cell_angle_gamma 90.000000
_cell_volume 3280.145172
_symmetry_space_group_name_H-M "C 2/C"
_symmetry_group_IT_number 15
_symmetry_cell_setting 'monoclinic'
loop_
_space_group_symop_operation_xyz
x,y,z
-x,y,1/2-z
-x,-y,-z
x,-y,1/2+z
1/2+x,1/2+y,z
1/2-x,1/2+y,1/2-z
1/2-x,1/2-y,-z
1/2+x,1/2-y,1/2+z
loop_
_atom_site_type_symbol
_atom_site_label
_atom_site_fract_x
_atom_site_fract_y
_atom_site_fract_z
Si Si1 0.134013 0.062527 0.504082
Si Si2 0.567378 0.764584 0.777349
Si Si3 0.919213 0.057444 0.523856
Si Si4 0.000000 0.149813 0.750000
Si Si5 0.284594 0.201900 0.725993
Si Si6 0.368595 0.699041 0.582221
Si Si7 0.439762 0.187351 0.757783
Si Si8 0.731434 0.153173 0.414211
O O1 0.098295 0.055827 0.755313
O O2 0.071417 0.103554 0.552999
O O3 0.213533 0.102024 0.295025
O O4 0.138302 0.993159 0.420066
O O5 0.532434 0.698610 0.797017
O O6 0.627525 0.797899 0.529691
O O7 0.616498 0.743062 0.808672
O O8 0.495038 0.808084 0.988441
O O9 0.905524 0.130629 0.515960
O O10 0.000000 0.041182 0.250000
O O11 0.220711 0.187470 0.748527
O O12 0.266285 0.276551 0.800698
O O13 0.270536 0.156614 0.900791
O O14 0.410758 0.740049 0.357137
O O15 0.500000 0.168388 0.750000
O O16 0.358517 0.150807 0.930537
#
# Coordination Sequence:
#
# PCOD9308864 Si02
#       8
#     8   8   8   4   8   8   8   8
#     4  12  27  39  60  81 122 160 203 246 287 346
#     4  11  19  34  54  87 114 159 192 243 296 353
#     4  12  25  41  57  86 115 161 206 242 279 347
#     4  12  22  34  56  80 118 158 196 236 286 338
#     4  10  20  33  57  83 120 155 191 242 297 355
#     4  10  21  34  55  81 123 157 198 237 292 350
#     4   9  20  34  59  86 121 152 190 238 296 363
#     4  10  21  38  53  87 118 155 193 240 300 350
#
# _framework density 9.145937
#
# number of rings (size 3 to 8) (size 9 to 14) (size 15 to 20)
#    0.000    1.333    3.333    2.800    5.600    2.133 
#    0.000    0.000    0.000    0.000    0.000    3.733 
#    0.000    0.000    0.000    0.000    0.000    0.000 
#
# Total GULP energy -167124.745245 kJ/mol
# GULP energy per Si atom -5570.824842 kJ/mol
# Density = 0.912512 g / cm^3
# Si number density = 9.145937 Si / 1000 Ang^3
#
#
#
# Elastic Constant Matrix: (Units=GPa)
#
#
# Indices 1 2 3 4 5 6 
#
# 1 83.5836 12.7591 42.8148 0.0000 -17.1380 0.0000
# 2 12.7591 40.4572 22.3621 0.0000 1.2529 0.0000
# 3 42.8148 22.3621 133.8819 0.0000 -10.5791 0.0000
# 4 0.0000 0.0000 0.0000 20.4402 0.0000 -1.8926
# 5 -17.1380 1.2529 -10.5791 0.0000 30.5132 0.0000
# 6 0.0000 0.0000 0.0000 -1.8926 0.0000 23.1699
#
#
#
# Elastic Compliance Matrix: (Units=1/GPa)
#
#
# Indices 1 2 3 4 5 6 
#
# 1 0.016085 -0.003095 -0.004013 0.000000 0.007770 0.000000
# 2 -0.003095 0.028057 -0.004035 0.000000 -0.004290 0.000000
# 3 -0.004013 -0.004035 0.009523 0.000000 0.001213 0.000000
# 4 0.000000 0.000000 0.000000 0.049296 0.000000 0.004027
# 5 0.007770 -0.004290 0.001213 0.000000 0.037734 0.000000
# 6 0.000000 0.000000 0.000000 0.004027 0.000000 0.043488
#
#
# Mechanical properties :
#
#
# Convention : Reuss Voigt Hill
#
# Bulk Modulus (GPa) = 31.87015 45.97719 38.92367
# Shear Modulus (GPa) = 23.04891 26.82377 24.93634
#
# Velocity S-wave (km/s) = 3.55359 3.83355 3.69622
# Velocity P-wave (km/s) = 5.85647 6.69214 6.28820
#
# Compressibility (1/GPa) = 0.03137732
#
# Stress axis : x y z
#
# Youngs Moduli (GPa) = 62.16793 35.64166 105.01430
#
# Poissons Ratio (x) = 0.11033 0.42143
# Poissons Ratio (y) = 0.19244 0.42377
# Poissons Ratio (z) = 0.24948 0.14383
#
# Static dielectric constant tensor:
#      x y z
#    x 1.707790 0.000000 0.028120 
#    y 0.000000 1.597850 0.000000 
#    z 0.028120 0.000000 1.677420 
# 
# From -- ./inp_files/67520.got.cif
#   From: 2010.05.17/outbox.ucp.g08.bks.cvg/sg15_34_cif.got.tgz:67520.got - 2010.06.11 12:40:34.
