data_PCOD9308592
_publ_section_title
;
Structure prediction by ZEFSAII (Michael W. Deem and Ramdas Pophale) SiO2 
 PCOD9308592
Probable space group: C 2/C
;
_chemical_formula_sum "Si O2"
_cell_formula_units_Z 64
_cell_length_a 28.522533
_cell_length_b 7.675369
_cell_length_c 26.991751
_cell_angle_alpha 90.000000
_cell_angle_beta 149.997510
_cell_angle_gamma 90.000000
_cell_volume 2954.752489
_symmetry_space_group_name_H-M "C 2/C"
_symmetry_group_IT_number 15
_symmetry_cell_setting 'monoclinic'
loop_
_space_group_symop_operation_xyz
x,y,z
-x,y,1/2-z
-x,-y,-z
x,-y,1/2+z
1/2+x,1/2+y,z
1/2-x,1/2+y,1/2-z
1/2-x,1/2-y,-z
1/2+x,1/2-y,1/2+z
loop_
_atom_site_type_symbol
_atom_site_label
_atom_site_fract_x
_atom_site_fract_y
_atom_site_fract_z
Si Si1 0.659500 0.739048 0.345135
Si Si2 0.120386 0.158337 0.108943
Si Si3 0.574141 0.103124 0.252290
Si Si4 0.916430 0.751510 0.428699
Si Si5 0.627944 0.824094 0.914101
Si Si6 0.203459 0.969046 0.967817
Si Si7 0.196796 0.635864 0.272362
Si Si8 0.266744 0.284114 0.689869
O O1 0.750857 0.837048 0.451747
O O2 0.629838 0.616222 0.363052
O O3 0.690075 0.653133 0.322090
O O4 0.588203 0.895016 0.269462
O O5 0.200905 0.218485 0.144228
O O6 0.174896 0.143340 0.210772
O O7 0.091648 0.960459 0.070317
O O8 0.028238 0.277847 0.030208
O O9 0.465583 0.134769 0.142192
O O10 0.600400 0.178116 0.330232
O O11 0.643879 0.175745 0.274805
O O12 0.870093 0.692389 0.334317
O O13 0.843373 0.677872 0.402532
O O14 0.665307 0.634823 0.961408
O O15 0.712544 0.960850 0.990910
O O16 0.215138 0.426214 0.290350
#
# Coordination Sequence:
#
# PCOD9308592 Si02
#       8
#     8   8   8   8   8   8   8   8
#     4   9  18  35  56  78 110 144 178 228 282 322
#     4   9  18  34  53  74 110 143 178 227 272 320
#     4   9  18  35  54  76 112 143 175 227 277 325
#     4   9  18  34  52  78 107 142 183 222 270 329
#     4   9  18  35  54  77 111 143 179 227 276 332
#     4   9  18  35  56  79 108 142 182 225 276 332
#     4   9  18  34  53  75 108 144 178 221 278 318
#     4   9  18  34  54  76 110 143 175 230 273 321
#
# _framework density 21.660018999999998
#
# number of rings (size 3 to 8) (size 9 to 14) (size 15 to 20)
#    0.000    3.000    0.000    0.000    0.000    1.500 
#   18.000    7.500    0.000    0.000    0.000    0.000 
#    0.000    0.000    0.000    0.000    0.000    0.000 
#
# Total GULP energy -178412.292555 kJ/mol
# GULP energy per Si atom -5575.384142 kJ/mol
# Density = 2.161072 g / cm^3
# Si number density = 21.660019 Si / 1000 Ang^3
#
#
#
# Elastic Constant Matrix: (Units=GPa)
#
#
# Indices 1 2 3 4 5 6 
#
# 1 74.9940 1.4457 26.7615 0.0000 20.6733 0.0000
# 2 1.4457 35.8751 4.5169 0.0000 8.2755 0.0002
# 3 26.7615 4.5169 72.9083 0.0000 35.4874 0.0000
# 4 0.0000 0.0000 0.0000 16.2094 0.0000 -8.5081
# 5 20.6733 8.2755 35.4874 0.0000 25.7951 0.0000
# 6 0.0000 0.0002 0.0000 -8.5081 0.0000 7.3304
#
#
#
# Elastic Compliance Matrix: (Units=1/GPa)
#
#
# Indices 1 2 3 4 5 6 
#
# 1 0.017458 0.003164 0.002119 0.000000 -0.017922 0.000000
# 2 0.003164 0.032561 0.009505 -0.000002 -0.026058 -0.000003
# 3 0.002119 0.009505 0.044374 -0.000001 -0.065795 -0.000001
# 4 0.000000 -0.000002 -0.000001 0.157865 0.000002 0.183226
# 5 -0.017922 -0.026058 -0.065795 0.000002 0.152008 0.000003
# 6 0.000000 -0.000003 -0.000001 0.183226 0.000003 0.349078
#
#
# Mechanical properties :
#
#
# Convention : Reuss Voigt Hill
#
# Bulk Modulus (GPa) = 8.06650 27.69172 17.87911
# Shear Modulus (GPa) = 6.53517 19.93722 13.23619
#
# Velocity S-wave (km/s) = 1.73888 3.03720 2.47470
# Velocity P-wave (km/s) = 2.78637 5.01118 4.05437
#
# Compressibility (1/GPa) = 0.12396951
#
# Stress axis : x y z
#
# Youngs Moduli (GPa) = 57.28173 30.71138 22.53553
#
# Poissons Ratio (x) = -0.09716 -0.04776
# Poissons Ratio (y) = -0.18123 -0.21420
# Poissons Ratio (z) = -0.12140 -0.29191
#
# Static dielectric constant tensor:
#      x y z
#    x 1.793950 0.000000 0.029060 
#    y 0.000000 1.855420 0.000000 
#    z 0.029060 0.000000 1.803740 
# 
# From -- ./inp_files/320132.got.cif
#   From: 2010.05.17/outbox.cif.g08.bks.cpg/sg15_161_cif.got.tgz:320132.got - 2010.06.03 18:47:42.
