data_PCOD9308253
_publ_section_title
;
Structure prediction by ZEFSAII (Michael W. Deem and Ramdas Pophale) SiO2 
 PCOD9308253
Probable space group: C 2/C
;
_chemical_formula_sum "Si O2"
_cell_formula_units_Z 36
_cell_length_a 16.716475
_cell_length_b 10.505949
_cell_length_c 8.893931
_cell_angle_alpha 90.000000
_cell_angle_beta 56.143306
_cell_angle_gamma 90.000000
_cell_volume 1297.115548
_symmetry_space_group_name_H-M "C 2/C"
_symmetry_group_IT_number 15
_symmetry_cell_setting 'monoclinic'
loop_
_space_group_symop_operation_xyz
x,y,z
-x,y,1/2-z
-x,-y,-z
x,-y,1/2+z
1/2+x,1/2+y,z
1/2-x,1/2+y,1/2-z
1/2-x,1/2-y,-z
1/2+x,1/2-y,1/2+z
loop_
_atom_site_type_symbol
_atom_site_label
_atom_site_fract_x
_atom_site_fract_y
_atom_site_fract_z
Si Si1 0.129170 0.744785 0.400205
Si Si2 0.500000 0.579184 0.250000
Si Si3 0.930140 0.341894 0.003028
Si Si4 0.833802 0.554460 0.901527
Si Si5 0.156763 0.888031 0.092612
O O1 0.308413 0.840095 0.553567
O O2 0.190117 0.810364 0.205107
O O3 0.045021 0.666271 0.404072
O O4 0.063627 0.837854 0.570468
O O5 0.423094 0.484066 0.257282
O O6 0.886144 0.374046 0.211620
O O7 0.892951 0.208520 0.971690
O O8 0.101537 0.455454 0.572794
O O9 0.742429 0.474392 0.940907
#
# Coordination Sequence:
#
# PCOD9308253 Si02
#       5
#     8   4   8   8   8
#     4  12  26  53  84 119 160 218 271 334 417 490
#     4  12  26  50  86 112 160 216 276 322 412 496
#     4  12  26  55  79 121 162 220 268 335 415 489
#     4  12  29  50  83 122 165 207 277 348 401 480
#     4  12  29  51  83 118 165 216 275 335 407 494
#
# _framework density 27.753888
#
# number of rings (size 3 to 8) (size 9 to 14) (size 15 to 20)
#    0.000    0.000    4.444    3.333    3.111    4.444 
#    0.000    0.000    0.000    0.000    0.000    0.000 
#    0.000    0.000    0.000    0.000    0.000    0.000 
#
# Total GULP energy -101199.312033 kJ/mol
# GULP energy per Si atom -5622.184002 kJ/mol
# Density = 2.769072 g / cm^3
# Si number density = 27.753888 Si / 1000 Ang^3
#
#
#
# Elastic Constant Matrix: (Units=GPa)
#
#
# Indices 1 2 3 4 5 6 
#
# 1 113.6063 54.6897 22.2362 0.0000 16.5693 0.0000
# 2 54.6897 118.0472 26.5060 0.0000 9.3093 0.0000
# 3 22.2362 26.5060 99.1938 0.0000 20.5923 0.0000
# 4 0.0000 0.0000 0.0000 47.9080 0.0000 -2.8232
# 5 16.5693 9.3093 20.5923 0.0000 57.3058 0.0000
# 6 0.0000 0.0000 0.0000 -2.8232 0.0000 54.4805
#
#
#
# Elastic Compliance Matrix: (Units=1/GPa)
#
#
# Indices 1 2 3 4 5 6 
#
# 1 0.011736 -0.005077 -0.000801 0.000000 -0.002281 0.000000
# 2 -0.005077 0.011231 -0.001933 0.000000 0.000338 0.000000
# 3 -0.000801 -0.001933 0.011524 0.000000 -0.003595 0.000000
# 4 0.000000 0.000000 0.000000 0.020937 0.000000 0.001085
# 5 -0.002281 0.000338 -0.003595 0.000000 0.019347 0.000000
# 6 0.000000 0.000000 0.000000 0.001085 0.000000 0.018411
#
#
# Mechanical properties :
#
#
# Convention : Reuss Voigt Hill
#
# Bulk Modulus (GPa) = 52.99903 59.74567 56.37235
# Shear Modulus (GPa) = 43.44138 47.09989 45.27063
#
# Velocity S-wave (km/s) = 3.96060 4.12400 4.04313
# Velocity P-wave (km/s) = 6.32872 6.65208 6.49241
#
# Compressibility (1/GPa) = 0.01886827
#
# Stress axis : x y z
#
# Youngs Moduli (GPa) = 85.20820 89.04015 86.77787
#
# Poissons Ratio (x) = 0.45210 0.06947
# Poissons Ratio (y) = 0.43264 0.16775
# Poissons Ratio (z) = 0.06822 0.17212
#
# Static dielectric constant tensor:
#      x y z
#    x 2.113600 0.000000 -0.014230 
#    y 0.000000 2.206490 0.000000 
#    z -0.014230 0.000000 2.094410 
# 
# From -- ./inp_files/94329.got.cif
#   From: 2010.05.17/outbox.cif.g08.bks.cpg/sg15_48_cif.got.tgz:94329.got - 2010.06.03 18:47:42.
