data_PCOD9308734
_publ_section_title
;
Structure prediction by ZEFSAII (Michael W. Deem and Ramdas Pophale) SiO2 
 PCOD9308734
Probable space group: C 2/C
;
_chemical_formula_sum "Si O2"
_cell_formula_units_Z 24
_cell_length_a 9.000000
_cell_length_b 30.000000
_cell_length_c 9.000000
_cell_angle_alpha 90.000000
_cell_angle_beta 90.000000
_cell_angle_gamma 90.000000
_cell_volume 2430.000000
_symmetry_space_group_name_H-M "C 2/C"
_symmetry_group_IT_number 15
_symmetry_cell_setting 'monoclinic'
loop_
_space_group_symop_operation_xyz
x,y,z
-x,y,1/2-z
-x,-y,-z
x,-y,1/2+z
1/2+x,1/2+y,z
1/2-x,1/2+y,1/2-z
1/2-x,1/2-y,-z
1/2+x,1/2-y,1/2+z
loop_
_atom_site_type_symbol
_atom_site_label
_atom_site_fract_x
_atom_site_fract_y
_atom_site_fract_z
Si Si1 0.187922 0.065334 0.954049
Si Si2 0.848535 0.097709 0.014159
Si Si3 0.838028 0.772994 0.311742
Si Si4 0.143647 0.194079 0.349705
Si Si5 0.178864 0.978559 0.766324
Si Si6 0.175793 0.638238 0.732497
O O1 0.276367 0.109969 0.911861
O O2 0.015069 0.081394 0.968361
O O3 0.211709 0.028253 0.824671
O O4 0.232216 0.040430 0.107627
O O5 0.758972 0.113679 0.869954
O O6 0.848902 0.140935 0.122867
O O7 0.780205 0.056415 0.104421
O O8 0.859054 0.784689 0.485699
O O9 0.778163 0.723136 0.282074
O O10 0.731937 0.810744 0.240282
O O11 0.000000 0.779141 0.250000
O O12 0.000000 0.203054 0.250000
O O13 0.000000 0.977466 0.750000
O O14 0.000000 0.636967 0.750000
#
# Coordination Sequence:
#
# PCOD9308734 Si02
#       6
#     8   8   8   8   8   8
#     4  11  20  36  62  88 116 153 194 240 290 343
#     4  10  20  37  58  84 118 151 192 239 286 342
#     4  10  22  39  61  86 115 153 196 239 289 348
#     4  10  20  37  58  87 120 150 189 241 290 340
#     4  10  19  33  59  91 116 146 194 240 284 342
#     4  11  22  38  58  82 114 154 197 242 292 345
#
# _framework density 9.8765429999999999
#
# number of rings (size 3 to 8) (size 9 to 14) (size 15 to 20)
#    0.000    1.667    0.000    8.500    0.000    0.667 
#    0.000   14.167    0.000    0.000    0.000    0.000 
#    0.000    0.000    0.000    0.000    0.000    0.000 
#
# Total GULP energy -133904.918776 kJ/mol
# GULP energy per Si atom -5579.371616 kJ/mol
# Density = 0.985406 g / cm^3
# Si number density = 9.876543 Si / 1000 Ang^3
#
#
#
# Elastic Constant Matrix: (Units=GPa)
#
#
# Indices 1 2 3 4 5 6 
#
# 1 81.0173 34.7410 16.9755 0.0000 -13.1343 0.0000
# 2 34.7410 118.4841 29.1405 0.0000 1.3614 0.0000
# 3 16.9755 29.1405 38.7880 0.0000 -19.0504 0.0000
# 4 0.0000 0.0000 0.0000 10.7919 0.0000 73.6519
# 5 -13.1343 1.3614 -19.0504 0.0000 9.3819 0.0000
# 6 0.0000 0.0000 0.0000 73.6519 0.0000 -314.4408
#
#
#
# Elastic Compliance Matrix: (Units=1/GPa)
#
#
# Indices 1 2 3 4 5 6 
#
# 1 0.010376 0.003232 -0.023900 0.000000 -0.034473 0.000000
# 2 0.003232 0.000902 0.024288 0.000000 0.053710 0.000000
# 3 -0.023900 0.024288 -0.062593 0.000000 -0.164082 0.000000
# 4 0.000000 0.000000 0.000000 0.035659 0.000000 0.008352
# 5 -0.034473 0.053710 -0.164082 0.000000 -0.282642 0.000000
# 6 0.000000 0.000000 0.000000 0.008352 0.000000 -0.001224
#
#
# Mechanical properties :
#
#
# Convention : Reuss Voigt Hill
#
# Bulk Modulus (GPa) = -22.68783 44.44483 10.87850
# Shear Modulus (GPa) = -15.55440 -48.35790 -31.95615
#
# Velocity S-wave (km/s) = -2.80918 -4.95321 -4.02653
# Velocity P-wave (km/s) = 4.69390 3.18801 4.01224
#
# Compressibility (1/GPa) = -0.04407649
#
# Stress axis : x y z
#
# Youngs Moduli (GPa) = 96.37256 1108.83189 -15.97622
#
# Poissons Ratio (x) = -3.58342 -0.38183
# Poissons Ratio (y) = -0.31145 0.38802
# Poissons Ratio (z) = 2.30331 -26.93079
#
# Static dielectric constant tensor:
#      x y z
#    x 1.667340 0.000000 -0.034530 
#    y 0.000000 1.722580 0.000000 
#    z -0.034530 0.000000 1.749570 
# 
# From -- ./inp_files/26054.got.cif
#   From: 2010.05.17/outbox.ucp.g08.bks.cvg/sg15_14_cif.got.tgz:26054.got - 2010.06.11 12:40:34.
