data_PCOD9308745
_publ_section_title
;
Structure prediction by ZEFSAII (Michael W. Deem and Ramdas Pophale) SiO2 
 PCOD9308745
Probable space group: C 2/C
;
_chemical_formula_sum "Si O2"
_cell_formula_units_Z 16
_cell_length_a 15.000000
_cell_length_b 15.000000
_cell_length_c 21.000000
_cell_angle_alpha 90.000000
_cell_angle_beta 20.000000
_cell_angle_gamma 90.000000
_cell_volume 1616.045177
_symmetry_space_group_name_H-M "C 2/C"
_symmetry_group_IT_number 15
_symmetry_cell_setting 'monoclinic'
loop_
_space_group_symop_operation_xyz
x,y,z
-x,y,1/2-z
-x,-y,-z
x,-y,1/2+z
1/2+x,1/2+y,z
1/2-x,1/2+y,1/2-z
1/2-x,1/2-y,-z
1/2+x,1/2-y,1/2+z
loop_
_atom_site_type_symbol
_atom_site_label
_atom_site_fract_x
_atom_site_fract_y
_atom_site_fract_z
Si Si1 0.429825 0.694968 0.722536
Si Si2 0.097640 0.159276 0.111591
Si Si3 0.732540 0.471319 0.040802
Si Si4 0.087813 0.349439 0.870165
O O1 0.500000 0.718374 0.750000
O O2 0.618391 0.612330 0.577352
O O3 0.441243 0.773257 0.664086
O O4 0.131555 0.664930 0.928691
O O5 0.000000 0.160494 0.250000
O O6 0.861729 0.152816 0.220248
O O7 0.257891 0.067912 0.994228
O O8 0.250000 0.250000 0.000000
O O9 0.500000 0.477378 0.250000
O O10 0.997318 0.439892 0.896427
#
# Coordination Sequence:
#
# PCOD9308745 Si02
#       4
#     8   8   8   8
#     4   9  17  33  58  83 103 132 178 219 258 310
#     4  11  23  37  53  78 109 139 177 216 259 316
#     4   8  18  34  55  79 101 136 184 216 249 310
#     4  10  19  34  57  79 106 140 169 218 268 299
#
# _framework density 9.9007129999999997
#
# number of rings (size 3 to 8) (size 9 to 14) (size 15 to 20)
#    0.000    3.000    0.000    4.500    0.000   11.000 
#    0.000    3.750    0.000   10.500    0.000    0.000 
#    0.000    0.000    0.000    0.000    0.000    0.000 
#
# Total GULP energy -89081.377842 kJ/mol
# GULP energy per Si atom -5567.586115 kJ/mol
# Density = 0.987818 g / cm^3
# Si number density = 9.900713 Si / 1000 Ang^3
#
#
#
# Elastic Constant Matrix: (Units=GPa)
#
#
# Indices 1 2 3 4 5 6 
#
# 1 90.6115 89.3905 34.8826 0.1494 -32.4738 0.0059
# 2 89.3905 179.1727 60.4618 -0.2312 -33.7741 0.0549
# 3 34.8826 60.4618 56.1878 0.0938 -36.4514 -0.0964
# 4 0.1494 -0.2312 0.0938 8.4560 -0.2545 5.8557
# 5 -32.4738 -33.7741 -36.4514 -0.2545 36.7829 0.0564
# 6 0.0059 0.0549 -0.0964 5.8557 0.0564 17.0431
#
#
#
# Elastic Compliance Matrix: (Units=1/GPa)
#
#
# Indices 1 2 3 4 5 6 
#
# 1 0.029761 -0.014885 0.016014 -0.000364 0.028474 0.000159
# 2 -0.014885 0.016387 -0.020036 0.000608 -0.017945 -0.000311
# 3 0.016014 -0.020036 0.074637 0.000349 0.069708 0.000131
# 4 -0.000364 0.000608 0.000349 0.155281 0.001739 -0.053357
# 5 0.028474 -0.017945 0.069708 0.001739 0.104940 -0.000503
# 6 0.000159 -0.000311 0.000131 -0.053357 -0.000503 0.077011
#
#
# Mechanical properties :
#
#
# Convention : Reuss Voigt Hill
#
# Bulk Modulus (GPa) = 12.05222 77.27133 44.66178
# Shear Modulus (GPa) = 9.55134 21.87219 15.71177
#
# Velocity S-wave (km/s) = 2.19864 3.32712 2.81991
# Velocity P-wave (km/s) = 3.54191 7.33945 5.76249
#
# Compressibility (1/GPa) = 0.08297224
#
# Stress axis : x y z
#
# Youngs Moduli (GPa) = 33.60102 61.02513 13.39815
#
# Poissons Ratio (x) = 0.90837 -0.21456
# Poissons Ratio (y) = 0.50016 0.26844
# Poissons Ratio (z) = -0.53810 1.22267
#
# Static dielectric constant tensor:
#      x y z
#    x 1.668640 0.000000 -0.027580 
#    y 0.000000 1.778480 0.000040 
#    z -0.027580 0.000040 1.731380 
# 
# From -- ./inp_files/94287.got.cif
#   From: 2010.05.17/outbox.ucp.g08.bks.cvg/sg15_48_cif.got.tgz:94287.got - 2010.06.11 12:40:34.
