data_PCOD9308215
_publ_section_title
;
Structure prediction by ZEFSAII (Michael W. Deem and Ramdas Pophale) SiO2 
 PCOD9308215
Probable space group: C 2/C
;
_chemical_formula_sum "Si O2"
_cell_formula_units_Z 32
_cell_length_a 12.600372
_cell_length_b 14.610743
_cell_length_c 17.680809
_cell_angle_alpha 90.000000
_cell_angle_beta 154.468650
_cell_angle_gamma 90.000000
_cell_volume 1402.942916
_symmetry_space_group_name_H-M "C 2/C"
_symmetry_group_IT_number 15
_symmetry_cell_setting 'monoclinic'
loop_
_space_group_symop_operation_xyz
x,y,z
-x,y,1/2-z
-x,-y,-z
x,-y,1/2+z
1/2+x,1/2+y,z
1/2-x,1/2+y,1/2-z
1/2-x,1/2-y,-z
1/2+x,1/2-y,1/2+z
loop_
_atom_site_type_symbol
_atom_site_label
_atom_site_fract_x
_atom_site_fract_y
_atom_site_fract_z
Si Si1 0.696901 0.122698 0.178509
Si Si2 0.879649 0.943212 0.355207
Si Si3 0.467771 0.210905 0.584904
Si Si4 0.796210 0.147883 0.553975
O O1 0.873660 0.198137 0.331070
O O2 0.796288 0.020189 0.240927
O O3 0.646625 0.166413 0.064067
O O4 0.453315 0.111538 0.071302
O O5 0.664021 0.869142 0.237169
O O6 0.103212 0.895375 0.457183
O O7 0.000000 0.000000 0.500000
O O8 0.250000 0.250000 0.500000
O O9 0.750000 0.250000 0.500000
O O10 0.000000 0.142315 0.750000
#
# Coordination Sequence:
#
# PCOD9308215 Si02
#       4
#     8   8   8   8
#     4  12  26  50  78 112 154 203 259 317 393 464
#     4  12  29  49  79 117 155 208 266 321 391 465
#     4  12  27  51  78 114 161 203 253 327 397 467
#     4  12  26  49  80 109 155 203 260 318 382 466
#
# _framework density 22.809197000000001
#
# number of rings (size 3 to 8) (size 9 to 14) (size 15 to 20)
#    0.000    0.000    5.000    3.000    7.000    0.000 
#    0.000    0.000    0.000    0.000    0.000    0.000 
#    0.000    0.000    0.000    0.000    0.000    0.000 
#
# Total GULP energy -89480.735497 kJ/mol
# GULP energy per Si atom -5592.545969 kJ/mol
# Density = 2.275728 g / cm^3
# Si number density = 22.809197 Si / 1000 Ang^3
#
#
#
# Elastic Constant Matrix: (Units=GPa)
#
#
# Indices 1 2 3 4 5 6 
#
# 1 163.1691 70.7256 62.9349 0.0036 16.8113 -0.0015
# 2 70.7256 172.7888 48.0028 0.0169 23.9163 0.0049
# 3 62.9349 48.0028 75.5086 0.0226 23.2329 0.0039
# 4 0.0036 0.0169 0.0226 49.2562 0.0084 8.3226
# 5 16.8113 23.9163 23.2329 0.0084 37.6465 -0.0013
# 6 -0.0015 0.0049 0.0039 8.3226 -0.0013 43.1994
#
#
#
# Elastic Compliance Matrix: (Units=1/GPa)
#
#
# Indices 1 2 3 4 5 6 
#
# 1 0.009671 -0.002182 -0.007124 0.000003 0.001464 0.000001
# 2 -0.002182 0.007659 -0.002287 -0.000001 -0.002480 -0.000001
# 3 -0.007124 -0.002287 0.023712 -0.000008 -0.009999 -0.000001
# 4 0.000003 -0.000001 -0.000008 0.020985 -0.000001 -0.004043
# 5 0.001464 -0.002480 -0.009999 -0.000001 0.033655 0.000002
# 6 0.000001 -0.000001 -0.000001 -0.004043 0.000002 0.023927
#
#
# Mechanical properties :
#
#
# Convention : Reuss Voigt Hill
#
# Bulk Modulus (GPa) = 56.00576 86.08812 71.04694
# Shear Modulus (GPa) = 33.61349 41.34064 37.47706
#
# Velocity S-wave (km/s) = 3.84302 4.26191 4.05788
# Velocity P-wave (km/s) = 6.65575 7.87675 7.29185
#
# Compressibility (1/GPa) = 0.01785531
#
# Stress axis : x y z
#
# Youngs Moduli (GPa) = 103.39721 130.55975 42.17255
#
# Poissons Ratio (x) = 0.28490 0.30044
# Poissons Ratio (y) = 0.22563 0.09647
# Poissons Ratio (z) = 0.73662 0.29865
#
# Static dielectric constant tensor:
#      x y z
#    x 1.768210 0.000000 -0.056070 
#    y 0.000000 1.839850 -0.000010 
#    z -0.056070 -0.000010 1.906110 
# 
# From -- ./inp_files/85303.got.cif
#   From: 2010.05.17/outbox.cif.g08.bks.cpg/sg15_43_cif.got.tgz:85303.got - 2010.06.03 18:47:42.
