data_PCOD9308731
_publ_section_title
;
Structure prediction by ZEFSAII (Michael W. Deem and Ramdas Pophale) SiO2 
 PCOD9308731
Probable space group: C 2/C
;
_chemical_formula_sum "Si O2"
_cell_formula_units_Z 28
_cell_length_a 18.000000
_cell_length_b 12.000000
_cell_length_c 18.000000
_cell_angle_alpha 90.000000
_cell_angle_beta 50.000000
_cell_angle_gamma 90.000000
_cell_volume 2978.380795
_symmetry_space_group_name_H-M "C 2/C"
_symmetry_group_IT_number 15
_symmetry_cell_setting 'monoclinic'
loop_
_space_group_symop_operation_xyz
x,y,z
-x,y,1/2-z
-x,-y,-z
x,-y,1/2+z
1/2+x,1/2+y,z
1/2-x,1/2+y,1/2-z
1/2-x,1/2-y,-z
1/2+x,1/2-y,1/2+z
loop_
_atom_site_type_symbol
_atom_site_label
_atom_site_fract_x
_atom_site_fract_y
_atom_site_fract_z
Si Si1 0.332631 0.063790 0.302099
Si Si2 0.708927 0.620210 0.689028
Si Si3 0.933118 0.576904 0.990039
Si Si4 0.480343 0.751948 0.680650
Si Si5 0.875760 0.663224 0.702223
Si Si6 0.757015 0.877107 0.796588
Si Si7 0.168630 0.374302 0.528191
O O1 0.433747 0.126222 0.221546
O O2 0.263404 0.103602 0.278716
O O3 0.304302 0.100935 0.403302
O O4 0.352486 0.934115 0.276107
O O5 0.613730 0.680438 0.783920
O O6 0.805090 0.639688 0.677016
O O7 0.695526 0.488553 0.701553
O O8 0.741783 0.652974 0.584393
O O9 0.877735 0.489971 0.972319
O O10 0.012315 0.653538 0.896385
O O11 0.848413 0.634757 0.094454
O O12 0.000000 0.500000 0.000000
O O13 0.500000 0.704223 0.750000
O O14 0.583648 0.779495 0.576796
O O15 0.832536 0.778225 0.759225
#
# Coordination Sequence:
#
# PCOD9308731 Si02
#       7
#     8   8   8   8   8   8   8
#     4  10  19  33  56  88 107 138 189 234 274 308
#     4  10  21  35  57  81 111 151 181 223 288 333
#     4  11  18  36  59  84 106 150 193 221 273 334
#     4  10  19  33  57  83 112 139 181 234 278 323
#     4  11  20  34  60  81 114 144 187 235 268 331
#     4  10  21  37  57  83 115 148 187 223 280 337
#     4  10  20  35  60  87 110 139 192 241 266 325
#
# _framework density 9.4010809999999996
#
# number of rings (size 3 to 8) (size 9 to 14) (size 15 to 20)
#    0.000    1.714    7.143    0.000    0.000    2.286 
#    0.000    2.857    9.429    2.571    0.000    0.000 
#    0.000    0.000    0.000    0.000    0.000    0.000 
#
# Total GULP energy -155990.659690 kJ/mol
# GULP energy per Si atom -5571.094989 kJ/mol
# Density = 0.937968 g / cm^3
# Si number density = 9.401081 Si / 1000 Ang^3
#
#
#
# Elastic Constant Matrix: (Units=GPa)
#
#
# Indices 1 2 3 4 5 6 
#
# 1 54.5677 24.8174 27.6918 0.0000 -2.5565 0.0000
# 2 24.8174 125.8148 58.5714 0.0000 -17.3204 0.0000
# 3 27.6918 58.5714 97.2338 0.0000 -4.4559 0.0000
# 4 0.0000 0.0000 0.0000 26.1185 0.0000 -14.2334
# 5 -2.5565 -17.3204 -4.4559 0.0000 30.8773 0.0000
# 6 0.0000 0.0000 0.0000 -14.2334 0.0000 26.3058
#
#
#
# Elastic Compliance Matrix: (Units=1/GPa)
#
#
# Indices 1 2 3 4 5 6 
#
# 1 0.021763 -0.001959 -0.005019 0.000000 -0.000021 0.000000
# 2 -0.001959 0.012145 -0.006496 0.000000 0.005713 0.000000
# 3 -0.005019 -0.006496 0.015544 0.000000 -0.001816 0.000000
# 4 0.000000 0.000000 0.000000 0.054297 0.000000 0.029379
# 5 -0.000021 0.005713 -0.001816 0.000000 0.035327 0.000000
# 6 0.000000 0.000000 0.000000 0.029379 0.000000 0.053911
#
#
# Mechanical properties :
#
#
# Convention : Reuss Voigt Hill
#
# Bulk Modulus (GPa) = 44.43777 55.53082 49.98430
# Shear Modulus (GPa) = 21.98411 27.76271 24.87341
#
# Velocity S-wave (km/s) = 3.42311 3.84678 3.64112
# Velocity P-wave (km/s) = 6.26971 7.02344 6.65725
#
# Compressibility (1/GPa) = 0.02250338
#
# Stress axis : x y z
#
# Youngs Moduli (GPa) = 45.94987 82.33530 64.33451
#
# Poissons Ratio (x) = 0.16133 0.32287
# Poissons Ratio (y) = 0.09003 0.41794
# Poissons Ratio (z) = 0.23061 0.53488
#
# Static dielectric constant tensor:
#      x y z
#    x 1.701690 0.000000 0.028320 
#    y 0.000000 1.715570 0.000000 
#    z 0.028320 0.000000 1.678480 
# 
# From -- ./inp_files/210554.got.cif
#   From: 2010.05.17/outbox.ucp.g08.bks.cvg/sg15_106_cif.got.tgz:210554.got - 2010.06.11 12:40:34.
