data_PCOD9308291
_publ_section_title
;
Structure prediction by ZEFSAII (Michael W. Deem and Ramdas Pophale) SiO2 
 PCOD9308291
Probable space group: C 2/C
;
_chemical_formula_sum "Si O2"
_cell_formula_units_Z 28
_cell_length_a 14.366272
_cell_length_b 14.675627
_cell_length_c 8.493886
_cell_angle_alpha 90.000000
_cell_angle_beta 147.745153
_cell_angle_gamma 90.000000
_cell_volume 955.725197
_symmetry_space_group_name_H-M "C 2/C"
_symmetry_group_IT_number 15
_symmetry_cell_setting 'monoclinic'
loop_
_space_group_symop_operation_xyz
x,y,z
-x,y,1/2-z
-x,-y,-z
x,-y,1/2+z
1/2+x,1/2+y,z
1/2-x,1/2+y,1/2-z
1/2-x,1/2-y,-z
1/2+x,1/2-y,1/2+z
loop_
_atom_site_type_symbol
_atom_site_label
_atom_site_fract_x
_atom_site_fract_y
_atom_site_fract_z
Si Si1 0.150186 0.549992 0.725325
Si Si2 0.000000 0.313150 0.250000
Si Si3 0.500000 0.563150 0.750000
Si Si4 0.000000 0.625000 0.250000
Si Si5 0.325139 0.700008 0.725325
O O1 0.128790 0.621342 0.837696
O O2 0.190883 0.625000 0.631766
O O3 0.960107 0.541833 0.341002
O O4 0.332575 0.497003 0.977251
O O5 0.105325 0.252997 0.522750
O O6 0.458907 0.628658 0.837698
O O7 0.869105 0.708167 0.158998
#
# Coordination Sequence:
#
# PCOD9308291 Si02
#       5
#     8   4   4   4   8
#     4  12  27  57  85 131 169 239 282 378 430 541
#     4  12  29  57  95 123 182 226 306 352 459 515
#     4  12  29  57  95 123 182 226 306 352 459 515
#     4  12  26  54  88 114 192 212 302 356 458 502
#     4  12  27  57  85 131 169 239 282 378 430 541
#
# _framework density 29.297125000000001
#
# number of rings (size 3 to 8) (size 9 to 14) (size 15 to 20)
#    0.000    0.000    5.714    1.714    0.000    3.429 
#   20.571    0.000    0.000    0.000    0.000    0.000 
#    0.000    0.000    0.000    0.000    0.000    0.000 
#
# Total GULP energy -78634.501174 kJ/mol
# GULP energy per Si atom -5616.750084 kJ/mol
# Density = 2.923044 g / cm^3
# Si number density = 29.297125 Si / 1000 Ang^3
#
#
#
# Elastic Constant Matrix: (Units=GPa)
#
#
# Indices 1 2 3 4 5 6 
#
# 1 306.7933 166.0026 154.4145 0.0000 -0.2660 0.0000
# 2 166.0026 324.3874 194.7210 0.0000 1.6588 0.0000
# 3 154.4145 194.7210 251.3203 0.0000 -2.9383 0.0000
# 4 0.0000 0.0000 0.0000 64.9195 0.0000 -3.4164
# 5 -0.2660 1.6588 -2.9383 0.0000 73.7304 0.0000
# 6 0.0000 0.0000 0.0000 -3.4164 0.0000 124.0564
#
#
#
# Elastic Compliance Matrix: (Units=1/GPa)
#
#
# Indices 1 2 3 4 5 6 
#
# 1 0.005012 -0.001338 -0.002043 0.000000 -0.000033 0.000000
# 2 -0.001338 0.006127 -0.003929 0.000000 -0.000299 0.000000
# 3 -0.002043 -0.003929 0.008283 0.000000 0.000411 0.000000
# 4 0.000000 0.000000 0.000000 0.015426 0.000000 0.000425
# 5 -0.000033 -0.000299 0.000411 0.000000 0.013586 0.000000
# 6 0.000000 0.000000 0.000000 0.000425 0.000000 0.008073
#
#
# Mechanical properties :
#
#
# Convention : Reuss Voigt Hill
#
# Bulk Modulus (GPa) = 208.22720 212.53079 210.37899
# Shear Modulus (GPa) = 68.75021 77.03212 72.89116
#
# Velocity S-wave (km/s) = 4.84948 5.13327 4.99339
# Velocity P-wave (km/s) = 10.12844 10.38435 10.25719
#
# Compressibility (1/GPa) = 0.00480245
#
# Stress axis : x y z
#
# Youngs Moduli (GPa) = 199.52761 163.20003 120.73216
#
# Poissons Ratio (x) = 0.21842 0.24663
# Poissons Ratio (y) = 0.26704 0.47432
# Poissons Ratio (z) = 0.40759 0.64116
#
# Static dielectric constant tensor:
#      x y z
#    x 2.271690 0.000000 -0.009220 
#    y 0.000000 2.295790 0.000000 
#    z -0.009220 0.000000 2.112050 
# 
# From -- ./inp_files/27531.got.cif
#   From: 2010.05.17/outbox.cif.g08.bks.cpg/sg15_14_cif.got.tgz:27531.got - 2010.06.03 18:47:42.
