data_PCOD9308329
_publ_section_title
;
Structure prediction by ZEFSAII (Michael W. Deem and Ramdas Pophale) SiO2 
 PCOD9308329
Probable space group: C 2/C
;
_chemical_formula_sum "Si O2"
_cell_formula_units_Z 32
_cell_length_a 9.353167
_cell_length_b 17.862205
_cell_length_c 12.386007
_cell_angle_alpha 90.000000
_cell_angle_beta 37.767342
_cell_angle_gamma 90.000000
_cell_volume 1267.361120
_symmetry_space_group_name_H-M "C 2/C"
_symmetry_group_IT_number 15
_symmetry_cell_setting 'monoclinic'
loop_
_space_group_symop_operation_xyz
x,y,z
-x,y,1/2-z
-x,-y,-z
x,-y,1/2+z
1/2+x,1/2+y,z
1/2-x,1/2+y,1/2-z
1/2-x,1/2-y,-z
1/2+x,1/2-y,1/2+z
loop_
_atom_site_type_symbol
_atom_site_label
_atom_site_fract_x
_atom_site_fract_y
_atom_site_fract_z
Si Si1 0.348580 0.071726 0.057104
Si Si2 0.727691 0.482939 0.938455
Si Si3 0.651794 0.801138 0.258142
Si Si4 0.652715 0.657155 0.381741
O O1 0.243054 0.109874 0.225693
O O2 0.501445 0.135117 0.905918
O O3 0.500000 0.000000 0.000000
O O4 0.183474 0.032433 0.068930
O O5 0.733609 0.391973 0.936581
O O6 0.000000 0.503333 0.750000
O O7 0.500000 0.500000 0.000000
O O8 0.500000 0.765606 0.250000
O O9 0.726399 0.740834 0.303847
O O10 0.876713 0.834622 0.065240
#
# Coordination Sequence:
#
# PCOD9308329 Si02
#       4
#     8   8   8   8
#     4  12  27  52  83 121 167 220 280 354 423 498
#     4  12  27  50  80 123 166 214 284 341 421 507
#     4  12  27  49  77 121 163 222 288 334 414 523
#     4  12  27  49  81 117 164 213 285 346 413 489
#
# _framework density 25.249316
#
# number of rings (size 3 to 8) (size 9 to 14) (size 15 to 20)
#    0.000    0.000    5.000    4.500    3.500    0.000 
#    0.000    5.000    0.000    0.000    0.000    0.000 
#    0.000    0.000    0.000    0.000    0.000    0.000 
#
# Total GULP energy -89405.014149 kJ/mol
# GULP energy per Si atom -5587.813384 kJ/mol
# Density = 2.519185 g / cm^3
# Si number density = 25.249316 Si / 1000 Ang^3
#
#
#
# Elastic Constant Matrix: (Units=GPa)
#
#
# Indices 1 2 3 4 5 6 
#
# 1 70.4623 37.5358 24.6230 -0.0006 -11.2592 0.0003
# 2 37.5358 188.6479 46.5214 -0.0010 21.1684 -0.0001
# 3 24.6230 46.5214 191.5276 -0.0079 1.8601 0.0006
# 4 -0.0006 -0.0010 -0.0079 20.6620 0.0029 12.0025
# 5 -11.2592 21.1684 1.8601 0.0029 37.3356 -0.0001
# 6 0.0003 -0.0001 0.0006 12.0025 -0.0001 51.3289
#
#
#
# Elastic Compliance Matrix: (Units=1/GPa)
#
#
# Indices 1 2 3 4 5 6 
#
# 1 0.018157 -0.004153 -0.001402 -0.000001 0.007900 0.000000
# 2 -0.004153 0.006980 -0.001111 0.000001 -0.005155 0.000000
# 3 -0.001402 -0.001111 0.005672 0.000002 -0.000075 -0.000001
# 4 -0.000001 0.000001 0.000002 0.056005 -0.000005 -0.013096
# 5 0.007900 -0.005155 -0.000075 -0.000005 0.032093 0.000001
# 6 0.000000 0.000000 -0.000001 -0.013096 0.000001 0.022545
#
#
# Mechanical properties :
#
#
# Convention : Reuss Voigt Hill
#
# Bulk Modulus (GPa) = 57.22477 74.22200 65.72338
# Shear Modulus (GPa) = 31.13124 44.66247 37.89686
#
# Velocity S-wave (km/s) = 3.51515 4.21034 3.87836
# Velocity P-wave (km/s) = 6.26005 7.28666 6.79278
#
# Compressibility (1/GPa) = 0.01747495
#
# Stress axis : x y z
#
# Youngs Moduli (GPa) = 55.07538 143.27142 176.30125
#
# Poissons Ratio (x) = 0.59507 0.24720
# Poissons Ratio (y) = 0.22875 0.19593
# Poissons Ratio (z) = 0.07722 0.15922
#
# Static dielectric constant tensor:
#      x y z
#    x 5.884100 0.000100 0.663180 
#    y 0.000100 2.059490 0.000020 
#    z 0.663180 0.000020 2.129740 
# 
# From -- ./inp_files/145340.got.cif
#   From: 2010.05.17/outbox.cif.g08.bks.cpg/sg15_73_cif.got.tgz:145340.got - 2010.06.03 18:47:42.
