data_PCOD9308030
_publ_section_title
;
Structure prediction by ZEFSAII (Michael W. Deem and Ramdas Pophale) SiO2 
 PCOD9308030
Probable space group: C 2/C
;
_chemical_formula_sum "Si O2"
_cell_formula_units_Z 28
_cell_length_a 14.617497
_cell_length_b 4.888542
_cell_length_c 16.557361
_cell_angle_alpha 90.000000
_cell_angle_beta 64.975420
_cell_angle_gamma 90.000000
_cell_volume 1072.092519
_symmetry_space_group_name_H-M "C 2/C"
_symmetry_group_IT_number 15
_symmetry_cell_setting 'monoclinic'
loop_
_space_group_symop_operation_xyz
x,y,z
-x,y,1/2-z
-x,-y,-z
x,-y,1/2+z
1/2+x,1/2+y,z
1/2-x,1/2+y,1/2-z
1/2-x,1/2-y,-z
1/2+x,1/2-y,1/2+z
loop_
_atom_site_type_symbol
_atom_site_label
_atom_site_fract_x
_atom_site_fract_y
_atom_site_fract_z
Si Si1 0.184547 0.534749 0.290718
Si Si2 0.368168 0.756890 0.939871
Si Si3 0.916479 0.731430 0.011466
Si Si4 0.500000 0.147540 0.250000
O O1 0.239574 0.246377 0.281087
O O2 0.158168 0.679650 0.385555
O O3 0.080993 0.500392 0.278679
O O4 0.425756 0.682643 0.836335
O O5 0.250000 0.750000 0.000000
O O6 0.418559 0.548344 0.986381
O O7 0.380938 0.085263 0.942265
O O8 0.000000 0.500000 0.000000
#
# Coordination Sequence:
#
# PCOD9308030 Si02
#       4
#     8   8   8   4
#     4  12  28  49  76 113 151 201 261 319 387 472
#     4  12  27  48  76 114 150 205 261 323 388 478
#     4  12  25  49  74 102 158 198 250 316 402 454
#     4  12  28  48  82 110 158 198 264 322 392 452
#
# _framework density 26.117148
#
# number of rings (size 3 to 8) (size 9 to 14) (size 15 to 20)
#    0.000    0.000    2.857    6.857    4.000    4.571 
#    0.000    0.000    0.000    0.000    0.000    0.000 
#    0.000    0.000    0.000    0.000    0.000    0.000 
#
# Total GULP energy -78041.066144 kJ/mol
# GULP energy per Si atom -5574.361867 kJ/mol
# Density = 2.605770 g / cm^3
# Si number density = 26.117148 Si / 1000 Ang^3
#
#
#
# Elastic Constant Matrix: (Units=GPa)
#
#
# Indices 1 2 3 4 5 6 
#
# 1 138.3604 36.9603 24.0149 -0.0012 -17.8795 -0.0020
# 2 36.9603 191.3686 28.6856 -0.0036 -10.7792 -0.0007
# 3 24.0149 28.6856 171.0218 0.0006 -17.3568 0.0010
# 4 -0.0012 -0.0036 0.0006 24.3757 -0.0002 5.2021
# 5 -17.8795 -10.7792 -17.3568 -0.0002 29.8382 -0.0007
# 6 -0.0020 -0.0007 0.0010 5.2021 -0.0007 26.2219
#
#
#
# Elastic Compliance Matrix: (Units=1/GPa)
#
#
# Indices 1 2 3 4 5 6 
#
# 1 0.008193 -0.001271 -0.000516 0.000000 0.004150 0.000001
# 2 -0.001271 0.005622 -0.000675 0.000001 0.000876 0.000000
# 3 -0.000516 -0.000675 0.006352 0.000000 0.003142 0.000000
# 4 0.000000 0.000001 0.000000 0.042838 0.000000 -0.008499
# 5 0.004150 0.000876 0.003142 0.000000 0.038145 0.000001
# 6 0.000001 0.000000 0.000000 -0.008499 0.000001 0.039822
#
#
# Mechanical properties :
#
#
# Convention : Reuss Voigt Hill
#
# Bulk Modulus (GPa) = 65.61341 75.56361 70.58851
# Shear Modulus (GPa) = 33.11756 43.49316 38.30536
#
# Velocity S-wave (km/s) = 3.56482 4.08525 3.83387
# Velocity P-wave (km/s) = 6.49008 7.15875 6.83260
#
# Compressibility (1/GPa) = 0.01524079
#
# Stress axis : x y z
#
# Youngs Moduli (GPa) = 122.05648 177.88378 157.43553
#
# Poissons Ratio (x) = 0.22613 0.08125
# Poissons Ratio (y) = 0.15516 0.10635
# Poissons Ratio (z) = 0.06299 0.12016
#
# Static dielectric constant tensor:
#      x y z
#    x 3.092750 -0.000040 0.139770 
#    y -0.000040 2.132660 0.000000 
#    z 0.139770 0.000000 2.183780 
# 
# From -- ./inp_files/157975.got.cif
#   From: 2010.05.17/outbox.cif.g08.bks.cpg/sg15_79_cif.got.tgz:157975.got - 2010.06.03 18:47:42.
