data_PCOD9308915
_publ_section_title
;
Structure prediction by ZEFSAII (Michael W. Deem and Ramdas Pophale) SiO2 
 PCOD9308915
Probable space group: C 2/C
;
_chemical_formula_sum "Si O2"
_cell_formula_units_Z 32
_cell_length_a 24.000000
_cell_length_b 30.000000
_cell_length_c 9.000000
_cell_angle_alpha 90.000000
_cell_angle_beta 30.000000
_cell_angle_gamma 90.000000
_cell_volume 3240.000000
_symmetry_space_group_name_H-M "C 2/C"
_symmetry_group_IT_number 15
_symmetry_cell_setting 'monoclinic'
loop_
_space_group_symop_operation_xyz
x,y,z
-x,y,1/2-z
-x,-y,-z
x,-y,1/2+z
1/2+x,1/2+y,z
1/2-x,1/2+y,1/2-z
1/2-x,1/2-y,-z
1/2+x,1/2-y,1/2+z
loop_
_atom_site_type_symbol
_atom_site_label
_atom_site_fract_x
_atom_site_fract_y
_atom_site_fract_z
Si Si1 0.875351 0.839939 0.694183
Si Si2 0.950831 0.542260 0.702125
Si Si3 0.413274 0.186140 0.827657
Si Si4 0.617826 0.347436 0.262149
Si Si5 0.310570 0.729354 0.124992
Si Si6 0.037413 0.627212 0.329644
Si Si7 0.757606 0.397522 0.732067
Si Si8 0.748809 0.672858 0.726428
O O1 0.883120 0.792898 0.588111
O O2 0.828308 0.877406 0.691280
O O3 0.992024 0.851697 0.497854
O O4 0.781850 0.834928 0.033817
O O5 0.000000 0.536924 0.750000
O O6 0.000000 0.500000 0.500000
O O7 0.004583 0.585004 0.500443
O O8 0.820849 0.557857 0.030900
O O9 0.500000 0.201806 0.750000
O O10 0.474939 0.170379 0.538548
O O11 0.316578 0.221365 0.028264
O O12 0.353760 0.140608 0.023213
O O13 0.638823 0.333989 0.382607
O O14 0.668074 0.304213 0.060223
O O15 0.686144 0.391079 0.047432
O O16 0.312264 0.779997 0.072461
O O17 0.000000 0.619268 0.250000
O O18 0.166848 0.636697 0.030675
#
# Coordination Sequence:
#
# PCOD9308915 Si02
#       8
#     8   8   8   8   8   8   8   8
#     4  10  21  36  52  74 107 149 196 240 277 324
#     4  11  22  38  62  92 118 140 168 212 276 351
#     4   9  17  32  50  69 101 142 182 228 278 330
#     4  10  20  36  54  75 104 148 199 241 277 325
#     4  10  21  34  47  70 103 146 195 240 284 330
#     4  11  21  35  54  80 112 149 180 221 283 344
#     4   9  18  37  57  78 107 142 177 213 268 338
#     4  12  22  32  49  78 109 142 190 245 286 324
#
# _framework density 9.8765429999999999
#
# number of rings (size 3 to 8) (size 9 to 14) (size 15 to 20)
#    0.000    2.000    0.000    9.000    0.000    3.000 
#    0.000    0.000    0.000    0.000    0.000   15.750 
#    0.000    0.000    0.000    0.000    0.000    0.000 
#
# Total GULP energy -178278.764493 kJ/mol
# GULP energy per Si atom -5571.211390 kJ/mol
# Density = 0.985406 g / cm^3
# Si number density = 9.876543 Si / 1000 Ang^3
#
#
#
# Elastic Constant Matrix: (Units=GPa)
#
#
# Indices 1 2 3 4 5 6 
#
# 1 91.1298 12.8586 27.0787 0.0000 3.8548 0.0000
# 2 12.8586 53.9084 25.5789 0.0000 3.1002 0.0000
# 3 27.0787 25.5789 74.6480 0.0000 -7.6596 -0.0001
# 4 0.0000 0.0000 0.0000 22.3053 0.0000 11.9650
# 5 3.8548 3.1002 -7.6596 0.0000 35.8741 0.0000
# 6 0.0000 0.0000 -0.0001 11.9650 0.0000 44.8696
#
#
#
# Elastic Compliance Matrix: (Units=1/GPa)
#
#
# Indices 1 2 3 4 5 6 
#
# 1 0.012514 -0.000707 -0.004528 0.000000 -0.002250 0.000000
# 2 -0.000707 0.022659 -0.007874 0.000000 -0.003563 0.000000
# 3 -0.004528 -0.007874 0.018256 0.000000 0.005065 0.000000
# 4 0.000000 0.000000 0.000000 0.052316 0.000000 -0.013951
# 5 -0.002250 -0.003563 0.005065 0.000000 0.029506 0.000000
# 6 0.000000 0.000000 0.000000 -0.013951 0.000000 0.026007
#
#
# Mechanical properties :
#
#
# Convention : Reuss Voigt Hill
#
# Bulk Modulus (GPa) = 36.74801 38.96874 37.85838
# Shear Modulus (GPa) = 25.43920 30.88780 28.16350
#
# Velocity S-wave (km/s) = 3.59257 3.95865 3.78004
# Velocity P-wave (km/s) = 5.98772 6.37693 6.18539
#
# Compressibility (1/GPa) = 0.02721235
#
# Stress axis : x y z
#
# Youngs Moduli (GPa) = 79.91182 44.13163 54.77511
#
# Poissons Ratio (x) = 0.03120 0.24803
# Poissons Ratio (y) = 0.05649 0.43128
# Poissons Ratio (z) = 0.36185 0.34748
#
# Static dielectric constant tensor:
#      x y z
#    x 1.775040 0.000000 0.018320 
#    y 0.000000 1.688760 0.000000 
#    z 0.018320 0.000000 1.769650 
# 
# From -- ./inp_files/64202.got.cif
#   From: 2010.05.17/outbox.ucp.g08.bks.cvg/sg15_33_cif.got.tgz:64202.got - 2010.06.11 12:40:34.
