data_PCOD9308124
_publ_section_title
;
Structure prediction by ZEFSAII (Michael W. Deem and Ramdas Pophale) SiO2 
 PCOD9308124
Probable space group: C 2/C
;
_chemical_formula_sum "Si O2"
_cell_formula_units_Z 28
_cell_length_a 22.923614
_cell_length_b 7.577168
_cell_length_c 19.027929
_cell_angle_alpha 90.000000
_cell_angle_beta 16.254143
_cell_angle_gamma 90.000000
_cell_volume 925.085755
_symmetry_space_group_name_H-M "C 2/C"
_symmetry_group_IT_number 15
_symmetry_cell_setting 'monoclinic'
loop_
_space_group_symop_operation_xyz
x,y,z
-x,y,1/2-z
-x,-y,-z
x,-y,1/2+z
1/2+x,1/2+y,z
1/2-x,1/2+y,1/2-z
1/2-x,1/2-y,-z
1/2+x,1/2-y,1/2+z
loop_
_atom_site_type_symbol
_atom_site_label
_atom_site_fract_x
_atom_site_fract_y
_atom_site_fract_z
Si Si1 0.500000 0.500000 0.000000
Si Si2 0.557313 0.545150 0.262060
Si Si3 0.845540 0.380048 0.722048
Si Si4 0.589616 0.940929 0.052089
O O1 0.290900 0.610581 0.271059
O O2 0.367164 0.316069 0.170659
O O3 0.500000 0.490079 0.250000
O O4 0.387716 0.463332 0.513340
O O5 0.531163 0.756667 0.296930
O O6 0.786644 0.496064 0.021897
O O7 0.000000 0.500000 0.500000
O O8 0.932467 0.419249 0.699699
#
# Coordination Sequence:
#
# PCOD9308124 Si02
#       4
#     4   8   8   8
#     4  12  28  50  78 122 162 210 286 352 414 492
#     4  12  26  50  82 125 171 227 281 345 424 501
#     4  12  27  50  79 120 165 215 288 351 419 500
#     4  12  26  46  82 121 167 222 279 346 418 499
#
# _framework density 30.267464
#
# number of rings (size 3 to 8) (size 9 to 14) (size 15 to 20)
#    0.000    0.000    5.714    2.571    8.000    0.000 
#    0.000    4.286    0.000    0.000    0.000    0.000 
#    0.000    0.000    0.000    0.000    0.000    0.000 
#
# Total GULP energy -78422.082197 kJ/mol
# GULP energy per Si atom -5601.577300 kJ/mol
# Density = 3.019857 g / cm^3
# Si number density = 30.267464 Si / 1000 Ang^3
#
#
#
# Elastic Constant Matrix: (Units=GPa)
#
#
# Indices 1 2 3 4 5 6 
#
# 1 130.0497 49.3130 32.5048 -0.0020 -31.6937 0.0001
# 2 49.3130 200.7750 57.2387 -0.0032 -15.2436 0.0013
# 3 32.5048 57.2387 201.7041 -0.0058 -30.7142 0.0036
# 4 -0.0020 -0.0032 -0.0058 51.1252 0.0036 -7.2434
# 5 -31.6937 -15.2436 -30.7142 0.0036 80.3955 -0.0016
# 6 0.0001 0.0013 0.0036 -7.2434 -0.0016 48.5144
#
#
#
# Elastic Compliance Matrix: (Units=1/GPa)
#
#
# Indices 1 2 3 4 5 6 
#
# 1 0.009293 -0.001909 -0.000481 0.000000 0.003118 0.000000
# 2 -0.001909 0.005828 -0.001372 0.000000 -0.000172 0.000000
# 3 -0.000481 -0.001372 0.005687 0.000000 0.001723 0.000000
# 4 0.000000 0.000000 0.000000 0.019983 -0.000001 0.002983
# 5 0.003118 -0.000172 0.001723 -0.000001 0.014293 0.000000
# 6 0.000000 0.000000 0.000000 0.002983 0.000000 0.021058
#
#
# Mechanical properties :
#
#
# Convention : Reuss Voigt Hill
#
# Bulk Modulus (GPa) = 75.28077 90.07135 82.67606
# Shear Modulus (GPa) = 56.75767 62.23850 59.49809
#
# Velocity S-wave (km/s) = 4.33506 4.53955 4.43848
# Velocity P-wave (km/s) = 7.06985 7.56966 7.32402
#
# Compressibility (1/GPa) = 0.01328361
#
# Stress axis : x y z
#
# Youngs Moduli (GPa) = 107.60554 171.59488 175.83737
#
# Poissons Ratio (x) = 0.32751 0.08462
# Poissons Ratio (y) = 0.20538 0.24131
# Poissons Ratio (z) = 0.05178 0.23548
#
# Static dielectric constant tensor:
#      x y z
#    x 2.421740 0.000000 0.027950 
#    y 0.000000 2.000280 0.000000 
#    z 0.027950 0.000000 2.272150 
# 
# From -- ./inp_files/97635.got.cif
#   From: 2010.05.17/outbox.cif.g08.bks.cpg/sg15_49_cif.got.tgz:97635.got - 2010.06.03 18:47:42.
