data_PCOD9308025
_publ_section_title
;
Structure prediction by ZEFSAII (Michael W. Deem and Ramdas Pophale) SiO2 
 PCOD9308025
Probable space group: C 2/C
;
_chemical_formula_sum "Si O2"
_cell_formula_units_Z 24
_cell_length_a 12.441421
_cell_length_b 8.854393
_cell_length_c 7.735442
_cell_angle_alpha 90.000000
_cell_angle_beta 97.799749
_cell_angle_gamma 90.000000
_cell_volume 844.262131
_symmetry_space_group_name_H-M "C 2/C"
_symmetry_group_IT_number 15
_symmetry_cell_setting 'monoclinic'
loop_
_space_group_symop_operation_xyz
x,y,z
-x,y,1/2-z
-x,-y,-z
x,-y,1/2+z
1/2+x,1/2+y,z
1/2-x,1/2+y,1/2-z
1/2-x,1/2-y,-z
1/2+x,1/2-y,1/2+z
loop_
_atom_site_type_symbol
_atom_site_label
_atom_site_fract_x
_atom_site_fract_y
_atom_site_fract_z
Si Si1 0.000000 0.613762 0.750000
Si Si2 0.241222 0.524025 0.797652
Si Si3 0.044039 0.837859 0.065908
Si Si4 0.750000 0.250000 0.500000
O O1 0.111421 0.523555 0.796594
O O2 0.000476 0.715606 0.577034
O O3 0.327852 0.636652 0.906028
O O4 0.277867 0.350856 0.830888
O O5 0.248699 0.589713 0.604124
O O6 0.000000 0.806355 0.250000
O O7 0.000000 0.000000 0.000000
#
# Coordination Sequence:
#
# PCOD9308025 Si02
#       4
#     4   8   8   4
#     4  12  28  50  86 124 172 228 292 360 428 524
#     4  12  29  58  83 131 173 230 287 362 437 522
#     4  12  25  48  87 122 171 229 287 356 438 517
#     4  12  32  54  92 120 182 224 294 358 434 520
#
# _framework density 28.427188000000001
#
# number of rings (size 3 to 8) (size 9 to 14) (size 15 to 20)
#    0.000    0.000    1.667    7.000    9.333    1.333 
#    9.000    0.000    0.000    0.000    0.000    0.000 
#    0.000    0.000    0.000    0.000    0.000    0.000 
#
# Total GULP energy -66825.801502 kJ/mol
# GULP energy per Si atom -5568.816792 kJ/mol
# Density = 2.836249 g / cm^3
# Si number density = 28.427188 Si / 1000 Ang^3
#
#
#
# Elastic Constant Matrix: (Units=GPa)
#
#
# Indices 1 2 3 4 5 6 
#
# 1 205.7393 49.3936 46.7099 0.0000 45.6143 0.0000
# 2 49.3936 99.7442 51.4845 0.0000 -12.6312 0.0000
# 3 46.7099 51.4845 152.3818 0.0000 -10.2922 0.0000
# 4 0.0000 0.0000 0.0000 58.8037 0.0000 2.6808
# 5 45.6143 -12.6312 -10.2922 0.0000 56.8005 0.0000
# 6 0.0000 0.0000 0.0000 2.6808 0.0000 15.7863
#
#
#
# Elastic Compliance Matrix: (Units=1/GPa)
#
#
# Indices 1 2 3 4 5 6 
#
# 1 0.007833 -0.004027 -0.001545 0.000000 -0.007466 0.000000
# 2 -0.004027 0.014438 -0.003248 0.000000 0.005856 0.000000
# 3 -0.001545 -0.003248 0.008270 0.000000 0.002017 0.000000
# 4 0.000000 0.000000 0.000000 0.017138 0.000000 -0.002910
# 5 -0.007466 0.005856 0.002017 0.000000 0.025269 0.000000
# 6 0.000000 0.000000 0.000000 -0.002910 0.000000 0.063840
#
#
# Mechanical properties :
#
#
# Convention : Reuss Voigt Hill
#
# Bulk Modulus (GPa) = 77.51431 83.67128 80.59279
# Shear Modulus (GPa) = 31.50013 46.96326 39.23170
#
# Velocity S-wave (km/s) = 3.33242 4.06896 3.71897
# Velocity P-wave (km/s) = 6.49104 7.18141 6.84493
#
# Compressibility (1/GPa) = 0.01290084
#
# Stress axis : x y z
#
# Youngs Moduli (GPa) = 127.65792 69.26099 120.92430
#
# Poissons Ratio (x) = 0.27893 0.18681
# Poissons Ratio (y) = 0.51411 0.39278
# Poissons Ratio (z) = 0.19721 0.22497
#
# Static dielectric constant tensor:
#      x y z
#    x 2.361240 0.000000 0.029340 
#    y 0.000000 2.034960 0.000000 
#    z 0.029340 0.000000 2.283690 
# 
# From -- ./inp_files/36161.got.cif
#   From: 2010.05.17/outbox.cif.g08.bks.cpg/sg15_19_cif.got.tgz:36161.got - 2010.06.03 18:47:42.
