data_PCOD9308800
_publ_section_title
;
Structure prediction by ZEFSAII (Michael W. Deem and Ramdas Pophale) SiO2 
 PCOD9308800
Probable space group: C 2/C
;
_chemical_formula_sum "Si O2"
_cell_formula_units_Z 32
_cell_length_a 24.000000
_cell_length_b 15.000000
_cell_length_c 18.000000
_cell_angle_alpha 90.000000
_cell_angle_beta 150.000000
_cell_angle_gamma 90.000000
_cell_volume 3240.000000
_symmetry_space_group_name_H-M "C 2/C"
_symmetry_group_IT_number 15
_symmetry_cell_setting 'monoclinic'
loop_
_space_group_symop_operation_xyz
x,y,z
-x,y,1/2-z
-x,-y,-z
x,-y,1/2+z
1/2+x,1/2+y,z
1/2-x,1/2+y,1/2-z
1/2-x,1/2-y,-z
1/2+x,1/2-y,1/2+z
loop_
_atom_site_type_symbol
_atom_site_label
_atom_site_fract_x
_atom_site_fract_y
_atom_site_fract_z
Si Si1 0.139071 0.257982 0.622209
Si Si2 0.811529 0.397957 0.091652
Si Si3 0.614554 0.269188 0.919194
Si Si4 0.600207 0.939409 0.146427
Si Si5 0.727603 0.456883 0.378094
Si Si6 0.132077 0.317414 0.047199
Si Si7 0.772365 0.937542 0.775028
Si Si8 0.996269 0.155298 0.910019
O O1 0.114323 0.236938 0.507858
O O2 0.252475 0.222552 0.790285
O O3 0.174234 0.362632 0.663156
O O4 0.049437 0.204240 0.568285
O O5 0.864012 0.328664 0.092550
O O6 0.892186 0.418834 0.256293
O O7 0.710682 0.338834 0.008229
O O8 0.765473 0.485107 0.993853
O O9 0.500000 0.301169 0.750000
O O10 0.588308 0.858974 0.074164
O O11 0.719591 0.984705 0.264655
O O12 0.500000 0.000000 0.000000
O O13 0.828180 0.390314 0.467688
O O14 0.713758 0.524438 0.292244
O O15 0.609412 0.400846 0.245390
O O16 0.047551 0.239837 0.923367
O O17 0.893314 0.903393 0.943032
#
# Coordination Sequence:
#
# PCOD9308800 Si02
#       8
#     8   8   8   8   8   8   8   8
#     4  10  19  37  59  92 128 166 207 258 320 395
#     4  11  25  43  60  95 138 166 208 269 332 388
#     4  11  25  36  62  98 136 172 197 254 340 408
#     4  11  23  39  64  88 122 170 214 264 320 385
#     4  10  21  39  61  92 129 168 213 274 325 376
#     4   9  20  38  60  89 123 162 220 262 304 388
#     4  10  21  37  59  92 127 165 223 263 307 391
#     4  10  21  35  67  89 124 175 218 265 320 379
#
# _framework density 9.8765429999999999
#
# number of rings (size 3 to 8) (size 9 to 14) (size 15 to 20)
#    0.000    1.750    2.500    1.125    5.250    1.000 
#    0.000    0.000    0.000   16.500    0.000    0.000 
#    0.000    0.000    0.000    0.000    0.000    0.000 
#
# Total GULP energy -178268.888342 kJ/mol
# GULP energy per Si atom -5570.902761 kJ/mol
# Density = 0.985406 g / cm^3
# Si number density = 9.876543 Si / 1000 Ang^3
#
#
#
# Elastic Constant Matrix: (Units=GPa)
#
#
# Indices 1 2 3 4 5 6 
#
# 1 48.6804 22.0184 34.4082 0.0000 -2.9544 0.0000
# 2 22.0184 95.9738 37.9695 0.0000 -1.5871 0.0000
# 3 34.4082 37.9695 87.7157 0.0000 0.5476 0.0000
# 4 0.0000 0.0000 0.0000 29.1998 0.0000 2.6812
# 5 -2.9544 -1.5871 0.5476 0.0000 28.2486 0.0000
# 6 0.0000 0.0000 0.0000 2.6812 0.0000 28.7953
#
#
#
# Elastic Compliance Matrix: (Units=1/GPa)
#
#
# Indices 1 2 3 4 5 6 
#
# 1 0.029219 -0.002546 -0.010379 0.000000 0.003114 0.000000
# 2 -0.002546 0.012813 -0.004551 0.000000 0.000542 0.000000
# 3 -0.010379 -0.004551 0.017452 0.000000 -0.001680 0.000000
# 4 0.000000 0.000000 0.000000 0.034542 0.000000 -0.003216
# 5 0.003114 0.000542 -0.001680 0.000000 0.035789 0.000000
# 6 0.000000 0.000000 0.000000 -0.003216 0.000000 0.035027
#
#
# Mechanical properties :
#
#
# Convention : Reuss Voigt Hill
#
# Bulk Modulus (GPa) = 40.76262 46.79579 43.77921
# Shear Modulus (GPa) = 24.04173 26.44700 25.24437
#
# Velocity S-wave (km/s) = 3.49250 3.66304 3.57879
# Velocity P-wave (km/s) = 6.07818 6.45231 6.26804
#
# Compressibility (1/GPa) = 0.02453228
#
# Stress axis : x y z
#
# Youngs Moduli (GPa) = 34.22463 78.04533 57.29857
#
# Poissons Ratio (x) = 0.19868 0.59471
# Poissons Ratio (y) = 0.08712 0.26078
# Poissons Ratio (z) = 0.35522 0.35520
#
# Static dielectric constant tensor:
#      x y z
#    x 1.551780 0.000000 -0.067300 
#    y 0.000000 1.775040 0.000000 
#    z -0.067300 0.000000 1.572690 
# 
# From -- ./inp_files/219742.got.cif
#   From: 2010.05.17/outbox.ucp.g08.bks.cvg/sg15_110_cif.got.tgz:219742.got - 2010.06.11 12:40:34.
