data_PCOD9308975
_publ_section_title
;
Structure prediction by ZEFSAII (Michael W. Deem and Ramdas Pophale) SiO2 
 PCOD9308975
Probable space group: C 2/C
;
_chemical_formula_sum "Si O2"
_cell_formula_units_Z 24
_cell_length_a 27.000000
_cell_length_b 15.000000
_cell_length_c 9.000000
_cell_angle_alpha 90.000000
_cell_angle_beta 40.000000
_cell_angle_gamma 90.000000
_cell_volume 2342.960837
_symmetry_space_group_name_H-M "C 2/C"
_symmetry_group_IT_number 15
_symmetry_cell_setting 'monoclinic'
loop_
_space_group_symop_operation_xyz
x,y,z
-x,y,1/2-z
-x,-y,-z
x,-y,1/2+z
1/2+x,1/2+y,z
1/2-x,1/2+y,1/2-z
1/2-x,1/2-y,-z
1/2+x,1/2-y,1/2+z
loop_
_atom_site_type_symbol
_atom_site_label
_atom_site_fract_x
_atom_site_fract_y
_atom_site_fract_z
Si Si1 0.410886 0.399906 0.451561
Si Si2 0.627488 0.413179 0.617019
Si Si3 0.278217 0.033114 0.892549
Si Si4 0.545986 0.074926 0.992648
Si Si5 0.752892 0.372284 0.765993
Si Si6 0.420975 0.784259 0.338416
O O1 0.500000 0.366344 0.250000
O O2 0.394556 0.417601 0.660504
O O3 0.402389 0.496518 0.391295
O O4 0.337224 0.342018 0.555600
O O5 0.721472 0.410552 0.413735
O O6 0.590312 0.322275 0.643611
O O7 0.369162 0.040110 0.655537
O O8 0.252270 0.932767 0.915030
O O9 0.265915 0.065885 0.089151
O O10 0.500000 0.092857 0.250000
O O11 0.561907 0.162475 0.854876
O O12 0.500000 0.000000 0.000000
O O13 0.833617 0.316805 0.587031
O O14 0.500000 0.803344 0.250000
#
# Coordination Sequence:
#
# PCOD9308975 Si02
#       6
#     8   8   8   8   8   8
#     4  10  20  37  62  85 112 150 196 239 294 355
#     4  10  22  39  61  85 113 155 198 246 298 351
#     4   9  18  34  56  81 114 152 195 231 285 352
#     4  11  21  35  59  89 122 159 195 235 289 352
#     4   9  19  34  57  84 112 149 188 235 286 349
#     4  11  23  39  59  86 121 155 197 247 297 350
#
# _framework density 10.243449
#
# number of rings (size 3 to 8) (size 9 to 14) (size 15 to 20)
#    0.000    2.000    0.000    4.500    0.000    6.667 
#    0.000    0.000    0.000   18.000    0.000    0.000 
#    0.000    0.000    0.000    0.000    0.000    0.000 
#
# Total GULP energy -133660.333097 kJ/mol
# GULP energy per Si atom -5569.180546 kJ/mol
# Density = 1.022013 g / cm^3
# Si number density = 10.243449 Si / 1000 Ang^3
#
#
#
# Elastic Constant Matrix: (Units=GPa)
#
#
# Indices 1 2 3 4 5 6 
#
# 1 125.3676 5.2184 40.7222 0.0000 -41.5117 0.0000
# 2 5.2184 22.1587 1.5809 0.0000 -1.4372 0.0000
# 3 40.7222 1.5809 82.7534 0.0000 -44.8082 0.0000
# 4 0.0000 0.0000 0.0000 11.9695 0.0000 -20.4749
# 5 -41.5117 -1.4372 -44.8082 0.0000 44.3541 0.0000
# 6 0.0000 0.0000 0.0000 -20.4749 0.0000 18.5968
#
#
#
# Elastic Compliance Matrix: (Units=1/GPa)
#
#
# Indices 1 2 3 4 5 6 
#
# 1 0.011655 -0.002044 0.000385 0.000000 0.011231 0.000000
# 2 -0.002044 0.045583 -0.000223 0.000000 -0.000661 0.000000
# 3 0.000385 -0.000223 0.026690 0.000000 0.027316 0.000000
# 4 0.000000 0.000000 0.000000 -0.094580 0.000000 -0.104131
# 5 0.011231 -0.000661 0.027316 0.000000 0.060631 0.000000
# 6 0.000000 0.000000 0.000000 -0.104131 0.000000 -0.060875
#
#
# Mechanical properties :
#
#
# Convention : Reuss Voigt Hill
#
# Bulk Modulus (GPa) = 12.47442 36.14697 24.31069
# Shear Modulus (GPa) = 255.22407 27.16795 141.19601
#
# Velocity S-wave (km/s) = 11.17361 3.64553 8.31082
# Velocity P-wave (km/s) = 13.13653 5.94997 10.19732
#
# Compressibility (1/GPa) = 0.08016407
#
# Stress axis : x y z
#
# Youngs Moduli (GPa) = 85.79683 21.93778 37.46782
#
# Poissons Ratio (x) = 0.04484 -0.01441
# Poissons Ratio (y) = 0.17536 0.00836
# Poissons Ratio (z) = -0.03300 0.00489
#
# Static dielectric constant tensor:
#      x y z
#    x 1.751440 0.000000 -0.048890 
#    y 0.000000 1.744240 0.000000 
#    z -0.048890 0.000000 1.801560 
# 
# From -- ./inp_files/66378.got.cif
#   From: 2010.05.17/outbox.ucp.g08.bks.cvg/sg15_34_cif.got.tgz:66378.got - 2010.06.11 12:40:34.
