data_PCOD9308308
_publ_section_title
;
Structure prediction by ZEFSAII (Michael W. Deem and Ramdas Pophale) SiO2 
 PCOD9308308
Probable space group: C 2/C
;
_chemical_formula_sum "Si O2"
_cell_formula_units_Z 36
_cell_length_a 13.829321
_cell_length_b 12.493497
_cell_length_c 14.900862
_cell_angle_alpha 90.000000
_cell_angle_beta 140.495457
_cell_angle_gamma 90.000000
_cell_volume 1637.753598
_symmetry_space_group_name_H-M "C 2/C"
_symmetry_group_IT_number 15
_symmetry_cell_setting 'monoclinic'
loop_
_space_group_symop_operation_xyz
x,y,z
-x,y,1/2-z
-x,-y,-z
x,-y,1/2+z
1/2+x,1/2+y,z
1/2-x,1/2+y,1/2-z
1/2-x,1/2-y,-z
1/2+x,1/2-y,1/2+z
loop_
_atom_site_type_symbol
_atom_site_label
_atom_site_fract_x
_atom_site_fract_y
_atom_site_fract_z
Si Si1 0.339860 0.851034 0.096962
Si Si2 0.726491 0.238142 0.289608
Si Si3 0.970438 0.621240 0.506060
Si Si4 0.632363 0.473709 0.523788
Si Si5 0.500000 0.621240 0.750000
O O1 0.500000 0.815555 0.250000
O O2 0.380223 0.903891 0.032120
O O3 0.250000 0.750000 0.000000
O O4 0.248594 0.928157 0.097456
O O5 0.872628 0.311438 0.369090
O O6 0.786420 0.133164 0.383705
O O7 0.620846 0.304802 0.282887
O O8 0.629977 0.192290 0.135845
O O9 0.000000 0.500000 0.500000
O O10 0.500000 0.500000 0.500000
O O11 0.570569 0.450402 0.379715
#
# Coordination Sequence:
#
# PCOD9308308 Si02
#       5
#     8   8   8   8   4
#     4  12  28  48  76 112 156 207 259 323 401 479
#     4  12  27  50  75 115 152 207 265 332 399 491
#     4  12  27  47  79 109 155 201 267 330 403 470
#     4  12  29  49  79 115 162 204 265 330 408 483
#     4  12  28  48  80 110 154 206 264 328 396 472
#
# _framework density 21.981328000000001
#
# number of rings (size 3 to 8) (size 9 to 14) (size 15 to 20)
#    0.000    0.000    2.222    6.000   15.556    0.000 
#    0.000    0.000    0.000    0.000    0.000    0.000 
#    0.000    0.000    0.000    0.000    0.000    0.000 
#
# Total GULP energy -100708.463906 kJ/mol
# GULP energy per Si atom -5594.914661 kJ/mol
# Density = 2.193130 g / cm^3
# Si number density = 21.981328 Si / 1000 Ang^3
#
#
#
# Elastic Constant Matrix: (Units=GPa)
#
#
# Indices 1 2 3 4 5 6 
#
# 1 125.0597 31.0040 44.1818 0.0000 12.1901 0.0000
# 2 31.0040 126.2162 52.3935 0.0000 29.0448 0.0000
# 3 44.1818 52.3935 160.7617 -0.0001 7.4423 -0.0001
# 4 0.0000 0.0000 -0.0001 15.5716 -0.0001 -19.2188
# 5 12.1901 29.0448 7.4423 -0.0001 38.5135 0.0000
# 6 0.0000 0.0000 -0.0001 -19.2188 0.0000 48.9419
#
#
#
# Elastic Compliance Matrix: (Units=1/GPa)
#
#
# Indices 1 2 3 4 5 6 
#
# 1 0.009156 -0.000963 -0.002121 0.000000 -0.001762 0.000000
# 2 -0.000963 0.011142 -0.003019 0.000000 -0.007514 0.000000
# 3 -0.002121 -0.003019 0.007720 0.000000 0.001456 0.000000
# 4 0.000000 0.000000 0.000000 0.124617 0.000000 0.048935
# 5 -0.001762 -0.007514 0.001456 0.000000 0.031908 0.000000
# 6 0.000000 0.000000 0.000000 0.048935 0.000000 0.039649
#
#
# Mechanical properties :
#
#
# Convention : Reuss Voigt Hill
#
# Bulk Modulus (GPa) = 63.24331 74.13292 68.68811
# Shear Modulus (GPa) = 20.68963 39.56929 30.12946
#
# Velocity S-wave (km/s) = 3.07129 4.24740 3.70629
# Velocity P-wave (km/s) = 6.43513 7.60608 7.04498
#
# Compressibility (1/GPa) = 0.01581195
#
# Stress axis : x y z
#
# Youngs Moduli (GPa) = 109.21829 89.75229 129.54008
#
# Poissons Ratio (x) = 0.08646 0.27473
# Poissons Ratio (y) = 0.10521 0.39103
# Poissons Ratio (z) = 0.23163 0.27092
#
# Static dielectric constant tensor:
#      x y z
#    x 1.745780 0.000000 -0.008060 
#    y 0.000000 1.712190 0.000000 
#    z -0.008060 0.000000 1.859630 
# 
# From -- ./inp_files/152803.got.cif
#   From: 2010.05.17/outbox.cif.g08.bks.cpg/sg15_77_cif.got.tgz:152803.got - 2010.06.03 18:47:42.
