data_PCOD9308188
_publ_section_title
;
Structure prediction by ZEFSAII (Michael W. Deem and Ramdas Pophale) SiO2 
 PCOD9308188
Probable space group: C 2/C
;
_chemical_formula_sum "Si O2"
_cell_formula_units_Z 28
_cell_length_a 15.486612
_cell_length_b 13.303578
_cell_length_c 8.319477
_cell_angle_alpha 90.000000
_cell_angle_beta 43.928548
_cell_angle_gamma 90.000000
_cell_volume 1189.133561
_symmetry_space_group_name_H-M "C 2/C"
_symmetry_group_IT_number 15
_symmetry_cell_setting 'monoclinic'
loop_
_space_group_symop_operation_xyz
x,y,z
-x,y,1/2-z
-x,-y,-z
x,-y,1/2+z
1/2+x,1/2+y,z
1/2-x,1/2+y,1/2-z
1/2-x,1/2-y,-z
1/2+x,1/2-y,1/2+z
loop_
_atom_site_type_symbol
_atom_site_label
_atom_site_fract_x
_atom_site_fract_y
_atom_site_fract_z
Si Si1 0.273333 0.578096 0.577745
Si Si2 0.500000 0.421495 0.250000
Si Si3 0.359215 0.730552 0.722278
Si Si4 0.882871 0.430544 0.517173
O O1 0.383595 0.495325 0.433608
O O2 0.310731 0.675439 0.627311
O O3 0.161541 0.525844 0.824106
O O4 0.229487 0.596460 0.455336
O O5 0.540003 0.345801 0.338279
O O6 0.408419 0.838104 0.601310
O O7 0.250000 0.750000 0.000000
O O8 0.000000 0.451525 0.250000
#
# Coordination Sequence:
#
# PCOD9308188 Si02
#       4
#     8   4   8   8
#     4  12  26  50  75 110 148 201 249 307 378 444
#     4  12  26  48  80 102 156 190 254 300 374 440
#     4  12  27  47  75 114 150 195 251 310 371 446
#     4  12  27  47  75 111 153 196 250 311 373 440
#
# _framework density 23.546557
#
# number of rings (size 3 to 8) (size 9 to 14) (size 15 to 20)
#    0.000    0.000    5.714    2.571    6.000    0.000 
#    2.571    0.000    0.000    0.000    0.000    0.000 
#    0.000    0.000    0.000    0.000    0.000    0.000 
#
# Total GULP energy -78478.974689 kJ/mol
# GULP energy per Si atom -5605.641049 kJ/mol
# Density = 2.349296 g / cm^3
# Si number density = 23.546557 Si / 1000 Ang^3
#
#
#
# Elastic Constant Matrix: (Units=GPa)
#
#
# Indices 1 2 3 4 5 6 
#
# 1 115.4642 14.5916 2.3738 0.0000 5.1981 0.0000
# 2 14.5916 71.1383 11.1774 0.0000 -13.1412 0.0000
# 3 2.3738 11.1774 103.7196 0.0000 -16.4533 0.0000
# 4 0.0000 0.0000 0.0000 29.4789 0.0000 17.7945
# 5 5.1981 -13.1412 -16.4533 0.0000 31.5807 0.0000
# 6 0.0000 0.0000 0.0000 17.7945 0.0000 58.9304
#
#
#
# Elastic Compliance Matrix: (Units=1/GPa)
#
#
# Indices 1 2 3 4 5 6 
#
# 1 0.009077 -0.002291 -0.000381 0.000000 -0.002646 0.000000
# 2 -0.002291 0.015852 -0.000599 0.000000 0.006661 0.000000
# 3 -0.000381 -0.000599 0.010558 0.000000 0.005314 0.000000
# 4 0.000000 0.000000 0.000000 0.041484 0.000000 -0.012526
# 5 -0.002646 0.006661 0.005314 0.000000 0.037640 0.000000
# 6 0.000000 0.000000 0.000000 -0.012526 0.000000 0.020752
#
#
# Mechanical properties :
#
#
# Convention : Reuss Voigt Hill
#
# Bulk Modulus (GPa) = 34.54791 38.51197 36.52994
# Shear Modulus (GPa) = 32.99201 41.47662 37.23432
#
# Velocity S-wave (km/s) = 3.74724 4.20154 3.98088
# Velocity P-wave (km/s) = 5.78156 6.31890 6.05619
#
# Compressibility (1/GPa) = 0.02894531
#
# Stress axis : x y z
#
# Youngs Moduli (GPa) = 110.16725 63.08501 94.71857
#
# Poissons Ratio (x) = 0.14451 0.03605
# Poissons Ratio (y) = 0.25237 0.05675
# Poissons Ratio (z) = 0.04192 0.03780
#
# Static dielectric constant tensor:
#      x y z
#    x 1.945210 0.000000 -0.040070 
#    y 0.000000 1.788330 0.000000 
#    z -0.040070 0.000000 1.867950 
# 
# From -- ./inp_files/27483.got.cif
#   From: 2010.05.17/outbox.cif.g08.bks.cpg/sg15_14_cif.got.tgz:27483.got - 2010.06.03 18:47:42.
