data_PCOD9308847
_publ_section_title
;
Structure prediction by ZEFSAII (Michael W. Deem and Ramdas Pophale) SiO2 
 PCOD9308847
Probable space group: C 2/C
;
_chemical_formula_sum "Si O2"
_cell_formula_units_Z 28
_cell_length_a 12.000000
_cell_length_b 30.000000
_cell_length_c 9.000000
_cell_angle_alpha 90.000000
_cell_angle_beta 60.000000
_cell_angle_gamma 90.000000
_cell_volume 2805.922308
_symmetry_space_group_name_H-M "C 2/C"
_symmetry_group_IT_number 15
_symmetry_cell_setting 'monoclinic'
loop_
_space_group_symop_operation_xyz
x,y,z
-x,y,1/2-z
-x,-y,-z
x,-y,1/2+z
1/2+x,1/2+y,z
1/2-x,1/2+y,1/2-z
1/2-x,1/2-y,-z
1/2+x,1/2-y,1/2+z
loop_
_atom_site_type_symbol
_atom_site_label
_atom_site_fract_x
_atom_site_fract_y
_atom_site_fract_z
Si Si1 0.548385 0.349032 0.387498
Si Si2 0.713527 0.693788 0.345812
Si Si3 0.600901 0.444310 0.458684
Si Si4 0.969412 0.645569 0.091985
Si Si5 0.549441 0.044352 0.383701
Si Si6 0.205907 0.295703 0.359994
Si Si7 0.167734 0.975145 0.737165
O O1 0.500000 0.358097 0.250000
O O2 0.421433 0.332399 0.558231
O O3 0.609366 0.392783 0.419050
O O4 0.664438 0.313964 0.302065
O O5 0.826551 0.667720 0.182399
O O6 0.762002 0.699934 0.484556
O O7 0.688348 0.745018 0.318630
O O8 0.668281 0.462449 0.563431
O O9 0.451903 0.453428 0.597289
O O10 0.647798 0.472683 0.285977
O O11 0.980751 0.593883 0.034061
O O12 0.000000 0.645292 0.250000
O O13 0.075815 0.675163 0.935906
O O14 0.500000 0.042236 0.250000
O O15 0.702293 0.041329 0.279107
O O16 0.500000 0.000000 0.500000
#
# Coordination Sequence:
#
# PCOD9308847 Si02
#       7
#     8   8   8   8   8   8   8
#     4  10  20  30  53  85 115 148 195 244 291 343
#     4   9  16  31  50  77 115 147 183 235 299 349
#     4  10  22  37  59  83 116 154 194 247 287 347
#     4   9  18  31  49  77 111 147 182 228 287 342
#     4  11  23  38  58  82 117 155 194 237 284 347
#     4   9  17  29  50  80 113 146 183 238 295 347
#     4  10  22  39  56  83 113 159 196 238 294 343
#
# _framework density 9.9788940000000004
#
# number of rings (size 3 to 8) (size 9 to 14) (size 15 to 20)
#    0.000    2.286    0.000    2.571    6.000    4.571 
#    0.000    0.000    0.000    0.000    0.000   18.000 
#    0.000    0.000    0.000    0.000    0.000    0.000 
#
# Total GULP energy -156171.490897 kJ/mol
# GULP energy per Si atom -5577.553246 kJ/mol
# Density = 0.995618 g / cm^3
# Si number density = 9.978894 Si / 1000 Ang^3
#
#
#
# Elastic Constant Matrix: (Units=GPa)
#
#
# Indices 1 2 3 4 5 6 
#
# 1 96.0994 37.8094 34.3321 0.0000 -16.7860 0.0000
# 2 37.8094 160.7278 38.6680 0.0000 -3.7653 0.0000
# 3 34.3321 38.6680 40.0093 0.0000 -9.6343 0.0000
# 4 0.0000 0.0000 0.0000 49.2746 0.0000 -64.0871
# 5 -16.7860 -3.7653 -9.6343 0.0000 20.4808 0.0000
# 6 0.0000 0.0000 0.0000 -64.0871 0.0000 138.8505
#
#
#
# Elastic Compliance Matrix: (Units=1/GPa)
#
#
# Indices 1 2 3 4 5 6 
#
# 1 0.016074 -0.000955 -0.010984 0.000000 0.007831 0.000000
# 2 -0.000955 0.008276 -0.007896 0.000000 -0.002975 0.000000
# 3 -0.010984 -0.007896 0.044583 0.000000 0.010518 0.000000
# 4 0.000000 0.000000 0.000000 0.050775 0.000000 0.023435
# 5 0.007831 -0.002975 0.010518 0.000000 0.059646 0.000000
# 6 0.000000 0.000000 0.000000 0.023435 0.000000 0.018019
#
#
# Mechanical properties :
#
#
# Convention : Reuss Voigt Hill
#
# Bulk Modulus (GPa) = 34.17203 57.60617 45.88910
# Shear Modulus (GPa) = 20.25966 54.12299 37.19132
#
# Velocity S-wave (km/s) = 3.18956 5.21321 4.32151
# Velocity P-wave (km/s) = 5.54290 8.07239 6.92413
#
# Compressibility (1/GPa) = 0.02926370
#
# Stress axis : x y z
#
# Youngs Moduli (GPa) = 62.21327 120.82816 22.42998
#
# Poissons Ratio (x) = 0.11541 0.24637
# Poissons Ratio (y) = 0.05942 0.17710
# Poissons Ratio (z) = 0.68335 0.95401
#
# Static dielectric constant tensor:
#      x y z
#    x 1.702810 0.000000 0.010630 
#    y 0.000000 1.735160 0.000000 
#    z 0.010630 0.000000 1.681910 
# 
# From -- ./inp_files/35556.got.cif
#   From: 2010.05.17/outbox.ucp.g08.bks.cvg/sg15_18_cif.got.tgz:35556.got - 2010.06.11 12:40:34.
