data_PCOD9308575
_publ_section_title
;
Structure prediction by ZEFSAII (Michael W. Deem and Ramdas Pophale) SiO2 
 PCOD9308575
Probable space group: C 2/C
;
_chemical_formula_sum "Si O2"
_cell_formula_units_Z 48
_cell_length_a 17.759570
_cell_length_b 7.852633
_cell_length_c 13.877956
_cell_angle_alpha 90.000000
_cell_angle_beta 93.471403
_cell_angle_gamma 90.000000
_cell_volume 1931.860014
_symmetry_space_group_name_H-M "C 2/C"
_symmetry_group_IT_number 15
_symmetry_cell_setting 'monoclinic'
loop_
_space_group_symop_operation_xyz
x,y,z
-x,y,1/2-z
-x,-y,-z
x,-y,1/2+z
1/2+x,1/2+y,z
1/2-x,1/2+y,1/2-z
1/2-x,1/2-y,-z
1/2+x,1/2-y,1/2+z
loop_
_atom_site_type_symbol
_atom_site_label
_atom_site_fract_x
_atom_site_fract_y
_atom_site_fract_z
Si Si1 0.909308 0.055410 0.049564
Si Si2 0.627502 0.061984 0.171903
Si Si3 0.154203 0.582385 0.394440
Si Si4 0.722945 0.449337 0.346661
Si Si5 0.802075 0.921999 0.374929
Si Si6 0.009297 0.713727 0.449518
O O1 0.834343 0.079639 0.105766
O O2 0.959722 0.896452 0.088548
O O3 0.872698 0.011202 0.942032
O O4 0.961586 0.219996 0.037496
O O5 0.622160 0.035930 0.286102
O O6 0.678308 0.227191 0.146465
O O7 0.547069 0.113008 0.124079
O O8 0.687020 0.925557 0.136467
O O9 0.189967 0.769159 0.380180
O O10 0.224287 0.461289 0.424390
O O11 0.084721 0.602384 0.461769
O O12 0.709767 0.492247 0.233115
#
# Coordination Sequence:
#
# PCOD9308575 Si02
#       6
#     8   8   8   8   8   8
#     4   9  18  32  50  73 102 132 164 203 246 294
#     4   9  17  31  51  73  97 127 165 206 246 291
#     4   9  17  31  51  73  97 127 165 206 246 291
#     4   9  18  31  50  74  98 130 169 204 242 292
#     4   9  18  31  50  74  98 130 169 204 242 292
#     4   9  17  28  47  73  96 122 160 201 244 285
#
# _framework density 24.846522
#
# number of rings (size 3 to 8) (size 9 to 14) (size 15 to 20)
#    0.000    3.000    0.000    0.500    0.000    6.667 
#    0.000    2.500    0.000   17.000    0.000   51.333 
#    0.000    0.000    0.000    0.000    0.000    0.000 
#
# Total GULP energy -133876.648912 kJ/mol
# GULP energy per Si atom -5578.193705 kJ/mol
# Density = 2.478997 g / cm^3
# Si number density = 24.846522 Si / 1000 Ang^3
#
#
#
# Elastic Constant Matrix: (Units=GPa)
#
#
# Indices 1 2 3 4 5 6 
#
# 1 173.6747 34.8118 52.7098 0.0000 12.1322 0.0000
# 2 34.8118 48.7842 3.0502 0.0000 -5.3949 0.0000
# 3 52.7098 3.0502 69.4271 0.0000 3.4474 0.0000
# 4 0.0000 0.0000 0.0000 15.6588 0.0000 0.3679
# 5 12.1322 -5.3949 3.4474 0.0000 21.3014 0.0000
# 6 0.0000 0.0000 0.0000 0.3679 0.0000 40.6443
#
#
#
# Elastic Compliance Matrix: (Units=1/GPa)
#
#
# Indices 1 2 3 4 5 6 
#
# 1 0.009669 -0.007169 -0.006716 0.000000 -0.006236 0.000000
# 2 -0.007169 0.026505 0.003773 0.000000 0.010185 0.000000
# 3 -0.006716 0.003773 0.019254 0.000000 0.001665 0.000000
# 4 0.000000 0.000000 0.000000 0.063875 0.000000 -0.000578
# 5 -0.006236 0.010185 0.001665 0.000000 0.052807 0.000000
# 6 0.000000 0.000000 0.000000 -0.000578 0.000000 0.024609
#
#
# Mechanical properties :
#
#
# Convention : Reuss Voigt Hill
#
# Bulk Modulus (GPa) = 28.40703 52.55887 40.48295
# Shear Modulus (GPa) = 21.86477 28.94184 25.40330
#
# Velocity S-wave (km/s) = 2.96969 3.41666 3.20098
# Velocity P-wave (km/s) = 4.81835 6.06334 5.47634
#
# Compressibility (1/GPa) = 0.03520255
#
# Stress axis : x y z
#
# Youngs Moduli (GPa) = 103.42534 37.72907 51.93704
#
# Poissons Ratio (x) = 0.27049 0.34881
# Poissons Ratio (y) = 0.74148 -0.19594
# Poissons Ratio (z) = 0.69461 -0.14234
#
# Static dielectric constant tensor:
#      x y z
#    x 2.026420 0.000000 0.009020 
#    y 0.000000 2.099510 0.000000 
#    z 0.009020 0.000000 1.986810 
# 
# From -- ./inp_files/159732.got.cif
#   From: 2010.05.17/outbox.cif.g08.bks.cpg/sg15_80_cif.got.tgz:159732.got - 2010.06.03 18:47:42.
