data_PCOD9308179
_publ_section_title
;
Structure prediction by ZEFSAII (Michael W. Deem and Ramdas Pophale) SiO2 
 PCOD9308179
Probable space group: C 2/C
;
_chemical_formula_sum "Si O2"
_cell_formula_units_Z 32
_cell_length_a 7.460521
_cell_length_b 31.545077
_cell_length_c 5.615281
_cell_angle_alpha 90.000000
_cell_angle_beta 89.669032
_cell_angle_gamma 90.000000
_cell_volume 1321.493397
_symmetry_space_group_name_H-M "C 2/C"
_symmetry_group_IT_number 15
_symmetry_cell_setting 'monoclinic'
loop_
_space_group_symop_operation_xyz
x,y,z
-x,y,1/2-z
-x,-y,-z
x,-y,1/2+z
1/2+x,1/2+y,z
1/2-x,1/2+y,1/2-z
1/2-x,1/2-y,-z
1/2+x,1/2-y,1/2+z
loop_
_atom_site_type_symbol
_atom_site_label
_atom_site_fract_x
_atom_site_fract_y
_atom_site_fract_z
Si Si1 0.500000 0.646794 0.250000
Si Si2 0.500000 0.025864 0.250000
Si Si3 0.819039 0.295022 0.907598
Si Si4 0.740798 0.583019 0.001579
Si Si5 0.000000 0.974960 0.250000
Si Si6 0.500000 0.143801 0.750000
O O1 0.334394 0.678662 0.222429
O O2 0.428215 0.613108 0.443722
O O3 0.679669 0.054591 0.284143
O O4 0.500000 0.000000 0.500000
O O5 0.000000 0.290479 0.750000
O O6 0.750000 0.250000 0.000000
O O7 0.860588 0.325169 0.129033
O O8 0.677372 0.553561 0.785115
O O9 0.903603 0.613460 0.935431
O O10 0.000000 0.000000 0.500000
#
# Coordination Sequence:
#
# PCOD9308179 Si02
#       6
#     4   4   8   8   4   4
#     4  12  26  50  78 115 158 206 266 325 396 480
#     4  12  27  50  78 117 165 216 273 345 412 480
#     4  12  28  49  78 117 159 204 258 326 399 480
#     4  12  26  48  78 111 158 215 268 332 404 476
#     4  12  27  48  74 115 157 210 275 335 404 482
#     4  12  26  50  76 111 156 206 268 321 398 480
#
# _framework density 24.215026999999999
#
# number of rings (size 3 to 8) (size 9 to 14) (size 15 to 20)
#    0.000    0.000    2.500    6.750    3.500    6.000 
#    0.000    0.000    0.000    0.000    0.000    0.000 
#    0.000    0.000    0.000    0.000    0.000    0.000 
#
# Total GULP energy -89524.938985 kJ/mol
# GULP energy per Si atom -5595.308687 kJ/mol
# Density = 2.415991 g / cm^3
# Si number density = 24.215027 Si / 1000 Ang^3
#
#
#
# Elastic Constant Matrix: (Units=GPa)
#
#
# Indices 1 2 3 4 5 6 
#
# 1 125.6415 65.6092 51.0253 0.0000 9.3279 0.0000
# 2 65.6092 172.0901 94.5479 0.0000 7.2088 0.0000
# 3 51.0253 94.5479 135.2116 0.0000 10.2237 0.0000
# 4 0.0000 0.0000 0.0000 44.9159 0.0000 -6.2784
# 5 9.3279 7.2088 10.2237 0.0000 45.8066 0.0000
# 6 0.0000 0.0000 0.0000 -6.2784 0.0000 36.3250
#
#
#
# Elastic Compliance Matrix: (Units=1/GPa)
#
#
# Indices 1 2 3 4 5 6 
#
# 1 0.010280 -0.002903 -0.001756 0.000000 -0.001245 0.000000
# 2 -0.002903 0.010256 -0.006102 0.000000 0.000339 0.000000
# 3 -0.001756 -0.006102 0.012435 0.000000 -0.001458 0.000000
# 4 0.000000 0.000000 0.000000 0.022815 0.000000 0.003943
# 5 -0.001245 0.000339 -0.001458 0.000000 0.022356 0.000000
# 6 0.000000 0.000000 0.000000 0.003943 0.000000 0.028211
#
#
# Mechanical properties :
#
#
# Convention : Reuss Voigt Hill
#
# Bulk Modulus (GPa) = 87.32655 95.03424 91.18039
# Shear Modulus (GPa) = 37.96787 40.19354 39.08071
#
# Velocity S-wave (km/s) = 3.96403 4.07856 4.02170
# Velocity P-wave (km/s) = 7.55596 7.84287 7.70076
#
# Compressibility (1/GPa) = 0.01145127
#
# Stress axis : x y z
#
# Youngs Moduli (GPa) = 97.27320 97.50775 80.41699
#
# Poissons Ratio (x) = 0.28303 0.14119
# Poissons Ratio (y) = 0.28235 0.49067
# Poissons Ratio (z) = 0.17079 0.59495
#
# Static dielectric constant tensor:
#      x y z
#    x 1.943840 0.000000 -0.054960 
#    y 0.000000 1.921240 0.000000 
#    z -0.054960 0.000000 1.783150 
# 
# From -- ./inp_files/2429.got.cif
#   From: 2010.05.17/outbox.cif.g08.bks.cpg/sg15_2_cif.got.tgz:2429.got - 2010.06.03 18:47:42.
