data_PCOD9308550
_publ_section_title
;
Structure prediction by ZEFSAII (Michael W. Deem and Ramdas Pophale) SiO2 
 PCOD9308550
Probable space group: C 2/C
;
_chemical_formula_sum "Si O2"
_cell_formula_units_Z 24
_cell_length_a 6.876300
_cell_length_b 12.607504
_cell_length_c 13.584450
_cell_angle_alpha 90.000000
_cell_angle_beta 119.477626
_cell_angle_gamma 90.000000
_cell_volume 1025.223784
_symmetry_space_group_name_H-M "C 2/C"
_symmetry_group_IT_number 15
_symmetry_cell_setting 'monoclinic'
loop_
_space_group_symop_operation_xyz
x,y,z
-x,y,1/2-z
-x,-y,-z
x,-y,1/2+z
1/2+x,1/2+y,z
1/2-x,1/2+y,1/2-z
1/2-x,1/2-y,-z
1/2+x,1/2-y,1/2+z
loop_
_atom_site_type_symbol
_atom_site_label
_atom_site_fract_x
_atom_site_fract_y
_atom_site_fract_z
Si Si1 0.744328 0.048710 0.658626
Si Si2 0.362385 0.098415 0.081539
Si Si3 0.988348 0.247090 0.452777
O O1 0.726080 0.032622 0.535500
O O2 0.639409 0.165886 0.645503
O O3 0.000000 0.042349 0.750000
O O4 0.576942 0.966947 0.668833
O O5 0.148891 0.137988 0.088735
O O6 0.540613 0.793007 0.943004
O O7 0.250000 0.250000 0.500000
#
# Coordination Sequence:
#
# PCOD9308550 Si02
#       3
#     8   8   8
#     4   9  17  35  52  76 111 139 176 222 268 321
#     4   8  18  35  52  72 108 141 169 223 268 308
#     4   9  17  34  56  73 101 144 177 217 271 317
#
# _framework density 23.409521999999999
#
# number of rings (size 3 to 8) (size 9 to 14) (size 15 to 20)
#    2.000    1.333    0.000    0.000    0.000    1.333 
#    6.000    1.667    0.000    0.000    0.000    0.000 
#    0.000    0.000    0.000    0.000    0.000    0.000 
#
# Total GULP energy -66802.002107 kJ/mol
# GULP energy per Si atom -5566.833509 kJ/mol
# Density = 2.335624 g / cm^3
# Si number density = 23.409522 Si / 1000 Ang^3
#
#
#
# Elastic Constant Matrix: (Units=GPa)
#
#
# Indices 1 2 3 4 5 6 
#
# 1 140.9702 69.9409 79.5819 0.0000 73.5568 0.0000
# 2 69.9409 97.4691 56.2973 0.0000 42.8983 0.0000
# 3 79.5819 56.2973 161.9296 0.0000 74.6861 0.0000
# 4 0.0000 0.0000 0.0000 17.9351 0.0000 33.3251
# 5 73.5568 42.8983 74.6861 0.0000 61.4916 0.0000
# 6 0.0000 0.0000 0.0000 33.3251 0.0000 26.0114
#
#
#
# Elastic Compliance Matrix: (Units=1/GPa)
#
#
# Indices 1 2 3 4 5 6 
#
# 1 0.021661 -0.006180 0.003332 0.000000 -0.025647 0.000000
# 2 -0.006180 0.016623 -0.001826 0.000000 -0.001986 0.000000
# 3 0.003332 -0.001826 0.014606 0.000000 -0.020452 0.000000
# 4 0.000000 0.000000 0.000000 -0.040388 0.000000 0.051744
# 5 -0.025647 -0.001986 -0.020452 0.000000 0.073167 0.000000
# 6 0.000000 0.000000 0.000000 0.051744 0.000000 -0.027848
#
#
# Mechanical properties :
#
#
# Convention : Reuss Voigt Hill
#
# Bulk Modulus (GPa) = 22.96639 90.22322 56.59480
# Shear Modulus (GPa) = 61.21195 34.05755 47.63475
#
# Velocity S-wave (km/s) = 5.11909 3.81840 4.51582
# Velocity P-wave (km/s) = 6.69120 7.62005 7.17068
#
# Compressibility (1/GPa) = 0.04354190
#
# Stress axis : x y z
#
# Youngs Moduli (GPa) = 46.16569 60.15679 68.46721
#
# Poissons Ratio (x) = 0.37178 -0.22813
# Poissons Ratio (y) = 0.28531 0.12501
# Poissons Ratio (z) = -0.15382 0.10983
#
# Static dielectric constant tensor:
#      x y z
#    x 1.933810 0.000000 -0.045050 
#    y 0.000000 1.957770 0.000000 
#    z -0.045050 0.000000 1.787870 
# 
# From -- ./inp_files/187223.got.cif
#   From: 2010.05.17/outbox.cif.g08.bks.cpg/sg15_94_cif.got.tgz:187223.got - 2010.06.03 18:47:42.
