data_PCOD9308674
_publ_section_title
;
Structure prediction by ZEFSAII (Michael W. Deem and Ramdas Pophale) SiO2 
 PCOD9308674
Probable space group: C 2/C
;
_chemical_formula_sum "Si O2"
_cell_formula_units_Z 32
_cell_length_a 30.000000
_cell_length_b 21.000000
_cell_length_c 15.000000
_cell_angle_alpha 90.000000
_cell_angle_beta 160.000000
_cell_angle_gamma 90.000000
_cell_volume 3232.090354
_symmetry_space_group_name_H-M "C 2/C"
_symmetry_group_IT_number 15
_symmetry_cell_setting 'monoclinic'
loop_
_space_group_symop_operation_xyz
x,y,z
-x,y,1/2-z
-x,-y,-z
x,-y,1/2+z
1/2+x,1/2+y,z
1/2-x,1/2+y,1/2-z
1/2-x,1/2-y,-z
1/2+x,1/2-y,1/2+z
loop_
_atom_site_type_symbol
_atom_site_label
_atom_site_fract_x
_atom_site_fract_y
_atom_site_fract_z
Si Si1 0.422876 0.802690 0.011553
Si Si2 0.289691 0.421181 0.252090
Si Si3 0.302557 0.845352 0.244430
Si Si4 0.356429 0.560948 0.438151
Si Si5 0.042831 0.563639 0.174249
Si Si6 0.390307 0.057211 0.397578
Si Si7 0.140997 0.207452 0.063333
Si Si8 0.018779 0.170573 0.175890
O O1 0.500000 0.806056 0.250000
O O2 0.477425 0.740491 0.064862
O O3 0.444392 0.871502 0.009724
O O4 0.269140 0.791018 0.740562
O O5 0.249649 0.388577 0.270761
O O6 0.323532 0.496543 0.321344
O O7 0.416434 0.383241 0.455094
O O8 0.159999 0.409730 0.952238
O O9 0.427153 0.884845 0.444266
O O10 0.340172 0.772308 0.342709
O O11 0.169689 0.841471 0.937138
O O12 0.247159 0.558442 0.310586
O O13 0.351615 0.633133 0.387029
O O14 0.500000 0.553621 0.750000
O O15 0.110888 0.544059 0.209597
O O16 0.980393 0.500392 0.101633
O O17 0.000000 0.212265 0.750000
O O18 0.000000 0.173179 0.250000
#
# Coordination Sequence:
#
# PCOD9308674 Si02
#       8
#     8   8   8   8   8   8   8   8
#     4  10  18  35  61  81 109 150 192 239 288 332
#     4  11  20  34  61  88 109 151 203 234 279 348
#     4  11  19  34  60  85 118 148 195 239 283 332
#     4  10  21  37  63  87 115 148 197 245 285 330
#     4  11  24  38  55  86 121 158 184 234 296 347
#     4  10  24  39  57  82 126 150 187 239 294 345
#     4  10  19  31  54  87 115 138 185 247 281 322
#     4   9  18  33  56  88 113 140 189 249 279 319
#
# _framework density 9.9007129999999997
#
# number of rings (size 3 to 8) (size 9 to 14) (size 15 to 20)
#    0.000    1.750    5.000    2.250    3.500    0.000 
#    0.000    1.875    0.000    0.000    0.000    0.000 
#    0.000    0.000    0.000    0.000    0.000    0.000 
#
# Total GULP energy -178271.555513 kJ/mol
# GULP energy per Si atom -5570.986110 kJ/mol
# Density = 0.987818 g / cm^3
# Si number density = 9.900713 Si / 1000 Ang^3
#
#
#
# Elastic Constant Matrix: (Units=GPa)
#
#
# Indices 1 2 3 4 5 6 
#
# 1 14.0223 12.7576 14.9016 0.0000 5.5656 0.0000
# 2 12.7576 151.0163 47.4400 0.0000 19.1856 0.0000
# 3 14.9016 47.4400 140.6719 0.0000 29.5053 0.0000
# 4 0.0000 0.0000 0.0000 85.4779 0.0000 5.0281
# 5 5.5656 19.1856 29.5053 0.0000 9.7505 0.0000
# 6 0.0000 0.0000 0.0000 5.0281 0.0000 7.2401
#
#
#
# Elastic Compliance Matrix: (Units=1/GPa)
#
#
# Indices 1 2 3 4 5 6 
#
# 1 0.092986 -0.001177 0.003268 0.000000 -0.060650 0.000000
# 2 -0.001177 0.009018 0.001819 0.000000 -0.022576 0.000000
# 3 0.003268 0.001819 0.019959 0.000000 -0.065839 0.000000
# 4 0.000000 0.000000 0.000000 0.012197 0.000000 -0.008471
# 5 -0.060650 -0.022576 -0.065839 0.000000 0.380831 0.000000
# 6 0.000000 0.000000 0.000000 -0.008471 0.000000 0.144002
#
#
# Mechanical properties :
#
#
# Convention : Reuss Voigt Hill
#
# Bulk Modulus (GPa) = 7.70524 50.65653 29.18089
# Shear Modulus (GPa) = 7.20011 35.86779 21.53395
#
# Velocity S-wave (km/s) = 1.90894 4.26064 3.30130
# Velocity P-wave (km/s) = 2.95947 7.05988 5.41296
#
# Compressibility (1/GPa) = 0.12978174
#
# Stress axis : x y z
#
# Youngs Moduli (GPa) = 10.75433 110.88926 50.10324
#
# Poissons Ratio (x) = 0.13048 -0.16372
# Poissons Ratio (y) = 0.01265 -0.09112
# Poissons Ratio (z) = -0.03514 -0.20166
#
# Static dielectric constant tensor:
#      x y z
#    x 1.699840 0.000000 -0.027240 
#    y 0.000000 1.752040 0.000000 
#    z -0.027240 0.000000 1.718850 
# 
# From -- ./inp_files/183168.got.cif
#   From: 2010.05.17/outbox.ucp.g08.bks.cvg/sg15_92_cif.got.tgz:183168.got - 2010.06.11 12:40:34.
