data_PCOD9308782
_publ_section_title
;
Structure prediction by ZEFSAII (Michael W. Deem and Ramdas Pophale) SiO2 
 PCOD9308782
Probable space group: C 2/C
;
_chemical_formula_sum "Si O2"
_cell_formula_units_Z 24
_cell_length_a 15.000000
_cell_length_b 30.000000
_cell_length_c 15.000000
_cell_angle_alpha 90.000000
_cell_angle_beta 20.000000
_cell_angle_gamma 90.000000
_cell_volume 2308.635967
_symmetry_space_group_name_H-M "C 2/C"
_symmetry_group_IT_number 15
_symmetry_cell_setting 'monoclinic'
loop_
_space_group_symop_operation_xyz
x,y,z
-x,y,1/2-z
-x,-y,-z
x,-y,1/2+z
1/2+x,1/2+y,z
1/2-x,1/2+y,1/2-z
1/2-x,1/2-y,-z
1/2+x,1/2-y,1/2+z
loop_
_atom_site_type_symbol
_atom_site_label
_atom_site_fract_x
_atom_site_fract_y
_atom_site_fract_z
Si Si1 0.500000 0.279753 0.250000
Si Si2 0.468584 0.098809 0.125066
Si Si3 0.767126 0.972498 0.764387
Si Si4 0.000000 0.780873 0.750000
Si Si5 0.106000 0.781428 0.841583
Si Si6 0.776410 0.513710 0.521737
Si Si7 0.505930 0.348420 0.398359
O O1 0.562812 0.311179 0.272858
O O2 0.250000 0.250000 0.500000
O O3 0.282705 0.076474 0.224922
O O4 0.256677 0.125087 0.382929
O O5 0.579654 0.056402 0.072443
O O6 0.724247 0.124016 0.848093
O O7 0.809213 0.975887 0.828912
O O8 0.000000 0.000000 0.500000
O O9 0.500000 0.000000 0.000000
O O10 0.951578 0.803041 0.700984
O O11 0.250000 0.750000 0.500000
O O12 0.379763 0.754766 0.578674
O O13 0.088190 0.821241 0.927338
O O14 0.500000 0.531808 0.750000
O O15 0.000000 0.493895 0.250000
#
# Coordination Sequence:
#
# PCOD9308782 Si02
#       7
#     4   8   8   4   8   8   8
#     4  12  26  44  58  84 126 171 216 257 308 376
#     4  11  24  39  59  90 124 153 205 256 300 363
#     4  10  20  40  60  86 118 160 193 245 305 367
#     4   8  16  30  56  84 104 131 186 257 288 336
#     4  10  19  36  59  85 113 151 205 248 299 369
#     4  11  22  37  64  92 119 157 207 251 302 365
#     4  12  24  38  61  86 122 168 201 252 318 357
#
# _framework density 10.395749
#
# number of rings (size 3 to 8) (size 9 to 14) (size 15 to 20)
#    0.000    1.333    0.000    8.000    3.500    0.000 
#    0.000    0.000    5.500    0.000    0.000    0.000 
#    0.000    0.000    0.000    0.000    0.000    0.000 
#
# Total GULP energy -133720.711850 kJ/mol
# GULP energy per Si atom -5571.696327 kJ/mol
# Density = 1.037209 g / cm^3
# Si number density = 10.395749 Si / 1000 Ang^3
#
#
#
# Elastic Constant Matrix: (Units=GPa)
#
#
# Indices 1 2 3 4 5 6 
#
# 1 61.0441 13.3942 17.9886 -0.0884 11.9575 -0.0120
# 2 13.3942 29.7059 19.1645 0.0891 -4.1845 0.0042
# 3 17.9886 19.1645 163.7289 0.0362 -7.2315 0.0989
# 4 -0.0884 0.0891 0.0362 66.8672 0.1006 11.3343
# 5 11.9575 -4.1845 -7.2315 0.1006 33.8537 0.0057
# 6 -0.0120 0.0042 0.0989 11.3343 0.0057 21.5106
#
#
#
# Elastic Compliance Matrix: (Units=1/GPa)
#
#
# Indices 1 2 3 4 5 6 
#
# 1 0.020659 -0.009563 -0.001539 0.000055 -0.008808 -0.000006
# 2 -0.009563 0.041286 -0.003440 -0.000085 0.007746 0.000045
# 3 -0.001539 -0.003440 0.006748 0.000002 0.001560 -0.000033
# 4 0.000055 -0.000085 0.000002 0.016422 -0.000077 -0.008653
# 5 -0.008808 0.007746 0.001560 -0.000077 0.033941 0.000018
# 6 -0.000006 0.000045 -0.000033 -0.008653 0.000018 0.051048
#
#
# Mechanical properties :
#
#
# Convention : Reuss Voigt Hill
#
# Bulk Modulus (GPa) = 25.24675 39.50817 32.37746
# Shear Modulus (GPa) = 23.54154 38.04176 30.79165
#
# Velocity S-wave (km/s) = 3.36857 4.28211 3.85252
# Velocity P-wave (km/s) = 5.22483 6.59485 5.94941
#
# Compressibility (1/GPa) = 0.03960906
#
# Stress axis : x y z
#
# Youngs Moduli (GPa) = 48.40533 24.22155 148.18451
#
# Poissons Ratio (x) = 0.23162 0.22813
# Poissons Ratio (y) = 0.46288 0.50972
# Poissons Ratio (z) = 0.07452 0.08332
#
# Static dielectric constant tensor:
#      x y z
#    x 1.895740 0.000220 0.066220 
#    y 0.000220 1.701020 -0.000260 
#    z 0.066220 -0.000260 1.713130 
# 
# From -- ./inp_files/157656.got.cif
#   From: 2010.05.17/outbox.ucp.g08.bks.cvg/sg15_79_cif.got.tgz:157656.got - 2010.06.11 12:40:34.
