data_PCOD9308764
_publ_section_title
;
Structure prediction by ZEFSAII (Michael W. Deem and Ramdas Pophale) SiO2 
 PCOD9308764
Probable space group: C 2/C
;
_chemical_formula_sum "Si O2"
_cell_formula_units_Z 28
_cell_length_a 18.000000
_cell_length_b 12.000000
_cell_length_c 15.000000
_cell_angle_alpha 90.000000
_cell_angle_beta 120.000000
_cell_angle_gamma 90.000000
_cell_volume 2805.922308
_symmetry_space_group_name_H-M "C 2/C"
_symmetry_group_IT_number 15
_symmetry_cell_setting 'monoclinic'
loop_
_space_group_symop_operation_xyz
x,y,z
-x,y,1/2-z
-x,-y,-z
x,-y,1/2+z
1/2+x,1/2+y,z
1/2-x,1/2+y,1/2-z
1/2-x,1/2-y,-z
1/2+x,1/2-y,1/2+z
loop_
_atom_site_type_symbol
_atom_site_label
_atom_site_fract_x
_atom_site_fract_y
_atom_site_fract_z
Si Si1 0.041064 0.343369 0.376470
Si Si2 0.910809 0.125512 0.982523
Si Si3 0.702823 0.018765 0.043693
Si Si4 0.635295 0.107538 0.675562
Si Si5 0.979495 0.959305 0.341235
Si Si6 0.251084 0.494252 0.880768
Si Si7 0.825379 0.865177 0.758414
O O1 0.060864 0.226520 0.437675
O O2 0.126243 0.414813 0.447626
O O3 0.000000 0.332695 0.250000
O O4 0.966288 0.400373 0.388578
O O5 0.944695 0.124503 0.899356
O O6 0.809677 0.105828 0.914990
O O7 0.943300 0.017298 0.057751
O O8 0.761899 0.104073 0.137794
O O9 0.674827 0.932259 0.104922
O O10 0.744733 0.961518 0.980914
O O11 0.666752 0.028749 0.775101
O O12 0.656106 0.234858 0.717050
O O13 0.000000 0.923122 0.250000
O O14 0.908415 0.057408 0.289542
O O15 0.293127 0.407503 0.836375
#
# Coordination Sequence:
#
# PCOD9308764 Si02
#       7
#     8   8   8   8   8   8   8
#     4  12  23  39  65  89 116 162 205 247 297 357
#     4  10  21  34  60  93 123 152 203 248 298 356
#     4  11  24  40  63  87 123 159 197 253 296 356
#     4  11  23  41  61  88 121 157 205 245 295 362
#     4  10  19  35  59  91 127 159 194 249 304 357
#     4  10  22  39  60  93 119 156 199 248 303 351
#     4  10  22  39  62  91 122 154 203 249 297 361
#
# _framework density 9.9788940000000004
#
# number of rings (size 3 to 8) (size 9 to 14) (size 15 to 20)
#    0.000    1.429    2.857    2.571    2.000    1.714 
#    0.000    0.000    9.429    0.000    0.000    0.000 
#    0.000    0.000    0.000    0.000    0.000    0.000 
#
# Total GULP energy -155936.023831 kJ/mol
# GULP energy per Si atom -5569.143708 kJ/mol
# Density = 0.995618 g / cm^3
# Si number density = 9.978894 Si / 1000 Ang^3
#
#
#
# Elastic Constant Matrix: (Units=GPa)
#
#
# Indices 1 2 3 4 5 6 
#
# 1 63.1086 3.2437 31.4010 0.0000 -19.6927 0.0000
# 2 3.2437 34.9628 9.6841 0.0000 -3.3016 0.0000
# 3 31.4010 9.6841 139.1880 0.0000 -26.7495 0.0000
# 4 0.0000 0.0000 0.0000 26.8160 0.0000 -2.1893
# 5 -19.6927 -3.3016 -26.7495 0.0000 59.3340 0.0000
# 6 0.0000 0.0000 0.0000 -2.1893 0.0000 14.2980
#
#
#
# Elastic Compliance Matrix: (Units=1/GPa)
#
#
# Indices 1 2 3 4 5 6 
#
# 1 0.019023 -0.000386 -0.003345 0.000000 0.004784 0.000000
# 2 -0.000386 0.029204 -0.001814 0.000000 0.000679 0.000000
# 3 -0.003345 -0.001814 0.008576 0.000000 0.002655 0.000000
# 4 0.000000 0.000000 0.000000 0.037763 0.000000 0.005782
# 5 0.004784 0.000679 0.002655 0.000000 0.019676 0.000000
# 6 0.000000 0.000000 0.000000 0.005782 0.000000 0.070825
#
#
# Mechanical properties :
#
#
# Convention : Reuss Voigt Hill
#
# Bulk Modulus (GPa) = 21.87667 36.21297 29.04482
# Shear Modulus (GPa) = 23.65224 32.95165 28.30194
#
# Velocity S-wave (km/s) = 3.44628 4.06774 3.76984
# Velocity P-wave (km/s) = 5.17891 6.34399 5.79082
#
# Compressibility (1/GPa) = 0.04571081
#
# Stress axis : x y z
#
# Youngs Moduli (GPa) = 52.56824 34.24150 116.60865
#
# Poissons Ratio (x) = 0.01323 0.39009
# Poissons Ratio (y) = 0.02032 0.21156
# Poissons Ratio (z) = 0.17586 0.06212
#
# Static dielectric constant tensor:
#      x y z
#    x 1.812380 0.000000 0.022620 
#    y 0.000000 1.714770 0.000000 
#    z 0.022620 0.000000 1.682380 
# 
# From -- ./inp_files/161430.got.cif
#   From: 2010.05.17/outbox.ucp.g08.bks.cvg/sg15_81_cif.got.tgz:161430.got - 2010.06.11 12:40:34.
