data_PCOD9308922
_publ_section_title
;
Structure prediction by ZEFSAII (Michael W. Deem and Ramdas Pophale) SiO2 
 PCOD9308922
Probable space group: C 2/C
;
_chemical_formula_sum "Si O2"
_cell_formula_units_Z 28
_cell_length_a 9.000000
_cell_length_b 12.000000
_cell_length_c 30.000000
_cell_angle_alpha 90.000000
_cell_angle_beta 60.000000
_cell_angle_gamma 90.000000
_cell_volume 2805.922308
_symmetry_space_group_name_H-M "C 2/C"
_symmetry_group_IT_number 15
_symmetry_cell_setting 'monoclinic'
loop_
_space_group_symop_operation_xyz
x,y,z
-x,y,1/2-z
-x,-y,-z
x,-y,1/2+z
1/2+x,1/2+y,z
1/2-x,1/2+y,1/2-z
1/2-x,1/2-y,-z
1/2+x,1/2-y,1/2+z
loop_
_atom_site_type_symbol
_atom_site_label
_atom_site_fract_x
_atom_site_fract_y
_atom_site_fract_z
Si Si1 0.014460 0.200805 0.069760
Si Si2 0.670103 0.578004 0.477362
Si Si3 0.354776 0.461055 0.421833
Si Si4 0.174811 0.955613 0.311643
Si Si5 0.500000 0.369430 0.250000
Si Si6 0.000000 0.700259 0.750000
Si Si7 0.321595 0.288357 0.689251
Si Si8 0.010900 0.443441 0.047360
O O1 0.867206 0.162659 0.056856
O O2 0.939599 0.233690 0.128879
O O3 0.079764 0.316856 0.039235
O O4 0.129828 0.090762 0.063268
O O5 0.500000 0.500000 0.500000
O O6 0.668738 0.612882 0.529804
O O7 0.852270 0.515138 0.444993
O O8 0.534533 0.435442 0.371297
O O9 0.194099 0.445573 0.412403
O O10 0.338494 0.875507 0.289110
O O11 0.073239 0.938259 0.280543
O O12 0.232913 0.083183 0.305621
O O13 0.341856 0.291178 0.287656
O O14 0.071350 0.768546 0.781477
O O15 0.000000 0.500000 0.000000
#
# Coordination Sequence:
#
# PCOD9308922 Si02
#       8
#     8   8   8   8   4   4   8   8
#     4  10  21  38  58  82 117 151 188 238 281 333
#     4   9  20  37  57  82 114 150 189 231 278 333
#     4   9  20  37  57  83 113 149 193 234 282 340
#     4  10  20  38  58  81 113 145 184 236 284 337
#     4  10  20  36  58  80 112 144 182 240 286 334
#     4  10  22  38  60  84 112 148 186 236 290 344
#     4  10  21  37  58  86 111 147 192 230 289 346
#     4  10  21  37  56  82 115 152 191 227 277 332
#
# _framework density 9.9788940000000004
#
# number of rings (size 3 to 8) (size 9 to 14) (size 15 to 20)
#    0.000    2.286    0.000    1.714    0.000   10.857 
#    0.000   14.286    0.000    0.000    0.000    0.000 
#    0.000    0.000    0.000    0.000    0.000    0.000 
#
# Total GULP energy -156044.635054 kJ/mol
# GULP energy per Si atom -5573.022680 kJ/mol
# Density = 0.995618 g / cm^3
# Si number density = 9.978894 Si / 1000 Ang^3
#
#
#
# Elastic Constant Matrix: (Units=GPa)
#
#
# Indices 1 2 3 4 5 6 
#
# 1 74.6644 9.4859 18.1208 0.0000 -9.1985 0.0000
# 2 9.4859 49.3901 16.0938 0.0000 2.2208 0.0000
# 3 18.1208 16.0938 79.2112 0.0000 -3.9103 0.0000
# 4 0.0000 0.0000 0.0000 27.8586 0.0000 5.9909
# 5 -9.1985 2.2208 -3.9103 0.0000 27.9831 0.0000
# 6 0.0000 0.0000 0.0000 5.9909 0.0000 28.1184
#
#
#
# Elastic Compliance Matrix: (Units=1/GPa)
#
#
# Indices 1 2 3 4 5 6 
#
# 1 0.014913 -0.002184 -0.002736 0.000000 0.004693 0.000000
# 2 -0.002184 0.022157 -0.004153 0.000000 -0.003057 0.000000
# 3 -0.002736 -0.004153 0.014164 0.000000 0.001409 0.000000
# 4 0.000000 0.000000 0.000000 0.037619 0.000000 -0.008015
# 5 0.004693 -0.003057 0.001409 0.000000 0.037718 0.000000
# 6 0.000000 0.000000 0.000000 -0.008015 0.000000 0.037272
#
#
# Mechanical properties :
#
#
# Convention : Reuss Voigt Hill
#
# Bulk Modulus (GPa) = 30.22255 32.29631 31.25943
# Shear Modulus (GPa) = 25.90431 27.42969 26.66700
#
# Velocity S-wave (km/s) = 3.60662 3.71129 3.65933
# Velocity P-wave (km/s) = 5.70261 5.88068 5.79233
#
# Compressibility (1/GPa) = 0.03308788
#
# Stress axis : x y z
#
# Youngs Moduli (GPa) = 67.05581 45.13228 70.60242
#
# Poissons Ratio (x) = 0.09855 0.19319
# Poissons Ratio (y) = 0.14642 0.29322
# Poissons Ratio (z) = 0.18348 0.18744
#
# Static dielectric constant tensor:
#      x y z
#    x 1.702530 0.000000 -0.033110 
#    y 0.000000 1.731570 0.000000 
#    z -0.033110 0.000000 1.763610 
# 
# From -- ./inp_files/287995.got.cif
#   From: 2010.05.17/outbox.ucp.g08.bks.cvg/sg15_144_cif.got.tgz:287995.got - 2010.06.11 12:40:34.
