data_PCOD9308547
_publ_section_title
;
Structure prediction by ZEFSAII (Michael W. Deem and Ramdas Pophale) SiO2 
 PCOD9308547
Probable space group: C 2/C
;
_chemical_formula_sum "Si O2"
_cell_formula_units_Z 20
_cell_length_a 18.533074
_cell_length_b 8.188213
_cell_length_c 13.831213
_cell_angle_alpha 90.000000
_cell_angle_beta 19.068292
_cell_angle_gamma 90.000000
_cell_volume 685.708011
_symmetry_space_group_name_H-M "C 2/C"
_symmetry_group_IT_number 15
_symmetry_cell_setting 'monoclinic'
loop_
_space_group_symop_operation_xyz
x,y,z
-x,y,1/2-z
-x,-y,-z
x,-y,1/2+z
1/2+x,1/2+y,z
1/2-x,1/2+y,1/2-z
1/2-x,1/2-y,-z
1/2+x,1/2-y,1/2+z
loop_
_atom_site_type_symbol
_atom_site_label
_atom_site_fract_x
_atom_site_fract_y
_atom_site_fract_z
Si Si1 0.323435 0.406498 0.348891
Si Si2 0.728943 0.061884 0.751338
Si Si3 0.500000 0.329073 0.750000
O O1 0.250000 0.250000 0.500000
O O2 0.210405 0.410596 0.388858
O O3 0.305351 0.566116 0.439616
O O4 0.584405 0.421117 0.998131
O O5 0.848647 0.208151 0.536674
O O6 0.500000 0.000000 0.000000
#
# Coordination Sequence:
#
# PCOD9308547 Si02
#       3
#     8   8   4
#     4   9  19  35  53  90 131 164 226 277 331 413
#     4   9  19  35  54  87 132 170 220 279 343 403
#     4   8  18  34  52  86 124 168 214 278 332 398
#
# _framework density 29.166934000000001
#
# number of rings (size 3 to 8) (size 9 to 14) (size 15 to 20)
#    2.400    0.800    0.000    0.000    0.000    6.400 
#    0.000    0.000    0.000    0.000    0.000   25.200 
#    0.000    0.000    0.000    0.000    0.000    0.000 
#
# Total GULP energy -55821.648301 kJ/mol
# GULP energy per Si atom -5582.164830 kJ/mol
# Density = 2.910055 g / cm^3
# Si number density = 29.166934 Si / 1000 Ang^3
#
#
#
# Elastic Constant Matrix: (Units=GPa)
#
#
# Indices 1 2 3 4 5 6 
#
# 1 268.1535 40.6597 86.4317 -0.0015 18.0073 0.0008
# 2 40.6597 111.6078 45.9947 -0.0022 16.3910 0.0019
# 3 86.4317 45.9947 176.3640 -0.0026 2.2490 0.0021
# 4 -0.0015 -0.0022 -0.0026 59.1826 0.0016 24.4078
# 5 18.0073 16.3910 2.2490 0.0016 76.7590 -0.0009
# 6 0.0008 0.0019 0.0021 24.4078 -0.0009 21.0301
#
#
#
# Elastic Compliance Matrix: (Units=1/GPa)
#
#
# Indices 1 2 3 4 5 6 
#
# 1 0.004549 -0.000691 -0.002038 0.000000 -0.000860 0.000000
# 2 -0.000691 0.010483 -0.002370 0.000001 -0.002007 -0.000002
# 3 -0.002038 -0.002370 0.007277 0.000001 0.000771 -0.000001
# 4 0.000000 0.000001 0.000001 0.032410 -0.000001 -0.037615
# 5 -0.000860 -0.002007 0.000771 -0.000001 0.013635 0.000002
# 6 0.000000 -0.000002 -0.000001 -0.037615 0.000002 0.091207
#
#
# Mechanical properties :
#
#
# Convention : Reuss Voigt Hill
#
# Bulk Modulus (GPa) = 82.56713 100.25527 91.41120
# Shear Modulus (GPa) = 28.76939 56.93031 42.84985
#
# Velocity S-wave (km/s) = 3.14406 4.42280 3.83707
# Velocity P-wave (km/s) = 6.44594 7.78004 7.14420
#
# Compressibility (1/GPa) = 0.01211136
#
# Stress axis : x y z
#
# Youngs Moduli (GPa) = 219.84756 95.39263 137.41854
#
# Poissons Ratio (x) = 0.06591 0.28006
# Poissons Ratio (y) = 0.15190 0.32564
# Poissons Ratio (z) = 0.44805 0.22605
#
# Static dielectric constant tensor:
#      x y z
#    x 2.294120 0.000000 0.017160 
#    y 0.000000 2.482010 0.000000 
#    z 0.017160 0.000000 2.217360 
# 
# From -- ./inp_files/105089.got.cif
#   From: 2010.05.17/outbox.cif.g08.bks.cpg/sg15_53_cif.got.tgz:105089.got - 2010.06.03 18:47:42.
