data_PCOD9308469
_publ_section_title
;
Structure prediction by ZEFSAII (Michael W. Deem and Ramdas Pophale) SiO2 
 PCOD9308469
Probable space group: C 2/C
;
_chemical_formula_sum "Si O2"
_cell_formula_units_Z 52
_cell_length_a 19.214396
_cell_length_b 6.704691
_cell_length_c 23.782592
_cell_angle_alpha 90.000000
_cell_angle_beta 139.408198
_cell_angle_gamma 90.000000
_cell_volume 1993.528818
_symmetry_space_group_name_H-M "C 2/C"
_symmetry_group_IT_number 15
_symmetry_cell_setting 'monoclinic'
loop_
_space_group_symop_operation_xyz
x,y,z
-x,y,1/2-z
-x,-y,-z
x,-y,1/2+z
1/2+x,1/2+y,z
1/2-x,1/2+y,1/2-z
1/2-x,1/2-y,-z
1/2+x,1/2-y,1/2+z
loop_
_atom_site_type_symbol
_atom_site_label
_atom_site_fract_x
_atom_site_fract_y
_atom_site_fract_z
Si Si1 0.843693 0.501910 0.017391
Si Si2 0.287473 0.360211 0.339701
Si Si3 0.194155 0.976041 0.024709
Si Si4 0.539303 0.570174 0.641234
Si Si5 0.820496 0.016687 0.670285
Si Si6 0.000000 0.737198 0.750000
Si Si7 0.066383 0.600603 0.671026
O O1 0.825346 0.262436 0.997283
O O2 0.767328 0.607779 0.924912
O O3 0.797224 0.534816 0.051233
O O4 0.970459 0.524613 0.086115
O O5 0.297984 0.485295 0.403279
O O6 0.395342 0.348195 0.371348
O O7 0.245137 0.143756 0.332902
O O8 0.190291 0.453670 0.243716
O O9 0.088448 0.086811 0.937162
O O10 0.600943 0.626717 0.737353
O O11 0.556592 0.329595 0.645702
O O12 0.899901 0.885036 0.679562
O O13 0.966590 0.612329 0.783273
#
# Coordination Sequence:
#
# PCOD9308469 Si02
#       7
#     8   8   8   8   8   4   8
#     4   9  14  24  37  58  79  97 125 151 200 233
#     4   9  16  25  35  54  81 106 130 150 183 231
#     4   9  15  22  40  58  78 102 119 158 195 234
#     4   9  16  25  35  54  81 106 130 150 183 231
#     4   9  16  24  39  56  79 104 123 158 190 228
#     4   8  12  22  36  56  76  92 120 152 200 228
#     4   9  16  24  39  56  79 104 123 158 190 228
#
# _framework density 26.084399000000001
#
# number of rings (size 3 to 8) (size 9 to 14) (size 15 to 20)
#    0.000    3.385    0.000    6.000    0.000    0.000 
#    0.000    0.769    0.000    0.000    0.000    0.000 
#    0.000  187.077    0.000    0.000    0.000    0.000 
#
# Total GULP energy -145393.916591 kJ/mol
# GULP energy per Si atom -5592.073715 kJ/mol
# Density = 2.602503 g / cm^3
# Si number density = 26.084399 Si / 1000 Ang^3
#
#
#
# Elastic Constant Matrix: (Units=GPa)
#
#
# Indices 1 2 3 4 5 6 
#
# 1 128.6789 13.6063 58.1614 0.0000 28.2067 0.0000
# 2 13.6063 67.3885 -12.7225 0.0001 4.9617 0.0006
# 3 58.1614 -12.7225 174.5783 -0.0001 20.6356 -0.0002
# 4 0.0000 0.0001 -0.0001 13.1197 0.0001 5.1134
# 5 28.2067 4.9617 20.6356 0.0001 40.1859 0.0002
# 6 0.0000 0.0006 -0.0002 5.1134 0.0002 27.9886
#
#
#
# Elastic Compliance Matrix: (Units=1/GPa)
#
#
# Indices 1 2 3 4 5 6 
#
# 1 0.010620 -0.002306 -0.003043 0.000000 -0.005606 0.000000
# 2 -0.002306 0.015802 0.002086 0.000000 -0.001404 0.000000
# 3 -0.003043 0.002086 0.007103 0.000000 -0.001769 0.000000
# 4 0.000000 0.000000 0.000000 0.082064 0.000000 -0.014993
# 5 -0.005606 -0.001404 -0.001769 0.000000 0.029901 0.000000
# 6 0.000000 0.000000 0.000000 -0.014993 0.000000 0.038468
#
#
# Mechanical properties :
#
#
# Convention : Reuss Voigt Hill
#
# Bulk Modulus (GPa) = 37.04026 54.30399 45.67213
# Shear Modulus (GPa) = 25.06459 37.03222 31.04841
#
# Velocity S-wave (km/s) = 3.10321 3.77199 3.45382
# Velocity P-wave (km/s) = 5.20297 6.31144 5.78382
#
# Compressibility (1/GPa) = 0.02699765
#
# Stress axis : x y z
#
# Youngs Moduli (GPa) = 94.16556 63.28299 140.78441
#
# Poissons Ratio (x) = 0.14593 0.42845
# Poissons Ratio (y) = 0.21714 -0.29364
# Poissons Ratio (z) = 0.28657 -0.13199
#
# Static dielectric constant tensor:
#      x y z
#    x 1.918800 0.000000 -0.018490 
#    y 0.000000 2.165630 0.000000 
#    z -0.018490 0.000000 2.135330 
# 
# From -- ./inp_files/298697.got.cif
#   From: 2010.05.17/outbox.cif.g08.bks.cpg/sg15_150_cif.got.tgz:298697.got - 2010.06.03 18:47:42.
