data_PCOD9308537
_publ_section_title
;
Structure prediction by ZEFSAII (Michael W. Deem and Ramdas Pophale) SiO2 
 PCOD9308537
Probable space group: C 2/C
;
_chemical_formula_sum "Si O2"
_cell_formula_units_Z 64
_cell_length_a 7.559428
_cell_length_b 14.660561
_cell_length_c 29.456519
_cell_angle_alpha 90.000000
_cell_angle_beta 89.999955
_cell_angle_gamma 90.000000
_cell_volume 3264.532130
_symmetry_space_group_name_H-M "C 2/C"
_symmetry_group_IT_number 15
_symmetry_cell_setting 'monoclinic'
loop_
_space_group_symop_operation_xyz
x,y,z
-x,y,1/2-z
-x,-y,-z
x,-y,1/2+z
1/2+x,1/2+y,z
1/2-x,1/2+y,1/2-z
1/2-x,1/2-y,-z
1/2+x,1/2-y,1/2+z
loop_
_atom_site_type_symbol
_atom_site_label
_atom_site_fract_x
_atom_site_fract_y
_atom_site_fract_z
Si Si1 0.787230 0.750099 0.572969
Si Si2 0.711812 0.397186 0.500655
Si Si3 0.712770 0.250099 0.572969
Si Si4 0.211812 0.102814 0.499345
Si Si5 0.711300 0.107177 0.750000
Si Si6 0.283385 0.250589 0.676192
Si Si7 0.211309 0.894142 0.750000
Si Si8 0.716615 0.749411 0.176192
O O1 0.719876 0.833477 0.541681
O O2 0.746118 0.657868 0.545606
O O3 0.721301 0.750778 0.624458
O O4 1.000000 0.757832 0.574678
O O5 0.780124 0.333477 0.541681
O O6 0.746118 0.342132 0.454394
O O7 0.781616 0.500000 0.500000
O O8 0.500000 0.402524 0.506333
O O9 0.778699 0.250778 0.624458
O O10 0.500000 0.116679 0.750000
O O11 0.773723 0.162535 0.794461
O O12 0.773723 0.162535 0.705539
O O13 0.749859 0.000643 0.750000
O O14 0.226698 0.338682 0.705544
O O15 0.500000 0.250291 0.674951
O O16 0.273302 0.838682 0.705544
O O17 0.000000 0.884810 0.750000
#
# Coordination Sequence:
#
# PCOD9308537 Si02
#       8
#     8   8   8   8   8   8   8   8
#     4   9  17  31  49  66  88 121 156 183 216 269
#     4   9  18  31  46  67  94 119 146 188 234 266
#     4   9  17  31  49  66  88 121 156 183 216 269
#     4   9  18  31  46  67  94 119 146 188 234 266
#     4   9  17  31  48  66  90 117 149 187 222 258
#     4   8  16  31  48  65  90 124 152 177 219 275
#     4   9  17  31  50  70  92 119 151 183 222 272
#     4   8  16  31  48  65  90 124 152 177 219 275
#
# _framework density 19.604645999999999
#
# number of rings (size 3 to 8) (size 9 to 14) (size 15 to 20)
#    0.000    3.250    0.000    1.500    0.000    2.500 
#    0.000    7.500    0.000    0.000    0.000    0.000 
#    0.000    0.000    0.000    0.000    0.000    0.000 
#
# Total GULP energy -178403.679286 kJ/mol
# GULP energy per Si atom -5575.114978 kJ/mol
# Density = 1.956002 g / cm^3
# Si number density = 19.604646 Si / 1000 Ang^3
#
#
#
# Elastic Constant Matrix: (Units=GPa)
#
#
# Indices 1 2 3 4 5 6 
#
# 1 41.5104 4.9785 5.5009 0.0000 1.1059 0.0000
# 2 4.9785 203.4297 119.2809 0.0000 -9.2756 0.0000
# 3 5.5009 119.2809 207.8294 0.0000 -14.6028 0.0000
# 4 0.0000 0.0000 0.0000 7.2903 0.0000 0.6846
# 5 1.1059 -9.2756 -14.6028 0.0000 12.4659 0.0000
# 6 0.0000 0.0000 0.0000 0.6846 0.0000 15.7263
#
#
#
# Elastic Compliance Matrix: (Units=1/GPa)
#
#
# Indices 1 2 3 4 5 6 
#
# 1 0.024306 -0.000349 -0.000668 0.000000 -0.003198 0.000000
# 2 -0.000349 0.007418 -0.004204 0.000000 0.000626 0.000000
# 3 -0.000668 -0.004204 0.007657 0.000000 0.005900 0.000000
# 4 0.000000 0.000000 0.000000 0.137732 0.000000 -0.005996
# 5 -0.003198 0.000626 0.005900 0.000000 0.087880 0.000000
# 6 0.000000 0.000000 0.000000 -0.005996 0.000000 0.063849
#
#
# Mechanical properties :
#
#
# Convention : Reuss Voigt Hill
#
# Bulk Modulus (GPa) = 34.55598 79.14333 56.84966
# Shear Modulus (GPa) = 14.32952 28.63043 21.47998
#
# Velocity S-wave (km/s) = 2.70650 3.82565 3.31366
# Velocity P-wave (km/s) = 5.23751 7.74412 6.61071
#
# Compressibility (1/GPa) = 0.02893855
#
# Stress axis : x y z
#
# Youngs Moduli (GPa) = 41.14229 134.80883 130.60221
#
# Poissons Ratio (x) = 0.04707 0.08720
# Poissons Ratio (y) = 0.01437 0.54908
# Poissons Ratio (z) = 0.02747 0.56676
#
# Static dielectric constant tensor:
#      x y z
#    x 1.735470 0.000000 0.005000 
#    y 0.000000 1.675550 0.000000 
#    z 0.005000 0.000000 1.673890 
# 
# From -- ./inp_files/307802.got.cif
#   From: 2010.05.17/outbox.cif.g08.bks.cpg/sg15_154_cif.got.tgz:307802.got - 2010.06.03 18:47:42.
