data_PCOD9308802
_publ_section_title
;
Structure prediction by ZEFSAII (Michael W. Deem and Ramdas Pophale) SiO2 
 PCOD9308802
Probable space group: C 2/C
;
_chemical_formula_sum "Si O2"
_cell_formula_units_Z 32
_cell_length_a 27.000000
_cell_length_b 12.000000
_cell_length_c 15.000000
_cell_angle_alpha 90.000000
_cell_angle_beta 140.000000
_cell_angle_gamma 90.000000
_cell_volume 3123.947783
_symmetry_space_group_name_H-M "C 2/C"
_symmetry_group_IT_number 15
_symmetry_cell_setting 'monoclinic'
loop_
_space_group_symop_operation_xyz
x,y,z
-x,y,1/2-z
-x,-y,-z
x,-y,1/2+z
1/2+x,1/2+y,z
1/2-x,1/2+y,1/2-z
1/2-x,1/2-y,-z
1/2+x,1/2-y,1/2+z
loop_
_atom_site_type_symbol
_atom_site_label
_atom_site_fract_x
_atom_site_fract_y
_atom_site_fract_z
Si Si1 0.268015 0.712441 0.764303
Si Si2 0.307590 0.581155 0.438297
Si Si3 0.054683 0.943544 0.239727
Si Si4 0.349063 0.016092 0.179801
Si Si5 0.151260 0.008501 0.700298
Si Si6 0.972863 0.304729 0.813762
Si Si7 0.316219 0.897182 0.955329
Si Si8 0.884663 0.431787 0.409728
O O1 0.231710 0.807959 0.653058
O O2 0.325439 0.637564 0.784247
O O3 0.308468 0.772488 0.904917
O O4 0.194077 0.640841 0.692848
O O5 0.370103 0.591728 0.600902
O O6 0.235550 0.523696 0.390869
O O7 0.350581 0.530840 0.408138
O O8 0.086605 0.003914 0.190802
O O9 0.022549 0.826464 0.159598
O O10 0.000000 0.987167 0.250000
O O11 0.398585 0.970767 0.329253
O O12 0.390096 0.133292 0.210040
O O13 0.349163 0.931314 0.096758
O O14 0.228742 0.944877 0.838109
O O15 0.000000 0.316264 0.750000
O O16 0.040433 0.365459 0.959327
O O17 0.364707 0.966122 0.948530
#
# Coordination Sequence:
#
# PCOD9308802 Si02
#       8
#     8   8   8   8   8   8   8   8
#     4  10  19  37  61  90 126 160 209 258 304 368
#     4  11  22  38  64  94 118 164 215 260 314 357
#     4  11  24  38  62  94 120 165 212 253 318 369
#     4  12  21  38  63  90 125 166 203 256 311 372
#     4  10  21  39  60  89 129 157 205 268 303 366
#     4  11  23  38  61  93 129 163 201 262 313 367
#     4  10  21  36  63  94 121 162 211 257 312 362
#     4  11  22  41  57  95 130 160 210 253 313 373
#
# _framework density 10.243449
#
# number of rings (size 3 to 8) (size 9 to 14) (size 15 to 20)
#    0.000    1.250    6.250    2.625    1.750    2.000 
#    0.000    0.000    0.000    0.000    0.000    0.000 
#    0.000    0.000    0.000    0.000    0.000    0.000 
#
# Total GULP energy -178161.959066 kJ/mol
# GULP energy per Si atom -5567.561221 kJ/mol
# Density = 1.022013 g / cm^3
# Si number density = 10.243449 Si / 1000 Ang^3
#
#
#
# Elastic Constant Matrix: (Units=GPa)
#
#
# Indices 1 2 3 4 5 6 
#
# 1 110.5553 9.3123 25.4154 0.0000 -14.5197 0.0000
# 2 9.3123 10.3441 2.3628 0.0000 -1.7336 0.0000
# 3 25.4154 2.3628 18.6083 0.0000 -4.0472 0.0000
# 4 0.0000 0.0000 0.0000 24.2993 0.0000 -3.2331
# 5 -14.5197 -1.7336 -4.0472 0.0000 35.5423 0.0000
# 6 0.0000 0.0000 0.0000 -3.2331 0.0000 0.2559
#
#
#
# Elastic Compliance Matrix: (Units=1/GPa)
#
#
# Indices 1 2 3 4 5 6 
#
# 1 0.014249 -0.008219 -0.017676 0.000000 0.003407 0.000000
# 2 -0.008219 0.104729 -0.001735 0.000000 0.001553 0.000000
# 3 -0.017676 -0.001735 0.078457 0.000000 0.001628 0.000000
# 4 0.000000 0.000000 0.000000 -0.060448 0.000000 -0.763610
# 5 0.003407 0.001553 0.001628 0.000000 0.029788 0.000000
# 6 0.000000 0.000000 0.000000 -0.763610 0.000000 -5.739063
#
#
# Mechanical properties :
#
#
# Convention : Reuss Voigt Hill
#
# Bulk Modulus (GPa) = 7.03361 23.74320 15.38840
# Shear Modulus (GPa) = -0.91414 18.84731 8.96659
#
# Velocity S-wave (km/s) = -0.66871 3.03639 2.09434
# Velocity P-wave (km/s) = 1.68655 4.88953 3.65732
#
# Compressibility (1/GPa) = 0.14217447
#
# Stress axis : x y z
#
# Youngs Moduli (GPa) = 70.18229 9.54846 12.74590
#
# Poissons Ratio (x) = 0.07848 0.22530
# Poissons Ratio (y) = 0.57682 0.02211
# Poissons Ratio (z) = 1.24057 0.01656
#
# Static dielectric constant tensor:
#      x y z
#    x 1.775890 0.000000 -0.042720 
#    y 0.000000 1.787400 0.000000 
#    z -0.042720 0.000000 1.803020 
# 
# From -- ./inp_files/177874.got.cif
#   From: 2010.05.17/outbox.ucp.g08.bks.cvg/sg15_89_cif.got.tgz:177874.got - 2010.06.11 12:40:34.
