data_PCOD9308502
_publ_section_title
;
Structure prediction by ZEFSAII (Michael W. Deem and Ramdas Pophale) SiO2 
 PCOD9308502
Probable space group: C 2/C
;
_chemical_formula_sum "Si O2"
_cell_formula_units_Z 48
_cell_length_a 7.022025
_cell_length_b 22.769534
_cell_length_c 13.418027
_cell_angle_alpha 90.000000
_cell_angle_beta 112.786513
_cell_angle_gamma 90.000000
_cell_volume 1977.946727
_symmetry_space_group_name_H-M "C 2/C"
_symmetry_group_IT_number 15
_symmetry_cell_setting 'monoclinic'
loop_
_space_group_symop_operation_xyz
x,y,z
-x,y,1/2-z
-x,-y,-z
x,-y,1/2+z
1/2+x,1/2+y,z
1/2-x,1/2+y,1/2-z
1/2-x,1/2-y,-z
1/2+x,1/2-y,1/2+z
loop_
_atom_site_type_symbol
_atom_site_label
_atom_site_fract_x
_atom_site_fract_y
_atom_site_fract_z
Si Si1 0.098438 0.572803 0.024036
Si Si2 0.954844 0.823319 0.995110
Si Si3 0.041391 0.308401 0.050862
Si Si4 0.194099 0.143483 0.729623
Si Si5 0.814341 0.412053 0.655323
Si Si6 0.198767 0.484945 0.187060
O O1 0.262042 0.528445 0.107799
O O2 0.910805 0.570580 0.068145
O O3 0.122965 0.642767 0.019742
O O4 0.006495 0.546067 0.903762
O O5 0.743503 0.816200 0.019358
O O6 0.134041 0.844993 0.104706
O O7 0.010253 0.759692 0.964481
O O8 0.884478 0.872365 0.901793
O O9 0.113047 0.327729 0.175570
O O10 0.197042 0.074029 0.752305
O O11 0.000000 0.169855 0.750000
O O12 0.000000 0.377446 0.750000
O O13 0.209192 0.469387 0.780587
#
# Coordination Sequence:
#
# PCOD9308502 Si02
#       6
#     8   8   8   8   8   8
#     4   8  15  28  43  61  83 109 142 173 197 238
#     4   9  16  25  39  60  86 110 132 163 206 255
#     4   8  15  26  40  57  83 115 136 158 203 256
#     4   9  17  27  39  59  87 114 136 166 206 247
#     4   9  17  27  42  63  85 110 140 170 202 245
#     4   9  16  27  42  58  86 114 138 170 204 238
#
# _framework density 24.267586999999999
#
# number of rings (size 3 to 8) (size 9 to 14) (size 15 to 20)
#    0.000    3.333    0.000    1.000    0.000    6.667 
#    0.000    0.000    0.000    0.000    0.000    0.000 
#    0.000  158.667    0.000    0.000    0.000    0.000 
#
# Total GULP energy -133618.389468 kJ/mol
# GULP energy per Si atom -5567.432895 kJ/mol
# Density = 2.421235 g / cm^3
# Si number density = 24.267587 Si / 1000 Ang^3
#
#
#
# Elastic Constant Matrix: (Units=GPa)
#
#
# Indices 1 2 3 4 5 6 
#
# 1 53.9070 13.2526 24.5610 0.0000 -4.9149 0.0000
# 2 13.2526 205.2285 114.4321 0.0000 12.5166 0.0000
# 3 24.5610 114.4321 153.3343 0.0000 9.0258 0.0000
# 4 0.0000 0.0000 0.0000 44.3930 0.0000 4.2407
# 5 -4.9149 12.5166 9.0258 0.0000 26.1102 0.0000
# 6 0.0000 0.0000 0.0000 4.2407 0.0000 15.5975
#
#
#
# Elastic Compliance Matrix: (Units=1/GPa)
#
#
# Indices 1 2 3 4 5 6 
#
# 1 0.020713 0.000636 -0.004087 0.000000 0.005007 0.000000
# 2 0.000636 0.008457 -0.006310 0.000000 -0.001753 0.000000
# 3 -0.004087 -0.006310 0.011997 0.000000 -0.001892 0.000000
# 4 0.000000 0.000000 0.000000 0.023127 0.000000 -0.006288
# 5 0.005007 -0.001753 -0.001892 0.000000 0.040736 0.000000
# 6 0.000000 0.000000 0.000000 -0.006288 0.000000 0.065822
#
#
# Mechanical properties :
#
#
# Convention : Reuss Voigt Hill
#
# Bulk Modulus (GPa) = 46.20163 79.66237 62.93200
# Shear Modulus (GPa) = 25.30516 34.56842 29.93679
#
# Velocity S-wave (km/s) = 3.23268 3.77831 3.51609
# Velocity P-wave (km/s) = 5.74572 7.20639 6.51711
#
# Compressibility (1/GPa) = 0.02164426
#
# Stress axis : x y z
#
# Youngs Moduli (GPa) = 48.27937 118.24869 83.35596
#
# Poissons Ratio (x) = -0.07521 0.34069
# Poissons Ratio (y) = -0.03071 0.52597
# Poissons Ratio (z) = 0.19733 0.74614
#
# Static dielectric constant tensor:
#      x y z
#    x 2.130630 0.000000 0.025760 
#    y 0.000000 1.942940 0.000000 
#    z 0.025760 0.000000 1.944530 
# 
# From -- ./inp_files/200038.got.cif
#   From: 2010.05.17/outbox.cif.g08.bks.cpg/sg15_101_cif.got.tgz:200038.got - 2010.06.03 18:47:42.
