data_PCOD9308679
_publ_section_title
;
Structure prediction by ZEFSAII (Michael W. Deem and Ramdas Pophale) SiO2 
 PCOD9308679
Probable space group: C 2/C
;
_chemical_formula_sum "Si O2"
_cell_formula_units_Z 30
_cell_length_a 12.000000
_cell_length_b 24.000000
_cell_length_c 21.000000
_cell_angle_alpha 90.000000
_cell_angle_beta 30.000000
_cell_angle_gamma 90.000000
_cell_volume 3024.000000
_symmetry_space_group_name_H-M "C 2/C"
_symmetry_group_IT_number 15
_symmetry_cell_setting 'monoclinic'
loop_
_space_group_symop_operation_xyz
x,y,z
-x,y,1/2-z
-x,-y,-z
x,-y,1/2+z
1/2+x,1/2+y,z
1/2-x,1/2+y,1/2-z
1/2-x,1/2-y,-z
1/2+x,1/2-y,1/2+z
loop_
_atom_site_type_symbol
_atom_site_label
_atom_site_fract_x
_atom_site_fract_y
_atom_site_fract_z
Si Si1 0.500000 0.694636 0.750000
Si Si2 0.421216 0.269478 0.517048
Si Si3 0.964979 0.354954 0.191530
Si Si4 0.370048 0.270142 0.749017
Si Si5 0.536430 0.635060 0.598831
Si Si6 0.282602 0.470257 0.679266
Si Si7 0.760127 0.523113 0.450249
Si Si8 0.034934 0.857040 0.568934
O O1 0.714989 0.735074 0.645632
O O2 0.517977 0.655279 0.679968
O O3 0.610296 0.229953 0.394328
O O4 0.367910 0.312024 0.486920
O O5 0.533024 0.310707 0.513686
O O6 0.933543 0.289975 0.186911
O O7 0.720207 0.379802 0.296344
O O8 0.000000 0.358907 0.250000
O O9 0.207039 0.376358 0.047506
O O10 0.500000 0.270253 0.750000
O O11 0.448269 0.322269 0.670956
O O12 0.703254 0.585460 0.500453
O O13 0.519006 0.494454 0.590929
O O14 0.255685 0.486289 0.618141
O O15 0.354691 0.404899 0.643185
O O16 0.030796 0.484718 0.831687
#
# Coordination Sequence:
#
# PCOD9308679 Si02
#       8
#     4   8   8   8   8   8   8   8
#     4  12  28  36  60  88 132 176 206 234 314 386
#     4  11  22  39  57  89 125 165 205 250 295 373
#     4  10  18  36  58  88 118 159 202 245 301 356
#     4  10  21  34  53  86 125 162 201 245 287 367
#     4  11  23  40  61  88 127 169 202 259 303 380
#     4  10  23  39  65  94 114 158 201 273 322 369
#     4  10  22  43  63  89 123 147 211 265 325 367
#     4  12  21  35  64  88 122 161 203 253 319 360
#
# _framework density 9.9206350000000008
#
# number of rings (size 3 to 8) (size 9 to 14) (size 15 to 20)
#    0.000    1.333    5.333    2.400    7.467    0.000 
#    0.000    0.000    1.467    0.800    0.000    0.000 
#    0.000    0.000    0.000    0.000    0.000    0.000 
#
# Total GULP energy -167075.675772 kJ/mol
# GULP energy per Si atom -5569.189192 kJ/mol
# Density = 0.989806 g / cm^3
# Si number density = 9.920635 Si / 1000 Ang^3
#
#
#
# Elastic Constant Matrix: (Units=GPa)
#
#
# Indices 1 2 3 4 5 6 
#
# 1 37.8579 4.9320 18.6807 0.0269 -7.0605 0.0703
# 2 4.9320 21.8903 30.5537 -0.0856 -6.8205 0.0769
# 3 18.6807 30.5537 124.5976 -0.1497 -34.6659 0.1348
# 4 0.0269 -0.0856 -0.1497 35.5252 -0.0206 -18.2780
# 5 -7.0605 -6.8205 -34.6659 -0.0206 38.5516 0.0014
# 6 0.0703 0.0769 0.1348 -18.2780 0.0014 29.9722
#
#
#
# Elastic Compliance Matrix: (Units=1/GPa)
#
#
# Indices 1 2 3 4 5 6 
#
# 1 0.028635 -0.000920 -0.003539 -0.000092 0.001899 -0.000105
# 2 -0.000920 0.069958 -0.018165 0.000060 -0.004125 -0.000059
# 3 -0.003539 -0.018165 0.015919 0.000034 0.010453 0.000004
# 4 -0.000092 0.000060 0.000034 0.041020 0.000045 0.025015
# 5 0.001899 -0.004125 0.010453 0.000045 0.034956 -0.000015
# 6 -0.000105 -0.000059 0.000004 0.025015 -0.000015 0.048620
#
#
# Mechanical properties :
#
#
# Convention : Reuss Voigt Hill
#
# Bulk Modulus (GPa) = 14.43741 32.51984 23.47863
# Shear Modulus (GPa) = 16.26307 29.48843 22.87575
#
# Velocity S-wave (km/s) = 2.86607 3.85933 3.39918
# Velocity P-wave (km/s) = 4.27139 6.02369 5.22157
#
# Compressibility (1/GPa) = 0.06926448
#
# Stress axis : x y z
#
# Youngs Moduli (GPa) = 34.92191 14.29422 62.81791
#
# Poissons Ratio (x) = 0.01315 0.22233
# Poissons Ratio (y) = 0.03213 1.14108
# Poissons Ratio (z) = 0.12360 0.25965
#
# Static dielectric constant tensor:
#      x y z
#    x 1.727200 0.000010 -0.012790 
#    y 0.000010 1.755840 0.000050 
#    z -0.012790 0.000050 1.769080 
# 
# From -- ./inp_files/240852.got.cif
#   From: 2010.05.17/outbox.ucp.g08.bks.cvg/sg15_121_cif.got.tgz:240852.got - 2010.06.11 12:40:34.
