data_PCOD9308227
_publ_section_title
;
Structure prediction by ZEFSAII (Michael W. Deem and Ramdas Pophale) SiO2 
 PCOD9308227
Probable space group: C 2/C
;
_chemical_formula_sum "Si O2"
_cell_formula_units_Z 36
_cell_length_a 9.849768
_cell_length_b 16.509279
_cell_length_c 9.572941
_cell_angle_alpha 90.000000
_cell_angle_beta 68.356824
_cell_angle_gamma 90.000000
_cell_volume 1446.932701
_symmetry_space_group_name_H-M "C 2/C"
_symmetry_group_IT_number 15
_symmetry_cell_setting 'monoclinic'
loop_
_space_group_symop_operation_xyz
x,y,z
-x,y,1/2-z
-x,-y,-z
x,-y,1/2+z
1/2+x,1/2+y,z
1/2-x,1/2+y,1/2-z
1/2-x,1/2-y,-z
1/2+x,1/2-y,1/2+z
loop_
_atom_site_type_symbol
_atom_site_label
_atom_site_fract_x
_atom_site_fract_y
_atom_site_fract_z
Si Si1 0.642215 0.215665 0.658873
Si Si2 0.606646 0.486234 0.085257
Si Si3 0.310194 0.304420 0.388178
Si Si4 0.601324 0.920945 0.966789
Si Si5 0.000000 0.683895 0.250000
O O1 0.500000 0.269891 0.750000
O O2 0.750000 0.250000 0.500000
O O3 0.732466 0.198888 0.765449
O O4 0.568805 0.141013 0.603276
O O5 0.500000 0.501286 0.250000
O O6 0.659979 0.394115 0.070721
O O7 0.740845 0.545947 0.052311
O O8 0.500000 0.500000 0.000000
O O9 0.500000 0.284872 0.250000
O O10 0.156822 0.289807 0.567773
O O11 0.587726 0.870991 0.827528
O O12 0.500000 0.000000 0.000000
#
# Coordination Sequence:
#
# PCOD9308227 Si02
#       5
#     8   8   8   8   4
#     4  12  27  51  80 119 158 212 271 332 405 487
#     4  12  29  50  78 115 159 203 268 344 404 468
#     4  12  27  50  78 111 160 210 265 334 401 487
#     4  12  29  49  80 112 159 213 270 329 408 491
#     4  12  26  50  74 112 156 206 274 324 406 488
#
# _framework density 24.880217999999999
#
# number of rings (size 3 to 8) (size 9 to 14) (size 15 to 20)
#    0.000    0.000    3.333    5.333   10.889    0.889 
#    0.000    0.000    0.000    0.000    0.000    0.000 
#    0.000    0.000    0.000    0.000    0.000    0.000 
#
# Total GULP energy -100523.854952 kJ/mol
# GULP energy per Si atom -5584.658608 kJ/mol
# Density = 2.482359 g / cm^3
# Si number density = 24.880218 Si / 1000 Ang^3
#
#
#
# Elastic Constant Matrix: (Units=GPa)
#
#
# Indices 1 2 3 4 5 6 
#
# 1 217.2851 59.8104 83.8489 0.0000 28.9343 0.0000
# 2 59.8104 77.2677 49.1651 0.0000 31.4324 0.0000
# 3 83.8489 49.1651 194.3758 0.0000 38.0641 0.0000
# 4 0.0000 0.0000 0.0000 16.6057 0.0000 15.5514
# 5 28.9343 31.4324 38.0641 0.0000 73.0572 0.0000
# 6 0.0000 0.0000 0.0000 15.5514 0.0000 28.1947
#
#
#
# Elastic Compliance Matrix: (Units=1/GPa)
#
#
# Indices 1 2 3 4 5 6 
#
# 1 0.006324 -0.003782 -0.001781 0.000000 0.000051 0.000000
# 2 -0.003782 0.019628 -0.002197 0.000000 -0.005802 0.000000
# 3 -0.001781 -0.002197 0.006844 0.000000 -0.001915 0.000000
# 4 0.000000 0.000000 0.000000 0.124563 0.000000 -0.068706
# 5 0.000051 -0.005802 -0.001915 0.000000 0.017162 0.000000
# 6 0.000000 0.000000 0.000000 -0.068706 0.000000 0.073364
#
#
# Mechanical properties :
#
#
# Convention : Reuss Voigt Hill
#
# Bulk Modulus (GPa) = 57.88785 97.17526 77.53155
# Shear Modulus (GPa) = 18.57602 43.31182 30.94392
#
# Velocity S-wave (km/s) = 2.73540 4.17683 3.53046
# Velocity P-wave (km/s) = 5.77006 7.89957 6.91726
#
# Compressibility (1/GPa) = 0.01727478
#
# Stress axis : x y z
#
# Youngs Moduli (GPa) = 158.12701 50.94744 146.11900
#
# Poissons Ratio (x) = 0.19271 0.26027
# Poissons Ratio (y) = 0.59812 0.32099
# Poissons Ratio (z) = 0.28166 0.11192
#
# Static dielectric constant tensor:
#      x y z
#    x 1.030000 0.000000 1.510920 
#    y 0.000000 1.858670 0.000000 
#    z 1.510920 0.000000 -0.922680 
# 
# From -- ./inp_files/23293.got.cif
#   From: 2010.05.17/outbox.cif.g08.bks.cpg/sg15_12_cif.got.tgz:23293.got - 2010.06.03 18:47:42.
