data_PCOD9308007
_publ_section_title
;
Structure prediction by ZEFSAII (Michael W. Deem and Ramdas Pophale) SiO2 
 PCOD9308007
Probable space group: C 2/C
;
_chemical_formula_sum "Si O2"
_cell_formula_units_Z 28
_cell_length_a 9.625237
_cell_length_b 10.452059
_cell_length_c 14.017474
_cell_angle_alpha 90.000000
_cell_angle_beta 53.924863
_cell_angle_gamma 90.000000
_cell_volume 1139.793906
_symmetry_space_group_name_H-M "C 2/C"
_symmetry_group_IT_number 15
_symmetry_cell_setting 'monoclinic'
loop_
_space_group_symop_operation_xyz
x,y,z
-x,y,1/2-z
-x,-y,-z
x,-y,1/2+z
1/2+x,1/2+y,z
1/2-x,1/2+y,1/2-z
1/2-x,1/2-y,-z
1/2+x,1/2-y,1/2+z
loop_
_atom_site_type_symbol
_atom_site_label
_atom_site_fract_x
_atom_site_fract_y
_atom_site_fract_z
Si Si1 0.238132 0.733593 0.788576
Si Si2 0.693067 0.991135 0.174940
Si Si3 0.500000 0.352758 0.750000
Si Si4 0.301423 0.027708 0.548501
O O1 0.295812 0.621110 0.690403
O O2 0.235787 0.665934 0.891324
O O3 0.323933 0.871561 0.765885
O O4 0.052644 0.776517 0.823824
O O5 0.500000 0.942835 0.250000
O O6 0.739523 0.015048 0.046622
O O7 0.666718 0.433258 0.653598
O O8 0.500000 0.000000 0.500000
#
# Coordination Sequence:
#
# PCOD9308007 Si02
#       4
#     8   8   4   8
#     4  12  25  48  74 115 145 199 249 308 374 449
#     4  12  26  48  76 108 154 193 249 312 370 441
#     4  12  26  48  78 108 154 200 248 306 384 434
#     4  12  26  51  77 112 151 198 250 313 369 448
#
# _framework density 24.565843000000001
#
# number of rings (size 3 to 8) (size 9 to 14) (size 15 to 20)
#    0.000    0.000    7.143    0.857    2.000    8.000 
#    5.143    0.000    0.000    0.000    0.000    0.000 
#    0.000    0.000    0.000    0.000    0.000    0.000 
#
# Total GULP energy -78097.664985 kJ/mol
# GULP energy per Si atom -5578.404642 kJ/mol
# Density = 2.450993 g / cm^3
# Si number density = 24.565843 Si / 1000 Ang^3
#
#
#
# Elastic Constant Matrix: (Units=GPa)
#
#
# Indices 1 2 3 4 5 6 
#
# 1 83.3759 50.2767 40.1450 0.0000 20.2480 0.0000
# 2 50.2767 151.7608 45.1503 0.0000 17.0468 0.0000
# 3 40.1450 45.1503 134.7893 0.0000 39.6503 0.0000
# 4 0.0000 0.0000 0.0000 23.0250 0.0000 17.8706
# 5 20.2480 17.0468 39.6503 0.0000 40.2302 0.0000
# 6 0.0000 0.0000 0.0000 17.8706 0.0000 61.0345
#
#
#
# Elastic Compliance Matrix: (Units=1/GPa)
#
#
# Indices 1 2 3 4 5 6 
#
# 1 0.016791 -0.004405 -0.002237 0.000000 -0.004380 0.000000
# 2 -0.004405 0.008501 -0.001589 0.000000 0.000181 0.000000
# 3 -0.002237 -0.001589 0.011391 0.000000 -0.009427 0.000000
# 4 0.000000 0.000000 0.000000 0.056203 0.000000 -0.016456
# 5 -0.004380 0.000181 -0.009427 0.000000 0.036276 0.000000
# 6 0.000000 0.000000 0.000000 -0.016456 0.000000 0.021202
#
#
# Mechanical properties :
#
#
# Convention : Reuss Voigt Hill
#
# Bulk Modulus (GPa) = 49.45430 71.23001 60.34215
# Shear Modulus (GPa) = 28.80737 40.48153 34.64445
#
# Velocity S-wave (km/s) = 3.42813 4.06381 3.75943
# Velocity P-wave (km/s) = 5.98702 7.14688 6.59251
#
# Compressibility (1/GPa) = 0.02022069
#
# Stress axis : x y z
#
# Youngs Moduli (GPa) = 59.55594 117.63225 87.79136
#
# Poissons Ratio (x) = 0.51819 0.19639
# Poissons Ratio (y) = 0.26235 0.13948
# Poissons Ratio (z) = 0.13323 0.18689
#
# Static dielectric constant tensor:
#      x y z
#    x 2.394450 0.000000 0.315830 
#    y 0.000000 2.005100 0.000000 
#    z 0.315830 0.000000 2.155320 
# 
# From -- ./inp_files/140668.got.cif
#   From: 2010.05.17/outbox.cif.g08.bks.cpg/sg15_71_cif.got.tgz:140668.got - 2010.06.03 18:47:42.
