data_PCOD9308483
_publ_section_title
;
Structure prediction by ZEFSAII (Michael W. Deem and Ramdas Pophale) SiO2 
 PCOD9308483
Probable space group: C 2/C
;
_chemical_formula_sum "Si O2"
_cell_formula_units_Z 56
_cell_length_a 10.023502
_cell_length_b 20.080394
_cell_length_c 9.286350
_cell_angle_alpha 90.000000
_cell_angle_beta 85.963785
_cell_angle_gamma 90.000000
_cell_volume 1864.482308
_symmetry_space_group_name_H-M "C 2/C"
_symmetry_group_IT_number 15
_symmetry_cell_setting 'monoclinic'
loop_
_space_group_symop_operation_xyz
x,y,z
-x,y,1/2-z
-x,-y,-z
x,-y,1/2+z
1/2+x,1/2+y,z
1/2-x,1/2+y,1/2-z
1/2-x,1/2-y,-z
1/2+x,1/2-y,1/2+z
loop_
_atom_site_type_symbol
_atom_site_label
_atom_site_fract_x
_atom_site_fract_y
_atom_site_fract_z
Si Si1 0.898844 0.222779 0.621217
Si Si2 0.372196 0.559553 0.124084
Si Si3 0.095241 0.916475 0.367262
Si Si4 0.637999 0.298947 0.881342
Si Si5 0.353831 0.014381 0.580256
Si Si6 0.600499 0.132699 0.379624
Si Si7 0.641194 0.155923 0.888412
O O1 0.000000 0.233276 0.750000
O O2 0.002972 0.212081 0.482937
O O3 0.829009 0.295018 0.628016
O O4 0.821193 0.151605 0.621557
O O5 0.505105 0.567827 0.014101
O O6 0.365514 0.630802 0.200285
O O7 0.246427 0.542778 0.031348
O O8 0.370817 0.488651 0.201459
O O9 0.000000 0.890113 0.250000
O O10 0.750521 0.321074 0.994125
O O11 0.648042 0.226644 0.806472
O O12 0.321378 0.937721 0.621682
O O13 0.500000 0.000000 0.500000
O O14 0.348584 0.081086 0.680991
O O15 0.500000 0.124468 0.250000
O O16 0.498257 0.143762 0.519323
#
# Coordination Sequence:
#
# PCOD9308483 Si02
#       7
#     8   8   8   8   8   8   8
#     4   8  14  25  44  65  87 114 151 193 224 263
#     4   9  17  30  47  69  95 118 151 197 234 279
#     4   9  17  31  49  69  89 118 156 197 238 271
#     4   8  13  24  43  65  83 111 154 188 219 259
#     4   9  17  30  44  65  96 121 148 183 229 280
#     4   9  16  27  42  64  91 121 153 187 223 270
#     4   8  14  25  43  62  84 117 152 187 215 263
#
# _framework density 30.035146000000001
#
# number of rings (size 3 to 8) (size 9 to 14) (size 15 to 20)
#    0.000    3.429    0.000    0.000    0.000    0.000 
#    7.714    0.714    0.000    0.857    0.000    0.000 
#    0.000    0.000    0.000    0.000    0.000    0.000 
#
# Total GULP energy -155996.591160 kJ/mol
# GULP energy per Si atom -5571.306827 kJ/mol
# Density = 2.996678 g / cm^3
# Si number density = 30.035146 Si / 1000 Ang^3
#
#
#
# Elastic Constant Matrix: (Units=GPa)
#
#
# Indices 1 2 3 4 5 6 
#
# 1 99.5518 91.5695 41.2978 0.0000 -3.1895 0.0000
# 2 91.5695 509.8134 64.7775 0.0000 -48.7128 0.0000
# 3 41.2978 64.7775 43.1018 0.0000 -7.0386 0.0000
# 4 0.0000 0.0000 0.0000 44.6874 0.0000 -30.6988
# 5 -3.1895 -48.7128 -7.0386 0.0000 55.3756 0.0000
# 6 0.0000 0.0000 0.0000 -30.6988 0.0000 65.6554
#
#
#
# Elastic Compliance Matrix: (Units=1/GPa)
#
#
# Indices 1 2 3 4 5 6 
#
# 1 0.017515 -0.001454 -0.014952 0.000000 -0.002170 0.000000
# 2 -0.001454 0.002714 -0.002359 0.000000 0.002004 0.000000
# 3 -0.014952 -0.002359 0.041453 0.000000 0.002333 0.000000
# 4 0.000000 0.000000 0.000000 0.032967 0.000000 0.015415
# 5 -0.002170 0.002004 0.002333 0.000000 0.019993 0.000000
# 6 0.000000 0.000000 0.000000 0.015415 0.000000 0.022438
#
#
# Mechanical properties :
#
#
# Convention : Reuss Voigt Hill
#
# Bulk Modulus (GPa) = 41.40198 116.41742 78.90970
# Shear Modulus (GPa) = 27.37351 63.46518 45.41934
#
# Velocity S-wave (km/s) = 3.02219 4.60176 3.89293
# Velocity P-wave (km/s) = 5.09829 8.19020 6.82173
#
# Compressibility (1/GPa) = 0.02415343
#
# Stress axis : x y z
#
# Youngs Moduli (GPa) = 57.09374 368.50019 24.12397
#
# Poissons Ratio (x) = 0.53562 0.36070
# Poissons Ratio (y) = 0.08299 0.05690
# Poissons Ratio (z) = 0.85366 0.86912
#
# Static dielectric constant tensor:
#      x y z
#    x 2.622860 0.000000 0.403890 
#    y 0.000000 2.501710 0.000000 
#    z 0.403890 0.000000 2.188770 
# 
# From -- ./inp_files/154547.got.cif
#   From: 2010.05.17/outbox.cif.g08.bks.cpg/sg15_78_cif.got.tgz:154547.got - 2010.06.03 18:47:42.
