data_PCOD9308750
_publ_section_title
;
Structure prediction by ZEFSAII (Michael W. Deem and Ramdas Pophale) SiO2 
 PCOD9308750
Probable space group: C 2/C
;
_chemical_formula_sum "Si O2"
_cell_formula_units_Z 24
_cell_length_a 15.000000
_cell_length_b 30.000000
_cell_length_c 15.000000
_cell_angle_alpha 90.000000
_cell_angle_beta 20.000000
_cell_angle_gamma 90.000000
_cell_volume 2308.635967
_symmetry_space_group_name_H-M "C 2/C"
_symmetry_group_IT_number 15
_symmetry_cell_setting 'monoclinic'
loop_
_space_group_symop_operation_xyz
x,y,z
-x,y,1/2-z
-x,-y,-z
x,-y,1/2+z
1/2+x,1/2+y,z
1/2-x,1/2+y,1/2-z
1/2-x,1/2-y,-z
1/2+x,1/2-y,1/2+z
loop_
_atom_site_type_symbol
_atom_site_label
_atom_site_fract_x
_atom_site_fract_y
_atom_site_fract_z
Si Si1 0.454752 0.719806 0.385634
Si Si2 0.591846 0.369739 0.267488
Si Si3 0.459492 0.002414 0.686804
Si Si4 0.843561 0.411917 0.703647
Si Si5 0.457972 0.719581 0.996633
Si Si6 0.450528 0.436923 0.694814
O O1 0.500000 0.693242 0.250000
O O2 0.167979 0.740781 0.668720
O O3 0.507875 0.700760 0.433905
O O4 0.500000 0.372742 0.250000
O O5 0.390357 0.400523 0.509767
O O6 0.518763 0.320184 0.371711
O O7 0.890914 0.383828 0.017368
O O8 0.500000 0.984108 0.750000
O O9 0.409958 0.963284 0.663117
O O10 0.737453 0.024566 0.407769
O O11 0.224798 0.039608 0.906828
O O12 0.702888 0.407818 0.737481
O O13 0.172468 0.742333 0.270799
O O14 0.500000 0.418273 0.750000
#
# Coordination Sequence:
#
# PCOD9308750 Si02
#       6
#     8   8   8   8   8   8
#     4   8  14  27  51  80 106 132 169 223 279 333
#     4  12  26  41  60  88 120 159 204 254 310 365
#     4  10  19  34  59  90 122 163 206 244 289 347
#     4  12  23  40  61  87 126 163 199 249 307 359
#     4  10  21  39  62  86 115 153 199 249 303 363
#     4  10  21  37  61  91 123 160 205 247 289 352
#
# _framework density 10.395749
#
# number of rings (size 3 to 8) (size 9 to 14) (size 15 to 20)
#    0.000    1.667    0.000    5.500    0.000    2.000 
#    0.000    0.833    0.000    8.000    0.000    0.000 
#    0.000    0.000    0.000    0.000    0.000    0.000 
#
# Total GULP energy -133702.961375 kJ/mol
# GULP energy per Si atom -5570.956724 kJ/mol
# Density = 1.037209 g / cm^3
# Si number density = 10.395749 Si / 1000 Ang^3
#
#
#
# Elastic Constant Matrix: (Units=GPa)
#
#
# Indices 1 2 3 4 5 6 
#
# 1 180.9927 25.7374 17.9821 0.0152 3.4185 -0.0031
# 2 25.7374 47.2529 1.6881 0.0340 2.7225 0.0220
# 3 17.9821 1.6881 107.9486 -0.0219 -14.8747 0.0039
# 4 0.0152 0.0340 -0.0219 22.1597 0.0525 -0.5016
# 5 3.4185 2.7225 -14.8747 0.0525 40.1361 0.0223
# 6 -0.0031 0.0220 0.0039 -0.5016 0.0223 23.4856
#
#
#
# Elastic Compliance Matrix: (Units=1/GPa)
#
#
# Indices 1 2 3 4 5 6 
#
# 1 0.006105 -0.003248 -0.001062 0.000001 -0.000693 0.000005
# 2 -0.003248 0.023005 0.000005 -0.000031 -0.001282 -0.000021
# 3 -0.001062 0.000005 0.009962 0.000001 0.003782 -0.000005
# 4 0.000001 -0.000031 0.000001 0.045149 -0.000057 0.000964
# 5 -0.000693 -0.001282 0.003782 -0.000057 0.026463 -0.000026
# 6 0.000005 -0.000021 -0.000005 0.000964 -0.000026 0.042600
#
#
# Mechanical properties :
#
#
# Convention : Reuss Voigt Hill
#
# Bulk Modulus (GPa) = 32.82700 47.44548 40.13624
# Shear Modulus (GPa) = 29.06161 36.54205 32.80183
#
# Velocity S-wave (km/s) = 3.74272 4.19686 3.97628
# Velocity P-wave (km/s) = 5.87369 6.80838 6.35823
#
# Compressibility (1/GPa) = 0.03046273
#
# Stress axis : x y z
#
# Youngs Moduli (GPa) = 163.78714 43.46809 100.38541
#
# Poissons Ratio (x) = 0.14117 0.10659
# Poissons Ratio (y) = 0.53192 -0.00046
# Poissons Ratio (z) = 0.17391 -0.00020
#
# Static dielectric constant tensor:
#      x y z
#    x 1.857200 0.000010 0.009780 
#    y 0.000010 1.778790 0.000030 
#    z 0.009780 0.000030 1.706640 
# 
# From -- ./inp_files/157644.got.cif
#   From: 2010.05.17/outbox.ucp.g08.bks.cvg/sg15_79_cif.got.tgz:157644.got - 2010.06.11 12:40:34.
