data_PCOD9308884
_publ_section_title
;
Structure prediction by ZEFSAII (Michael W. Deem and Ramdas Pophale) SiO2 
 PCOD9308884
Probable space group: C 2/C
;
_chemical_formula_sum "Si O2"
_cell_formula_units_Z 32
_cell_length_a 21.000000
_cell_length_b 12.000000
_cell_length_c 21.000000
_cell_angle_alpha 90.000000
_cell_angle_beta 140.000000
_cell_angle_gamma 90.000000
_cell_volume 3401.632030
_symmetry_space_group_name_H-M "C 2/C"
_symmetry_group_IT_number 15
_symmetry_cell_setting 'monoclinic'
loop_
_space_group_symop_operation_xyz
x,y,z
-x,y,1/2-z
-x,-y,-z
x,-y,1/2+z
1/2+x,1/2+y,z
1/2-x,1/2+y,1/2-z
1/2-x,1/2-y,-z
1/2+x,1/2-y,1/2+z
loop_
_atom_site_type_symbol
_atom_site_label
_atom_site_fract_x
_atom_site_fract_y
_atom_site_fract_z
Si Si1 0.910152 0.454365 0.858460
Si Si2 0.568910 0.637899 0.114448
Si Si3 0.638888 0.924610 0.052469
Si Si4 0.327936 0.107738 0.524771
Si Si5 0.610054 0.607948 0.603632
Si Si6 0.241295 0.163255 0.586283
Si Si7 0.733477 0.766244 0.788604
Si Si8 0.544885 0.826529 0.188129
O O1 0.856844 0.489071 0.883923
O O2 0.840449 0.374329 0.761200
O O3 0.932224 0.575885 0.845554
O O4 0.019831 0.402058 0.954422
O O5 0.582490 0.505422 0.119260
O O6 0.675245 0.688003 0.181843
O O7 0.530532 0.703954 0.146430
O O8 0.490675 0.662584 0.998749
O O9 0.709355 0.816258 0.117378
O O10 0.670872 0.995667 0.015448
O O11 0.251770 0.105678 0.525243
O O12 0.301975 0.213475 0.459947
O O13 0.439677 0.133680 0.635046
O O14 0.677457 0.598288 0.590936
O O15 0.668962 0.685133 0.696063
O O16 0.353916 0.177543 0.695579
#
# Coordination Sequence:
#
# PCOD9308884 Si02
#       8
#     8   8   8   8   8   8   8   8
#     4  10  21  34  57  84 114 150 186 243 291 337
#     4  11  22  35  53  86 116 149 181 238 300 332
#     4  10  20  35  53  83 119 149 188 241 285 342
#     4  10  23  35  57  83 117 155 193 235 286 341
#     4  11  23  35  54  84 122 147 185 236 292 351
#     4  11  20  37  57  83 116 154 193 235 281 354
#     4  12  20  33  57  86 112 152 187 234 291 342
#     4  11  20  38  58  85 117 150 190 242 285 349
#
# _framework density 9.4072490000000002
#
# number of rings (size 3 to 8) (size 9 to 14) (size 15 to 20)
#    0.000    1.250    3.750    3.375    3.500    0.000 
#    0.000    0.000    0.000    3.000    0.000   10.500 
#    0.000    0.000    0.000    0.000    0.000    0.000 
#
# Total GULP energy -178296.330747 kJ/mol
# GULP energy per Si atom -5571.760336 kJ/mol
# Density = 0.938584 g / cm^3
# Si number density = 9.407249 Si / 1000 Ang^3
#
#
#
# Elastic Constant Matrix: (Units=GPa)
#
#
# Indices 1 2 3 4 5 6 
#
# 1 34.8203 15.6780 -27.1360 0.0000 -2.7160 0.0000
# 2 15.6780 57.7412 6.4710 0.0000 -5.1325 0.0000
# 3 -27.1360 6.4710 66.5626 0.0000 19.7190 0.0000
# 4 0.0000 0.0000 0.0000 27.7951 0.0000 10.2456
# 5 -2.7160 -5.1325 19.7190 0.0000 22.3074 0.0000
# 6 0.0000 0.0000 0.0000 10.2456 0.0000 12.7403
#
#
#
# Elastic Compliance Matrix: (Units=1/GPa)
#
#
# Indices 1 2 3 4 5 6 
#
# 1 0.070444 -0.026820 0.041474 0.000000 -0.034255 0.000000
# 2 -0.026820 0.028697 -0.019932 0.000000 0.020957 0.000000
# 3 0.041474 -0.019932 0.045699 0.000000 -0.039933 0.000000
# 4 0.000000 0.000000 0.000000 0.051136 0.000000 -0.041123
# 5 -0.034255 0.020957 -0.039933 0.000000 0.080779 0.000000
# 6 0.000000 0.000000 0.000000 -0.041123 0.000000 0.111561
#
#
# Mechanical properties :
#
#
# Convention : Reuss Voigt Hill
#
# Bulk Modulus (GPa) = 7.44691 16.57223 12.00957
# Shear Modulus (GPa) = 11.27055 23.50929 17.38992
#
# Velocity S-wave (km/s) = 2.45018 3.53870 3.04350
# Velocity P-wave (km/s) = 3.45993 5.05212 4.32984
#
# Compressibility (1/GPa) = 0.13428395
#
# Stress axis : x y z
#
# Youngs Moduli (GPa) = 14.19569 34.84634 21.88229
#
# Poissons Ratio (x) = 0.93458 -0.90754
# Poissons Ratio (y) = 0.38073 0.43616
# Poissons Ratio (z) = -0.58875 0.69456
#
# Static dielectric constant tensor:
#      x y z
#    x 1.669750 0.000000 -0.007080 
#    y 0.000000 1.671740 0.000000 
#    z -0.007080 0.000000 1.692000 
# 
# From -- ./inp_files/252569.got.cif
#   From: 2010.05.17/outbox.ucp.g08.bks.cvg/sg15_127_cif.got.tgz:252569.got - 2010.06.11 12:40:34.
