data_PCOD9308130
_publ_section_title
;
Structure prediction by ZEFSAII (Michael W. Deem and Ramdas Pophale) SiO2 
 PCOD9308130
Probable space group: C 2/C
;
_chemical_formula_sum "Si O2"
_cell_formula_units_Z 40
_cell_length_a 11.376217
_cell_length_b 17.953914
_cell_length_c 7.953101
_cell_angle_alpha 90.000000
_cell_angle_beta 93.972422
_cell_angle_gamma 90.000000
_cell_volume 1620.499355
_symmetry_space_group_name_H-M "C 2/C"
_symmetry_group_IT_number 15
_symmetry_cell_setting 'monoclinic'
loop_
_space_group_symop_operation_xyz
x,y,z
-x,y,1/2-z
-x,-y,-z
x,-y,1/2+z
1/2+x,1/2+y,z
1/2-x,1/2+y,1/2-z
1/2-x,1/2-y,-z
1/2+x,1/2-y,1/2+z
loop_
_atom_site_type_symbol
_atom_site_label
_atom_site_fract_x
_atom_site_fract_y
_atom_site_fract_z
Si Si1 0.833414 0.097636 0.628604
Si Si2 0.000000 0.179725 0.250000
Si Si3 0.826135 0.070336 0.027695
Si Si4 0.055199 0.424086 0.573746
Si Si5 0.608120 0.802259 0.022110
Si Si6 0.500000 0.709602 0.750000
O O1 0.721489 0.145085 0.553013
O O2 0.950726 0.146130 0.617681
O O3 0.854736 0.017334 0.550343
O O4 0.816393 0.089505 0.828606
O O5 0.090313 0.125264 0.358461
O O6 0.085536 0.236548 0.153534
O O7 0.694494 0.075209 0.088421
O O8 0.000000 0.417541 0.750000
O O9 0.000000 0.500000 0.500000
O O10 0.005638 0.354743 0.465690
O O11 0.597494 0.768596 0.830093
#
# Coordination Sequence:
#
# PCOD9308130 Si02
#       6
#     8   4   8   8   8   4
#     4  12  28  49  77 113 155 205 255 319 382 467
#     4  12  29  48  79 114 160 200 250 324 391 460
#     4  12  28  49  79 113 155 201 260 313 390 459
#     4  12  26  47  74 110 148 201 255 312 377 457
#     4  12  27  47  75 111 154 203 253 321 380 453
#     4  12  27  48  73 114 156 202 256 312 395 452
#
# _framework density 24.683748000000001
#
# number of rings (size 3 to 8) (size 9 to 14) (size 15 to 20)
#    0.000    0.000    5.000    3.600    7.000    3.200 
#    0.000    0.000    0.000    0.000    0.000    0.000 
#    0.000    0.000    0.000    0.000    0.000    0.000 
#
# Total GULP energy -111480.598134 kJ/mol
# GULP energy per Si atom -5574.029907 kJ/mol
# Density = 2.462757 g / cm^3
# Si number density = 24.683748 Si / 1000 Ang^3
#
#
#
# Elastic Constant Matrix: (Units=GPa)
#
#
# Indices 1 2 3 4 5 6 
#
# 1 102.4835 65.8500 52.0419 0.0000 18.6232 0.0000
# 2 65.8500 206.8711 70.1115 0.0000 36.8758 0.0000
# 3 52.0419 70.1115 117.2115 0.0000 14.7151 0.0000
# 4 0.0000 0.0000 0.0000 38.3752 0.0000 31.8657
# 5 18.6232 36.8758 14.7151 0.0000 45.8814 0.0000
# 6 0.0000 0.0000 0.0000 31.8657 0.0000 55.2840
#
#
#
# Elastic Compliance Matrix: (Units=1/GPa)
#
#
# Indices 1 2 3 4 5 6 
#
# 1 0.014066 -0.002584 -0.004421 0.000000 -0.002214 0.000000
# 2 -0.002584 0.007276 -0.002712 0.000000 -0.003929 0.000000
# 3 -0.004421 -0.002712 0.012105 0.000000 0.000092 0.000000
# 4 0.000000 0.000000 0.000000 0.049980 0.000000 -0.028809
# 5 -0.002214 -0.003929 0.000092 0.000000 0.025823 0.000000
# 6 0.000000 0.000000 0.000000 -0.028809 0.000000 0.034694
#
#
# Mechanical properties :
#
#
# Convention : Reuss Voigt Hill
#
# Bulk Modulus (GPa) = 71.36471 89.17479 80.26975
# Shear Modulus (GPa) = 29.75329 43.81230 36.78279
#
# Velocity S-wave (km/s) = 3.47562 4.21758 3.86445
# Velocity P-wave (km/s) = 6.71424 7.74097 7.24581
#
# Compressibility (1/GPa) = 0.01401253
#
# Stress axis : x y z
#
# Youngs Moduli (GPa) = 71.09491 137.44074 82.60950
#
# Poissons Ratio (x) = 0.35516 0.36526
# Poissons Ratio (y) = 0.18372 0.22400
# Poissons Ratio (z) = 0.31434 0.37267
#
# Static dielectric constant tensor:
#      x y z
#    x 1.916990 0.000000 0.100770 
#    y 0.000000 2.010310 0.000000 
#    z 0.100770 0.000000 2.594330 
# 
# From -- ./inp_files/29386.got.cif
#   From: 2010.05.17/outbox.cif.g08.bks.cpg/sg15_15_cif.got.tgz:29386.got - 2010.06.03 18:47:42.
