data_PCOD9308831
_publ_section_title
;
Structure prediction by ZEFSAII (Michael W. Deem and Ramdas Pophale) SiO2 
 PCOD9308831
Probable space group: C 2/C
;
_chemical_formula_sum "Si O2"
_cell_formula_units_Z 20
_cell_length_a 9.000000
_cell_length_b 15.000000
_cell_length_c 15.000000
_cell_angle_alpha 90.000000
_cell_angle_beta 110.000000
_cell_angle_gamma 90.000000
_cell_volume 1902.877557
_symmetry_space_group_name_H-M "C 2/C"
_symmetry_group_IT_number 15
_symmetry_cell_setting 'monoclinic'
loop_
_space_group_symop_operation_xyz
x,y,z
-x,y,1/2-z
-x,-y,-z
x,-y,1/2+z
1/2+x,1/2+y,z
1/2-x,1/2+y,1/2-z
1/2-x,1/2-y,-z
1/2+x,1/2-y,1/2+z
loop_
_atom_site_type_symbol
_atom_site_label
_atom_site_fract_x
_atom_site_fract_y
_atom_site_fract_z
Si Si1 0.160562 0.876591 0.726648
Si Si2 0.889822 0.619041 0.007255
Si Si3 0.957415 0.103478 0.502093
Si Si4 0.428622 0.734276 0.836743
Si Si5 0.572083 0.975337 0.167617
O O1 0.098264 0.867407 0.610596
O O2 0.271798 0.793081 0.780835
O O3 0.000000 0.881854 0.750000
O O4 0.271764 0.964146 0.773430
O O5 0.702817 0.615394 0.976021
O O6 0.961545 0.703672 0.075148
O O7 0.960249 0.541307 0.085999
O O8 0.916023 0.603089 0.905636
O O9 0.086031 0.151266 0.595669
O O10 0.000000 0.000000 0.500000
O O11 0.500000 0.715958 0.750000
O O12 0.500000 0.950389 0.250000
#
# Coordination Sequence:
#
# PCOD9308831 Si02
#       5
#     8   8   8   8   8
#     4  11  23  44  69 104 147 181 236 300 348 423
#     4  10  20  40  71 103 137 189 243 285 343 436
#     4  12  25  43  71 106 140 181 239 295 352 424
#     4  11  24  47  76  97 137 196 239 286 359 428
#     4  10  19  39  70 103 143 190 229 289 361 416
#
# _framework density 10.510398
#
# number of rings (size 3 to 8) (size 9 to 14) (size 15 to 20)
#    0.000    1.200    4.000    3.000    0.000    3.200 
#    0.000    1.000    4.400    0.000    0.000    0.000 
#    0.000    0.000    0.000    0.000    0.000    0.000 
#
# Total GULP energy -111380.635256 kJ/mol
# GULP energy per Si atom -5569.031763 kJ/mol
# Density = 1.048648 g / cm^3
# Si number density = 10.510398 Si / 1000 Ang^3
#
#
#
# Elastic Constant Matrix: (Units=GPa)
#
#
# Indices 1 2 3 4 5 6 
#
# 1 97.7940 18.5843 51.0395 0.0000 -8.9904 0.0000
# 2 18.5843 99.3885 54.9922 0.0000 -4.2173 0.0000
# 3 51.0395 54.9922 226.9337 0.0000 -27.1229 0.0000
# 4 0.0000 0.0000 0.0000 48.6539 0.0000 -3.7956
# 5 -8.9904 -4.2173 -27.1229 0.0000 51.9168 0.0000
# 6 0.0000 0.0000 0.0000 -3.7956 0.0000 6.4578
#
#
#
# Elastic Compliance Matrix: (Units=1/GPa)
#
#
# Indices 1 2 3 4 5 6 
#
# 1 0.011672 -0.000863 -0.002328 0.000000 0.000735 0.000000
# 2 -0.000863 0.011699 -0.002715 0.000000 -0.000617 0.000000
# 3 -0.002328 -0.002715 0.005881 0.000000 0.002449 0.000000
# 4 0.000000 0.000000 0.000000 0.021541 0.000000 0.012661
# 5 0.000735 -0.000617 0.002449 0.000000 0.020618 0.000000
# 6 0.000000 0.000000 0.000000 0.012661 0.000000 0.162293
#
#
# Mechanical properties :
#
#
# Convention : Reuss Voigt Hill
#
# Bulk Modulus (GPa) = 57.34014 74.81646 66.07830
# Shear Modulus (GPa) = 19.89426 41.37239 30.63332
#
# Velocity S-wave (km/s) = 3.07971 4.44121 3.82158
# Velocity P-wave (km/s) = 6.32323 7.87198 7.13972
#
# Compressibility (1/GPa) = 0.01743979
#
# Stress axis : x y z
#
# Youngs Moduli (GPa) = 85.67307 85.47948 170.04854
#
# Poissons Ratio (x) = 0.07378 0.39591
# Poissons Ratio (y) = 0.07395 0.46161
# Poissons Ratio (z) = 0.19946 0.23204
#
# Static dielectric constant tensor:
#      x y z
#    x 1.782460 0.000000 -0.014300 
#    y 0.000000 1.907650 0.000000 
#    z -0.014300 0.000000 1.737210 
# 
# From -- ./inp_files/133289.got.cif
#   From: 2010.05.17/outbox.ucp.g08.bks.cvg/sg15_67_cif.got.tgz:133289.got - 2010.06.11 12:40:34.
