data_PCOD9308554
_publ_section_title
;
Structure prediction by ZEFSAII (Michael W. Deem and Ramdas Pophale) SiO2 
 PCOD9308554
Probable space group: C 2/C
;
_chemical_formula_sum "Si O2"
_cell_formula_units_Z 20
_cell_length_a 8.120099
_cell_length_b 12.946326
_cell_length_c 8.069499
_cell_angle_alpha 90.000000
_cell_angle_beta 106.383879
_cell_angle_gamma 90.000000
_cell_volume 813.862712
_symmetry_space_group_name_H-M "C 2/C"
_symmetry_group_IT_number 15
_symmetry_cell_setting 'monoclinic'
loop_
_space_group_symop_operation_xyz
x,y,z
-x,y,1/2-z
-x,-y,-z
x,-y,1/2+z
1/2+x,1/2+y,z
1/2-x,1/2+y,1/2-z
1/2-x,1/2-y,-z
1/2+x,1/2-y,1/2+z
loop_
_atom_site_type_symbol
_atom_site_label
_atom_site_fract_x
_atom_site_fract_y
_atom_site_fract_z
Si Si1 0.651329 0.418176 0.531804
Si Si2 0.500000 0.906193 0.750000
Si Si3 0.905283 0.312215 0.389151
O O1 0.500000 0.500000 0.500000
O O2 0.823197 0.463611 0.664615
O O3 0.725150 0.371120 0.378583
O O4 0.615652 0.311067 0.616297
O O5 0.515295 0.840603 0.585124
O O6 0.000000 0.341339 0.250000
#
# Coordination Sequence:
#
# PCOD9308554 Si02
#       3
#     8   4   8
#     4   9  19  40  68 116 157 196 255 317 383 461
#     4   8  18  38  70 106 158 194 248 320 382 440
#     4   9  19  39  70 108 159 197 250 322 385 453
#
# _framework density 24.574169999999999
#
# number of rings (size 3 to 8) (size 9 to 14) (size 15 to 20)
#    2.400    0.800    0.000    0.000    0.000    1.600 
#    3.600    2.000    0.000    2.400   10.400    5.600 
#    0.000    0.000    0.000    0.000    0.000    0.000 
#
# Total GULP energy -55719.457329 kJ/mol
# GULP energy per Si atom -5571.945733 kJ/mol
# Density = 2.451824 g / cm^3
# Si number density = 24.574170 Si / 1000 Ang^3
#
#
#
# Elastic Constant Matrix: (Units=GPa)
#
#
# Indices 1 2 3 4 5 6 
#
# 1 229.0731 132.0370 92.5401 0.0000 -4.2453 0.0000
# 2 132.0370 194.5435 51.7282 0.0000 -6.9275 0.0000
# 3 92.5401 51.7282 133.1936 0.0000 -34.7507 0.0000
# 4 0.0000 0.0000 0.0000 27.6518 0.0000 1.3848
# 5 -4.2453 -6.9275 -34.7507 0.0000 62.4429 0.0000
# 6 0.0000 0.0000 0.0000 1.3848 0.0000 59.2565
#
#
#
# Elastic Compliance Matrix: (Units=1/GPa)
#
#
# Indices 1 2 3 4 5 6 
#
# 1 0.009359 -0.005047 -0.005290 0.000000 -0.002868 0.000000
# 2 -0.005047 0.008481 0.000432 0.000000 0.000838 0.000000
# 3 -0.005290 0.000432 0.012792 0.000000 0.006807 0.000000
# 4 0.000000 0.000000 0.000000 0.036206 0.000000 -0.000846
# 5 -0.002868 0.000838 0.006807 0.000000 0.019701 0.000000
# 6 0.000000 0.000000 0.000000 -0.000846 0.000000 0.016896
#
#
# Mechanical properties :
#
#
# Convention : Reuss Voigt Hill
#
# Bulk Modulus (GPa) = 92.42452 123.26899 107.84676
# Shear Modulus (GPa) = 39.41603 48.57056 43.99330
#
# Velocity S-wave (km/s) = 4.00929 4.45059 4.23570
# Velocity P-wave (km/s) = 7.68926 8.75679 8.24033
#
# Compressibility (1/GPa) = 0.01081964
#
# Stress axis : x y z
#
# Youngs Moduli (GPa) = 106.85435 117.91307 78.17534
#
# Poissons Ratio (x) = 0.59512 0.41356
# Poissons Ratio (y) = 0.53931 -0.03374
# Poissons Ratio (z) = 0.56528 -0.05089
#
# Static dielectric constant tensor:
#      x y z
#    x 2.028340 0.000000 -0.029130 
#    y 0.000000 1.994860 0.000000 
#    z -0.029130 0.000000 2.007450 
# 
# From -- ./inp_files/20787.got.cif
#   From: 2010.05.17/outbox.cif.g08.bks.cpg/sg15_11_cif.got.tgz:20787.got - 2010.06.03 18:47:42.
