data_PCOD9308278
_publ_section_title
;
Structure prediction by ZEFSAII (Michael W. Deem and Ramdas Pophale) SiO2 
 PCOD9308278
Probable space group: C 2/C
;
_chemical_formula_sum "Si O2"
_cell_formula_units_Z 40
_cell_length_a 7.930207
_cell_length_b 21.847111
_cell_length_c 9.190254
_cell_angle_alpha 90.000000
_cell_angle_beta 93.848187
_cell_angle_gamma 90.000000
_cell_volume 1588.641041
_symmetry_space_group_name_H-M "C 2/C"
_symmetry_group_IT_number 15
_symmetry_cell_setting 'monoclinic'
loop_
_space_group_symop_operation_xyz
x,y,z
-x,y,1/2-z
-x,-y,-z
x,-y,1/2+z
1/2+x,1/2+y,z
1/2-x,1/2+y,1/2-z
1/2-x,1/2-y,-z
1/2+x,1/2-y,1/2+z
loop_
_atom_site_type_symbol
_atom_site_label
_atom_site_fract_x
_atom_site_fract_y
_atom_site_fract_z
Si Si1 0.622482 0.067177 0.895049
Si Si2 0.366009 0.548672 0.372845
Si Si3 0.551167 0.247043 0.924286
Si Si4 0.420428 0.861713 0.602934
Si Si5 0.045998 0.132983 0.588488
O O1 0.500000 0.068365 0.750000
O O2 0.754167 0.122831 0.901198
O O3 0.740447 0.007819 0.888775
O O4 0.518457 0.079932 0.035892
O O5 0.500000 0.541309 0.250000
O O6 0.246959 0.607477 0.342290
O O7 0.461180 0.570372 0.524650
O O8 0.500000 0.246991 0.750000
O O9 0.750000 0.250000 0.000000
O O10 0.442170 0.190859 0.984794
O O11 0.489020 0.311283 0.986534
O O12 0.500000 0.832801 0.750000
O O13 0.000000 0.144482 0.750000
#
# Coordination Sequence:
#
# PCOD9308278 Si02
#       5
#     8   8   8   8   8
#     4  12  26  52  80 117 165 219 277 342 419 499
#     4  12  28  50  79 117 167 216 279 338 416 490
#     4  12  29  54  87 122 169 217 279 345 421 500
#     4  12  27  49  83 119 160 216 275 341 411 495
#     4  12  27  48  80 120 163 217 272 348 416 496
#
# _framework density 25.178751999999999
#
# number of rings (size 3 to 8) (size 9 to 14) (size 15 to 20)
#    0.000    0.000    2.000    6.600    5.600    4.000 
#    0.000    2.000    0.000    0.000    0.000    0.000 
#    0.000    0.000    0.000    0.000    0.000    0.000 
#
# Total GULP energy -111813.141668 kJ/mol
# GULP energy per Si atom -5590.657083 kJ/mol
# Density = 2.512144 g / cm^3
# Si number density = 25.178752 Si / 1000 Ang^3
#
#
#
# Elastic Constant Matrix: (Units=GPa)
#
#
# Indices 1 2 3 4 5 6 
#
# 1 62.8641 47.8681 32.5482 0.0000 -3.0655 0.0000
# 2 47.8681 166.3487 71.5279 0.0000 -6.3192 0.0000
# 3 32.5482 71.5279 210.0943 0.0000 7.0876 0.0000
# 4 0.0000 0.0000 0.0000 33.8320 0.0000 -5.4138
# 5 -3.0655 -6.3192 7.0876 0.0000 54.5164 0.0000
# 6 0.0000 0.0000 0.0000 -5.4138 0.0000 38.8430
#
#
#
# Elastic Compliance Matrix: (Units=1/GPa)
#
#
# Indices 1 2 3 4 5 6 
#
# 1 0.020737 -0.005327 -0.001424 0.000000 0.000734 0.000000
# 2 -0.005327 0.008481 -0.002094 0.000000 0.000956 0.000000
# 3 -0.001424 -0.002094 0.005729 0.000000 -0.001068 0.000000
# 4 0.000000 0.000000 0.000000 0.030232 0.000000 0.004214
# 5 0.000734 0.000956 -0.001068 0.000000 0.018634 0.000000
# 6 0.000000 0.000000 0.000000 0.004214 0.000000 0.026332
#
#
# Mechanical properties :
#
#
# Convention : Reuss Voigt Hill
#
# Bulk Modulus (GPa) = 57.94807 82.57730 70.26268
# Shear Modulus (GPa) = 37.42853 44.59580 41.01217
#
# Velocity S-wave (km/s) = 3.85971 4.21309 4.04027
# Velocity P-wave (km/s) = 6.55193 7.51894 7.05203
#
# Compressibility (1/GPa) = 0.01725683
#
# Stress axis : x y z
#
# Youngs Moduli (GPa) = 48.22407 117.90667 174.53778
#
# Poissons Ratio (x) = 0.62810 0.24848
# Poissons Ratio (y) = 0.25689 0.36556
# Poissons Ratio (z) = 0.06865 0.24695
#
# Static dielectric constant tensor:
#      x y z
#    x 2.142780 0.000000 -0.001450 
#    y 0.000000 2.023360 0.000000 
#    z -0.001450 0.000000 1.845730 
# 
# From -- ./inp_files/23405.got.cif
#   From: 2010.05.17/outbox.cif.g08.bks.cpg/sg15_12_cif.got.tgz:23405.got - 2010.06.03 18:47:42.
