data_PCOD9308804
_publ_section_title
;
Structure prediction by ZEFSAII (Michael W. Deem and Ramdas Pophale) SiO2 
 PCOD9308804
Probable space group: C 2/C
;
_chemical_formula_sum "Si O2"
_cell_formula_units_Z 28
_cell_length_a 9.000000
_cell_length_b 30.000000
_cell_length_c 21.000000
_cell_angle_alpha 90.000000
_cell_angle_beta 150.000000
_cell_angle_gamma 90.000000
_cell_volume 2835.000000
_symmetry_space_group_name_H-M "C 2/C"
_symmetry_group_IT_number 15
_symmetry_cell_setting 'monoclinic'
loop_
_space_group_symop_operation_xyz
x,y,z
-x,y,1/2-z
-x,-y,-z
x,-y,1/2+z
1/2+x,1/2+y,z
1/2-x,1/2+y,1/2-z
1/2-x,1/2-y,-z
1/2+x,1/2-y,1/2+z
loop_
_atom_site_type_symbol
_atom_site_label
_atom_site_fract_x
_atom_site_fract_y
_atom_site_fract_z
Si Si1 0.834258 0.653646 0.846564
Si Si2 0.839640 0.210237 0.448407
Si Si3 0.857125 0.555152 0.881715
Si Si4 0.201203 0.768038 0.206632
Si Si5 0.141525 0.545910 0.126447
Si Si6 0.450104 0.877959 0.805277
Si Si7 0.929828 0.190424 0.107166
O O1 0.500000 0.652859 0.750000
O O2 0.933887 0.601897 0.875237
O O3 0.813308 0.685690 0.777892
O O4 0.085441 0.677228 0.983571
O O5 0.573346 0.246469 0.354409
O O6 0.686419 0.162036 0.405147
O O7 0.068524 0.222275 0.588449
O O8 0.987873 0.206706 0.434120
O O9 0.500000 0.554082 0.750000
O O10 0.944029 0.505714 0.888992
O O11 0.988230 0.557508 0.001956
O O12 0.450636 0.729940 0.304491
O O13 0.500000 0.548133 0.250000
O O14 0.041832 0.581154 0.142943
O O15 0.500000 0.891614 0.750000
O O16 0.131930 0.853191 0.693600
#
# Coordination Sequence:
#
# PCOD9308804 Si02
#       7
#     8   8   8   8   8   8   8
#     4  11  22  35  57  83 117 152 198 246 291 348
#     4   9  20  37  59  86 116 155 187 238 304 350
#     4   9  21  36  57  88 122 155 194 254 309 345
#     4  10  20  36  59  83 115 151 192 238 291 357
#     4  10  19  37  63  88 120 158 200 251 305 358
#     4   9  19  36  63  88 118 157 199 240 294 367
#     4  10  20  39  57  82 120 153 192 244 295 345
#
# _framework density 9.8765429999999999
#
# number of rings (size 3 to 8) (size 9 to 14) (size 15 to 20)
#    0.000    2.286    0.000    3.429    4.000    0.571 
#    2.571    1.429    3.143    9.429    0.000    0.000 
#    0.000    0.000    0.000    0.000    0.000    0.000 
#
# Total GULP energy -156425.615560 kJ/mol
# GULP energy per Si atom -5586.629127 kJ/mol
# Density = 0.985406 g / cm^3
# Si number density = 9.876543 Si / 1000 Ang^3
#
#
#
# Elastic Constant Matrix: (Units=GPa)
#
#
# Indices 1 2 3 4 5 6 
#
# 1 66.4418 57.2483 37.6996 -0.0012 -6.1185 -0.0016
# 2 57.2483 172.9088 56.8567 -0.0058 -22.5589 -0.0005
# 3 37.6996 56.8567 150.0423 -0.0039 -8.8797 -0.0219
# 4 -0.0012 -0.0058 -0.0039 37.1058 0.0005 -0.5349
# 5 -6.1185 -22.5589 -8.8797 0.0005 30.5838 0.0016
# 6 -0.0016 -0.0005 -0.0219 -0.5349 0.0016 39.9494
#
#
#
# Elastic Compliance Matrix: (Units=1/GPa)
#
#
# Indices 1 2 3 4 5 6 
#
# 1 0.022378 -0.006512 -0.003230 -0.000001 -0.001264 -0.000001
# 2 -0.006512 0.009084 -0.001513 0.000001 0.004958 -0.000001
# 3 -0.003230 -0.001513 0.008084 0.000001 0.000585 0.000004
# 4 -0.000001 0.000001 0.000001 0.026955 0.000000 0.000361
# 5 -0.001264 0.004958 0.000585 0.000000 0.036271 -0.000001
# 6 -0.000001 -0.000001 0.000004 0.000361 -0.000001 0.025036
#
#
# Mechanical properties :
#
#
# Convention : Reuss Voigt Hill
#
# Bulk Modulus (GPa) = 58.69572 77.00024 67.84798
# Shear Modulus (GPa) = 32.05202 37.36703 34.70953
#
# Velocity S-wave (km/s) = 4.03256 4.35409 4.19641
# Velocity P-wave (km/s) = 7.17365 8.02144 7.60936
#
# Compressibility (1/GPa) = 0.01703702
#
# Stress axis : x y z
#
# Youngs Moduli (GPa) = 44.68697 110.08743 123.69948
#
# Poissons Ratio (x) = 0.71689 0.39953
# Poissons Ratio (y) = 0.29100 0.18710
# Poissons Ratio (z) = 0.14433 0.16651
#
# Static dielectric constant tensor:
#      x y z
#    x 1.697250 0.000000 0.021850 
#    y 0.000000 1.715210 0.000000 
#    z 0.021850 0.000000 1.716100 
# 
# From -- ./inp_files/234964.got.cif
#   From: 2010.05.17/outbox.ucp.g08.bks.cvg/sg15_118_cif.got.tgz:234964.got - 2010.06.11 12:40:34.
