data_PCOD9308562
_publ_section_title
;
Structure prediction by ZEFSAII (Michael W. Deem and Ramdas Pophale) SiO2 
 PCOD9308562
Probable space group: C 2/C
;
_chemical_formula_sum "Si O2"
_cell_formula_units_Z 32
_cell_length_a 7.680961
_cell_length_b 20.315202
_cell_length_c 9.006437
_cell_angle_alpha 90.000000
_cell_angle_beta 64.759835
_cell_angle_gamma 90.000000
_cell_volume 1271.194209
_symmetry_space_group_name_H-M "C 2/C"
_symmetry_group_IT_number 15
_symmetry_cell_setting 'monoclinic'
loop_
_space_group_symop_operation_xyz
x,y,z
-x,y,1/2-z
-x,-y,-z
x,-y,1/2+z
1/2+x,1/2+y,z
1/2-x,1/2+y,1/2-z
1/2-x,1/2-y,-z
1/2+x,1/2-y,1/2+z
loop_
_atom_site_type_symbol
_atom_site_label
_atom_site_fract_x
_atom_site_fract_y
_atom_site_fract_z
Si Si1 0.790255 0.085656 0.042770
Si Si2 0.416975 0.164344 0.042770
Si Si3 0.208820 0.532414 0.401355
Si Si4 0.360174 0.282414 0.598646
O O1 0.841260 0.024706 0.919640
O O2 0.600499 0.125000 0.049002
O O3 0.747244 0.052209 0.217575
O O4 0.934301 0.146693 0.014347
O O5 0.301352 0.103308 0.014346
O O6 0.285183 0.197791 0.217574
O O7 0.489101 0.225294 0.919639
O O8 0.000000 0.500000 0.500000
O O9 0.250000 0.250000 0.500000
#
# Coordination Sequence:
#
# PCOD9308562 Si02
#       4
#     8   8   8   8
#     4   9  16  24  40  64  86 106 140 184 216 246
#     4   9  16  24  40  64  86 106 140 184 216 246
#     4   9  14  24  38  64  86 106 138 184 216 246
#     4   9  14  24  38  64  86 106 138 184 216 246
#
# _framework density 25.173178
#
# number of rings (size 3 to 8) (size 9 to 14) (size 15 to 20)
#    0.000    3.000    0.000   10.500    0.000    0.000 
#    0.000    0.000    0.000    0.000    0.000  371.000 
#    0.000    0.000    0.000    0.000    0.000    0.000 
#
# Total GULP energy -89198.221490 kJ/mol
# GULP energy per Si atom -5574.888843 kJ/mol
# Density = 2.511588 g / cm^3
# Si number density = 25.173178 Si / 1000 Ang^3
#
#
#
# Elastic Constant Matrix: (Units=GPa)
#
#
# Indices 1 2 3 4 5 6 
#
# 1 79.9106 60.5676 21.2216 0.0000 0.2660 0.0000
# 2 60.5676 320.8347 106.5184 0.0000 -0.5034 0.0000
# 3 21.2216 106.5184 75.5987 0.0000 -0.2187 0.0000
# 4 0.0000 0.0000 0.0000 54.3244 0.0000 -0.5619
# 5 0.2660 -0.5034 -0.2187 0.0000 17.2022 0.0000
# 6 0.0000 0.0000 0.0000 -0.5619 0.0000 3.0590
#
#
#
# Elastic Compliance Matrix: (Units=1/GPa)
#
#
# Indices 1 2 3 4 5 6 
#
# 1 0.014612 -0.002625 -0.000405 0.000000 -0.000308 0.000000
# 2 -0.002625 0.006328 -0.008179 0.000000 0.000122 0.000000
# 3 -0.000405 -0.008179 0.024866 0.000000 0.000083 0.000000
# 4 0.000000 0.000000 0.000000 0.018443 0.000000 0.003388
# 5 -0.000308 0.000122 0.000083 0.000000 0.058141 0.000000
# 6 0.000000 0.000000 0.000000 0.003388 0.000000 0.327527
#
#
# Mechanical properties :
#
#
# Convention : Reuss Voigt Hill
#
# Bulk Modulus (GPa) = 42.75489 94.77325 68.76407
# Shear Modulus (GPa) = 10.41385 34.11956 22.26670
#
# Velocity S-wave (km/s) = 2.03614 3.68556 2.97735
# Velocity P-wave (km/s) = 4.74858 7.47271 6.26061
#
# Compressibility (1/GPa) = 0.02338914
#
# Stress axis : x y z
#
# Youngs Moduli (GPa) = 68.43817 158.02768 40.21587
#
# Poissons Ratio (x) = 0.41476 0.01627
# Poissons Ratio (y) = 0.17962 0.32893
# Poissons Ratio (z) = 0.02769 1.29251
#
# Static dielectric constant tensor:
#      x y z
#    x -3.099210 0.000000 -0.055400 
#    y 0.000000 2.060900 0.000000 
#    z -0.055400 0.000000 1.959100 
# 
# From -- ./inp_files/29919.got.cif
#   From: 2010.05.17/outbox.cif.g08.bks.cpg/sg15_15_cif.got.tgz:29919.got - 2010.06.03 18:47:42.
