data_PCOD9308255
_publ_section_title
;
Structure prediction by ZEFSAII (Michael W. Deem and Ramdas Pophale) SiO2 
 PCOD9308255
Probable space group: C 2/C
;
_chemical_formula_sum "Si O2"
_cell_formula_units_Z 24
_cell_length_a 16.592281
_cell_length_b 10.937170
_cell_length_c 9.464400
_cell_angle_alpha 90.000000
_cell_angle_beta 151.466591
_cell_angle_gamma 90.000000
_cell_volume 820.414115
_symmetry_space_group_name_H-M "C 2/C"
_symmetry_group_IT_number 15
_symmetry_cell_setting 'monoclinic'
loop_
_space_group_symop_operation_xyz
x,y,z
-x,y,1/2-z
-x,-y,-z
x,-y,1/2+z
1/2+x,1/2+y,z
1/2-x,1/2+y,1/2-z
1/2-x,1/2-y,-z
1/2+x,1/2-y,1/2+z
loop_
_atom_site_type_symbol
_atom_site_label
_atom_site_fract_x
_atom_site_fract_y
_atom_site_fract_z
Si Si1 0.162734 0.533621 0.708990
Si Si2 0.819696 0.122695 0.664193
Si Si3 0.084024 0.739302 0.734406
O O1 0.200289 0.562968 0.602386
O O2 0.011330 0.404761 0.486448
O O3 0.310517 0.458837 0.012411
O O4 0.248435 0.674499 0.917427
O O5 0.750000 0.250000 0.500000
O O6 0.997440 0.156795 0.007301
O O7 0.000000 0.710340 0.750000
#
# Coordination Sequence:
#
# PCOD9308255 Si02
#       3
#     8   8   8
#     4  12  26  50  87 126 172 231 296 359 442 532
#     4  12  28  51  86 125 172 234 291 359 445 527
#     4  12  26  51  81 123 173 225 292 363 434 524
#
# _framework density 29.253516999999999
#
# number of rings (size 3 to 8) (size 9 to 14) (size 15 to 20)
#    0.000    0.000    6.667    3.000    0.000    1.333 
#    0.000    3.333    0.000    0.000    0.000    0.000 
#    0.000    0.000    0.000    0.000    0.000    0.000 
#
# Total GULP energy -67001.671974 kJ/mol
# GULP energy per Si atom -5583.472664 kJ/mol
# Density = 2.918693 g / cm^3
# Si number density = 29.253517 Si / 1000 Ang^3
#
#
#
# Elastic Constant Matrix: (Units=GPa)
#
#
# Indices 1 2 3 4 5 6 
#
# 1 131.0376 49.1044 67.5608 0.0000 -6.6045 0.0000
# 2 49.1044 162.6831 42.5622 0.0000 4.7299 0.0000
# 3 67.5608 42.5622 229.1275 0.0000 13.5985 0.0000
# 4 0.0000 0.0000 0.0000 82.6679 0.0000 -32.7973
# 5 -6.6045 4.7299 13.5985 0.0000 43.5185 0.0000
# 6 0.0000 0.0000 0.0000 -32.7973 0.0000 53.8996
#
#
#
# Elastic Compliance Matrix: (Units=1/GPa)
#
#
# Indices 1 2 3 4 5 6 
#
# 1 0.010042 -0.002409 -0.002669 0.000000 0.002620 0.000000
# 2 -0.002409 0.007044 -0.000541 0.000000 -0.000962 0.000000
# 3 -0.002669 -0.000541 0.005372 0.000000 -0.002025 0.000000
# 4 0.000000 0.000000 0.000000 0.015946 0.000000 0.009703
# 5 0.002620 -0.000962 -0.002025 0.000000 0.024114 0.000000
# 6 0.000000 0.000000 0.000000 0.009703 0.000000 0.024457
#
#
# Mechanical properties :
#
#
# Convention : Reuss Voigt Hill
#
# Bulk Modulus (GPa) = 89.12844 93.47814 91.30329
# Shear Modulus (GPa) = 49.04216 60.25857 54.65037
#
# Velocity S-wave (km/s) = 4.09889 4.54351 4.32692
# Velocity P-wave (km/s) = 7.27564 7.71677 7.49945
#
# Compressibility (1/GPa) = 0.01121976
#
# Stress axis : x y z
#
# Youngs Moduli (GPa) = 99.57833 141.97337 186.14844
#
# Poissons Ratio (x) = 0.34202 0.49685
# Poissons Ratio (y) = 0.23989 0.10070
# Poissons Ratio (z) = 0.26578 0.07680
#
# Static dielectric constant tensor:
#      x y z
#    x 1.959190 0.000000 0.140780 
#    y 0.000000 6.246650 0.000000 
#    z 0.140780 0.000000 4.949820 
# 
# From -- ./inp_files/117843.got.cif
#   From: 2010.05.17/outbox.cif.g08.bks.cpg/sg15_59_cif.got.tgz:117843.got - 2010.06.03 18:47:42.
