data_PCOD9308418
_publ_section_title
;
Structure prediction by ZEFSAII (Michael W. Deem and Ramdas Pophale) SiO2 
 PCOD9308418
Probable space group: C 2/C
;
_chemical_formula_sum "Si O2"
_cell_formula_units_Z 16
_cell_length_a 18.044164
_cell_length_b 4.852449
_cell_length_c 9.735143
_cell_angle_alpha 90.000000
_cell_angle_beta 43.127188
_cell_angle_gamma 90.000000
_cell_volume 582.713327
_symmetry_space_group_name_H-M "C 2/C"
_symmetry_group_IT_number 15
_symmetry_cell_setting 'monoclinic'
loop_
_space_group_symop_operation_xyz
x,y,z
-x,y,1/2-z
-x,-y,-z
x,-y,1/2+z
1/2+x,1/2+y,z
1/2-x,1/2+y,1/2-z
1/2-x,1/2-y,-z
1/2+x,1/2-y,1/2+z
loop_
_atom_site_type_symbol
_atom_site_label
_atom_site_fract_x
_atom_site_fract_y
_atom_site_fract_z
Si Si1 0.773462 0.502285 0.073294
Si Si2 0.426683 0.601197 0.475263
O O1 0.688746 0.510194 0.314008
O O2 0.750000 0.750000 0.000000
O O3 0.890040 0.585261 0.982612
O O4 0.750000 0.250000 0.000000
O O5 0.500000 0.504520 0.250000
O O6 0.500000 0.500000 0.500000
#
# Coordination Sequence:
#
# PCOD9308418 Si02
#       2
#     8   8
#     4  12  28  57  86 135 186 235 308 382 456 560
#     4  12  28  57  94 136 185 247 308 384 471 546
#
# _framework density 27.457757999999998
#
# number of rings (size 3 to 8) (size 9 to 14) (size 15 to 20)
#    0.000    0.000    5.000    3.000    0.000    2.000 
#   18.000    0.000    0.000    0.000    0.000    0.000 
#    0.000    0.000    0.000    0.000    0.000    0.000 
#
# Total GULP energy -44607.544115 kJ/mol
# GULP energy per Si atom -5575.943014 kJ/mol
# Density = 2.739526 g / cm^3
# Si number density = 27.457758 Si / 1000 Ang^3
#
#
#
# Elastic Constant Matrix: (Units=GPa)
#
#
# Indices 1 2 3 4 5 6 
#
# 1 221.2722 82.8170 94.8097 -0.0004 21.7065 0.0002
# 2 82.8170 196.2108 62.5109 -0.0068 8.2928 0.0064
# 3 94.8097 62.5109 321.9345 -0.0008 33.1486 0.0011
# 4 -0.0004 -0.0068 -0.0008 49.8848 0.0005 -4.5676
# 5 21.7065 8.2928 33.1486 0.0005 73.6036 0.0000
# 6 0.0002 0.0064 0.0011 -4.5676 0.0000 82.0675
#
#
#
# Elastic Compliance Matrix: (Units=1/GPa)
#
#
# Indices 1 2 3 4 5 6 
#
# 1 0.005917 -0.002061 -0.001244 0.000000 -0.000952 0.000000
# 2 -0.002061 0.006152 -0.000607 0.000001 0.000188 0.000000
# 3 -0.001244 -0.000607 0.003718 0.000000 -0.001239 0.000000
# 4 0.000000 0.000001 0.000000 0.020149 0.000000 0.001121
# 5 -0.000952 0.000188 -0.001239 0.000000 0.014404 0.000000
# 6 0.000000 0.000000 0.000000 0.001121 0.000000 0.012248
#
#
# Mechanical properties :
#
#
# Convention : Reuss Voigt Hill
#
# Bulk Modulus (GPa) = 125.58370 135.52140 130.55255
# Shear Modulus (GPa) = 68.43089 74.39651 71.41370
#
# Velocity S-wave (km/s) = 4.99763 5.21092 5.10539
# Velocity P-wave (km/s) = 8.89596 9.25572 9.07763
#
# Compressibility (1/GPa) = 0.00796282
#
# Stress axis : x y z
#
# Youngs Moduli (GPa) = 168.99640 162.55302 268.95128
#
# Poissons Ratio (x) = 0.33500 0.33468
# Poissons Ratio (y) = 0.34828 0.16324
# Poissons Ratio (z) = 0.21030 0.09866
#
# Static dielectric constant tensor:
#      x y z
#    x 2.227260 0.000000 0.032880 
#    y 0.000000 2.613000 0.000000 
#    z 0.032880 0.000000 1.927660 
# 
# From -- ./inp_files/35898.got.cif
#   From: 2010.05.17/outbox.cif.g08.bks.cpg/sg15_18_cif.got.tgz:35898.got - 2010.06.03 18:47:42.
