data_PCOD9308778
_publ_section_title
;
Structure prediction by ZEFSAII (Michael W. Deem and Ramdas Pophale) SiO2 
 PCOD9308778
Probable space group: C 2/C
;
_chemical_formula_sum "Si O2"
_cell_formula_units_Z 28
_cell_length_a 30.000000
_cell_length_b 9.000000
_cell_length_c 18.000000
_cell_angle_alpha 90.000000
_cell_angle_beta 140.000000
_cell_angle_gamma 90.000000
_cell_volume 3123.947783
_symmetry_space_group_name_H-M "C 2/C"
_symmetry_group_IT_number 15
_symmetry_cell_setting 'monoclinic'
loop_
_space_group_symop_operation_xyz
x,y,z
-x,y,1/2-z
-x,-y,-z
x,-y,1/2+z
1/2+x,1/2+y,z
1/2-x,1/2+y,1/2-z
1/2-x,1/2-y,-z
1/2+x,1/2-y,1/2+z
loop_
_atom_site_type_symbol
_atom_site_label
_atom_site_fract_x
_atom_site_fract_y
_atom_site_fract_z
Si Si1 0.842354 0.014572 0.780548
Si Si2 0.060312 0.170558 0.190722
Si Si3 0.898546 0.849910 0.499463
Si Si4 0.174615 0.256130 0.869306
Si Si5 0.177393 0.410029 0.360370
Si Si6 0.077525 0.924886 0.341361
Si Si7 0.220200 0.682403 0.077890
O O1 0.859705 0.099341 0.876745
O O2 0.833519 0.135144 0.704805
O O3 0.907115 0.909835 0.839685
O O4 0.772497 0.917346 0.692355
O O5 0.107711 0.313711 0.264695
O O6 0.075326 0.057667 0.277841
O O7 0.978110 0.194688 0.084697
O O8 0.852703 0.723067 0.479156
O O9 0.900117 0.992892 0.555537
O O10 0.162694 0.420423 0.823953
O O11 0.124443 0.205949 0.871386
O O12 0.250000 0.250000 0.000000
O O13 0.206156 0.396457 0.481103
O O14 0.236774 0.332568 0.386418
O O15 0.000000 0.867908 0.250000
#
# Coordination Sequence:
#
# PCOD9308778 Si02
#       7
#     8   8   8   8   8   8   8
#     4  10  22  37  55  84 117 148 187 231 296 344
#     4   9  19  38  61  79 106 154 195 226 280 344
#     4  11  20  35  61  85 114 146 192 241 283 340
#     4  11  20  35  58  78 107 152 187 225 281 344
#     4  10  19  36  58  80 107 144 196 236 272 335
#     4   9  19  35  54  80 106 142 188 228 276 338
#     4  10  20  35  55  83 108 147 190 234 279 339
#
# _framework density 8.9630179999999999
#
# number of rings (size 3 to 8) (size 9 to 14) (size 15 to 20)
#    0.000    2.000    2.857    1.286    0.000    2.286 
#    2.571    0.714    0.000    0.000    0.000    0.000 
#    0.000    0.000    0.000    0.000    0.000    0.000 
#
# Total GULP energy -156132.646107 kJ/mol
# GULP energy per Si atom -5576.165932 kJ/mol
# Density = 0.894262 g / cm^3
# Si number density = 8.963018 Si / 1000 Ang^3
#
#
#
# Elastic Constant Matrix: (Units=GPa)
#
#
# Indices 1 2 3 4 5 6 
#
# 1 23.5068 19.3446 15.2875 0.0000 13.0418 0.0000
# 2 19.3446 66.3426 14.1146 0.0000 31.0039 0.0000
# 3 15.2875 14.1146 53.4924 0.0000 8.8172 0.0000
# 4 0.0000 0.0000 0.0000 13.9044 0.0000 5.6844
# 5 13.0418 31.0039 8.8172 0.0000 25.5821 0.0000
# 6 0.0000 0.0000 0.0000 5.6844 0.0000 16.9845
#
#
#
# Elastic Compliance Matrix: (Units=1/GPa)
#
#
# Indices 1 2 3 4 5 6 
#
# 1 0.070060 -0.006888 -0.014518 0.000000 -0.022365 0.000000
# 2 -0.006888 0.035722 -0.000954 0.000000 -0.039453 0.000000
# 3 -0.014518 -0.000954 0.022991 0.000000 0.000634 0.000000
# 4 0.000000 0.000000 0.000000 0.083320 0.000000 -0.027886
# 5 -0.022365 -0.039453 0.000634 0.000000 0.098087 0.000000
# 6 0.000000 0.000000 0.000000 -0.027886 0.000000 0.068210
#
#
# Mechanical properties :
#
#
# Convention : Reuss Voigt Hill
#
# Bulk Modulus (GPa) = 11.89745 26.75948 19.32846
# Shear Modulus (GPa) = 11.08333 17.60052 14.34193
#
# Velocity S-wave (km/s) = 2.48922 3.13683 2.83160
# Velocity P-wave (km/s) = 3.86174 5.29903 4.63642
#
# Compressibility (1/GPa) = 0.08405164
#
# Stress axis : x y z
#
# Youngs Moduli (GPa) = 14.27356 27.99389 43.49575
#
# Poissons Ratio (x) = 0.19281 0.63149
# Poissons Ratio (y) = 0.09831 0.04151
# Poissons Ratio (z) = 0.20723 0.02671
#
# Static dielectric constant tensor:
#      x y z
#    x 1.650540 0.000000 0.000800 
#    y 0.000000 1.622470 0.000000 
#    z 0.000800 0.000000 1.593150 
# 
# From -- ./inp_files/214012.got.cif
#   From: 2010.05.17/outbox.ucp.g08.bks.cvg/sg15_108_cif.got.tgz:214012.got - 2010.06.11 12:40:34.
