data_PCOD9308011
_publ_section_title
;
Structure prediction by ZEFSAII (Michael W. Deem and Ramdas Pophale) SiO2 
 PCOD9308011
Probable space group: C 2/C
;
_chemical_formula_sum "Si O2"
_cell_formula_units_Z 36
_cell_length_a 7.332112
_cell_length_b 26.592524
_cell_length_c 8.797035
_cell_angle_alpha 90.000000
_cell_angle_beta 109.160394
_cell_angle_gamma 90.000000
_cell_volume 1620.221941
_symmetry_space_group_name_H-M "C 2/C"
_symmetry_group_IT_number 15
_symmetry_cell_setting 'monoclinic'
loop_
_space_group_symop_operation_xyz
x,y,z
-x,y,1/2-z
-x,-y,-z
x,-y,1/2+z
1/2+x,1/2+y,z
1/2-x,1/2+y,1/2-z
1/2-x,1/2-y,-z
1/2+x,1/2-y,1/2+z
loop_
_atom_site_type_symbol
_atom_site_label
_atom_site_fract_x
_atom_site_fract_y
_atom_site_fract_z
Si Si1 0.608498 0.374067 0.438602
Si Si2 0.000000 0.714338 0.750000
Si Si3 0.737689 0.859658 0.525277
Si Si4 0.541322 0.945631 0.941933
Si Si5 0.720661 0.208178 0.318831
O O1 0.500000 0.367469 0.250000
O O2 0.443793 0.377193 0.521273
O O3 0.745627 0.422682 0.474213
O O4 0.736758 0.325681 0.521631
O O5 0.851345 0.679272 0.619913
O O6 0.881413 0.749911 0.832788
O O7 0.599414 0.906678 0.512366
O O8 0.744026 0.830096 0.684777
O O9 0.500000 0.945143 0.750000
O O10 0.500000 0.000000 0.000000
O O11 0.500000 0.227007 0.250000
#
# Coordination Sequence:
#
# PCOD9308011 Si02
#       5
#     8   4   8   8   8
#     4  12  26  48  78 112 152 203 255 317 379 456
#     4  12  28  44  78 118 154 210 258 316 368 468
#     4  12  25  50  75 109 160 197 257 318 381 452
#     4  12  29  54  82 113 150 199 253 325 396 457
#     4  12  25  48  75 110 157 212 256 307 383 452
#
# _framework density 22.219180000000001
#
# number of rings (size 3 to 8) (size 9 to 14) (size 15 to 20)
#    0.000    0.000    6.667    2.000    4.667    4.444 
#    0.000    1.111    0.000    0.000    0.000    0.000 
#    0.000    0.000    0.000    0.000    0.000    0.000 
#
# Total GULP energy -100945.139005 kJ/mol
# GULP energy per Si atom -5608.063278 kJ/mol
# Density = 2.216861 g / cm^3
# Si number density = 22.219180 Si / 1000 Ang^3
#
#
#
# Elastic Constant Matrix: (Units=GPa)
#
#
# Indices 1 2 3 4 5 6 
#
# 1 155.3737 59.3595 3.4499 0.0000 14.4860 0.0000
# 2 59.3595 155.3962 35.9916 0.0000 7.1259 0.0000
# 3 3.4499 35.9916 122.0461 0.0000 17.9349 0.0000
# 4 0.0000 0.0000 0.0000 54.7341 0.0000 -48.5721
# 5 14.4860 7.1259 17.9349 0.0000 30.5254 0.0000
# 6 0.0000 0.0000 0.0000 -48.5721 0.0000 108.7003
#
#
#
# Elastic Compliance Matrix: (Units=1/GPa)
#
#
# Indices 1 2 3 4 5 6 
#
# 1 0.007970 -0.003163 0.001264 0.000000 -0.003786 0.000000
# 2 -0.003163 0.008168 -0.002473 0.000000 0.001048 0.000000
# 3 0.001264 -0.002473 0.009731 0.000000 -0.005740 0.000000
# 4 0.000000 0.000000 0.000000 0.030276 0.000000 0.013528
# 5 -0.003786 0.001048 -0.005740 0.000000 0.037684 0.000000
# 6 0.000000 0.000000 0.000000 0.013528 0.000000 0.015245
#
#
# Mechanical properties :
#
#
# Convention : Reuss Voigt Hill
#
# Bulk Modulus (GPa) = 58.40058 70.04645 64.22352
# Shear Modulus (GPa) = 40.47716 61.05963 50.76839
#
# Velocity S-wave (km/s) = 4.27279 5.24788 4.78524
# Velocity P-wave (km/s) = 7.11922 8.26523 7.71354
#
# Compressibility (1/GPa) = 0.01712312
#
# Stress axis : x y z
#
# Youngs Moduli (GPa) = 125.47678 122.42323 102.76686
#
# Poissons Ratio (x) = 0.38728 -0.12990
# Poissons Ratio (y) = 0.39694 0.25418
# Poissons Ratio (z) = -0.15860 0.30280
#
# Static dielectric constant tensor:
#      x y z
#    x 1.766920 0.000000 0.046130 
#    y 0.000000 1.766830 0.000000 
#    z 0.046130 0.000000 1.783770 
# 
# From -- ./inp_files/24682.got.cif
#   From: 2010.05.17/outbox.cif.g08.bks.cpg/sg15_13_cif.got.tgz:24682.got - 2010.06.03 18:47:42.
