data_PCOD9308525
_publ_section_title
;
Structure prediction by ZEFSAII (Michael W. Deem and Ramdas Pophale) SiO2 
 PCOD9308525
Probable space group: C 2/C
;
_chemical_formula_sum "Si O2"
_cell_formula_units_Z 56
_cell_length_a 8.174926
_cell_length_b 22.833676
_cell_length_c 12.250530
_cell_angle_alpha 90.000000
_cell_angle_beta 89.373984
_cell_angle_gamma 90.000000
_cell_volume 2286.591682
_symmetry_space_group_name_H-M "C 2/C"
_symmetry_group_IT_number 15
_symmetry_cell_setting 'monoclinic'
loop_
_space_group_symop_operation_xyz
x,y,z
-x,y,1/2-z
-x,-y,-z
x,-y,1/2+z
1/2+x,1/2+y,z
1/2-x,1/2+y,1/2-z
1/2-x,1/2-y,-z
1/2+x,1/2-y,1/2+z
loop_
_atom_site_type_symbol
_atom_site_label
_atom_site_fract_x
_atom_site_fract_y
_atom_site_fract_z
Si Si1 0.078688 0.939792 0.468950
Si Si2 0.771114 0.340655 0.722611
Si Si3 0.593373 0.054127 0.389483
Si Si4 0.761237 0.125305 0.709578
Si Si5 0.568542 0.916489 0.401349
Si Si6 0.439399 0.671228 0.077624
Si Si7 0.890410 0.240177 0.590188
O O1 0.251293 0.940657 0.530553
O O2 0.122943 0.923995 0.344718
O O3 0.961339 0.890116 0.517031
O O4 0.000000 0.000000 0.500000
O O5 0.841407 0.406167 0.710122
O O6 0.715071 0.324144 0.843469
O O7 0.603216 0.330809 0.653470
O O8 0.896848 0.298679 0.659429
O O9 0.448951 0.080239 0.467387
O O10 0.564239 0.985595 0.367533
O O11 0.588966 0.117319 0.646374
O O12 0.718237 0.113409 0.835510
O O13 0.835843 0.187355 0.671526
O O14 0.458264 0.720214 0.984708
O O15 0.750000 0.250000 0.500000
#
# Coordination Sequence:
#
# PCOD9308525 Si02
#       7
#     8   8   8   8   8   8   8
#     4   9  17  29  43  62  91 120 151 192 233 277
#     4   9  16  26  42  62  91 120 145 185 231 283
#     4   9  18  30  44  65  95 122 156 192 232 279
#     4   9  18  29  45  68  92 122 152 193 233 284
#     4   9  17  30  44  63  96 122 154 189 232 284
#     4   8  16  26  37  61  88 114 144 179 225 277
#     4   9  16  27  42  64  96 119 149 187 240 290
#
# _framework density 24.490599
#
# number of rings (size 3 to 8) (size 9 to 14) (size 15 to 20)
#    0.000    3.143    0.000    2.571    2.000    5.714 
#    0.000    0.000    0.000    0.000    0.000    0.000 
#   17.143   61.714    0.000    0.000    0.000    0.000 
#
# Total GULP energy -156388.694414 kJ/mol
# GULP energy per Si atom -5585.310515 kJ/mol
# Density = 2.443486 g / cm^3
# Si number density = 24.490599 Si / 1000 Ang^3
#
#
#
# Elastic Constant Matrix: (Units=GPa)
#
#
# Indices 1 2 3 4 5 6 
#
# 1 67.4327 8.5988 42.5828 0.0000 -2.8699 0.0000
# 2 8.5988 70.2015 29.7265 0.0000 -25.6709 0.0000
# 3 42.5828 29.7265 145.7412 0.0000 -45.8227 0.0000
# 4 0.0000 0.0000 0.0000 9.3321 0.0000 -14.6934
# 5 -2.8699 -25.6709 -45.8227 0.0000 53.7936 0.0000
# 6 0.0000 0.0000 0.0000 -14.6934 0.0000 18.2568
#
#
#
# Elastic Compliance Matrix: (Units=1/GPa)
#
#
# Indices 1 2 3 4 5 6 
#
# 1 0.019281 -0.001436 -0.007147 0.000000 -0.005745 0.000000
# 2 -0.001436 0.017537 -0.000751 0.000000 0.007652 0.000000
# 3 -0.007147 -0.000751 0.012115 0.000000 0.009580 0.000000
# 4 0.000000 0.000000 0.000000 -0.401051 0.000000 -0.322774
# 5 -0.005745 0.007652 0.009580 0.000000 0.030095 0.000000
# 6 0.000000 0.000000 0.000000 -0.322774 0.000000 -0.205001
#
#
# Mechanical properties :
#
#
# Convention : Reuss Voigt Hill
#
# Bulk Modulus (GPa) = 33.04200 49.46575 41.25388
# Shear Modulus (GPa) = -10.03480 29.77433 9.86977
#
# Velocity S-wave (km/s) = -2.02640 3.49054 2.00967
# Velocity P-wave (km/s) = 2.83653 6.04043 4.71873
#
# Compressibility (1/GPa) = 0.03026451
#
# Stress axis : x y z
#
# Youngs Moduli (GPa) = 51.86346 57.02230 82.54241
#
# Poissons Ratio (x) = 0.08189 0.58992
# Poissons Ratio (y) = 0.07448 0.06203
# Poissons Ratio (z) = 0.37066 0.04285
#
# Static dielectric constant tensor:
#      x y z
#    x 1.819810 0.000000 0.115730 
#    y 0.000000 1.898590 0.000000 
#    z 0.115730 0.000000 1.918630 
# 
# From -- ./inp_files/146683.got.cif
#   From: 2010.05.17/outbox.cif.g08.bks.cpg/sg15_74_cif.got.tgz:146683.got - 2010.06.03 18:47:42.
