data_PCOD9308872
_publ_section_title
;
Structure prediction by ZEFSAII (Michael W. Deem and Ramdas Pophale) SiO2 
 PCOD9308872
Probable space group: C 2/C
;
_chemical_formula_sum "Si O2"
_cell_formula_units_Z 28
_cell_length_a 24.000000
_cell_length_b 9.000000
_cell_length_c 15.000000
_cell_angle_alpha 90.000000
_cell_angle_beta 70.000000
_cell_angle_gamma 90.000000
_cell_volume 3044.604091
_symmetry_space_group_name_H-M "C 2/C"
_symmetry_group_IT_number 15
_symmetry_cell_setting 'monoclinic'
loop_
_space_group_symop_operation_xyz
x,y,z
-x,y,1/2-z
-x,-y,-z
x,-y,1/2+z
1/2+x,1/2+y,z
1/2-x,1/2+y,1/2-z
1/2-x,1/2-y,-z
1/2+x,1/2-y,1/2+z
loop_
_atom_site_type_symbol
_atom_site_label
_atom_site_fract_x
_atom_site_fract_y
_atom_site_fract_z
Si Si1 0.154851 0.069962 0.865469
Si Si2 0.616689 0.189007 0.261808
Si Si3 0.282900 0.988617 0.212045
Si Si4 0.520101 0.962400 0.388554
Si Si5 0.118061 0.735238 0.893897
Si Si6 0.197859 0.677530 0.471609
Si Si7 0.895251 0.553725 0.414897
O O1 0.119061 0.151187 0.805857
O O2 0.221276 0.043336 0.792732
O O3 0.161142 0.191203 0.941531
O O4 0.127184 0.909869 0.902341
O O5 0.611569 0.172189 0.159698
O O6 0.677437 0.105419 0.255031
O O7 0.563960 0.092501 0.333194
O O8 0.322972 0.840229 0.180550
O O9 0.276482 0.068136 0.119353
O O10 0.560367 0.814274 0.368134
O O11 0.500000 0.000000 0.500000
O O12 0.458520 0.971535 0.369768
O O13 0.109368 0.645325 0.990822
O O14 0.250000 0.750000 0.500000
O O15 0.154847 0.573362 0.553788
#
# Coordination Sequence:
#
# PCOD9308872 Si02
#       7
#     8   8   8   8   8   8   8
#     4  11  20  34  54  82 111 140 179 231 277 313
#     4  10  20  34  56  80 103 140 182 222 263 320
#     4   9  19  35  53  75 109 150 182 211 271 336
#     4   9  18  37  58  75 101 142 182 213 259 330
#     4   9  19  34  55  80 107 142 181 222 273 325
#     4  10  21  35  54  81 111 145 184 227 268 323
#     4  10  20  37  56  77 107 147 184 216 268 335
#
# _framework density 9.1965979999999998
#
# number of rings (size 3 to 8) (size 9 to 14) (size 15 to 20)
#    0.000    2.286    0.000    5.571    0.000    2.286 
#    0.000   10.000    0.000    5.143    0.000    0.000 
#    0.000    0.000    0.000    0.000    0.000    0.000 
#
# Total GULP energy -156139.281184 kJ/mol
# GULP energy per Si atom -5576.402899 kJ/mol
# Density = 0.917567 g / cm^3
# Si number density = 9.196598 Si / 1000 Ang^3
#
#
#
# Elastic Constant Matrix: (Units=GPa)
#
#
# Indices 1 2 3 4 5 6 
#
# 1 85.7841 26.4894 26.5569 0.0000 -1.3437 0.0000
# 2 26.4894 113.1724 9.1427 0.0000 -1.5458 0.0000
# 3 26.5569 9.1427 37.3721 0.0000 -8.4655 0.0000
# 4 0.0000 0.0000 0.0000 18.6009 0.0000 6.1488
# 5 -1.3437 -1.5458 -8.4655 0.0000 29.6085 0.0000
# 6 0.0000 0.0000 0.0000 6.1488 0.0000 9.9418
#
#
#
# Elastic Compliance Matrix: (Units=1/GPa)
#
#
# Indices 1 2 3 4 5 6 
#
# 1 0.015986 -0.002869 -0.011257 0.000000 -0.002643 0.000000
# 2 -0.002869 0.009530 -0.000224 0.000000 0.000303 0.000000
# 3 -0.011257 -0.000224 0.037096 0.000000 0.010084 0.000000
# 4 0.000000 0.000000 0.000000 0.067577 0.000000 -0.041795
# 5 -0.002643 0.000303 0.010084 0.000000 0.036553 0.000000
# 6 0.000000 0.000000 0.000000 -0.041795 0.000000 0.126435
#
#
# Mechanical properties :
#
#
# Convention : Reuss Voigt Hill
#
# Bulk Modulus (GPa) = 29.48730 40.07851 34.78290
# Shear Modulus (GPa) = 15.00685 23.23955 19.12320
#
# Velocity S-wave (km/s) = 2.85948 3.55841 3.22792
# Velocity P-wave (km/s) = 5.19313 6.22256 5.73100
#
# Compressibility (1/GPa) = 0.03391291
#
# Stress axis : x y z
#
# Youngs Moduli (GPa) = 62.55285 104.93456 26.95685
#
# Poissons Ratio (x) = 0.30101 0.30345
# Poissons Ratio (y) = 0.17943 0.00605
# Poissons Ratio (z) = 0.70416 0.02354
#
# Static dielectric constant tensor:
#      x y z
#    x 1.661030 0.000000 0.028170 
#    y 0.000000 1.613160 0.000000 
#    z 0.028170 0.000000 1.662620 
# 
# From -- ./inp_files/171820.got.cif
#   From: 2010.05.17/outbox.ucp.g08.bks.cvg/sg15_86_cif.got.tgz:171820.got - 2010.06.11 12:40:34.
