data_PCOD9308365
_publ_section_title
;
Structure prediction by ZEFSAII (Michael W. Deem and Ramdas Pophale) SiO2 
 PCOD9308365
Probable space group: C 2/C
;
_chemical_formula_sum "Si O2"
_cell_formula_units_Z 28
_cell_length_a 10.780859
_cell_length_b 14.666783
_cell_length_c 13.808192
_cell_angle_alpha 90.000000
_cell_angle_beta 149.748389
_cell_angle_gamma 90.000000
_cell_volume 1099.972222
_symmetry_space_group_name_H-M "C 2/C"
_symmetry_group_IT_number 15
_symmetry_cell_setting 'monoclinic'
loop_
_space_group_symop_operation_xyz
x,y,z
-x,y,1/2-z
-x,-y,-z
x,-y,1/2+z
1/2+x,1/2+y,z
1/2-x,1/2+y,1/2-z
1/2-x,1/2-y,-z
1/2+x,1/2-y,1/2+z
loop_
_atom_site_type_symbol
_atom_site_label
_atom_site_fract_x
_atom_site_fract_y
_atom_site_fract_z
Si Si1 0.000000 0.865107 0.750000
Si Si2 0.742649 0.248247 0.396957
Si Si3 0.086268 0.902067 0.024959
Si Si4 0.021788 0.396895 0.056849
O O1 0.910509 0.907455 0.588608
O O2 0.728413 0.835938 0.605284
O O3 0.895013 0.171245 0.440894
O O4 0.450722 0.237552 0.139177
O O5 0.793344 0.348606 0.390953
O O6 0.349755 0.889684 0.252507
O O7 0.000000 0.000000 0.000000
O O8 0.000000 0.500000 0.000000
#
# Coordination Sequence:
#
# PCOD9308365 Si02
#       4
#     4   8   8   8
#     4  12  28  50  74 114 164 198 274 312 402 480
#     4  12  27  51  83 117 159 205 276 323 390 480
#     4  12  28  50  82 118 158 212 259 335 404 463
#     4  12  28  50  80 119 158 214 260 333 403 464
#
# _framework density 25.455188
#
# number of rings (size 3 to 8) (size 9 to 14) (size 15 to 20)
#    0.000    0.000    5.714    2.571    6.000    1.143 
#    0.000    0.000    0.000    0.000    0.000    0.000 
#    0.000    0.000    0.000    0.000    0.000    0.000 
#
# Total GULP energy -78007.713880 kJ/mol
# GULP energy per Si atom -5571.979563 kJ/mol
# Density = 2.539725 g / cm^3
# Si number density = 25.455188 Si / 1000 Ang^3
#
#
#
# Elastic Constant Matrix: (Units=GPa)
#
#
# Indices 1 2 3 4 5 6 
#
# 1 149.9480 51.6753 56.1752 0.0038 -33.0556 0.0021
# 2 51.6753 140.4176 24.2606 0.0049 6.4263 0.0037
# 3 56.1752 24.2606 232.4449 0.0048 -1.9287 0.0038
# 4 0.0038 0.0049 0.0048 28.5743 0.0042 4.0300
# 5 -33.0556 6.4263 -1.9287 0.0042 98.9939 0.0021
# 6 0.0021 0.0037 0.0038 4.0300 0.0021 7.4967
#
#
#
# Elastic Compliance Matrix: (Units=1/GPa)
#
#
# Indices 1 2 3 4 5 6 
#
# 1 0.009184 -0.003207 -0.001858 -0.000001 0.003239 -0.000001
# 2 -0.003207 0.008396 -0.000115 0.000000 -0.001618 -0.000003
# 3 -0.001858 -0.000115 0.004759 0.000000 -0.000520 -0.000002
# 4 -0.000001 0.000000 0.000000 0.037867 -0.000001 -0.020356
# 5 0.003239 -0.001618 -0.000520 -0.000001 0.011278 -0.000002
# 6 -0.000001 -0.000003 -0.000002 -0.020356 -0.000002 0.144336
#
#
# Mechanical properties :
#
#
# Convention : Reuss Voigt Hill
#
# Bulk Modulus (GPa) = 83.47730 87.44807 85.46268
# Shear Modulus (GPa) = 21.72286 53.05960 37.39123
#
# Velocity S-wave (km/s) = 2.92443 4.57051 3.83679
# Velocity P-wave (km/s) = 6.65343 7.89184 7.29894
#
# Compressibility (1/GPa) = 0.01197930
#
# Stress axis : x y z
#
# Youngs Moduli (GPa) = 108.88201 119.10810 210.13885
#
# Poissons Ratio (x) = 0.38199 0.39043
# Poissons Ratio (y) = 0.34920 0.02409
# Poissons Ratio (z) = 0.20230 0.01365
#
# Static dielectric constant tensor:
#      x y z
#    x 1.941550 0.000010 -0.066720 
#    y 0.000010 1.828280 -0.000010 
#    z -0.066720 -0.000010 2.576730 
# 
# From -- ./inp_files/12650.got.cif
#   From: 2010.05.17/outbox.cif.g08.bks.cpg/sg15_7_cif.got.tgz:12650.got - 2010.06.03 18:47:42.
