data_PCOD9308602
_publ_section_title
;
Structure prediction by ZEFSAII (Michael W. Deem and Ramdas Pophale) SiO2 
 PCOD9308602
Probable space group: C 2/C
;
_chemical_formula_sum "Si O2"
_cell_formula_units_Z 18
_cell_length_a 15.000000
_cell_length_b 15.000000
_cell_length_c 18.000000
_cell_angle_alpha 90.000000
_cell_angle_beta 30.000000
_cell_angle_gamma 90.000000
_cell_volume 2025.000000
_symmetry_space_group_name_H-M "C 2/C"
_symmetry_group_IT_number 15
_symmetry_cell_setting 'monoclinic'
loop_
_space_group_symop_operation_xyz
x,y,z
-x,y,1/2-z
-x,-y,-z
x,-y,1/2+z
1/2+x,1/2+y,z
1/2-x,1/2+y,1/2-z
1/2-x,1/2-y,-z
1/2+x,1/2-y,1/2+z
loop_
_atom_site_type_symbol
_atom_site_label
_atom_site_fract_x
_atom_site_fract_y
_atom_site_fract_z
Si Si1 0.068879 0.646071 0.425945
Si Si2 0.421130 0.434367 0.407696
Si Si3 0.318569 0.320225 0.610818
Si Si4 0.211061 0.500868 0.427554
Si Si5 0.500000 0.730060 0.750000
O O1 0.237178 0.659948 0.250258
O O2 0.132694 0.594498 0.454541
O O3 0.963095 0.739764 0.510768
O O4 0.933823 0.576147 0.483852
O O5 0.390345 0.407596 0.515203
O O6 0.277975 0.493064 0.464698
O O7 0.614388 0.475326 0.248178
O O8 0.415867 0.337685 0.370593
O O9 0.149624 0.286023 0.684008
#
# Coordination Sequence:
#
# PCOD9308602 Si02
#       5
#     8   8   8   8   4
#     4  11  20  32  51  80 111 135 169 222 264 304
#     4  10  18  34  53  73 104 144 171 207 260 321
#     4  12  19  30  54  82 106 135 177 215 257 311
#     4   9  20  35  49  73 112 143 165 213 272 307
#     4  10  16  28  48  78 104 130 160 218 244 312
#
# _framework density 8.8888890000000007
#
# number of rings (size 3 to 8) (size 9 to 14) (size 15 to 20)
#    0.000    1.778    6.667    2.000    0.000    0.889 
#    0.000    0.000    0.000    5.333    0.000    0.000 
#    0.000    0.000    0.000    0.000    0.000    0.000 
#
# Total GULP energy -100388.843517 kJ/mol
# GULP energy per Si atom -5577.157973 kJ/mol
# Density = 0.886866 g / cm^3
# Si number density = 8.888889 Si / 1000 Ang^3
#
#
#
# Elastic Constant Matrix: (Units=GPa)
#
#
# Indices 1 2 3 4 5 6 
#
# 1 43.5859 40.5856 27.9595 -0.0053 -2.0193 0.0041
# 2 40.5856 61.7068 31.9269 0.0154 -0.1461 -0.0062
# 3 27.9595 31.9269 69.3505 0.0079 13.2033 -0.0030
# 4 -0.0053 0.0154 0.0079 9.7272 -0.0027 0.0900
# 5 -2.0193 -0.1461 13.2033 -0.0027 20.5210 0.0002
# 6 0.0041 -0.0062 -0.0030 0.0900 0.0002 43.4019
#
#
#
# Elastic Compliance Matrix: (Units=1/GPa)
#
#
# Indices 1 2 3 4 5 6 
#
# 1 0.065833 -0.036948 -0.012210 0.000108 0.014071 -0.000013
# 2 -0.036948 0.043030 -0.004877 -0.000085 -0.000191 0.000009
# 3 -0.012210 -0.004877 0.024869 -0.000024 -0.017237 0.000002
# 4 0.000108 -0.000085 -0.000024 0.102807 0.000039 -0.000213
# 5 0.014071 -0.000191 -0.017237 0.000039 0.061204 -0.000003
# 6 -0.000013 0.000009 0.000002 -0.000213 -0.000003 0.023041
#
#
# Mechanical properties :
#
#
# Convention : Reuss Voigt Hill
#
# Bulk Modulus (GPa) = 38.97038 41.73188 40.35113
# Shear Modulus (GPa) = 11.43093 19.67477 15.55285
#
# Velocity S-wave (km/s) = 2.53848 3.33033 2.96099
# Velocity P-wave (km/s) = 5.52813 6.18977 5.86828
#
# Compressibility (1/GPa) = 0.02566051
#
# Stress axis : x y z
#
# Youngs Moduli (GPa) = 15.19001 23.23943 40.21037
#
# Poissons Ratio (x) = 0.85866 0.49098
# Poissons Ratio (y) = 0.56125 0.19611
# Poissons Ratio (z) = 0.18547 0.11334
#
# Static dielectric constant tensor:
#      x y z
#    x 1.631560 0.000000 0.024790 
#    y 0.000000 1.599350 0.000000 
#    z 0.024790 0.000000 1.660980 
# 
# From -- ./inp_files/37501.got.cif
#   From: 2010.05.17/outbox.ucp.g08.bks.cvg/sg15_19_cif.got.tgz:37501.got - 2010.06.11 12:40:34.
