data_PCOD9308578
_publ_section_title
;
Structure prediction by ZEFSAII (Michael W. Deem and Ramdas Pophale) SiO2 
 PCOD9308578
Probable space group: C 2/C
;
_chemical_formula_sum "Si O2"
_cell_formula_units_Z 48
_cell_length_a 11.181320
_cell_length_b 14.636027
_cell_length_c 21.900697
_cell_angle_alpha 90.000000
_cell_angle_beta 33.156964
_cell_angle_gamma 90.000000
_cell_volume 1960.241508
_symmetry_space_group_name_H-M "C 2/C"
_symmetry_group_IT_number 15
_symmetry_cell_setting 'monoclinic'
loop_
_space_group_symop_operation_xyz
x,y,z
-x,y,1/2-z
-x,-y,-z
x,-y,1/2+z
1/2+x,1/2+y,z
1/2-x,1/2+y,1/2-z
1/2-x,1/2-y,-z
1/2+x,1/2-y,1/2+z
loop_
_atom_site_type_symbol
_atom_site_label
_atom_site_fract_x
_atom_site_fract_y
_atom_site_fract_z
Si Si1 0.423828 0.073958 0.362116
Si Si2 0.714597 0.959782 0.438836
Si Si3 0.254743 0.342604 0.211926
Si Si4 0.427294 0.451795 0.653477
Si Si5 0.233961 0.619480 0.587531
Si Si6 0.640680 0.265621 0.113121
O O1 0.336651 0.055788 0.467593
O O2 0.682211 0.084455 0.262292
O O3 0.334209 0.165736 0.369655
O O4 0.332668 0.985417 0.365984
O O5 0.773599 0.857278 0.391306
O O6 0.500000 0.000000 0.500000
O O7 0.914634 0.032095 0.355336
O O8 0.370319 0.441705 0.164059
O O9 0.276562 0.321306 0.130158
O O10 0.390964 0.283980 0.200894
O O11 0.999624 0.346251 0.338313
O O12 0.571168 0.394783 0.543351
O O13 0.750000 0.250000 0.000000
#
# Coordination Sequence:
#
# PCOD9308578 Si02
#       6
#     8   8   8   8   8   8
#     4   9  18  33  55  79 103 133 174 218 260 303
#     4   9  18  33  53  76 104 141 179 211 254 316
#     4   9  17  31  54  78 102 133 174 211 256 314
#     4   9  17  30  52  76 103 136 173 212 254 311
#     4   9  17  31  54  79 101 134 174 211 254 314
#     4   9  18  34  54  77 102 133 173 221 261 303
#
# _framework density 24.486778999999999
#
# number of rings (size 3 to 8) (size 9 to 14) (size 15 to 20)
#    0.000    3.000    0.000    1.500    0.000    0.667 
#    0.000    7.500    0.000   56.000    0.000    3.500 
#    0.000    0.000    0.000    0.000    0.000    0.000 
#
# Total GULP energy -133832.115817 kJ/mol
# GULP energy per Si atom -5576.338159 kJ/mol
# Density = 2.443105 g / cm^3
# Si number density = 24.486779 Si / 1000 Ang^3
#
#
#
# Elastic Constant Matrix: (Units=GPa)
#
#
# Indices 1 2 3 4 5 6 
#
# 1 76.3381 25.0517 10.2516 -0.0005 -24.8700 0.0000
# 2 25.0517 84.4859 -7.7930 -0.0055 -15.1862 -0.0023
# 3 10.2516 -7.7930 118.7556 -0.0101 -10.8125 -0.0078
# 4 -0.0005 -0.0055 -0.0101 16.0801 -0.0059 1.0556
# 5 -24.8700 -15.1862 -10.8125 -0.0059 54.7338 -0.0005
# 6 0.0000 -0.0023 -0.0078 1.0556 -0.0005 -3.2865
#
#
#
# Elastic Compliance Matrix: (Units=1/GPa)
#
#
# Indices 1 2 3 4 5 6 
#
# 1 0.016554 -0.003894 -0.001118 0.000000 0.006221 0.000005
# 2 -0.003894 0.013530 0.001430 0.000007 0.002267 -0.000011
# 3 -0.001118 0.001430 0.008758 0.000008 0.001619 -0.000020
# 4 0.000000 0.000007 0.000008 0.060904 0.000010 0.019562
# 5 0.006221 0.002267 0.001619 0.000010 0.022046 -0.000006
# 6 0.000005 -0.000011 -0.000020 0.019562 -0.000006 -0.297996
#
#
# Mechanical properties :
#
#
# Convention : Reuss Voigt Hill
#
# Bulk Modulus (GPa) = 31.56531 37.17780 34.37155
# Shear Modulus (GPa) = -31.54977 30.31011 -0.61983
#
# Velocity S-wave (km/s) = -3.59338 3.52208 -0.50366
# Velocity P-wave (km/s) = 2.07311 5.63523 3.70527
#
# Compressibility (1/GPa) = 0.03168034
#
# Stress axis : x y z
#
# Youngs Moduli (GPa) = 60.40777 73.90800 114.17530
#
# Poissons Ratio (x) = 0.28777 0.12767
# Poissons Ratio (y) = 0.23520 -0.16332
# Poissons Ratio (z) = 0.06755 -0.10572
#
# Static dielectric constant tensor:
#      x y z
#    x 2.003140 0.000000 0.026220 
#    y 0.000000 2.018450 0.000010 
#    z 0.026220 0.000010 2.028270 
# 
# From -- ./inp_files/293000.got.cif
#   From: 2010.05.17/outbox.cif.g08.bks.cpg/sg15_147_cif.got.tgz:293000.got - 2010.06.03 18:47:42.
