data_PCOD9308763
_publ_section_title
;
Structure prediction by ZEFSAII (Michael W. Deem and Ramdas Pophale) SiO2 
 PCOD9308763
Probable space group: C 2/C
;
_chemical_formula_sum "Si O2"
_cell_formula_units_Z 32
_cell_length_a 9.000000
_cell_length_b 30.000000
_cell_length_c 15.000000
_cell_angle_alpha 90.000000
_cell_angle_beta 130.000000
_cell_angle_gamma 90.000000
_cell_volume 3102.479995
_symmetry_space_group_name_H-M "C 2/C"
_symmetry_group_IT_number 15
_symmetry_cell_setting 'monoclinic'
loop_
_space_group_symop_operation_xyz
x,y,z
-x,y,1/2-z
-x,-y,-z
x,-y,1/2+z
1/2+x,1/2+y,z
1/2-x,1/2+y,1/2-z
1/2-x,1/2-y,-z
1/2+x,1/2-y,1/2+z
loop_
_atom_site_type_symbol
_atom_site_label
_atom_site_fract_x
_atom_site_fract_y
_atom_site_fract_z
Si Si1 0.930638 0.142357 0.118046
Si Si2 0.659430 0.634330 0.737113
Si Si3 0.062473 0.566700 0.367201
Si Si4 0.490801 0.573809 0.983574
Si Si5 0.301518 0.226148 0.729030
Si Si6 0.890228 0.468267 0.125064
Si Si7 0.450586 0.264614 0.530407
Si Si8 0.032164 0.396606 0.484480
O O1 0.984652 0.185105 0.079458
O O2 0.000000 0.142608 0.250000
O O3 0.993732 0.100868 0.079313
O O4 0.696408 0.139893 0.030323
O O5 0.500000 0.647982 0.750000
O O6 0.577686 0.602973 0.627761
O O7 0.756375 0.674532 0.721156
O O8 0.828606 0.613241 0.861302
O O9 0.292071 0.561932 0.456490
O O10 0.000043 0.514994 0.345082
O O11 0.000000 0.587234 0.250000
O O12 0.986404 0.594895 0.418885
O O13 0.334070 0.534634 0.933632
O O14 0.500000 0.235208 0.750000
O O15 0.363089 0.240670 0.853219
O O16 0.114135 0.242501 0.598316
O O17 0.900892 0.441575 0.038058
O O18 0.000000 0.444499 0.250000
O O19 0.250000 0.250000 0.500000
#
# Coordination Sequence:
#
# PCOD9308763 Si02
#       8
#     8   8   8   8   8   8   8   8
#     4  11  22  37  62  90 118 155 197 248 300 361
#     4  12  23  39  62  90 120 161 203 252 299 360
#     4  11  23  40  56  85 125 163 195 248 309 364
#     4  11  22  39  61  86 121 155 206 246 301 354
#     4  10  21  37  64  91 121 159 199 256 307 361
#     4  10  21  36  62  87 117 155 205 253 303 354
#     4  10  19  35  59  91 120 147 196 251 302 351
#     4  11  22  37  61  88 118 156 205 251 297 359
#
# _framework density 10.314329000000001
#
# number of rings (size 3 to 8) (size 9 to 14) (size 15 to 20)
#    0.000    1.250    3.750    4.125    1.750    0.000 
#    0.000    0.625    2.750    0.000    0.000    0.000 
#    0.000    0.000    0.000    0.000    0.000    0.000 
#
# Total GULP energy -178146.975205 kJ/mol
# GULP energy per Si atom -5567.092975 kJ/mol
# Density = 1.029085 g / cm^3
# Si number density = 10.314329 Si / 1000 Ang^3
#
#
#
# Elastic Constant Matrix: (Units=GPa)
#
#
# Indices 1 2 3 4 5 6 
#
# 1 32.4321 -14.2114 7.3020 0.0000 2.5880 0.0000
# 2 -14.2114 22.6679 7.5582 0.0000 1.0449 0.0000
# 3 7.3020 7.5582 152.8016 0.0000 -21.5137 0.0000
# 4 0.0000 0.0000 0.0000 20.0623 0.0000 3.1362
# 5 2.5880 1.0449 -21.5137 0.0000 23.0472 0.0000
# 6 0.0000 0.0000 0.0000 3.1362 0.0000 7.6623
#
#
#
# Elastic Compliance Matrix: (Units=1/GPa)
#
#
# Indices 1 2 3 4 5 6 
#
# 1 0.046951 0.031809 -0.005483 0.000000 -0.011832 0.000000
# 2 0.031809 0.066857 -0.006628 0.000000 -0.012790 0.000000
# 3 -0.005483 -0.006628 0.008362 0.000000 0.008722 0.000000
# 4 0.000000 0.000000 0.000000 0.053252 0.000000 -0.021797
# 5 -0.011832 -0.012790 0.008722 0.000000 0.053439 0.000000
# 6 0.000000 0.000000 0.000000 -0.021797 0.000000 0.139431
#
#
# Mechanical properties :
#
#
# Convention : Reuss Voigt Hill
#
# Bulk Modulus (GPa) = 6.18941 23.24435 14.71688
# Shear Modulus (GPa) = 13.06328 23.97123 18.51725
#
# Velocity S-wave (km/s) = 2.51919 3.41256 2.99933
# Velocity P-wave (km/s) = 3.38655 5.17879 4.37542
#
# Compressibility (1/GPa) = 0.16156642
#
# Stress axis : x y z
#
# Youngs Moduli (GPa) = 21.29892 14.95728 119.58409
#
# Poissons Ratio (x) = -0.47578 0.65568
# Poissons Ratio (y) = -0.67750 0.79258
# Poissons Ratio (z) = 0.11678 0.09913
#
# Static dielectric constant tensor:
#      x y z
#    x 1.722810 0.000000 -0.018910 
#    y 0.000000 1.814560 0.000000 
#    z -0.018910 0.000000 1.682750 
# 
# From -- ./inp_files/139872.got.cif
#   From: 2010.05.17/outbox.ucp.g08.bks.cvg/sg15_70_cif.got.tgz:139872.got - 2010.06.11 12:40:34.
