data_PCOD9308046
_publ_section_title
;
Structure prediction by ZEFSAII (Michael W. Deem and Ramdas Pophale) SiO2 
 PCOD9308046
Probable space group: C 2/C
;
_chemical_formula_sum "Si O2"
_cell_formula_units_Z 32
_cell_length_a 19.156552
_cell_length_b 4.960296
_cell_length_c 18.661787
_cell_angle_alpha 90.000000
_cell_angle_beta 137.430227
_cell_angle_gamma 90.000000
_cell_volume 1199.604168
_symmetry_space_group_name_H-M "C 2/C"
_symmetry_group_IT_number 15
_symmetry_cell_setting 'monoclinic'
loop_
_space_group_symop_operation_xyz
x,y,z
-x,y,1/2-z
-x,-y,-z
x,-y,1/2+z
1/2+x,1/2+y,z
1/2-x,1/2+y,1/2-z
1/2-x,1/2-y,-z
1/2+x,1/2-y,1/2+z
loop_
_atom_site_type_symbol
_atom_site_label
_atom_site_fract_x
_atom_site_fract_y
_atom_site_fract_z
Si Si1 0.572434 0.101703 0.734563
Si Si2 0.590546 0.863762 0.988635
Si Si3 0.786829 0.109985 0.956576
Si Si4 0.825905 0.117472 0.304667
O O1 0.500000 0.134167 0.750000
O O2 0.683564 0.993967 0.842420
O O3 0.607225 0.369248 0.717468
O O4 0.516415 0.935716 0.629656
O O5 0.641849 0.644226 0.975379
O O6 0.602677 0.711677 0.074020
O O7 0.652140 0.147001 0.036649
O O8 0.750000 0.250000 0.000000
O O9 0.734968 0.340933 0.233426
#
# Coordination Sequence:
#
# PCOD9308046 Si02
#       4
#     8   8   8   8
#     4  12  27  48  79 115 149 202 256 314 378 456
#     4  12  26  49  78 109 151 203 254 308 377 453
#     4  12  26  49  75 111 156 192 249 318 377 443
#     4  12  25  50  76 107 155 203 248 314 379 445
#
# _framework density 26.675464000000002
#
# number of rings (size 3 to 8) (size 9 to 14) (size 15 to 20)
#    0.000    0.000    7.500    1.500    0.000    4.000 
#    0.000    5.000    0.000    0.000    0.000    0.000 
#    0.000    0.000    0.000    0.000    0.000    0.000 
#
# Total GULP energy -89605.492634 kJ/mol
# GULP energy per Si atom -5600.343290 kJ/mol
# Density = 2.661475 g / cm^3
# Si number density = 26.675464 Si / 1000 Ang^3
#
#
#
# Elastic Constant Matrix: (Units=GPa)
#
#
# Indices 1 2 3 4 5 6 
#
# 1 71.1735 13.1797 4.0465 0.0003 1.5958 -0.0002
# 2 13.1797 158.5433 39.6372 0.0029 24.9662 0.0031
# 3 4.0465 39.6372 167.5592 0.0015 13.4408 0.0047
# 4 0.0003 0.0029 0.0015 41.0390 -0.0001 6.4016
# 5 1.5958 24.9662 13.4408 -0.0001 47.7721 0.0013
# 6 -0.0002 0.0031 0.0047 6.4016 0.0013 46.7545
#
#
#
# Elastic Compliance Matrix: (Units=1/GPa)
#
#
# Indices 1 2 3 4 5 6 
#
# 1 0.014272 -0.001194 -0.000076 0.000000 0.000169 0.000000
# 2 -0.001194 0.007294 -0.001426 0.000000 -0.003371 0.000000
# 3 -0.000076 -0.001426 0.006392 0.000000 -0.001050 -0.000001
# 4 0.000000 0.000000 0.000000 0.024899 0.000000 -0.003409
# 5 0.000169 -0.003371 -0.001050 0.000000 0.022984 0.000000
# 6 0.000000 0.000000 -0.000001 -0.003409 0.000000 0.021855
#
#
# Mechanical properties :
#
#
# Convention : Reuss Voigt Hill
#
# Bulk Modulus (GPa) = 44.31562 56.77809 50.54685
# Shear Modulus (GPa) = 45.20417 49.80731 47.50574
#
# Velocity S-wave (km/s) = 4.12101 4.32575 4.22462
# Velocity P-wave (km/s) = 6.26838 6.80297 6.54114
#
# Compressibility (1/GPa) = 0.02256541
#
# Stress axis : x y z
#
# Youngs Moduli (GPa) = 70.06820 137.09779 156.45755
#
# Poissons Ratio (x) = 0.16370 0.01185
# Poissons Ratio (y) = 0.08366 0.22315
# Poissons Ratio (z) = 0.00531 0.19553
#
# Static dielectric constant tensor:
#      x y z
#    x 2.162660 0.000000 -0.069930 
#    y 0.000000 1.997420 0.000000 
#    z -0.069930 0.000000 2.125150 
# 
# From -- ./inp_files/250925.got.cif
#   From: 2010.05.17/outbox.cif.g08.bks.cpg/sg15_126_cif.got.tgz:250925.got - 2010.06.03 18:47:42.
