data_PCOD9308156
_publ_section_title
;
Structure prediction by ZEFSAII (Michael W. Deem and Ramdas Pophale) SiO2 
 PCOD9308156
Probable space group: C 2/C
;
_chemical_formula_sum "Si O2"
_cell_formula_units_Z 48
_cell_length_a 13.413564
_cell_length_b 22.753570
_cell_length_c 9.484818
_cell_angle_alpha 90.000000
_cell_angle_beta 134.999998
_cell_angle_gamma 90.000000
_cell_volume 2046.952436
_symmetry_space_group_name_H-M "C 2/C"
_symmetry_group_IT_number 15
_symmetry_cell_setting 'monoclinic'
loop_
_space_group_symop_operation_xyz
x,y,z
-x,y,1/2-z
-x,-y,-z
x,-y,1/2+z
1/2+x,1/2+y,z
1/2-x,1/2+y,1/2-z
1/2-x,1/2-y,-z
1/2+x,1/2-y,1/2+z
loop_
_atom_site_type_symbol
_atom_site_label
_atom_site_fract_x
_atom_site_fract_y
_atom_site_fract_z
Si Si1 0.794783 0.427326 0.973370
Si Si2 0.500000 0.375000 0.750000
Si Si3 0.500000 0.125000 0.250000
Si Si4 0.500000 0.824554 0.250000
Si Si5 0.571413 0.322674 0.116196
Si Si6 0.500000 0.425446 0.250000
Si Si7 0.787386 0.470082 0.658354
Si Si8 0.620967 0.220082 0.583581
O O1 0.630767 0.411624 0.822175
O O2 0.811327 0.464326 0.847986
O O3 0.883909 0.367715 0.064528
O O4 0.836309 0.467505 0.147285
O O5 0.441408 0.338376 0.560642
O O6 0.625275 0.082577 0.325165
O O7 0.550110 0.167423 0.425385
O O8 0.424121 0.788522 0.298211
O O9 0.569380 0.382285 0.203289
O O10 0.713341 0.285674 0.274668
O O11 0.439023 0.282495 0.025331
O O12 0.624090 0.461478 0.449969
#
# Coordination Sequence:
#
# PCOD9308156 Si02
#       8
#     8   4   4   4   8   4   8   8
#     4  12  28  46  75 107 142 188 239 293 359 422
#     4  12  26  48  72 106 148 184 234 296 356 426
#     4  12  26  48  72 106 148 184 234 296 356 426
#     4  12  26  48  72 106 148 184 234 296 356 426
#     4  12  28  46  75 107 142 188 239 293 359 422
#     4  12  26  48  72 106 148 184 234 296 356 426
#     4  12  28  46  75 107 142 188 239 293 359 422
#     4  12  28  46  75 107 142 188 239 293 359 422
#
# _framework density 23.449494000000001
#
# number of rings (size 3 to 8) (size 9 to 14) (size 15 to 20)
#    0.000    0.000    6.667    2.000    9.333    5.333 
#    0.000    0.000    0.000    0.000    0.000    0.000 
#    0.000    0.000    0.000    0.000    0.000    0.000 
#
# Total GULP energy -134611.030004 kJ/mol
# GULP energy per Si atom -5608.792917 kJ/mol
# Density = 2.339612 g / cm^3
# Si number density = 23.449494 Si / 1000 Ang^3
#
#
#
# Elastic Constant Matrix: (Units=GPa)
#
#
# Indices 1 2 3 4 5 6 
#
# 1 72.8007 -11.1229 14.3661 0.0000 -2.4540 0.0000
# 2 -11.1229 36.3226 -11.1228 0.0000 0.0001 0.0000
# 3 14.3661 -11.1228 72.8008 0.0000 2.4543 0.0000
# 4 0.0000 0.0000 0.0000 -7.6092 0.0000 0.0005
# 5 -2.4540 0.0001 2.4543 0.0000 30.4323 0.0000
# 6 0.0000 0.0000 0.0000 0.0005 0.0000 -7.6100
#
#
#
# Elastic Compliance Matrix: (Units=1/GPa)
#
#
# Indices 1 2 3 4 5 6 
#
# 1 0.014837 0.003811 -0.002392 0.000000 0.001389 0.000000
# 2 0.003811 0.029865 0.003811 0.000000 0.000000 0.000000
# 3 -0.002392 0.003811 0.014837 0.000000 -0.001390 0.000000
# 4 0.000000 0.000000 0.000000 -0.131420 0.000000 -0.000009
# 5 0.001389 0.000000 -0.001390 0.000000 0.033084 0.000000
# 6 0.000000 0.000000 0.000000 -0.000009 0.000000 -0.131406
#
#
# Mechanical properties :
#
#
# Convention : Reuss Voigt Hill
#
# Bulk Modulus (GPa) = 14.28604 18.46274 16.37439
# Shear Modulus (GPa) = -31.78075 15.69621 -8.04227
#
# Velocity S-wave (km/s) = -3.68541 2.59001 -1.85393
# Velocity P-wave (km/s) = 3.46471 4.10301 1.55411
#
# Compressibility (1/GPa) = 0.06999842
#
# Stress axis : x y z
#
# Youngs Moduli (GPa) = 67.39754 33.48393 67.39758
#
# Poissons Ratio (x) = -0.12761 0.16125
# Poissons Ratio (y) = -0.25685 -0.25684
# Poissons Ratio (z) = 0.16125 -0.12760
#
# Static dielectric constant tensor:
#      x y z
#    x 1.862230 0.000000 0.000000 
#    y 0.000000 1.824430 0.000000 
#    z 0.000000 0.000000 1.862230 
# 
# From -- ./inp_files/44006.got.cif
#   From: 2010.05.17/outbox.cif.g08.bks.cpg/sg15_23_cif.got.tgz:44006.got - 2010.06.03 18:47:42.
