data_PCOD9308963
_publ_section_title
;
Structure prediction by ZEFSAII (Michael W. Deem and Ramdas Pophale) SiO2 
 PCOD9308963
Probable space group: C 2/C
;
_chemical_formula_sum "Si O2"
_cell_formula_units_Z 26
_cell_length_a 24.000000
_cell_length_b 9.000000
_cell_length_c 15.000000
_cell_angle_alpha 90.000000
_cell_angle_beta 120.000000
_cell_angle_gamma 90.000000
_cell_volume 2805.922308
_symmetry_space_group_name_H-M "C 2/C"
_symmetry_group_IT_number 15
_symmetry_cell_setting 'monoclinic'
loop_
_space_group_symop_operation_xyz
x,y,z
-x,y,1/2-z
-x,-y,-z
x,-y,1/2+z
1/2+x,1/2+y,z
1/2-x,1/2+y,1/2-z
1/2-x,1/2-y,-z
1/2+x,1/2-y,1/2+z
loop_
_atom_site_type_symbol
_atom_site_label
_atom_site_fract_x
_atom_site_fract_y
_atom_site_fract_z
Si Si1 0.691628 0.979709 0.946629
Si Si2 0.061610 0.518743 0.428247
Si Si3 0.000000 0.238476 0.750000
Si Si4 0.574545 0.061079 0.642981
Si Si5 0.767654 0.969868 0.186771
Si Si6 0.376276 0.750397 0.737843
Si Si7 0.200206 0.684483 0.796438
O O1 0.625541 0.045058 0.935527
O O2 0.667777 0.837002 0.870688
O O3 0.721854 0.099947 0.903547
O O4 0.736149 0.939126 0.065138
O O5 0.036812 0.654283 0.348535
O O6 0.077539 0.575667 0.539491
O O7 0.998929 0.416345 0.386321
O O8 0.939387 0.166253 0.750163
O O9 0.623139 0.169112 0.731351
O O10 0.596279 0.890956 0.683750
O O11 0.778439 0.146687 0.197780
O O12 0.831460 0.870275 0.247902
O O13 0.722977 0.914882 0.231230
#
# Coordination Sequence:
#
# PCOD9308963 Si02
#       7
#     8   8   4   8   8   8   8
#     4  10  20  37  59  84 108 148 191 231 269 327
#     4   9  16  31  60  81 109 139 191 229 263 325
#     4   8  16  32  52  84 104 144 186 224 274 324
#     4   9  17  34  57  84 106 147 184 232 270 321
#     4  12  23  38  56  82 117 150 182 233 275 337
#     4   9  19  34  57  81 110 145 188 225 277 325
#     4  11  23  37  55  83 113 147 189 225 282 327
#
# _framework density 9.2661149999999992
#
# number of rings (size 3 to 8) (size 9 to 14) (size 15 to 20)
#    0.000    2.154    1.538    3.692    0.000    0.000 
#    0.000    1.538    0.000    8.308    0.000    0.000 
#    0.000    0.000    0.000    0.000    0.000    0.000 
#
# Total GULP energy -144774.638251 kJ/mol
# GULP energy per Si atom -5568.255317 kJ/mol
# Density = 0.924503 g / cm^3
# Si number density = 9.266115 Si / 1000 Ang^3
#
#
#
# Elastic Constant Matrix: (Units=GPa)
#
#
# Indices 1 2 3 4 5 6 
#
# 1 44.2559 26.3084 4.1403 0.0000 2.4605 0.0000
# 2 26.3084 53.4174 1.0979 0.0000 -1.8228 0.0000
# 3 4.1403 1.0979 72.8753 0.0000 -5.5891 0.0000
# 4 0.0000 0.0000 0.0000 6.0668 0.0000 -5.9217
# 5 2.4605 -1.8228 -5.5891 0.0000 23.5792 0.0000
# 6 0.0000 0.0000 0.0000 -5.9217 0.0000 20.9750
#
#
#
# Elastic Compliance Matrix: (Units=1/GPa)
#
#
# Indices 1 2 3 4 5 6 
#
# 1 0.032734 -0.016256 -0.002010 0.000000 -0.005149 0.000000
# 2 -0.016256 0.026845 0.000823 0.000000 0.003967 0.000000
# 3 -0.002010 0.000823 0.014101 0.000000 0.003616 0.000000
# 4 0.000000 0.000000 0.000000 0.227532 0.000000 0.064237
# 5 -0.005149 0.003967 0.003616 0.000000 0.044111 0.000000
# 6 0.000000 0.000000 0.000000 0.064237 0.000000 0.065811
#
#
# Mechanical properties :
#
#
# Convention : Reuss Voigt Hill
#
# Bulk Modulus (GPa) = 25.77626 25.96018 25.86822
# Shear Modulus (GPa) = 10.89443 19.39100 15.14271
#
# Velocity S-wave (km/s) = 2.42722 3.23823 2.86160
# Velocity P-wave (km/s) = 4.66843 5.29339 4.99071
#
# Compressibility (1/GPa) = 0.03879538
#
# Stress axis : x y z
#
# Youngs Moduli (GPa) = 30.54962 37.25085 70.91612
#
# Poissons Ratio (x) = 0.60555 0.14252
# Poissons Ratio (y) = 0.49661 -0.05839
# Poissons Ratio (z) = 0.06140 -0.03067
#
# Static dielectric constant tensor:
#      x y z
#    x 1.731460 0.000000 -0.009080 
#    y 0.000000 1.596750 0.000000 
#    z -0.009080 0.000000 1.659170 
# 
# From -- ./inp_files/172059.got.cif
#   From: 2010.05.17/outbox.ucp.g08.bks.cvg/sg15_87_cif.got.tgz:172059.got - 2010.06.11 12:40:34.
