data_PCOD9308979
_publ_section_title
;
Structure prediction by ZEFSAII (Michael W. Deem and Ramdas Pophale) SiO2 
 PCOD9308979
Probable space group: C 2/C
;
_chemical_formula_sum "Si O2"
_cell_formula_units_Z 24
_cell_length_a 21.000000
_cell_length_b 24.000000
_cell_length_c 15.000000
_cell_angle_alpha 90.000000
_cell_angle_beta 20.000000
_cell_angle_gamma 90.000000
_cell_volume 2585.672284
_symmetry_space_group_name_H-M "C 2/C"
_symmetry_group_IT_number 15
_symmetry_cell_setting 'monoclinic'
loop_
_space_group_symop_operation_xyz
x,y,z
-x,y,1/2-z
-x,-y,-z
x,-y,1/2+z
1/2+x,1/2+y,z
1/2-x,1/2+y,1/2-z
1/2-x,1/2-y,-z
1/2+x,1/2-y,1/2+z
loop_
_atom_site_type_symbol
_atom_site_label
_atom_site_fract_x
_atom_site_fract_y
_atom_site_fract_z
Si Si1 0.315060 0.367997 0.933627
Si Si2 0.705204 0.091250 0.163385
Si Si3 0.561706 0.406708 0.310101
Si Si4 0.811570 0.493705 0.443513
Si Si5 0.898591 0.810536 0.636331
Si Si6 0.023819 0.314727 0.010544
O O1 0.500000 0.365469 0.750000
O O2 0.270250 0.433120 0.971547
O O3 0.347370 0.333074 0.801251
O O4 0.144201 0.338776 0.209305
O O5 0.561829 0.137055 0.386853
O O6 0.818617 0.116956 0.930489
O O7 0.856827 0.079775 0.041041
O O8 0.643671 0.031778 0.203069
O O9 0.668747 0.465384 0.185832
O O10 0.536722 0.358124 0.414733
O O11 0.000000 0.485952 0.250000
O O12 0.976499 0.747453 0.538149
O O13 0.712876 0.810505 0.819923
#
# Coordination Sequence:
#
# PCOD9308979 Si02
#       6
#     8   8   8   8   8   8
#     4  12  25  41  60  83 118 158 199 240 290 348
#     4   8  18  39  61  87 119 153 190 235 290 347
#     4   8  18  39  61  87 119 153 190 235 290 347
#     4  10  20  37  62  91 118 148 193 242 293 346
#     4  11  23  40  62  87 119 155 197 241 287 344
#     4  11  23  40  62  87 119 155 197 241 287 344
#
# _framework density 9.2819190000000003
#
# number of rings (size 3 to 8) (size 9 to 14) (size 15 to 20)
#    1.000    1.000    0.000    4.000    0.000    4.667 
#    0.000    0.000    0.000    0.000    0.000    0.000 
#    0.000    0.000    0.000    0.000    0.000    0.000 
#
# Total GULP energy -133713.622694 kJ/mol
# GULP energy per Si atom -5571.400946 kJ/mol
# Density = 0.926079 g / cm^3
# Si number density = 9.281919 Si / 1000 Ang^3
#
#
#
# Elastic Constant Matrix: (Units=GPa)
#
#
# Indices 1 2 3 4 5 6 
#
# 1 37.2619 4.2089 6.8453 0.0428 -15.9153 -0.0039
# 2 4.2089 91.7421 2.6592 -0.0584 -15.1875 0.0121
# 3 6.8453 2.6592 36.9290 -0.0694 -10.4401 0.0053
# 4 0.0428 -0.0584 -0.0694 36.0829 -0.0562 -4.2524
# 5 -15.9153 -15.1875 -10.4401 -0.0562 24.2885 0.0356
# 6 -0.0039 0.0121 0.0053 -4.2524 0.0356 35.6388
#
#
#
# Elastic Compliance Matrix: (Units=1/GPa)
#
#
# Indices 1 2 3 4 5 6 
#
# 1 0.037836 0.002657 0.000312 -0.000001 0.026588 -0.000023
# 2 0.002657 0.012414 0.001480 0.000034 0.010140 -0.000010
# 3 0.000312 0.001480 0.031001 0.000083 0.014456 -0.000010
# 4 -0.000001 0.000034 0.000083 0.028110 0.000116 0.003354
# 5 0.026588 0.010140 0.014456 0.000116 0.071148 -0.000060
# 6 -0.000023 -0.000010 -0.000010 0.003354 -0.000060 0.028460
#
#
# Mechanical properties :
#
#
# Convention : Reuss Voigt Hill
#
# Bulk Modulus (GPa) = 11.09281 21.48443 16.28862
# Shear Modulus (GPa) = 21.72776 29.35000 25.53888
#
# Velocity S-wave (km/s) = 3.42487 3.98053 3.71311
# Velocity P-wave (km/s) = 4.65061 5.72054 5.21309
#
# Compressibility (1/GPa) = 0.09014851
#
# Stress axis : x y z
#
# Youngs Moduli (GPa) = 26.42997 80.55480 32.25653
#
# Poissons Ratio (x) = -0.21400 -0.01006
# Poissons Ratio (y) = -0.07021 -0.04775
# Poissons Ratio (z) = -0.00824 -0.11924
#
# Static dielectric constant tensor:
#      x y z
#    x 1.654490 -0.000020 0.013860 
#    y -0.000020 1.610330 0.000050 
#    z 0.013860 0.000050 1.651530 
# 
# From -- ./inp_files/169662.got.cif
#   From: 2010.05.17/outbox.ucp.g08.bks.cvg/sg15_85_cif.got.tgz:169662.got - 2010.06.11 12:40:34.
