data_PCOD9308023
_publ_section_title
;
Structure prediction by ZEFSAII (Michael W. Deem and Ramdas Pophale) SiO2 
 PCOD9308023
Probable space group: C 2/C
;
_chemical_formula_sum "Si O2"
_cell_formula_units_Z 32
_cell_length_a 13.587900
_cell_length_b 14.109825
_cell_length_c 9.847220
_cell_angle_alpha 90.000000
_cell_angle_beta 46.913266
_cell_angle_gamma 90.000000
_cell_volume 1378.799373
_symmetry_space_group_name_H-M "C 2/C"
_symmetry_group_IT_number 15
_symmetry_cell_setting 'monoclinic'
loop_
_space_group_symop_operation_xyz
x,y,z
-x,y,1/2-z
-x,-y,-z
x,-y,1/2+z
1/2+x,1/2+y,z
1/2-x,1/2+y,1/2-z
1/2-x,1/2-y,-z
1/2+x,1/2-y,1/2+z
loop_
_atom_site_type_symbol
_atom_site_label
_atom_site_fract_x
_atom_site_fract_y
_atom_site_fract_z
Si Si1 0.292162 0.913195 0.728929
Si Si2 0.847178 0.564735 0.449486
Si Si3 0.009880 0.094016 0.400189
Si Si4 0.620004 0.711521 0.753218
O O1 0.348514 0.988165 0.568672
O O2 0.264058 0.970001 0.895462
O O3 0.160489 0.869901 0.786003
O O4 0.369266 0.821165 0.713291
O O5 0.759939 0.658612 0.575655
O O6 0.000000 0.567952 0.250000
O O7 0.000000 0.079547 0.250000
O O8 0.913973 0.163766 0.571109
O O9 0.000000 0.000000 0.500000
O O10 0.500000 0.697960 0.750000
#
# Coordination Sequence:
#
# PCOD9308023 Si02
#       4
#     8   8   8   8
#     4  12  27  48  80 114 157 205 260 322 391 462
#     4  12  27  49  77 116 159 204 255 323 393 462
#     4  12  25  48  79 113 156 207 262 319 386 465
#     4  12  27  51  84 113 154 208 264 316 391 470
#
# _framework density 23.208597000000001
#
# number of rings (size 3 to 8) (size 9 to 14) (size 15 to 20)
#    0.000    0.000    5.000    4.500    3.500    2.000 
#    0.000    0.000    0.000    0.000    0.000    0.000 
#    0.000    0.000    0.000    0.000    0.000    0.000 
#
# Total GULP energy -89190.205978 kJ/mol
# GULP energy per Si atom -5574.387874 kJ/mol
# Density = 2.315577 g / cm^3
# Si number density = 23.208597 Si / 1000 Ang^3
#
#
#
# Elastic Constant Matrix: (Units=GPa)
#
#
# Indices 1 2 3 4 5 6 
#
# 1 138.1517 33.8751 71.2055 0.0000 45.9697 0.0000
# 2 33.8751 130.8121 82.4189 0.0000 29.0640 0.0000
# 3 71.2055 82.4189 133.0562 0.0000 29.3098 0.0000
# 4 0.0000 0.0000 0.0000 21.4062 0.0000 4.6004
# 5 45.9697 29.0640 29.3098 0.0000 58.8314 0.0000
# 6 0.0000 0.0000 0.0000 4.6004 0.0000 37.8246
#
#
#
# Elastic Compliance Matrix: (Units=1/GPa)
#
#
# Indices 1 2 3 4 5 6 
#
# 1 0.012658 0.002702 -0.006711 0.000000 -0.007882 0.000000
# 2 0.002702 0.013482 -0.008834 0.000000 -0.004370 0.000000
# 3 -0.006711 -0.008834 0.016246 0.000000 0.001515 0.000000
# 4 0.000000 0.000000 0.000000 0.047969 0.000000 -0.005834
# 5 -0.007882 -0.004370 0.001515 0.000000 0.024561 0.000000
# 6 0.000000 0.000000 0.000000 -0.005834 0.000000 0.027147
#
#
# Mechanical properties :
#
#
# Convention : Reuss Voigt Hill
#
# Bulk Modulus (GPa) = 59.88795 86.33542 73.11168
# Shear Modulus (GPa) = 28.84909 37.91382 33.38145
#
# Velocity S-wave (km/s) = 3.52949 4.04618 3.79664
# Velocity P-wave (km/s) = 6.51690 7.68826 7.12669
#
# Compressibility (1/GPa) = 0.01669785
#
# Stress axis : x y z
#
# Youngs Moduli (GPa) = 79.00439 74.17296 61.55495
#
# Poissons Ratio (x) = -0.20039 0.41310
# Poissons Ratio (y) = -0.21345 0.54379
# Poissons Ratio (z) = 0.53020 0.65527
#
# Static dielectric constant tensor:
#      x y z
#    x 2.207460 0.000000 -0.135730 
#    y 0.000000 2.074690 0.000000 
#    z -0.135730 0.000000 2.212050 
# 
# From -- ./inp_files/86583.got.cif
#   From: 2010.05.17/outbox.cif.g08.bks.cpg/sg15_44_cif.got.tgz:86583.got - 2010.06.03 18:47:42.
