data_PCOD9308939
_publ_section_title
;
Structure prediction by ZEFSAII (Michael W. Deem and Ramdas Pophale) SiO2 
 PCOD9308939
Probable space group: C 2/C
;
_chemical_formula_sum "Si O2"
_cell_formula_units_Z 32
_cell_length_a 30.000000
_cell_length_b 18.000000
_cell_length_c 9.000000
_cell_angle_alpha 90.000000
_cell_angle_beta 140.000000
_cell_angle_gamma 90.000000
_cell_volume 3123.947783
_symmetry_space_group_name_H-M "C 2/C"
_symmetry_group_IT_number 15
_symmetry_cell_setting 'monoclinic'
loop_
_space_group_symop_operation_xyz
x,y,z
-x,y,1/2-z
-x,-y,-z
x,-y,1/2+z
1/2+x,1/2+y,z
1/2-x,1/2+y,1/2-z
1/2-x,1/2-y,-z
1/2+x,1/2-y,1/2+z
loop_
_atom_site_type_symbol
_atom_site_label
_atom_site_fract_x
_atom_site_fract_y
_atom_site_fract_z
Si Si1 0.064578 0.426694 0.016194
Si Si2 0.052916 0.339616 0.256129
Si Si3 0.206292 0.811661 0.715501
Si Si4 0.318759 0.408615 0.398748
Si Si5 0.664786 0.149109 0.548824
Si Si6 0.352504 0.924419 0.792531
Si Si7 0.807076 0.052691 0.540693
Si Si8 0.851048 0.765188 0.630315
O O1 0.033139 0.403593 0.092667
O O2 0.107371 0.500742 0.131503
O O3 0.116556 0.368811 0.065777
O O4 0.000000 0.439136 0.750000
O O5 0.120654 0.374015 0.506096
O O6 0.075993 0.273315 0.208862
O O7 0.000000 0.321968 0.250000
O O8 0.181920 0.735280 0.579092
O O9 0.190802 0.881893 0.575424
O O10 0.164392 0.812121 0.761883
O O11 0.287127 0.793905 0.959126
O O12 0.337360 0.477374 0.550965
O O13 0.337184 0.429698 0.278236
O O14 0.346989 0.326412 0.492869
O O15 0.237052 0.396096 0.231016
O O16 0.632522 0.123612 0.313902
O O17 0.274543 0.948791 0.626600
#
# Coordination Sequence:
#
# PCOD9308939 Si02
#       8
#     8   8   8   8   8   8   8   8
#     4  12  24  41  57  81 117 170 213 243 288 339
#     4  12  25  40  59  84 114 164 207 255 292 349
#     4  10  20  36  61  84 117 155 198 249 304 363
#     4  10  22  34  58  89 122 152 190 246 299 366
#     4  10  21  36  55  85 116 160 198 246 295 342
#     4  11  23  35  58  83 124 158 208 243 284 352
#     4  11  21  35  59  92 123 156 192 240 307 363
#     4  10  21  38  59  84 116 154 199 250 307 355
#
# _framework density 10.243449
#
# number of rings (size 3 to 8) (size 9 to 14) (size 15 to 20)
#    0.000    1.250    3.750    2.625    3.500    3.000 
#    0.000    0.000    0.000    0.000    0.000    4.375 
#    0.000    0.000    0.000    0.000    0.000    0.000 
#
# Total GULP energy -178240.428522 kJ/mol
# GULP energy per Si atom -5570.013391 kJ/mol
# Density = 1.022013 g / cm^3
# Si number density = 10.243449 Si / 1000 Ang^3
#
#
#
# Elastic Constant Matrix: (Units=GPa)
#
#
# Indices 1 2 3 4 5 6 
#
# 1 77.8796 12.5835 24.4962 0.0000 -7.8656 0.0000
# 2 12.5835 3.3637 -0.6562 0.0000 -1.0000 0.0000
# 3 24.4962 -0.6562 18.6414 0.0000 -16.5375 0.0000
# 4 0.0000 0.0000 0.0000 34.2102 0.0000 4.4947
# 5 -7.8656 -1.0000 -16.5375 0.0000 20.1209 0.0000
# 6 0.0000 0.0000 0.0000 4.4947 0.0000 10.8234
#
#
#
# Elastic Compliance Matrix: (Units=1/GPa)
#
#
# Indices 1 2 3 4 5 6 
#
# 1 -0.010468 0.063474 0.055965 0.000000 0.045061 0.000000
# 2 0.063474 -0.037821 -0.237751 0.000000 -0.172477 0.000000
# 3 0.055965 -0.237751 -0.071411 0.000000 -0.048632 0.000000
# 4 0.000000 0.000000 0.000000 0.030918 0.000000 -0.012839
# 5 0.045061 -0.172477 -0.048632 0.000000 0.018772 0.000000
# 6 0.000000 0.000000 0.000000 -0.012839 0.000000 0.097724
#
#
# Mechanical properties :
#
#
# Convention : Reuss Voigt Hill
#
# Bulk Modulus (GPa) = -2.80643 19.19242 8.19300
# Shear Modulus (GPa) = 34.34921 17.26166 25.80543
#
# Velocity S-wave (km/s) = 4.09912 2.90586 3.55294
# Velocity P-wave (km/s) = 4.58595 4.54391 4.56498
#
# Compressibility (1/GPa) = -0.35632474
#
# Stress axis : x y z
#
# Youngs Moduli (GPa) = -95.53110 -26.44036 -14.00341
#
# Poissons Ratio (x) = 1.67827 0.78370
# Poissons Ratio (y) = 6.06370 -3.32933
# Poissons Ratio (z) = 5.34641 -6.28623
#
# Static dielectric constant tensor:
#      x y z
#    x 1.758150 0.000000 -0.005580 
#    y 0.000000 1.720140 0.000000 
#    z -0.005580 0.000000 1.834320 
# 
# From -- ./inp_files/62484.got.cif
#   From: 2010.05.17/outbox.ucp.g08.bks.cvg/sg15_32_cif.got.tgz:62484.got - 2010.06.11 12:40:34.
