data_PCOD9308115
_publ_section_title
;
Structure prediction by ZEFSAII (Michael W. Deem and Ramdas Pophale) SiO2 
 PCOD9308115
Probable space group: C 2/C
;
_chemical_formula_sum "Si O2"
_cell_formula_units_Z 24
_cell_length_a 17.459015
_cell_length_b 6.970284
_cell_length_c 8.604607
_cell_angle_alpha 90.000000
_cell_angle_beta 103.798754
_cell_angle_gamma 90.000000
_cell_volume 1016.910790
_symmetry_space_group_name_H-M "C 2/C"
_symmetry_group_IT_number 15
_symmetry_cell_setting 'monoclinic'
loop_
_space_group_symop_operation_xyz
x,y,z
-x,y,1/2-z
-x,-y,-z
x,-y,1/2+z
1/2+x,1/2+y,z
1/2-x,1/2+y,1/2-z
1/2-x,1/2-y,-z
1/2+x,1/2-y,1/2+z
loop_
_atom_site_type_symbol
_atom_site_label
_atom_site_fract_x
_atom_site_fract_y
_atom_site_fract_z
Si Si1 0.198301 0.343579 0.613105
Si Si2 0.088352 0.075573 0.742982
Si Si3 0.338340 0.716067 0.410469
O O1 0.250000 0.250000 0.500000
O O2 0.124764 0.212165 0.627842
O O3 0.257955 0.352891 0.789066
O O4 0.167487 0.557398 0.568206
O O5 0.000000 0.120380 0.750000
O O6 0.096299 0.861009 0.679323
O O7 0.142817 0.115035 0.918338
#
# Coordination Sequence:
#
# PCOD9308115 Si02
#       3
#     8   8   8
#     4  12  26  46  79 110 144 197 258 304 363 449
#     4  12  28  47  72 112 154 193 243 317 374 433
#     4  12  26  46  76 107 146 197 250 301 369 446
#
# _framework density 23.600888999999999
#
# number of rings (size 3 to 8) (size 9 to 14) (size 15 to 20)
#    0.000    0.000    3.333    6.000    0.000    2.667 
#    0.000    0.000    0.000    0.000    0.000    0.000 
#    0.000    0.000    0.000    0.000    0.000    0.000 
#
# Total GULP energy -67236.233850 kJ/mol
# GULP energy per Si atom -5603.019488 kJ/mol
# Density = 2.354717 g / cm^3
# Si number density = 23.600889 Si / 1000 Ang^3
#
#
#
# Elastic Constant Matrix: (Units=GPa)
#
#
# Indices 1 2 3 4 5 6 
#
# 1 174.6168 72.0010 48.6464 0.0000 -50.3896 0.0000
# 2 72.0010 194.5620 80.2179 0.0000 -35.7646 0.0000
# 3 48.6464 80.2179 130.2289 0.0000 -29.9992 0.0000
# 4 0.0000 0.0000 0.0000 25.1501 0.0000 -12.4317
# 5 -50.3896 -35.7646 -29.9992 0.0000 30.4864 0.0000
# 6 0.0000 0.0000 0.0000 -12.4317 0.0000 38.0511
#
#
#
# Elastic Compliance Matrix: (Units=1/GPa)
#
#
# Indices 1 2 3 4 5 6 
#
# 1 0.011113 -0.001116 0.000603 0.000000 0.017652 0.000000
# 2 -0.001116 0.007661 -0.003435 0.000000 0.003762 0.000000
# 3 0.000603 -0.003435 0.011471 0.000000 0.008254 0.000000
# 4 0.000000 0.000000 0.000000 0.047419 0.000000 0.015492
# 5 0.017652 0.003762 0.008254 0.000000 0.074512 0.000000
# 6 0.000000 0.000000 0.000000 0.015492 0.000000 0.031342
#
#
# Mechanical properties :
#
#
# Convention : Reuss Voigt Hill
#
# Bulk Modulus (GPa) = 44.74923 100.12647 72.43785
# Shear Modulus (GPa) = 25.14275 38.64035 31.89155
#
# Velocity S-wave (km/s) = 3.26748 4.05067 3.67997
# Velocity P-wave (km/s) = 5.76517 8.02460 6.98683
#
# Compressibility (1/GPa) = 0.02234676
#
# Stress axis : x y z
#
# Youngs Moduli (GPa) = 89.98457 130.53682 87.17584
#
# Poissons Ratio (x) = 0.14571 -0.05253
# Poissons Ratio (y) = 0.10045 0.29948
# Poissons Ratio (z) = -0.05422 0.44844
#
# Static dielectric constant tensor:
#      x y z
#    x 1.919010 0.000000 -0.026790 
#    y 0.000000 1.935490 0.000000 
#    z -0.026790 0.000000 1.928160 
# 
# From -- ./inp_files/53128.got.cif
#   From: 2010.05.17/outbox.cif.g08.bks.cpg/sg15_27_cif.got.tgz:53128.got - 2010.06.03 18:47:42.
