data_PCOD9308031
_publ_section_title
;
Structure prediction by ZEFSAII (Michael W. Deem and Ramdas Pophale) SiO2 
 PCOD9308031
Probable space group: C 2/C
;
_chemical_formula_sum "Si O2"
_cell_formula_units_Z 44
_cell_length_a 17.894973
_cell_length_b 15.235816
_cell_length_c 8.213897
_cell_angle_alpha 90.000000
_cell_angle_beta 58.496657
_cell_angle_gamma 90.000000
_cell_volume 1909.397180
_symmetry_space_group_name_H-M "C 2/C"
_symmetry_group_IT_number 15
_symmetry_cell_setting 'monoclinic'
loop_
_space_group_symop_operation_xyz
x,y,z
-x,y,1/2-z
-x,-y,-z
x,-y,1/2+z
1/2+x,1/2+y,z
1/2-x,1/2+y,1/2-z
1/2-x,1/2-y,-z
1/2+x,1/2-y,1/2+z
loop_
_atom_site_type_symbol
_atom_site_label
_atom_site_fract_x
_atom_site_fract_y
_atom_site_fract_z
Si Si1 0.678464 0.322511 0.039048
Si Si2 0.052375 0.699179 0.352083
Si Si3 0.500000 0.261967 0.750000
Si Si4 0.722833 0.005748 0.543697
Si Si5 0.819534 0.180192 0.346743
Si Si6 0.100781 0.478153 0.920276
O O1 0.659390 0.309326 0.868904
O O2 0.750000 0.250000 0.000000
O O3 0.597737 0.289859 0.243669
O O4 0.718337 0.418497 0.025222
O O5 0.116677 0.620289 0.332368
O O6 0.000000 0.670754 0.250000
O O7 0.999439 0.709009 0.580793
O O8 0.590899 0.313441 0.653431
O O9 0.777353 0.085525 0.413369
O O10 0.622782 0.012208 0.585083
O O11 0.689627 0.028940 0.763865
O O12 0.750000 0.250000 0.500000
O O13 0.000000 0.500000 0.000000
#
# Coordination Sequence:
#
# PCOD9308031 Si02
#       6
#     8   8   4   8   8   8
#     4  12  25  49  75 109 154 206 261 326 393 472
#     4  12  26  50  76 113 155 203 261 327 397 478
#     4  12  28  48  80 114 154 206 266 322 398 464
#     4  12  26  48  71 111 153 204 260 316 402 463
#     4  12  28  49  77 114 159 208 271 329 390 485
#     4  12  27  43  73 112 157 200 255 329 394 476
#
# _framework density 23.04392
#
# number of rings (size 3 to 8) (size 9 to 14) (size 15 to 20)
#    0.000    0.000    5.455    3.818   10.182    0.000 
#    1.636    1.818    0.000    0.000    0.000    0.000 
#    0.000    0.000    0.000    0.000    0.000    0.000 
#
# Total GULP energy -122717.157955 kJ/mol
# GULP energy per Si atom -5578.052634 kJ/mol
# Density = 2.299147 g / cm^3
# Si number density = 23.043920 Si / 1000 Ang^3
#
#
#
# Elastic Constant Matrix: (Units=GPa)
#
#
# Indices 1 2 3 4 5 6 
#
# 1 133.5902 41.6310 7.8674 0.0000 3.5945 0.0000
# 2 41.6310 99.5462 37.8603 0.0000 9.3779 0.0000
# 3 7.8674 37.8603 117.1141 0.0000 3.5232 0.0000
# 4 0.0000 0.0000 0.0000 37.4688 0.0000 -1.9151
# 5 3.5945 9.3779 3.5232 0.0000 32.8536 0.0000
# 6 0.0000 0.0000 0.0000 -1.9151 0.0000 27.5374
#
#
#
# Elastic Compliance Matrix: (Units=1/GPa)
#
#
# Indices 1 2 3 4 5 6 
#
# 1 0.008654 -0.003883 0.000671 0.000000 0.000090 0.000000
# 2 -0.003883 0.013474 -0.004005 0.000000 -0.002992 0.000000
# 3 0.000671 -0.004005 0.009788 0.000000 0.000020 0.000000
# 4 0.000000 0.000000 0.000000 0.026784 0.000000 0.001863
# 5 0.000090 -0.002992 0.000020 0.000000 0.031280 0.000000
# 6 0.000000 0.000000 0.000000 0.001863 0.000000 0.036444
#
#
# Mechanical properties :
#
#
# Convention : Reuss Voigt Hill
#
# Bulk Modulus (GPa) = 57.20009 58.32974 57.76492
# Shear Modulus (GPa) = 34.08668 37.09806 35.59237
#
# Velocity S-wave (km/s) = 3.85022 4.01669 3.93433
# Velocity P-wave (km/s) = 6.68144 6.84683 6.76464
#
# Compressibility (1/GPa) = 0.01748249
#
# Stress axis : x y z
#
# Youngs Moduli (GPa) = 115.55856 74.21431 102.16838
#
# Poissons Ratio (x) = 0.28815 -0.06857
# Poissons Ratio (y) = 0.44868 0.40920
# Poissons Ratio (z) = -0.07756 0.29724
#
# Static dielectric constant tensor:
#      x y z
#    x 1.969620 0.000000 0.013440 
#    y 0.000000 1.887450 0.000000 
#    z 0.013440 0.000000 1.986640 
# 
# From -- ./inp_files/47413.got.cif
#   From: 2010.05.17/outbox.cif.g08.bks.cpg/sg15_24_cif.got.tgz:47413.got - 2010.06.03 18:47:42.
