data_PCOD9308996
_publ_section_title
;
Structure prediction by ZEFSAII (Michael W. Deem and Ramdas Pophale) SiO2 
 PCOD9308996
Probable space group: C 2/C
;
_chemical_formula_sum "Si O2"
_cell_formula_units_Z 32
_cell_length_a 30.000000
_cell_length_b 9.000000
_cell_length_c 15.000000
_cell_angle_alpha 90.000000
_cell_angle_beta 130.000000
_cell_angle_gamma 90.000000
_cell_volume 3102.479995
_symmetry_space_group_name_H-M "C 2/C"
_symmetry_group_IT_number 15
_symmetry_cell_setting 'monoclinic'
loop_
_space_group_symop_operation_xyz
x,y,z
-x,y,1/2-z
-x,-y,-z
x,-y,1/2+z
1/2+x,1/2+y,z
1/2-x,1/2+y,1/2-z
1/2-x,1/2-y,-z
1/2+x,1/2-y,1/2+z
loop_
_atom_site_type_symbol
_atom_site_label
_atom_site_fract_x
_atom_site_fract_y
_atom_site_fract_z
Si Si1 0.591535 0.078530 0.780932
Si Si2 0.526945 0.971074 0.439220
Si Si3 0.364171 0.576426 0.482689
Si Si4 0.726451 0.655508 0.836419
Si Si5 0.128416 0.657247 0.635075
Si Si6 0.757668 0.456124 0.731422
Si Si7 0.557684 0.303745 0.881679
Si Si8 0.341826 0.218198 0.100336
O O1 0.526743 0.008224 0.696532
O O2 0.602661 0.157525 0.700964
O O3 0.594856 0.196462 0.864282
O O4 0.633830 0.940226 0.842553
O O5 0.542387 0.800102 0.445057
O O6 0.500000 0.000000 0.500000
O O7 0.584578 0.069532 0.512159
O O8 0.364393 0.681129 0.396825
O O9 0.297351 0.520141 0.404870
O O10 0.407657 0.442437 0.539150
O O11 0.380320 0.682668 0.585405
O O12 0.734131 0.500261 0.798120
O O13 0.673381 0.684205 0.833364
O O14 0.723633 0.786565 0.759137
O O15 0.783862 0.685460 0.968478
O O16 0.188202 0.564706 0.714968
O O17 0.500000 0.340804 0.750000
#
# Coordination Sequence:
#
# PCOD9308996 Si02
#       8
#     8   8   8   8   8   8   8   8
#     4  10  21  39  65  86 116 156 207 245 297 360
#     4   9  21  39  64  90 113 155 207 240 289 358
#     4  11  25  38  59  91 123 159 199 246 311 356
#     4  10  22  36  58  86 122 156 196 245 301 351
#     4  11  21  40  60  88 119 157 204 250 293 367
#     4  11  21  38  57  86 119 158 199 242 300 359
#     4  10  23  42  60  89 125 156 196 256 302 353
#     4  10  20  38  58  88 119 155 199 246 294 362
#
# _framework density 10.314329000000001
#
# number of rings (size 3 to 8) (size 9 to 14) (size 15 to 20)
#    0.000    1.750    3.750    0.750    1.750    2.000 
#    0.000    6.250    0.000    0.000    0.000    0.000 
#    0.000    0.000    0.000    0.000    0.000    0.000 
#
# Total GULP energy -178335.397510 kJ/mol
# GULP energy per Si atom -5572.981172 kJ/mol
# Density = 1.029085 g / cm^3
# Si number density = 10.314329 Si / 1000 Ang^3
#
#
#
# Elastic Constant Matrix: (Units=GPa)
#
#
# Indices 1 2 3 4 5 6 
#
# 1 93.8817 60.8923 42.2760 0.0000 -14.1731 0.0000
# 2 60.8923 74.4342 58.2553 0.0000 -5.1207 0.0000
# 3 42.2760 58.2553 46.6639 0.0000 -5.0761 0.0000
# 4 0.0000 0.0000 0.0000 33.6415 0.0000 13.4211
# 5 -14.1731 -5.1207 -5.0761 0.0000 29.3792 0.0000
# 6 0.0000 0.0000 0.0000 13.4211 0.0000 10.0727
#
#
#
# Elastic Compliance Matrix: (Units=1/GPa)
#
#
# Indices 1 2 3 4 5 6 
#
# 1 0.116291 -0.597942 0.648063 0.000000 0.063854 0.000000
# 2 -0.597942 3.678046 -4.088451 0.000000 -0.353790 0.000000
# 3 0.648063 -4.088451 4.580931 0.000000 0.391527 0.000000
# 4 0.000000 0.000000 0.000000 0.063456 0.000000 -0.084549
# 5 0.063854 -0.353790 0.391527 0.000000 0.070826 0.000000
# 6 0.000000 0.000000 0.000000 -0.084549 0.000000 0.211932
#
#
# Mechanical properties :
#
#
# Convention : Reuss Voigt Hill
#
# Bulk Modulus (GPa) = 3.34890 59.75854 31.55372
# Shear Modulus (GPa) = 0.29590 18.18909 9.24249
#
# Velocity S-wave (km/s) = 0.37915 2.97263 2.11900
# Velocity P-wave (km/s) = 1.34856 6.38855 4.61694
#
# Compressibility (1/GPa) = 0.29860550
#
# Stress axis : x y z
#
# Youngs Moduli (GPa) = 8.59909 0.27188 0.21830
#
# Poissons Ratio (x) = 0.16257 -0.14147
# Poissons Ratio (y) = 5.14176 0.89249
# Poissons Ratio (z) = -5.57275 1.11158
#
# Static dielectric constant tensor:
#      x y z
#    x 1.810010 0.000000 0.014760 
#    y 0.000000 1.733530 0.000000 
#    z 0.014760 0.000000 1.763630 
# 
# From -- ./inp_files/181191.got.cif
#   From: 2010.05.17/outbox.ucp.g08.bks.cvg/sg15_91_cif.got.tgz:181191.got - 2010.06.11 12:40:34.
