data_PCOD9308814
_publ_section_title
;
Structure prediction by ZEFSAII (Michael W. Deem and Ramdas Pophale) SiO2 
 PCOD9308814
Probable space group: C 2/C
;
_chemical_formula_sum "Si O2"
_cell_formula_units_Z 28
_cell_length_a 21.000000
_cell_length_b 9.000000
_cell_length_c 30.000000
_cell_angle_alpha 90.000000
_cell_angle_beta 30.000000
_cell_angle_gamma 90.000000
_cell_volume 2835.000000
_symmetry_space_group_name_H-M "C 2/C"
_symmetry_group_IT_number 15
_symmetry_cell_setting 'monoclinic'
loop_
_space_group_symop_operation_xyz
x,y,z
-x,y,1/2-z
-x,-y,-z
x,-y,1/2+z
1/2+x,1/2+y,z
1/2-x,1/2+y,1/2-z
1/2-x,1/2-y,-z
1/2+x,1/2-y,1/2+z
loop_
_atom_site_type_symbol
_atom_site_label
_atom_site_fract_x
_atom_site_fract_y
_atom_site_fract_z
Si Si1 0.859406 0.615840 0.691499
Si Si2 0.605049 0.696747 0.011420
Si Si3 0.636684 0.286440 0.391886
Si Si4 0.762798 0.007655 0.416446
Si Si5 0.549433 0.524219 0.618684
Si Si6 0.517991 0.179118 0.092680
Si Si7 0.225602 0.017550 0.689632
O O1 0.762377 0.649006 0.790896
O O2 0.779626 0.627936 0.693794
O O3 0.982164 0.716657 0.606054
O O4 0.911255 0.447093 0.665570
O O5 0.596512 0.651826 0.964391
O O6 0.716076 0.820697 0.943985
O O7 0.621265 0.558197 0.034654
O O8 0.524936 0.279196 0.423534
O O9 0.670762 0.112678 0.378094
O O10 0.878576 0.003853 0.379606
O O11 0.646080 0.910074 0.505316
O O12 0.796941 0.940316 0.347562
O O13 0.537213 0.700375 0.619118
O O14 0.406476 0.462740 0.709764
#
# Coordination Sequence:
#
# PCOD9308814 Si02
#       7
#     8   8   8   8   8   8   8
#     4  10  19  39  61  84 121 143 189 249 288 341
#     4  10  22  37  63  87 112 152 195 238 290 330
#     4  10  19  38  61  88 112 146 194 243 289 338
#     4  10  22  40  58  81 116 158 195 227 277 351
#     4  12  21  37  57  87 118 152 191 234 278 345
#     4  10  22  37  58  85 116 152 184 236 298 333
#     4  10  20  36  62  85 109 153 195 235 284 339
#
# _framework density 9.8765429999999999
#
# number of rings (size 3 to 8) (size 9 to 14) (size 15 to 20)
#    0.000    1.714    2.857    2.143    0.000    4.000 
#    2.571    0.000    0.000    0.000    0.000    0.000 
#    0.000    0.000    0.000    0.000    0.000    0.000 
#
# Total GULP energy -156004.823101 kJ/mol
# GULP energy per Si atom -5571.600825 kJ/mol
# Density = 0.985406 g / cm^3
# Si number density = 9.876543 Si / 1000 Ang^3
#
#
#
# Elastic Constant Matrix: (Units=GPa)
#
#
# Indices 1 2 3 4 5 6 
#
# 1 58.4805 11.8323 -18.3109 -0.0009 -35.4986 0.0029
# 2 11.8323 46.3052 3.2096 -0.0020 4.8095 0.0020
# 3 -18.3109 3.2096 15.2599 -0.0006 -4.2923 0.0012
# 4 -0.0009 -0.0020 -0.0006 15.3433 -0.0009 2.2676
# 5 -35.4986 4.8095 -4.2923 -0.0009 63.7336 -0.0024
# 6 0.0029 0.0020 0.0012 2.2676 -0.0024 17.4181
#
#
#
# Elastic Compliance Matrix: (Units=1/GPa)
#
#
# Indices 1 2 3 4 5 6 
#
# 1 0.574325 -0.246969 0.852467 0.000069 0.395938 -0.000080
# 2 -0.246969 0.128369 -0.371806 -0.000027 -0.172285 0.000032
# 3 0.852467 -0.371806 1.333342 0.000105 0.592664 -0.000123
# 4 0.000069 -0.000027 0.000105 0.066454 0.000048 -0.008651
# 5 0.395938 -0.172285 0.592664 0.000048 0.289137 -0.000053
# 6 -0.000080 0.000032 -0.000123 -0.008651 -0.000053 0.058538
#
#
# Mechanical properties :
#
#
# Convention : Reuss Voigt Hill
#
# Bulk Modulus (GPa) = 0.39945 12.61197 6.50571
# Shear Modulus (GPa) = 1.77478 27.51996 14.64737
#
# Velocity S-wave (km/s) = 0.94891 3.73661 2.72605
# Velocity P-wave (km/s) = 1.18458 5.00150 3.63443
#
# Compressibility (1/GPa) = 2.50342083
#
# Stress axis : x y z
#
# Youngs Moduli (GPa) = 1.74117 7.79003 0.74999
#
# Poissons Ratio (x) = 1.92389 -0.63935
# Poissons Ratio (y) = 0.43002 0.27885
# Poissons Ratio (z) = -1.48429 2.89638
#
# Static dielectric constant tensor:
#      x y z
#    x 1.738210 0.000000 0.003890 
#    y 0.000000 1.717600 0.000000 
#    z 0.003890 0.000000 1.683860 
# 
# From -- ./inp_files/259017.got.cif
#   From: 2010.05.17/outbox.ucp.g08.bks.cvg/sg15_130_cif.got.tgz:259017.got - 2010.06.11 12:40:34.
