data_PCOD9308706
_publ_section_title
;
Structure prediction by ZEFSAII (Michael W. Deem and Ramdas Pophale) SiO2 
 PCOD9308706
Probable space group: C 2/C
;
_chemical_formula_sum "Si O2"
_cell_formula_units_Z 22
_cell_length_a 21.000000
_cell_length_b 12.000000
_cell_length_c 9.000000
_cell_angle_alpha 90.000000
_cell_angle_beta 80.000000
_cell_angle_gamma 90.000000
_cell_volume 2233.543984
_symmetry_space_group_name_H-M "C 2/C"
_symmetry_group_IT_number 15
_symmetry_cell_setting 'monoclinic'
loop_
_space_group_symop_operation_xyz
x,y,z
-x,y,1/2-z
-x,-y,-z
x,-y,1/2+z
1/2+x,1/2+y,z
1/2-x,1/2+y,1/2-z
1/2-x,1/2-y,-z
1/2+x,1/2-y,1/2+z
loop_
_atom_site_type_symbol
_atom_site_label
_atom_site_fract_x
_atom_site_fract_y
_atom_site_fract_z
Si Si1 0.303971 0.242320 0.256004
Si Si2 0.500000 0.977055 0.750000
Si Si3 0.420918 0.122429 0.549602
Si Si4 0.208930 0.938287 0.430321
Si Si5 0.697746 0.985080 0.848942
Si Si6 0.338420 0.676220 0.066350
O O1 0.316920 0.320074 0.109189
O O2 0.334821 0.124722 0.202374
O O3 0.330249 0.298078 0.394269
O O4 0.228371 0.216170 0.326607
O O5 0.534414 0.901323 0.610728
O O6 0.451950 0.058947 0.677789
O O7 0.399315 0.249438 0.590540
O O8 0.352459 0.061268 0.545966
O O9 0.240944 0.949865 0.576962
O O10 0.271235 0.949495 0.298722
O O11 0.162077 0.042580 0.419179
#
# Coordination Sequence:
#
# PCOD9308706 Si02
#       6
#     8   4   8   8   8   8
#     4  10  19  32  49  85 116 151 172 202 255 352
#     4  10  24  36  58  78 104 130 206 232 276 312
#     4  11  20  39  55  82 102 146 175 242 273 307
#     4  11  19  33  49  85 117 151 172 202 253 357
#     4  11  20  31  56  77 123 143 175 211 272 319
#     4  10  19  33  54  75 117 146 171 217 271 314
#
# _framework density 9.8498169999999998
#
# number of rings (size 3 to 8) (size 9 to 14) (size 15 to 20)
#    0.000    1.455    3.636    4.909    0.000    0.000 
#    0.000    0.000    0.000    0.000    0.000   21.636 
#    0.000    0.000    0.000    0.000    0.000    0.000 
#
# Total GULP energy -122648.307378 kJ/mol
# GULP energy per Si atom -5574.923063 kJ/mol
# Density = 0.982740 g / cm^3
# Si number density = 9.849817 Si / 1000 Ang^3
#
#
#
# Elastic Constant Matrix: (Units=GPa)
#
#
# Indices 1 2 3 4 5 6 
#
# 1 31.3202 1.1957 4.7133 0.0000 3.4007 0.0000
# 2 1.1957 9.6824 19.6251 0.0000 -3.1585 0.0000
# 3 4.7133 19.6251 52.9803 0.0000 4.5975 0.0000
# 4 0.0000 0.0000 0.0000 27.7836 0.0000 -1.1335
# 5 3.4007 -3.1585 4.5975 0.0000 23.1903 0.0000
# 6 0.0000 0.0000 0.0000 -1.1335 0.0000 25.1647
#
#
#
# Elastic Compliance Matrix: (Units=1/GPa)
#
#
# Indices 1 2 3 4 5 6 
#
# 1 0.032784 -0.002097 -0.001728 0.000000 -0.004751 0.000000
# 2 -0.002097 0.726955 -0.282574 0.000000 0.155341 0.000000
# 3 -0.001728 -0.282574 0.129242 0.000000 -0.063856 0.000000
# 4 0.000000 0.000000 0.000000 0.036059 0.000000 0.001624
# 5 -0.004751 0.155341 -0.063856 0.000000 0.077636 0.000000
# 6 0.000000 0.000000 0.000000 0.001624 0.000000 0.039811
#
#
# Mechanical properties :
#
#
# Convention : Reuss Voigt Hill
#
# Bulk Modulus (GPa) = 3.16272 16.11679 9.63975
# Shear Modulus (GPa) = 2.90583 19.79097 11.34840
#
# Velocity S-wave (km/s) = 1.21584 3.17304 2.40275
# Velocity P-wave (km/s) = 1.89208 4.65008 3.54988
#
# Compressibility (1/GPa) = 0.31618398
#
# Stress axis : x y z
#
# Youngs Moduli (GPa) = 30.50252 1.37560 7.73743
#
# Poissons Ratio (x) = 0.00288 0.01337
# Poissons Ratio (y) = 0.06395 2.18640
# Poissons Ratio (z) = 0.05270 0.38871
#
# Static dielectric constant tensor:
#      x y z
#    x 1.711070 0.000000 0.042590 
#    y 0.000000 1.750110 0.000000 
#    z 0.042590 0.000000 1.693940 
# 
# From -- ./inp_files/54338.got.cif
#   From: 2010.05.17/outbox.ucp.g08.bks.cvg/sg15_28_cif.got.tgz:54338.got - 2010.06.11 12:40:34.
