data_PCOD9308945
_publ_section_title
;
Structure prediction by ZEFSAII (Michael W. Deem and Ramdas Pophale) SiO2 
 PCOD9308945
Probable space group: C 2/C
;
_chemical_formula_sum "Si O2"
_cell_formula_units_Z 32
_cell_length_a 12.000000
_cell_length_b 15.000000
_cell_length_c 27.000000
_cell_angle_alpha 90.000000
_cell_angle_beta 40.000000
_cell_angle_gamma 90.000000
_cell_volume 3123.947783
_symmetry_space_group_name_H-M "C 2/C"
_symmetry_group_IT_number 15
_symmetry_cell_setting 'monoclinic'
loop_
_space_group_symop_operation_xyz
x,y,z
-x,y,1/2-z
-x,-y,-z
x,-y,1/2+z
1/2+x,1/2+y,z
1/2-x,1/2+y,1/2-z
1/2-x,1/2-y,-z
1/2+x,1/2-y,1/2+z
loop_
_atom_site_type_symbol
_atom_site_label
_atom_site_fract_x
_atom_site_fract_y
_atom_site_fract_z
Si Si1 0.309734 0.108737 0.056615
Si Si2 0.947232 0.203791 0.846194
Si Si3 0.901607 0.051684 0.466131
Si Si4 0.476401 0.344455 0.446411
Si Si5 0.654690 0.178370 0.813138
Si Si6 0.792909 0.314521 0.391754
Si Si7 0.169246 0.812199 0.898634
Si Si8 0.810111 0.559623 0.614263
O O1 0.183654 0.067792 0.057900
O O2 0.259083 0.211803 0.079090
O O3 0.284699 0.044461 0.112312
O O4 0.509552 0.092218 0.972522
O O5 0.914744 0.198047 0.916147
O O6 0.866740 0.288668 0.844825
O O7 0.845916 0.119900 0.855334
O O8 0.152854 0.200966 0.769779
O O9 0.784433 0.113694 0.542255
O O10 0.094364 0.093021 0.406896
O O11 0.911064 0.946523 0.472588
O O12 0.686017 0.340024 0.378945
O O13 0.413642 0.297187 0.518388
O O14 0.499660 0.181098 0.826791
O O15 0.612082 0.245969 0.873700
O O16 0.668680 0.083096 0.835518
#
# Coordination Sequence:
#
# PCOD9308945 Si02
#       8
#     8   8   8   8   8   8   8   8
#     4  11  20  35  66  96 121 153 205 268 310 354
#     4  11  23  41  61  92 130 170 207 255 320 376
#     4  11  20  39  63  97 125 154 204 266 317 364
#     4  11  24  39  66  93 130 158 207 277 313 361
#     4  11  22  39  68  87 126 173 213 249 310 394
#     4  11  21  38  64  93 124 164 209 249 316 373
#     4  10  20  37  66  92 119 158 213 258 308 365
#     4  10  20  36  62  94 119 154 211 258 307 363
#
# _framework density 10.243449
#
# number of rings (size 3 to 8) (size 9 to 14) (size 15 to 20)
#    0.000    1.250    3.750    6.750    0.000    0.500 
#    0.000    0.000   24.750    0.000    0.000    0.000 
#    0.000    0.000    0.000    0.000    0.000    0.000 
#
# Total GULP energy -178431.033908 kJ/mol
# GULP energy per Si atom -5575.969810 kJ/mol
# Density = 1.022013 g / cm^3
# Si number density = 10.243449 Si / 1000 Ang^3
#
#
#
# Elastic Constant Matrix: (Units=GPa)
#
#
# Indices 1 2 3 4 5 6 
#
# 1 107.7141 31.3772 14.1435 0.0000 -29.8071 0.0000
# 2 31.3772 58.6446 28.1906 0.0001 -9.1120 0.0000
# 3 14.1435 28.1906 56.5424 0.0003 -23.5518 -0.0001
# 4 0.0000 0.0001 0.0003 12.1357 -0.0001 0.1799
# 5 -29.8071 -9.1120 -23.5518 -0.0001 41.4409 0.0000
# 6 0.0000 0.0000 -0.0001 0.1799 0.0000 29.9889
#
#
#
# Elastic Compliance Matrix: (Units=1/GPa)
#
#
# Indices 1 2 3 4 5 6 
#
# 1 0.014187 -0.008414 0.005406 0.000000 0.011426 0.000000
# 2 -0.008414 0.027527 -0.015223 0.000000 -0.008651 0.000000
# 3 0.005406 -0.015223 0.031638 -0.000001 0.018522 0.000000
# 4 0.000000 0.000000 -0.000001 0.082409 0.000000 -0.000494
# 5 0.011426 -0.008651 0.018522 0.000000 0.040974 0.000000
# 6 0.000000 0.000000 0.000000 -0.000494 0.000000 0.033349
#
#
# Mechanical properties :
#
#
# Convention : Reuss Voigt Hill
#
# Bulk Modulus (GPa) = 27.10742 41.14707 34.12725
# Shear Modulus (GPa) = 17.93130 26.65909 22.29520
#
# Velocity S-wave (km/s) = 2.96168 3.61123 3.30247
# Velocity P-wave (km/s) = 4.99557 6.12505 5.58891
#
# Compressibility (1/GPa) = 0.03689027
#
# Stress axis : x y z
#
# Youngs Moduli (GPa) = 70.48772 36.32789 31.60723
#
# Poissons Ratio (x) = 0.30565 -0.17085
# Poissons Ratio (y) = 0.59305 0.48115
# Poissons Ratio (z) = -0.38102 0.55302
#
# Static dielectric constant tensor:
#      x y z
#    x 1.753630 0.000000 -0.019160 
#    y 0.000000 1.735770 0.000000 
#    z -0.019160 0.000000 1.793110 
# 
# From -- ./inp_files/293059.got.cif
#   From: 2010.05.17/outbox.ucp.g08.bks.cvg/sg15_147_cif.got.tgz:293059.got - 2010.06.11 12:40:34.
