data_PCOD9308093
_publ_section_title
;
Structure prediction by ZEFSAII (Michael W. Deem and Ramdas Pophale) SiO2 
 PCOD9308093
Probable space group: C 2/C
;
_chemical_formula_sum "Si O2"
_cell_formula_units_Z 32
_cell_length_a 8.372736
_cell_length_b 5.061737
_cell_length_c 26.865187
_cell_angle_alpha 90.000000
_cell_angle_beta 101.248718
_cell_angle_gamma 90.000000
_cell_volume 1116.690223
_symmetry_space_group_name_H-M "C 2/C"
_symmetry_group_IT_number 15
_symmetry_cell_setting 'monoclinic'
loop_
_space_group_symop_operation_xyz
x,y,z
-x,y,1/2-z
-x,-y,-z
x,-y,1/2+z
1/2+x,1/2+y,z
1/2-x,1/2+y,1/2-z
1/2-x,1/2-y,-z
1/2+x,1/2-y,1/2+z
loop_
_atom_site_type_symbol
_atom_site_label
_atom_site_fract_x
_atom_site_fract_y
_atom_site_fract_z
Si Si1 0.108914 0.551090 0.122498
Si Si2 0.456605 0.545440 0.085374
Si Si3 0.160498 0.162245 0.728532
Si Si4 0.795921 0.538145 0.044548
O O1 0.134766 0.737018 0.170995
O O2 0.028698 0.270778 0.129697
O O3 0.952511 0.688646 0.082656
O O4 0.141241 0.003853 0.069653
O O5 0.384179 0.761134 0.037985
O O6 0.273859 0.514681 0.102832
O O7 0.291162 0.360232 0.760821
O O8 0.000000 0.212449 0.750000
O O9 0.750000 0.750000 0.000000
#
# Coordination Sequence:
#
# PCOD9308093 Si02
#       4
#     8   8   8   8
#     4   8  16  30  49  80 120 159 210 261 320 383
#     4   6  14  21  42  69 116 145 207 237 326 350
#     4  12  26  45  70 100 136 180 228 280 339 400
#     4   8  12  22  44  77 117 158 204 256 319 383
#
# _framework density 28.656109000000001
#
# number of rings (size 3 to 8) (size 9 to 14) (size 15 to 20)
#    3.000    0.000    0.000    3.000    0.000    0.000 
#    0.000    0.000    0.000    0.000    0.000    3.500 
#    0.000    0.000    0.000    0.000    0.000    0.000 
#
# Total GULP energy -89418.278703 kJ/mol
# GULP energy per Si atom -5588.642419 kJ/mol
# Density = 2.859089 g / cm^3
# Si number density = 28.656109 Si / 1000 Ang^3
#
#
#
# Elastic Constant Matrix: (Units=GPa)
#
#
# Indices 1 2 3 4 5 6 
#
# 1 282.7510 74.3341 56.5091 0.0000 -23.2396 0.0000
# 2 74.3341 201.5335 -1.3227 0.0000 0.5615 0.0000
# 3 56.5091 -1.3227 107.9402 0.0000 12.7634 0.0000
# 4 0.0000 0.0000 0.0000 23.9479 0.0000 -16.7517
# 5 -23.2396 0.5615 12.7634 0.0000 44.4885 0.0000
# 6 0.0000 0.0000 0.0000 -16.7517 0.0000 37.0274
#
#
#
# Elastic Compliance Matrix: (Units=1/GPa)
#
#
# Indices 1 2 3 4 5 6 
#
# 1 0.004901 -0.001837 -0.002996 0.000000 0.003443 0.000000
# 2 -0.001837 0.005651 0.001193 0.000000 -0.001373 0.000000
# 3 -0.002996 0.001193 0.011422 0.000000 -0.004857 0.000000
# 4 0.000000 0.000000 0.000000 0.061090 0.000000 0.027638
# 5 0.003443 -0.001373 -0.004857 0.000000 0.025687 0.000000
# 6 0.000000 0.000000 0.000000 0.027638 0.000000 0.039511
#
#
# Mechanical properties :
#
#
# Convention : Reuss Voigt Hill
#
# Bulk Modulus (GPa) = 68.04781 94.58507 81.31644
# Shear Modulus (GPa) = 31.16451 51.93969 41.55210
#
# Velocity S-wave (km/s) = 3.30136 4.26199 3.81205
# Velocity P-wave (km/s) = 6.19111 7.56954 6.91476
#
# Compressibility (1/GPa) = 0.01469555
#
# Stress axis : x y z
#
# Youngs Moduli (GPa) = 204.02818 176.95369 87.55402
#
# Poissons Ratio (x) = 0.32507 0.26227
# Poissons Ratio (y) = 0.37481 -0.10448
# Poissons Ratio (z) = 0.61118 -0.21117
#
# Static dielectric constant tensor:
#      x y z
#    x 2.271820 0.000000 0.241840 
#    y 0.000000 2.430890 0.000000 
#    z 0.241840 0.000000 2.440960 
# 
# From -- ./inp_files/290370.got.cif
#   From: 2010.05.17/outbox.cif.g08.bks.cpg/sg15_146_cif.got.tgz:290370.got - 2010.06.03 18:47:42.
