data_PCOD9308146
_publ_section_title
;
Structure prediction by ZEFSAII (Michael W. Deem and Ramdas Pophale) SiO2 
 PCOD9308146
Probable space group: C 2/C
;
_chemical_formula_sum "Si O2"
_cell_formula_units_Z 24
_cell_length_a 9.839323
_cell_length_b 14.613818
_cell_length_c 8.337311
_cell_angle_alpha 90.000000
_cell_angle_beta 136.980530
_cell_angle_gamma 90.000000
_cell_volume 817.892923
_symmetry_space_group_name_H-M "C 2/C"
_symmetry_group_IT_number 15
_symmetry_cell_setting 'monoclinic'
loop_
_space_group_symop_operation_xyz
x,y,z
-x,y,1/2-z
-x,-y,-z
x,-y,1/2+z
1/2+x,1/2+y,z
1/2-x,1/2+y,1/2-z
1/2-x,1/2-y,-z
1/2+x,1/2-y,1/2+z
loop_
_atom_site_type_symbol
_atom_site_label
_atom_site_fract_x
_atom_site_fract_y
_atom_site_fract_z
Si Si1 0.345408 0.729196 0.721399
Si Si2 0.297543 0.631967 0.146171
Si Si3 0.783383 0.462410 0.256481
O O1 0.325046 0.792845 0.863772
O O2 0.290252 0.623379 0.704093
O O3 0.107124 0.762602 0.440147
O O4 0.500000 0.672258 0.250000
O O5 0.342228 0.553325 0.315310
O O6 0.213557 0.576574 0.920569
O O7 0.000000 0.500000 0.500000
#
# Coordination Sequence:
#
# PCOD9308146 Si02
#       3
#     8   8   8
#     4  12  26  48  77 117 161 210 265 331 405 486
#     4  12  26  49  79 116 158 212 270 334 405 487
#     4  12  26  47  77 117 160 210 269 337 406 481
#
# _framework density 29.343695
#
# number of rings (size 3 to 8) (size 9 to 14) (size 15 to 20)
#    0.000    0.000    0.000   10.000    0.000    2.667 
#    0.000    0.000    0.000    0.000    0.000    0.000 
#    0.000    0.000    0.000    0.000    0.000    0.000 
#
# Total GULP energy -67251.732133 kJ/mol
# GULP energy per Si atom -5604.311011 kJ/mol
# Density = 2.927691 g / cm^3
# Si number density = 29.343695 Si / 1000 Ang^3
#
#
#
# Elastic Constant Matrix: (Units=GPa)
#
#
# Indices 1 2 3 4 5 6 
#
# 1 352.9893 147.7251 82.7155 0.0000 20.1106 0.0000
# 2 147.7251 272.9599 63.6138 0.0000 -2.8277 0.0000
# 3 82.7155 63.6138 210.8798 0.0000 -18.6980 0.0000
# 4 0.0000 0.0000 0.0000 71.5346 0.0000 -15.2467
# 5 20.1106 -2.8277 -18.6980 0.0000 63.3413 0.0000
# 6 0.0000 0.0000 0.0000 -15.2467 0.0000 74.6145
#
#
#
# Elastic Compliance Matrix: (Units=1/GPa)
#
#
# Indices 1 2 3 4 5 6 
#
# 1 0.003998 -0.001916 -0.001140 0.000000 -0.001692 0.000000
# 2 -0.001916 0.004860 -0.000659 0.000000 0.000631 0.000000
# 3 -0.001140 -0.000659 0.005563 0.000000 0.001975 0.000000
# 4 0.000000 0.000000 0.000000 0.014616 0.000000 0.002987
# 5 -0.001692 0.000631 0.001975 0.000000 0.016936 0.000000
# 6 0.000000 0.000000 0.000000 0.002987 0.000000 0.014012
#
#
# Mechanical properties :
#
#
# Convention : Reuss Voigt Hill
#
# Bulk Modulus (GPa) = 143.01942 158.32642 150.67292
# Shear Modulus (GPa) = 71.68860 78.08307 74.88583
#
# Velocity S-wave (km/s) = 4.94810 5.16407 5.05724
# Velocity P-wave (km/s) = 9.02719 9.46730 9.24986
#
# Compressibility (1/GPa) = 0.00699206
#
# Stress axis : x y z
#
# Youngs Moduli (GPa) = 250.11201 205.74733 179.75238
#
# Poissons Ratio (x) = 0.39412 0.20499
# Poissons Ratio (y) = 0.47911 0.11844
# Poissons Ratio (z) = 0.28523 0.13556
#
# Static dielectric constant tensor:
#      x y z
#    x 2.353370 0.000000 0.277150 
#    y 0.000000 2.065810 0.000000 
#    z 0.277150 0.000000 2.767920 
# 
# From -- ./inp_files/95901.got.cif
#   From: 2010.05.17/outbox.cif.g08.bks.cpg/sg15_48_cif.got.tgz:95901.got - 2010.06.03 18:47:42.
