data_PCOD9308862
_publ_section_title
;
Structure prediction by ZEFSAII (Michael W. Deem and Ramdas Pophale) SiO2 
 PCOD9308862
Probable space group: C 2/C
;
_chemical_formula_sum "Si O2"
_cell_formula_units_Z 32
_cell_length_a 18.000000
_cell_length_b 21.000000
_cell_length_c 9.000000
_cell_angle_alpha 90.000000
_cell_angle_beta 90.000000
_cell_angle_gamma 90.000000
_cell_volume 3402.000000
_symmetry_space_group_name_H-M "C 2/C"
_symmetry_group_IT_number 15
_symmetry_cell_setting 'monoclinic'
loop_
_space_group_symop_operation_xyz
x,y,z
-x,y,1/2-z
-x,-y,-z
x,-y,1/2+z
1/2+x,1/2+y,z
1/2-x,1/2+y,1/2-z
1/2-x,1/2-y,-z
1/2+x,1/2-y,1/2+z
loop_
_atom_site_type_symbol
_atom_site_label
_atom_site_fract_x
_atom_site_fract_y
_atom_site_fract_z
Si Si1 0.198578 0.312017 0.960621
Si Si2 0.919104 0.293640 0.315404
Si Si3 0.164877 0.257357 0.666487
Si Si4 0.302644 0.835890 0.101298
Si Si5 0.687336 0.577265 0.974769
Si Si6 0.812664 0.060723 0.881040
Si Si7 0.445442 0.346144 0.869122
Si Si8 0.946080 0.150175 0.872702
O O1 0.189248 0.308075 0.786231
O O2 0.250000 0.250000 0.000000
O O3 0.114390 0.303040 0.020383
O O4 0.243392 0.374691 0.006136
O O5 0.859719 0.338097 0.233911
O O6 0.910838 0.216981 0.293270
O O7 0.000000 0.308637 0.250000
O O8 0.235084 0.211098 0.643168
O O9 0.151133 0.298539 0.521826
O O10 0.098488 0.208950 0.699843
O O11 0.260716 0.900934 0.067593
O O12 0.680493 0.564994 0.798285
O O13 0.692543 0.510105 0.058080
O O14 0.617160 0.612775 0.050615
O O15 0.885650 0.099998 0.933512
O O16 0.500000 0.379650 0.750000
O O17 0.502246 0.324045 0.996789
O O18 0.000000 0.119924 0.750000
#
# Coordination Sequence:
#
# PCOD9308862 Si02
#       8
#     8   8   8   8   8   8   8   8
#     4  12  20  39  66  89 120 155 206 262 312 358
#     4  11  21  37  62  94 122 152 197 256 325 367
#     4  10  20  32  62  86 117 158 202 249 307 357
#     4  10  20  39  55  88 121 153 198 261 308 350
#     4  12  25  42  62  88 121 168 217 247 301 371
#     4  11  26  41  61  83 122 170 213 249 297 368
#     4  11  23  36  60  92 128 163 202 251 300 370
#     4  11  21  39  57  88 133 163 197 246 303 360
#
# _framework density 9.4062319999999993
#
# number of rings (size 3 to 8) (size 9 to 14) (size 15 to 20)
#    0.000    1.000    5.000    3.000    3.500    2.000 
#    0.000    0.000    0.000    0.750    0.000    0.000 
#    0.000    0.000    0.000    0.000    0.000    0.000 
#
# Total GULP energy -178245.730712 kJ/mol
# GULP energy per Si atom -5570.179085 kJ/mol
# Density = 0.938482 g / cm^3
# Si number density = 9.406232 Si / 1000 Ang^3
#
#
#
# Elastic Constant Matrix: (Units=GPa)
#
#
# Indices 1 2 3 4 5 6 
#
# 1 36.6046 78.8359 7.2965 0.0000 11.4020 0.0000
# 2 78.8359 75.7662 10.4533 0.0000 -18.6366 0.0000
# 3 7.2965 10.4533 30.8250 0.0000 -5.2490 0.0000
# 4 0.0000 0.0000 0.0000 32.4464 0.0000 -2.9082
# 5 11.4020 -18.6366 -5.2490 0.0000 11.7185 0.0000
# 6 0.0000 0.0000 0.0000 -2.9082 0.0000 20.1397
#
#
#
# Elastic Compliance Matrix: (Units=1/GPa)
#
#
# Indices 1 2 3 4 5 6 
#
# 1 -0.005538 0.011570 0.001557 0.000000 0.024486 0.000000
# 2 0.011570 -0.002422 -0.004861 0.000000 -0.017287 0.000000
# 3 0.001557 -0.004861 0.034801 0.000000 0.006343 0.000000
# 4 0.000000 0.000000 0.000000 0.031224 0.000000 0.004509
# 5 0.024486 -0.017287 0.006343 0.000000 0.036859 0.000000
# 6 0.000000 0.000000 0.000000 0.004509 0.000000 0.050304
#
#
# Mechanical properties :
#
#
# Convention : Reuss Voigt Hill
#
# Bulk Modulus (GPa) = 23.05567 37.37413 30.21490
# Shear Modulus (GPa) = 34.92733 15.96825 25.44779
#
# Velocity S-wave (km/s) = 4.31351 2.91660 3.68191
# Velocity P-wave (km/s) = 6.09021 5.59034 5.84562
#
# Compressibility (1/GPa) = 0.04337327
#
# Stress axis : x y z
#
# Youngs Moduli (GPa) = -180.58164 -412.86452 28.73460
#
# Poissons Ratio (x) = 4.77696 -0.04473
# Poissons Ratio (y) = 2.08938 0.13968
# Poissons Ratio (z) = 0.28111 -2.00696
#
# Static dielectric constant tensor:
#      x y z
#    x 1.596480 0.000000 0.073260 
#    y 0.000000 1.610010 0.000000 
#    z 0.073260 0.000000 1.641480 
# 
# From -- ./inp_files/50243.got.cif
#   From: 2010.05.17/outbox.ucp.g08.bks.cvg/sg15_26_cif.got.tgz:50243.got - 2010.06.11 12:40:34.
