data_PCOD9308127
_publ_section_title
;
Structure prediction by ZEFSAII (Michael W. Deem and Ramdas Pophale) SiO2 
 PCOD9308127
Probable space group: C 2/C
;
_chemical_formula_sum "Si O2"
_cell_formula_units_Z 40
_cell_length_a 17.790954
_cell_length_b 4.870521
_cell_length_c 19.875818
_cell_angle_alpha 90.000000
_cell_angle_beta 96.209099
_cell_angle_gamma 90.000000
_cell_volume 1712.160637
_symmetry_space_group_name_H-M "C 2/C"
_symmetry_group_IT_number 15
_symmetry_cell_setting 'monoclinic'
loop_
_space_group_symop_operation_xyz
x,y,z
-x,y,1/2-z
-x,-y,-z
x,-y,1/2+z
1/2+x,1/2+y,z
1/2-x,1/2+y,1/2-z
1/2-x,1/2-y,-z
1/2+x,1/2-y,1/2+z
loop_
_atom_site_type_symbol
_atom_site_label
_atom_site_fract_x
_atom_site_fract_y
_atom_site_fract_z
Si Si1 0.067992 0.252546 0.310234
Si Si2 0.048896 0.754535 0.398953
Si Si3 0.126751 0.181635 0.601903
Si Si4 0.330055 0.807019 0.474147
Si Si5 0.698642 0.952055 0.740124
O O1 0.046707 0.446486 0.370561
O O2 0.141204 0.387938 0.283429
O O3 0.000000 0.250254 0.250000
O O4 0.077378 0.950582 0.341479
O O5 0.104597 0.772083 0.466943
O O6 0.963534 0.833677 0.408444
O O7 0.158042 0.380750 0.546832
O O8 0.153334 0.313588 0.674365
O O9 0.159426 0.883074 0.590166
O O10 0.250000 0.750000 0.500000
O O11 0.743060 0.692281 0.775795
#
# Coordination Sequence:
#
# PCOD9308127 Si02
#       5
#     8   8   8   8   8
#     4  12  26  47  73 109 142 184 241 290 363 426
#     4  12  26  47  76 103 144 189 236 298 350 435
#     4  12  26  50  72 104 144 191 240 288 363 426
#     4  12  28  47  73 106 142 189 244 299 354 419
#     4  12  28  46  74 108 149 190 233 300 363 433
#
# _framework density 23.362293999999999
#
# number of rings (size 3 to 8) (size 9 to 14) (size 15 to 20)
#    0.000    0.000    2.000    7.200   11.200    0.000 
#    0.000    0.000    0.000    0.000    0.000    0.000 
#    0.000    0.000    0.000    0.000    0.000    0.000 
#
# Total GULP energy -112165.973932 kJ/mol
# GULP energy per Si atom -5608.298697 kJ/mol
# Density = 2.330912 g / cm^3
# Si number density = 23.362294 Si / 1000 Ang^3
#
#
#
# Elastic Constant Matrix: (Units=GPa)
#
#
# Indices 1 2 3 4 5 6 
#
# 1 69.0781 2.3149 26.1070 0.0000 17.7981 0.0000
# 2 2.3149 85.9260 1.2656 0.0000 25.2279 0.0000
# 3 26.1070 1.2656 65.8822 0.0000 23.2538 0.0000
# 4 0.0000 0.0000 0.0000 47.9642 0.0000 -13.8318
# 5 17.7981 25.2279 23.2538 0.0000 30.7722 0.0000
# 6 0.0000 0.0000 0.0000 -13.8318 0.0000 35.2239
#
#
#
# Elastic Compliance Matrix: (Units=1/GPa)
#
#
# Indices 1 2 3 4 5 6 
#
# 1 0.018355 0.002381 -0.003932 0.000000 -0.009597 0.000000
# 2 0.002381 0.017349 0.005768 0.000000 -0.019959 0.000000
# 3 -0.003932 0.005768 0.023855 0.000000 -0.020481 0.000000
# 4 0.000000 0.000000 0.000000 0.023511 0.000000 0.009232
# 5 -0.009597 -0.019959 -0.020481 0.000000 0.069887 0.000000
# 6 0.000000 0.000000 0.000000 0.009232 0.000000 0.032015
#
#
# Mechanical properties :
#
#
# Convention : Reuss Voigt Hill
#
# Bulk Modulus (GPa) = 14.70739 31.14014 22.92376
# Shear Modulus (GPa) = 25.10002 35.53865 30.31934
#
# Velocity S-wave (km/s) = 3.28133 3.90448 3.60639
# Velocity P-wave (km/s) = 4.54590 5.80386 5.21297
#
# Compressibility (1/GPa) = 0.06799304
#
# Stress axis : x y z
#
# Youngs Moduli (GPa) = 54.48008 57.64119 41.92021
#
# Poissons Ratio (x) = -0.13725 0.16483
# Poissons Ratio (y) = -0.12973 -0.24179
# Poissons Ratio (z) = 0.21421 -0.33246
#
# Static dielectric constant tensor:
#      x y z
#    x 1.854320 0.000000 -0.015860 
#    y 0.000000 1.814610 0.000000 
#    z -0.015860 0.000000 1.865790 
# 
# From -- ./inp_files/208057.got.cif
#   From: 2010.05.17/outbox.cif.g08.bks.cpg/sg15_105_cif.got.tgz:208057.got - 2010.06.03 18:47:42.
