data_PCOD9308321
_publ_section_title
;
Structure prediction by ZEFSAII (Michael W. Deem and Ramdas Pophale) SiO2 
 PCOD9308321
Probable space group: C 2/C
;
_chemical_formula_sum "Si O2"
_cell_formula_units_Z 24
_cell_length_a 18.202356
_cell_length_b 7.820426
_cell_length_c 12.293151
_cell_angle_alpha 90.000000
_cell_angle_beta 146.860647
_cell_angle_gamma 90.000000
_cell_volume 956.648072
_symmetry_space_group_name_H-M "C 2/C"
_symmetry_group_IT_number 15
_symmetry_cell_setting 'monoclinic'
loop_
_space_group_symop_operation_xyz
x,y,z
-x,y,1/2-z
-x,-y,-z
x,-y,1/2+z
1/2+x,1/2+y,z
1/2-x,1/2+y,1/2-z
1/2-x,1/2-y,-z
1/2+x,1/2-y,1/2+z
loop_
_atom_site_type_symbol
_atom_site_label
_atom_site_fract_x
_atom_site_fract_y
_atom_site_fract_z
Si Si1 0.977852 0.700943 0.452958
Si Si2 0.181492 0.814544 0.526734
Si Si3 0.391493 0.333899 0.678658
O O1 0.053663 0.737634 0.432113
O O2 0.052644 0.829484 0.629721
O O3 0.000000 0.500000 0.500000
O O4 0.816132 0.715050 0.265979
O O5 0.250000 0.750000 0.500000
O O6 0.133173 0.001855 0.428827
O O7 0.500000 0.219701 0.750000
O O8 0.250000 0.250000 0.500000
#
# Coordination Sequence:
#
# PCOD9308321 Si02
#       3
#     8   8   8
#     4  12  28  51  84 119 166 221 275 343 421 495
#     4  12  29  51  80 119 166 214 279 341 416 497
#     4  12  27  48  80 117 161 214 273 339 417 491
#
# _framework density 25.087596999999999
#
# number of rings (size 3 to 8) (size 9 to 14) (size 15 to 20)
#    0.000    0.000    3.333    5.000    9.333    2.667 
#    0.000    0.000    0.000    0.000    0.000    0.000 
#    0.000    0.000    0.000    0.000    0.000    0.000 
#
# Total GULP energy -66887.322155 kJ/mol
# GULP energy per Si atom -5573.943513 kJ/mol
# Density = 2.503050 g / cm^3
# Si number density = 25.087597 Si / 1000 Ang^3
#
#
#
# Elastic Constant Matrix: (Units=GPa)
#
#
# Indices 1 2 3 4 5 6 
#
# 1 170.1004 58.1825 41.1046 0.0000 23.1480 0.0000
# 2 58.1825 107.8442 33.1000 0.0000 4.1520 0.0000
# 3 41.1046 33.1000 199.6249 0.0000 25.7982 0.0000
# 4 0.0000 0.0000 0.0000 25.2877 0.0000 -1.6867
# 5 23.1480 4.1520 25.7982 0.0000 64.6800 0.0000
# 6 0.0000 0.0000 0.0000 -1.6867 0.0000 61.2572
#
#
#
# Elastic Compliance Matrix: (Units=1/GPa)
#
#
# Indices 1 2 3 4 5 6 
#
# 1 0.007655 -0.003844 -0.000650 0.000000 -0.002233 0.000000
# 2 -0.003844 0.011700 -0.001296 0.000000 0.001142 0.000000
# 3 -0.000650 -0.001296 0.005606 0.000000 -0.001920 0.000000
# 4 0.000000 0.000000 0.000000 0.039618 0.000000 0.001091
# 5 -0.002233 0.001142 -0.001920 0.000000 0.016953 0.000000
# 6 0.000000 0.000000 0.000000 0.001091 0.000000 0.016355
#
#
# Mechanical properties :
#
#
# Convention : Reuss Voigt Hill
#
# Bulk Modulus (GPa) = 74.73443 82.48264 78.60854
# Shear Modulus (GPa) = 43.88743 53.25716 48.57229
#
# Velocity S-wave (km/s) = 4.18708 4.61244 4.40490
# Velocity P-wave (km/s) = 7.29586 7.83041 7.56786
#
# Compressibility (1/GPa) = 0.01338071
#
# Stress axis : x y z
#
# Youngs Moduli (GPa) = 130.63588 85.46653 178.37003
#
# Poissons Ratio (x) = 0.32856 0.11597
# Poissons Ratio (y) = 0.50220 0.23117
# Poissons Ratio (z) = 0.08493 0.11077
#
# Static dielectric constant tensor:
#      x y z
#    x 2.351140 0.000000 -0.111330 
#    y 0.000000 1.732770 0.000000 
#    z -0.111330 0.000000 2.614490 
# 
# From -- ./inp_files/159620.got.cif
#   From: 2010.05.17/outbox.cif.g08.bks.cpg/sg15_80_cif.got.tgz:159620.got - 2010.06.03 18:47:42.
