data_PCOD9308891
_publ_section_title
;
Structure prediction by ZEFSAII (Michael W. Deem and Ramdas Pophale) SiO2 
 PCOD9308891
Probable space group: C 2/C
;
_chemical_formula_sum "Si O2"
_cell_formula_units_Z 30
_cell_length_a 12.000000
_cell_length_b 24.000000
_cell_length_c 12.000000
_cell_angle_alpha 90.000000
_cell_angle_beta 110.000000
_cell_angle_gamma 90.000000
_cell_volume 3247.577697
_symmetry_space_group_name_H-M "C 2/C"
_symmetry_group_IT_number 15
_symmetry_cell_setting 'monoclinic'
loop_
_space_group_symop_operation_xyz
x,y,z
-x,y,1/2-z
-x,-y,-z
x,-y,1/2+z
1/2+x,1/2+y,z
1/2-x,1/2+y,1/2-z
1/2-x,1/2-y,-z
1/2+x,1/2-y,1/2+z
loop_
_atom_site_type_symbol
_atom_site_label
_atom_site_fract_x
_atom_site_fract_y
_atom_site_fract_z
Si Si1 0.207822 0.151256 0.162723
Si Si2 0.000000 0.808348 0.750000
Si Si3 0.381190 0.053552 0.291659
Si Si4 0.608780 0.244332 0.224313
Si Si5 0.595230 0.102852 0.948075
Si Si6 0.833709 0.425017 0.268107
Si Si7 0.486502 0.224506 0.539727
Si Si8 0.749307 0.667501 0.908475
O O1 0.091428 0.153951 0.205090
O O2 0.285690 0.096442 0.209857
O O3 0.281728 0.202854 0.237552
O O4 0.211589 0.159666 0.026798
O O5 0.967289 0.763900 0.640017
O O6 0.500000 0.054385 0.250000
O O7 0.397759 0.071938 0.428459
O O8 0.326461 0.991641 0.272547
O O9 0.500000 0.214420 0.250000
O O10 0.649918 0.295913 0.312717
O O11 0.561896 0.256142 0.085340
O O12 0.679790 0.091325 0.868623
O O13 0.467817 0.087266 0.853742
O O14 0.590350 0.168526 0.971177
O O15 0.762424 0.388222 0.335784
O O16 0.622856 0.201567 0.561824
#
# Coordination Sequence:
#
# PCOD9308891 Si02
#       8
#     8   4   8   8   8   8   8   8
#     4  12  25  41  63  92 129 170 217 261 324 389
#     4  12  26  42  60  90 134 180 208 264 324 382
#     4  12  22  38  64  97 127 165 215 267 329 384
#     4  12  22  39  65  97 123 170 219 260 319 387
#     4  10  20  35  56  95 129 160 204 265 326 385
#     4  10  22  36  61  90 129 167 205 267 330 375
#     4  11  21  39  64  91 134 165 213 264 319 388
#     4  11  23  43  65  95 131 172 211 269 330 385
#
# _framework density 9.2376539999999991
#
# number of rings (size 3 to 8) (size 9 to 14) (size 15 to 20)
#    0.000    0.800    5.333    5.200    1.867    1.600 
#    0.000    0.000    1.467    0.800    0.000    0.000 
#    0.000    0.000    0.000    0.000    0.000    0.000 
#
# Total GULP energy -167016.499298 kJ/mol
# GULP energy per Si atom -5567.216643 kJ/mol
# Density = 0.921663 g / cm^3
# Si number density = 9.237654 Si / 1000 Ang^3
#
#
#
# Elastic Constant Matrix: (Units=GPa)
#
#
# Indices 1 2 3 4 5 6 
#
# 1 92.7058 36.9686 41.1706 0.0000 -31.7672 0.0000
# 2 36.9686 102.6227 44.7324 0.0000 -5.2804 0.0000
# 3 41.1706 44.7324 178.2315 0.0000 -34.5818 0.0000
# 4 0.0000 0.0000 0.0000 24.1225 0.0000 -7.4822
# 5 -31.7672 -5.2804 -34.5818 0.0000 32.1765 0.0000
# 6 0.0000 0.0000 0.0000 -7.4822 0.0000 19.8066
#
#
#
# Elastic Compliance Matrix: (Units=1/GPa)
#
#
# Indices 1 2 3 4 5 6 
#
# 1 0.019523 -0.006399 0.000799 0.000000 0.019083 0.000000
# 2 -0.006399 0.013094 -0.003306 0.000000 -0.007723 0.000000
# 3 0.000799 -0.003306 0.007965 0.000000 0.008806 0.000000
# 4 0.000000 0.000000 0.000000 0.046957 0.000000 0.017739
# 5 0.019083 -0.007723 0.008806 0.000000 0.058116 0.000000
# 6 0.000000 0.000000 0.000000 0.017739 0.000000 0.057189
#
#
# Mechanical properties :
#
#
# Convention : Reuss Voigt Hill
#
# Bulk Modulus (GPa) = 43.92159 68.81148 56.36653
# Shear Modulus (GPa) = 21.90614 31.93370 26.91992
#
# Velocity S-wave (km/s) = 3.44713 4.16198 3.82131
# Velocity P-wave (km/s) = 6.29828 7.77316 7.07426
#
# Compressibility (1/GPa) = 0.02276785
#
# Stress axis : x y z
#
# Youngs Moduli (GPa) = 51.22143 76.37324 125.55562
#
# Poissons Ratio (x) = 0.48874 -0.10033
# Poissons Ratio (y) = 0.32778 0.41514
# Poissons Ratio (z) = -0.04093 0.25252
#
# Static dielectric constant tensor:
#      x y z
#    x 1.699400 0.000000 -0.010870 
#    y 0.000000 1.681020 0.000000 
#    z -0.010870 0.000000 1.664130 
# 
# From -- ./inp_files/90894.got.cif
#   From: 2010.05.17/outbox.ucp.g08.bks.cvg/sg15_46_cif.got.tgz:90894.got - 2010.06.11 12:40:34.
