data_PCOD9308874
_publ_section_title
;
Structure prediction by ZEFSAII (Michael W. Deem and Ramdas Pophale) SiO2 
 PCOD9308874
Probable space group: C 2/C
;
_chemical_formula_sum "Si O2"
_cell_formula_units_Z 28
_cell_length_a 18.000000
_cell_length_b 18.000000
_cell_length_c 9.000000
_cell_angle_alpha 90.000000
_cell_angle_beta 70.000000
_cell_angle_gamma 90.000000
_cell_volume 2740.143682
_symmetry_space_group_name_H-M "C 2/C"
_symmetry_group_IT_number 15
_symmetry_cell_setting 'monoclinic'
loop_
_space_group_symop_operation_xyz
x,y,z
-x,y,1/2-z
-x,-y,-z
x,-y,1/2+z
1/2+x,1/2+y,z
1/2-x,1/2+y,1/2-z
1/2-x,1/2-y,-z
1/2+x,1/2-y,1/2+z
loop_
_atom_site_type_symbol
_atom_site_label
_atom_site_fract_x
_atom_site_fract_y
_atom_site_fract_z
Si Si1 0.794566 0.575841 0.761324
Si Si2 0.397296 0.171969 0.194951
Si Si3 0.875984 0.828654 0.600597
Si Si4 0.922599 0.659376 0.524948
Si Si5 0.163172 0.161926 0.717481
Si Si6 0.742018 0.081943 0.363301
Si Si7 0.519558 0.577358 0.911811
O O1 0.885343 0.595179 0.654646
O O2 0.749813 0.644888 0.714067
O O3 0.763712 0.500045 0.705804
O O4 0.772125 0.575211 0.950237
O O5 0.398557 0.147684 0.367699
O O6 0.372558 0.258307 0.218896
O O7 0.331001 0.127436 0.153970
O O8 0.482126 0.162900 0.057245
O O9 0.890760 0.740298 0.601490
O O10 0.840767 0.844543 0.458706
O O11 0.820338 0.871782 0.756923
O O12 0.963098 0.864242 0.532032
O O13 0.109638 0.102906 0.844209
O O14 0.500000 0.575643 0.750000
O O15 0.500000 0.500000 0.000000
#
# Coordination Sequence:
#
# PCOD9308874 Si02
#       7
#     8   8   8   8   8   8   8
#     4  12  26  42  61  89 124 164 208 256 308 362
#     4  10  21  41  68  94 122 161 204 249 305 369
#     4  10  20  39  64  91 124 160 202 248 302 367
#     4  10  21  41  68  94 122 161 204 249 305 369
#     4  10  20  39  64  91 124 160 202 248 302 367
#     4  12  26  42  61  89 124 164 208 256 308 362
#     4  10  20  34  56  88 123 160 199 242 295 356
#
# _framework density 10.218442
#
# number of rings (size 3 to 8) (size 9 to 14) (size 15 to 20)
#    0.000    1.429    1.429    4.286    0.000    9.143 
#    0.000    0.000    0.000    0.000    0.000    0.000 
#    0.000    0.000    0.000    0.000    0.000    0.000 
#
# Total GULP energy -156383.770119 kJ/mol
# GULP energy per Si atom -5585.134647 kJ/mol
# Density = 1.019518 g / cm^3
# Si number density = 10.218442 Si / 1000 Ang^3
#
#
#
# Elastic Constant Matrix: (Units=GPa)
#
#
# Indices 1 2 3 4 5 6 
#
# 1 29.4730 5.1347 8.7537 0.0000 -26.7713 0.0000
# 2 5.1347 44.3093 37.7985 0.0000 -17.2755 0.0000
# 3 8.7537 37.7985 112.8649 0.0000 -34.5721 0.0000
# 4 0.0000 0.0000 0.0000 35.3031 0.0000 -10.8517
# 5 -26.7713 -17.2755 -34.5721 0.0000 27.0415 0.0000
# 6 0.0000 0.0000 0.0000 -10.8517 0.0000 30.9485
#
#
#
# Elastic Compliance Matrix: (Units=1/GPa)
#
#
# Indices 1 2 3 4 5 6 
#
# 1 -0.129019 -0.026691 -0.041755 0.000000 -0.198165 0.000000
# 2 -0.026691 0.028174 -0.016348 0.000000 -0.029326 0.000000
# 3 -0.041755 -0.016348 0.002814 0.000000 -0.048185 0.000000
# 4 0.000000 0.000000 0.000000 0.031748 0.000000 0.011132
# 5 -0.198165 -0.029326 -0.048185 0.000000 -0.239544 0.000000
# 6 0.000000 0.000000 0.000000 0.011132 0.000000 0.036215
#
#
# Mechanical properties :
#
#
# Convention : Reuss Voigt Hill
#
# Bulk Modulus (GPa) = -3.73664 32.22454 14.24395
# Shear Modulus (GPa) = -26.42293 27.65597 0.61652
#
# Velocity S-wave (km/s) = -3.59960 3.68263 0.54984
# Velocity P-wave (km/s) = 4.37133 5.82103 2.71808
#
# Compressibility (1/GPa) = -0.26762002
#
# Stress axis : x y z
#
# Youngs Moduli (GPa) = -7.75079 35.49379 355.35984
#
# Poissons Ratio (x) = 0.94735 14.83822
# Poissons Ratio (y) = -0.20687 5.80953
# Poissons Ratio (z) = -0.32364 0.58026
#
# Static dielectric constant tensor:
#      x y z
#    x 1.782620 0.000000 -0.011310 
#    y 0.000000 1.740230 0.000000 
#    z -0.011310 0.000000 1.689700 
# 
# From -- ./inp_files/49012.got.cif
#   From: 2010.05.17/outbox.ucp.g08.bks.cvg/sg15_25_cif.got.tgz:49012.got - 2010.06.11 12:40:34.
