data_PCOD9308122
_publ_section_title
;
Structure prediction by ZEFSAII (Michael W. Deem and Ramdas Pophale) SiO2 
 PCOD9308122
Probable space group: C 2/C
;
_chemical_formula_sum "Si O2"
_cell_formula_units_Z 56
_cell_length_a 8.757301
_cell_length_b 11.538633
_cell_length_c 22.432100
_cell_angle_alpha 90.000000
_cell_angle_beta 70.036441
_cell_angle_gamma 90.000000
_cell_volume 2130.496485
_symmetry_space_group_name_H-M "C 2/C"
_symmetry_group_IT_number 15
_symmetry_cell_setting 'monoclinic'
loop_
_space_group_symop_operation_xyz
x,y,z
-x,y,1/2-z
-x,-y,-z
x,-y,1/2+z
1/2+x,1/2+y,z
1/2-x,1/2+y,1/2-z
1/2-x,1/2-y,-z
1/2+x,1/2-y,1/2+z
loop_
_atom_site_type_symbol
_atom_site_label
_atom_site_fract_x
_atom_site_fract_y
_atom_site_fract_z
Si Si1 0.879534 0.849141 0.496783
Si Si2 0.265474 0.264152 0.069000
Si Si3 0.247769 0.999944 0.080415
Si Si4 0.015730 0.535827 0.633257
Si Si5 0.340885 0.798048 0.235267
Si Si6 0.457728 0.590388 0.686751
Si Si7 0.710723 0.382028 0.860372
O O1 0.750000 0.750000 0.500000
O O2 0.800787 0.966769 0.480417
O O3 0.891025 0.860134 0.566226
O O4 0.612638 0.922240 0.640388
O O5 0.141549 0.358698 0.110025
O O6 0.226764 0.135225 0.098067
O O7 0.250000 0.250000 0.000000
O O8 0.425952 0.974715 0.081951
O O9 0.129676 0.910870 0.130798
O O10 0.948342 0.811553 0.053375
O O11 0.892105 0.575966 0.701716
O O12 0.500000 0.756182 0.250000
O O13 0.175660 0.807569 0.295146
O O14 0.298288 0.722925 0.183593
O O15 0.500000 0.568464 0.750000
O O16 0.365945 0.486542 0.666304
#
# Coordination Sequence:
#
# PCOD9308122 Si02
#       7
#     8   8   8   8   8   8   8
#     4  12  27  49  79 121 165 210 273 333 412 501
#     4  12  26  46  78 112 156 212 260 327 403 481
#     4  12  27  51  81 117 163 213 265 341 403 479
#     4  12  26  50  77 117 158 206 270 322 404 483
#     4  12  26  53  80 112 159 206 270 338 402 485
#     4  12  26  51  78 114 155 208 272 333 403 481
#     4  12  27  50  79 115 159 210 260 339 406 480
#
# _framework density 26.284953999999999
#
# number of rings (size 3 to 8) (size 9 to 14) (size 15 to 20)
#    0.000    0.000    2.857    7.286    0.000    3.429 
#    5.143    0.000    0.000    0.000    0.000    0.000 
#    0.000    0.000    0.000    0.000    0.000    0.000 
#
# Total GULP energy -157115.411896 kJ/mol
# GULP energy per Si atom -5611.264711 kJ/mol
# Density = 2.622513 g / cm^3
# Si number density = 26.284954 Si / 1000 Ang^3
#
#
#
# Elastic Constant Matrix: (Units=GPa)
#
#
# Indices 1 2 3 4 5 6 
#
# 1 198.5229 72.4130 52.2980 0.0000 -0.9029 0.0000
# 2 72.4130 107.2708 38.0873 0.0000 1.2295 0.0000
# 3 52.2980 38.0873 105.0619 0.0000 5.4448 0.0000
# 4 0.0000 0.0000 0.0000 24.3262 0.0000 15.9725
# 5 -0.9029 1.2295 5.4448 0.0000 49.9051 0.0000
# 6 0.0000 0.0000 0.0000 15.9725 0.0000 46.4947
#
#
#
# Elastic Compliance Matrix: (Units=1/GPa)
#
#
# Indices 1 2 3 4 5 6 
#
# 1 0.007056 -0.004032 -0.002074 0.000000 0.000453 0.000000
# 2 -0.004032 0.013005 -0.002702 0.000000 -0.000099 0.000000
# 3 -0.002074 -0.002702 0.011594 0.000000 -0.001236 0.000000
# 4 0.000000 0.000000 0.000000 0.053081 0.000000 -0.018235
# 5 0.000453 -0.000099 -0.001236 0.000000 0.020184 0.000000
# 6 0.000000 0.000000 0.000000 -0.018235 0.000000 0.027772
#
#
# Mechanical properties :
#
#
# Convention : Reuss Voigt Hill
#
# Bulk Modulus (GPa) = 71.23457 81.82802 76.53129
# Shear Modulus (GPa) = 32.26028 40.68236 36.47132
#
# Velocity S-wave (km/s) = 3.50713 3.93840 3.72901
# Velocity P-wave (km/s) = 6.59997 7.20278 6.90796
#
# Compressibility (1/GPa) = 0.01403813
#
# Stress axis : x y z
#
# Youngs Moduli (GPa) = 141.71360 76.89536 86.24820
#
# Poissons Ratio (x) = 0.31005 0.17891
# Poissons Ratio (y) = 0.57141 0.23306
# Poissons Ratio (z) = 0.29396 0.20779
#
# Static dielectric constant tensor:
#      x y z
#    x 2.056710 0.000000 0.000280 
#    y 0.000000 2.016430 0.000000 
#    z 0.000280 0.000000 2.007070 
# 
# From -- ./inp_files/287934.got.cif
#   From: 2010.05.17/outbox.cif.g08.bks.cpg/sg15_144_cif.got.tgz:287934.got - 2010.06.03 18:47:42.
