data_PCOD9308693
_publ_section_title
;
Structure prediction by ZEFSAII (Michael W. Deem and Ramdas Pophale) SiO2 
 PCOD9308693
Probable space group: C 2/C
;
_chemical_formula_sum "Si O2"
_cell_formula_units_Z 28
_cell_length_a 15.000000
_cell_length_b 12.000000
_cell_length_c 30.000000
_cell_angle_alpha 90.000000
_cell_angle_beta 30.000000
_cell_angle_gamma 90.000000
_cell_volume 2700.000000
_symmetry_space_group_name_H-M "C 2/C"
_symmetry_group_IT_number 15
_symmetry_cell_setting 'monoclinic'
loop_
_space_group_symop_operation_xyz
x,y,z
-x,y,1/2-z
-x,-y,-z
x,-y,1/2+z
1/2+x,1/2+y,z
1/2-x,1/2+y,1/2-z
1/2-x,1/2-y,-z
1/2+x,1/2-y,1/2+z
loop_
_atom_site_type_symbol
_atom_site_label
_atom_site_fract_x
_atom_site_fract_y
_atom_site_fract_z
Si Si1 0.618075 0.429475 0.740692
Si Si2 0.480591 0.945632 0.056915
Si Si3 0.127608 0.560368 0.588339
Si Si4 0.502252 0.320945 0.944718
Si Si5 0.514924 0.353968 0.189040
Si Si6 0.336064 0.864202 0.857313
Si Si7 0.823768 0.256044 0.216812
O O1 0.500000 0.390824 0.750000
O O2 0.786572 0.508378 0.656052
O O3 0.485347 0.516062 0.823878
O O4 0.694767 0.323452 0.732985
O O5 0.610017 0.970736 0.043271
O O6 0.496382 0.811655 0.044766
O O7 0.500000 0.000000 0.000000
O O8 0.305900 0.627738 0.525287
O O9 0.124071 0.453785 0.621910
O O10 0.957188 0.641723 0.669149
O O11 0.646360 0.379259 0.914725
O O12 0.582828 0.321901 0.860358
O O13 0.500000 0.360547 0.250000
O O14 0.666075 0.260058 0.120075
O O15 0.353105 0.300196 0.230934
O O16 0.500000 0.868795 0.750000
#
# Coordination Sequence:
#
# PCOD9308693 Si02
#       7
#     8   8   8   8   8   8   8
#     4  11  23  37  64  97 121 164 224 264 308 378
#     4  11  23  42  64  93 132 176 213 263 318 381
#     4  11  25  41  64  97 131 168 210 268 330 388
#     4  11  22  43  68  89 128 176 210 255 338 389
#     4  10  18  38  63  88 116 163 208 257 307 373
#     4  11  21  42  70  91 125 166 217 267 322 385
#     4  11  21  39  64  92 126 166 211 264 316 385
#
# _framework density 10.370369999999999
#
# number of rings (size 3 to 8) (size 9 to 14) (size 15 to 20)
#    0.000    1.143    5.714    3.857    4.000    0.571 
#    0.000    0.714    6.286    0.000    0.000    0.000 
#    0.000    0.000    0.000    0.000    0.000    0.000 
#
# Total GULP energy -156093.015607 kJ/mol
# GULP energy per Si atom -5574.750557 kJ/mol
# Density = 1.034677 g / cm^3
# Si number density = 10.370370 Si / 1000 Ang^3
#
#
#
# Elastic Constant Matrix: (Units=GPa)
#
#
# Indices 1 2 3 4 5 6 
#
# 1 181.9806 75.0786 40.3023 0.0001 -23.2225 0.0000
# 2 75.0786 63.5675 9.3129 -0.0001 13.7431 0.0000
# 3 40.3023 9.3129 37.6263 0.0001 -8.4155 -0.0003
# 4 0.0001 -0.0001 0.0001 11.4863 -0.0003 -4.7554
# 5 -23.2225 13.7431 -8.4155 -0.0003 33.6548 0.0000
# 6 0.0000 0.0000 -0.0003 -4.7554 0.0000 50.4847
#
#
#
# Elastic Compliance Matrix: (Units=1/GPa)
#
#
# Indices 1 2 3 4 5 6 
#
# 1 0.028691 -0.038797 -0.013937 0.000000 0.032155 0.000000
# 2 -0.038797 0.071195 0.012122 -0.000001 -0.052812 0.000000
# 3 -0.013937 0.012122 0.037335 0.000000 -0.005231 0.000000
# 4 0.000000 -0.000001 0.000000 0.090593 0.000001 0.008533
# 5 0.032155 -0.052812 -0.005231 0.000001 0.072159 0.000000
# 6 0.000000 0.000000 0.000000 0.008533 0.000000 0.020612
#
#
# Mechanical properties :
#
#
# Convention : Reuss Voigt Hill
#
# Bulk Modulus (GPa) = 17.85766 59.17357 38.51561
# Shear Modulus (GPa) = 11.89130 29.69052 20.79091
#
# Velocity S-wave (km/s) = 2.39703 3.78763 3.16953
# Velocity P-wave (km/s) = 4.03604 6.90798 5.65729
#
# Compressibility (1/GPa) = 0.05599839
#
# Stress axis : x y z
#
# Youngs Moduli (GPa) = 34.85402 14.04586 26.78445
#
# Poissons Ratio (x) = 0.54493 0.37330
# Poissons Ratio (y) = 1.35222 -0.32469
# Poissons Ratio (z) = 0.48577 -0.17027
#
# Static dielectric constant tensor:
#      x y z
#    x 1.738940 0.000000 0.002130 
#    y 0.000000 1.774230 0.000000 
#    z 0.002130 0.000000 1.836410 
# 
# From -- ./inp_files/313716.got.cif
#   From: 2010.05.17/outbox.ucp.g08.bks.cvg/sg15_157_cif.got.tgz:313716.got - 2010.06.11 12:40:34.
