data_PCOD9308730
_publ_section_title
;
Structure prediction by ZEFSAII (Michael W. Deem and Ramdas Pophale) SiO2 
 PCOD9308730
Probable space group: C 2/C
;
_chemical_formula_sum "Si O2"
_cell_formula_units_Z 32
_cell_length_a 15.000000
_cell_length_b 21.000000
_cell_length_c 12.000000
_cell_angle_alpha 90.000000
_cell_angle_beta 70.000000
_cell_angle_gamma 90.000000
_cell_volume 3552.038107
_symmetry_space_group_name_H-M "C 2/C"
_symmetry_group_IT_number 15
_symmetry_cell_setting 'monoclinic'
loop_
_space_group_symop_operation_xyz
x,y,z
-x,y,1/2-z
-x,-y,-z
x,-y,1/2+z
1/2+x,1/2+y,z
1/2-x,1/2+y,1/2-z
1/2-x,1/2-y,-z
1/2+x,1/2-y,1/2+z
loop_
_atom_site_type_symbol
_atom_site_label
_atom_site_fract_x
_atom_site_fract_y
_atom_site_fract_z
Si Si1 0.692650 0.111114 0.418445
Si Si2 0.604013 0.413708 0.930272
Si Si3 0.687007 0.940057 0.676184
Si Si4 0.897108 0.476419 0.999758
Si Si5 0.721577 0.919328 0.260195
Si Si6 0.438942 0.449808 0.164862
Si Si7 0.390122 0.329838 0.776967
Si Si8 0.391966 0.180328 0.837724
O O1 0.671519 0.103274 0.293740
O O2 0.804427 0.131017 0.373481
O O3 0.632121 0.159358 0.523478
O O4 0.668149 0.040483 0.474415
O O5 0.712280 0.423192 0.927108
O O6 0.584420 0.478227 0.866573
O O7 0.615398 0.350686 0.850040
O O8 0.512257 0.414143 0.049522
O O9 0.603657 0.944849 0.621696
O O10 0.701095 0.012087 0.713136
O O11 0.843813 0.426309 0.102378
O O12 0.000000 0.500000 0.000000
O O13 0.835913 0.916836 0.225350
O O14 0.680997 0.862307 0.202846
O O15 0.500000 0.455032 0.250000
O O16 0.500000 0.348161 0.750000
O O17 0.378751 0.255715 0.816768
O O18 0.500000 0.164881 0.750000
#
# Coordination Sequence:
#
# PCOD9308730 Si02
#       8
#     8   8   8   8   8   8   8   8
#     4  10  21  37  59  83 120 153 194 251 303 363
#     4   9  19  33  55  86 117 151 190 246 308 362
#     4   9  19  35  54  86 116 151 190 240 307 367
#     4  11  21  35  59  86 122 158 196 250 304 363
#     4  10  21  32  55  86 114 156 190 241 307 355
#     4  10  19  33  56  85 120 152 189 244 302 374
#     4  10  22  36  59  87 115 158 199 253 303 354
#     4  11  22  39  57  85 120 156 205 252 300 358
#
# _framework density 9.0089120000000005
#
# number of rings (size 3 to 8) (size 9 to 14) (size 15 to 20)
#    0.000    2.000    1.250    3.000    1.750    2.500 
#    0.000    0.000    0.000    6.750    0.000    0.000 
#    0.000    0.000    0.000    0.000    0.000    0.000 
#
# Total GULP energy -178167.200942 kJ/mol
# GULP energy per Si atom -5567.725029 kJ/mol
# Density = 0.898841 g / cm^3
# Si number density = 9.008912 Si / 1000 Ang^3
#
#
#
# Elastic Constant Matrix: (Units=GPa)
#
#
# Indices 1 2 3 4 5 6 
#
# 1 130.4508 24.8246 56.3951 0.0000 -5.5500 0.0000
# 2 24.8246 58.3278 24.1693 0.0000 -3.1469 0.0000
# 3 56.3951 24.1693 114.3637 0.0000 -13.3640 0.0000
# 4 0.0000 0.0000 0.0000 27.3556 0.0000 -1.1146
# 5 -5.5500 -3.1469 -13.3640 0.0000 33.2943 0.0000
# 6 0.0000 0.0000 0.0000 -1.1146 0.0000 22.8428
#
#
#
# Elastic Compliance Matrix: (Units=1/GPa)
#
#
# Indices 1 2 3 4 5 6 
#
# 1 0.010053 -0.002440 -0.004483 0.000000 -0.000354 0.000000
# 2 -0.002440 0.019383 -0.002861 0.000000 0.000277 0.000000
# 3 -0.004483 -0.002861 0.012003 0.000000 0.003800 0.000000
# 4 0.000000 0.000000 0.000000 0.036628 0.000000 0.001787
# 5 -0.000354 0.000277 0.003800 0.000000 0.031528 0.000000
# 6 0.000000 0.000000 0.000000 0.001787 0.000000 0.043865
#
#
# Mechanical properties :
#
#
# Convention : Reuss Voigt Hill
#
# Bulk Modulus (GPa) = 45.72072 57.10225 51.41149
# Shear Modulus (GPa) = 27.72858 29.88208 28.80533
#
# Velocity S-wave (km/s) = 3.92720 4.07685 4.00273
# Velocity P-wave (km/s) = 6.78191 7.34315 7.06810
#
# Compressibility (1/GPa) = 0.02187192
#
# Stress axis : x y z
#
# Youngs Moduli (GPa) = 99.47199 51.59057 83.30957
#
# Poissons Ratio (x) = 0.12589 0.37349
# Poissons Ratio (y) = 0.24272 0.23833
# Poissons Ratio (z) = 0.44594 0.14759
#
# Static dielectric constant tensor:
#      x y z
#    x 1.660090 0.000000 0.018210 
#    y 0.000000 1.586600 0.000000 
#    z 0.018210 0.000000 1.702870 
# 
# From -- ./inp_files/99776.got.cif
#   From: 2010.05.17/outbox.ucp.g08.bks.cvg/sg15_50_cif.got.tgz:99776.got - 2010.06.11 12:40:34.
