data_PCOD9308768
_publ_section_title
;
Structure prediction by ZEFSAII (Michael W. Deem and Ramdas Pophale) SiO2 
 PCOD9308768
Probable space group: C 2/C
;
_chemical_formula_sum "Si O2"
_cell_formula_units_Z 30
_cell_length_a 18.000000
_cell_length_b 18.000000
_cell_length_c 18.000000
_cell_angle_alpha 90.000000
_cell_angle_beta 150.000000
_cell_angle_gamma 90.000000
_cell_volume 2916.000000
_symmetry_space_group_name_H-M "C 2/C"
_symmetry_group_IT_number 15
_symmetry_cell_setting 'monoclinic'
loop_
_space_group_symop_operation_xyz
x,y,z
-x,y,1/2-z
-x,-y,-z
x,-y,1/2+z
1/2+x,1/2+y,z
1/2-x,1/2+y,1/2-z
1/2-x,1/2-y,-z
1/2+x,1/2-y,1/2+z
loop_
_atom_site_type_symbol
_atom_site_label
_atom_site_fract_x
_atom_site_fract_y
_atom_site_fract_z
Si Si1 0.000000 0.843724 0.250000
Si Si2 0.680257 0.173325 0.392673
Si Si3 0.172541 0.495543 0.407375
Si Si4 0.372565 0.852965 0.391252
Si Si5 0.721614 0.556156 0.646408
Si Si6 0.186741 0.708017 0.223421
Si Si7 0.388754 0.422442 0.865534
Si Si8 0.681851 0.539312 0.820918
O O1 0.161928 0.808859 0.422019
O O2 0.058657 0.900002 0.237349
O O3 0.500000 0.190844 0.250000
O O4 0.699014 0.196426 0.323171
O O5 0.682668 0.083772 0.399754
O O6 0.258631 0.444828 0.423651
O O7 0.249903 0.491921 0.553510
O O8 0.000000 0.475985 0.250000
O O9 0.360237 0.905144 0.307505
O O10 0.248046 0.790773 0.267990
O O11 0.524042 0.813881 0.550408
O O12 0.315103 0.910021 0.404148
O O13 0.703318 0.469855 0.653559
O O14 0.562041 0.588916 0.533130
O O15 0.302536 0.653651 0.282956
O O16 0.381248 0.479915 0.791046
#
# Coordination Sequence:
#
# PCOD9308768 Si02
#       8
#     4   8   8   8   8   8   8   8
#     4  10  20  36  64  84 132 160 208 258 320 370
#     4  10  21  39  59  90 125 169 212 255 309 385
#     4  10  19  35  62  92 129 157 205 263 319 376
#     4  11  26  40  61  90 129 165 220 255 315 372
#     4  10  21  38  62  94 121 165 209 264 314 377
#     4  12  24  42  62  87 127 172 214 259 310 379
#     4  10  21  36  64  88 125 161 212 260 313 371
#     4  10  22  37  62  96 120 165 208 263 316 380
#
# _framework density 10.288066000000001
#
# number of rings (size 3 to 8) (size 9 to 14) (size 15 to 20)
#    0.000    1.600    1.333    4.800    7.467    1.067 
#    1.200    3.333    1.467    0.800    1.733    0.000 
#    0.000    0.000    0.000    0.000    0.000    0.000 
#
# Total GULP energy -167176.319556 kJ/mol
# GULP energy per Si atom -5572.543985 kJ/mol
# Density = 1.026465 g / cm^3
# Si number density = 10.288066 Si / 1000 Ang^3
#
#
#
# Elastic Constant Matrix: (Units=GPa)
#
#
# Indices 1 2 3 4 5 6 
#
# 1 45.4537 27.9461 57.7334 -0.0007 0.2771 0.0009
# 2 27.9461 42.9005 38.0713 -0.0020 -6.3405 -0.0012
# 3 57.7334 38.0713 124.7125 -0.0016 -24.3924 -0.0012
# 4 -0.0007 -0.0020 -0.0016 32.9191 -0.0011 7.5493
# 5 0.2771 -6.3405 -24.3924 -0.0011 12.0177 -0.0012
# 6 0.0009 -0.0012 -0.0012 7.5493 -0.0012 9.4540
#
#
#
# Elastic Compliance Matrix: (Units=1/GPa)
#
#
# Indices 1 2 3 4 5 6 
#
# 1 -0.477179 0.131242 0.325917 -0.000010 0.741763 0.000209
# 2 0.131242 -0.003952 -0.100412 0.000004 -0.208918 -0.000056
# 3 0.325917 -0.100412 -0.205697 0.000007 -0.477997 -0.000138
# 4 -0.000010 0.000004 0.000007 0.037187 0.000016 -0.029695
# 5 0.741763 -0.208918 -0.477997 0.000016 -1.014311 -0.000305
# 6 0.000209 -0.000056 -0.000138 -0.029695 -0.000305 0.129487
#
#
# Mechanical properties :
#
#
# Convention : Reuss Voigt Hill
#
# Bulk Modulus (GPa) = 37.49900 51.17424 44.33662
# Shear Modulus (GPa) = -2.23307 16.83257 7.29975
#
# Velocity S-wave (km/s) = -1.04289 2.86328 1.88557
# Velocity P-wave (km/s) = 4.10048 5.98798 5.13175
#
# Compressibility (1/GPa) = 0.02666738
#
# Stress axis : x y z
#
# Youngs Moduli (GPa) = -2.09565 -253.02507 -4.86152
#
# Poissons Ratio (x) = 33.20755 1.58445
# Poissons Ratio (y) = 0.27504 -0.48815
# Poissons Ratio (z) = 0.68301 -25.40665
#
# Static dielectric constant tensor:
#      x y z
#    x 1.818660 0.000000 0.009380 
#    y 0.000000 1.752980 0.000000 
#    z 0.009380 0.000000 1.784450 
# 
# From -- ./inp_files/211754.got.cif
#   From: 2010.05.17/outbox.ucp.g08.bks.cvg/sg15_106_cif.got.tgz:211754.got - 2010.06.11 12:40:34.
