data_PCOD9308998
_publ_section_title
;
Structure prediction by ZEFSAII (Michael W. Deem and Ramdas Pophale) SiO2 
 PCOD9308998
Probable space group: C 2/C
;
_chemical_formula_sum "Si O2"
_cell_formula_units_Z 32
_cell_length_a 21.000000
_cell_length_b 18.000000
_cell_length_c 18.000000
_cell_angle_alpha 90.000000
_cell_angle_beta 150.000000
_cell_angle_gamma 90.000000
_cell_volume 3402.000000
_symmetry_space_group_name_H-M "C 2/C"
_symmetry_group_IT_number 15
_symmetry_cell_setting 'monoclinic'
loop_
_space_group_symop_operation_xyz
x,y,z
-x,y,1/2-z
-x,-y,-z
x,-y,1/2+z
1/2+x,1/2+y,z
1/2-x,1/2+y,1/2-z
1/2-x,1/2-y,-z
1/2+x,1/2-y,1/2+z
loop_
_atom_site_type_symbol
_atom_site_label
_atom_site_fract_x
_atom_site_fract_y
_atom_site_fract_z
Si Si1 0.096096 0.719639 0.568689
Si Si2 0.720734 0.089911 0.059731
Si Si3 0.130295 0.615848 0.816239
Si Si4 0.887986 0.222962 0.251558
Si Si5 0.870286 0.163910 0.808394
Si Si6 0.105906 0.895832 0.000102
Si Si7 0.947475 0.028083 0.780724
Si Si8 0.022050 0.574327 0.977730
O O1 0.141188 0.754342 0.692877
O O2 0.227544 0.700340 0.657347
O O3 0.986615 0.775654 0.427162
O O4 0.023322 0.643907 0.518874
O O5 0.774240 0.173329 0.106087
O O6 0.827279 0.027632 0.156423
O O7 0.627439 0.083892 0.895658
O O8 0.661117 0.083025 0.081553
O O9 0.085336 0.701208 0.764071
O O10 0.062244 0.571890 0.681702
O O11 0.275563 0.615192 0.934134
O O12 0.004806 0.166231 0.372564
O O13 0.905149 0.102326 0.781540
O O14 0.866564 0.122775 0.885662
O O15 0.049981 0.978359 0.930374
O O16 0.000000 0.041228 0.750000
O O17 0.000000 0.500000 0.000000
#
# Coordination Sequence:
#
# PCOD9308998 Si02
#       8
#     8   8   8   8   8   8   8   8
#     4  10  21  40  62  93 120 155 213 255 305 376
#     4  11  22  37  57  87 122 161 198 239 306 362
#     4  11  21  37  57  85 127 155 197 240 300 367
#     4   9  20  33  58  84 122 156 186 239 295 367
#     4  11  21  41  67  89 121 163 203 265 314 366
#     4  10  20  38  59  89 117 160 206 241 296 377
#     4  11  23  41  62  87 121 163 209 260 302 368
#     4  11  23  39  59  85 120 159 198 247 305 369
#
# _framework density 9.4062319999999993
#
# number of rings (size 3 to 8) (size 9 to 14) (size 15 to 20)
#    0.000    1.500    3.750    2.625    3.500    0.000 
#    6.750    0.625    0.000    1.500    0.000    0.000 
#    0.000    0.000    0.000    0.000    0.000    0.000 
#
# Total GULP energy -178544.718345 kJ/mol
# GULP energy per Si atom -5579.522448 kJ/mol
# Density = 0.938482 g / cm^3
# Si number density = 9.406232 Si / 1000 Ang^3
#
#
#
# Elastic Constant Matrix: (Units=GPa)
#
#
# Indices 1 2 3 4 5 6 
#
# 1 109.7606 62.6166 37.9176 0.0000 11.9889 0.0000
# 2 62.6166 118.9648 44.9392 -0.0001 -9.5991 0.0000
# 3 37.9176 44.9392 48.5192 -0.0001 4.3029 -0.0001
# 4 0.0000 -0.0001 -0.0001 15.9610 -0.0001 2.9011
# 5 11.9889 -9.5991 4.3029 -0.0001 22.4029 0.0000
# 6 0.0000 0.0000 -0.0001 2.9011 0.0000 17.6464
#
#
#
# Elastic Compliance Matrix: (Units=1/GPa)
#
#
# Indices 1 2 3 4 5 6 
#
# 1 0.016358 -0.007785 -0.004579 0.000000 -0.011210 0.000000
# 2 -0.007785 0.018206 -0.012045 0.000000 0.014280 0.000000
# 3 -0.004579 -0.012045 0.036202 0.000000 -0.009664 0.000000
# 4 0.000000 0.000000 0.000000 0.064583 0.000000 -0.010618
# 5 -0.011210 0.014280 -0.009664 0.000000 0.058611 0.000000
# 6 0.000000 0.000000 0.000000 -0.010618 0.000000 0.058414
#
#
# Mechanical properties :
#
#
# Convention : Reuss Voigt Hill
#
# Bulk Modulus (GPa) = 45.56211 63.13237 54.34724
# Shear Modulus (GPa) = 16.20702 19.98680 18.09691
#
# Velocity S-wave (km/s) = 2.93832 3.26302 3.10492
# Velocity P-wave (km/s) = 5.98192 6.91578 6.46573
#
# Compressibility (1/GPa) = 0.02194806
#
# Stress axis : x y z
#
# Youngs Moduli (GPa) = 61.13126 54.92833 27.62242
#
# Poissons Ratio (x) = 0.42760 0.12650
# Poissons Ratio (y) = 0.47589 0.33271
# Poissons Ratio (z) = 0.27995 0.66161
#
# Static dielectric constant tensor:
#      x y z
#    x 1.623540 0.000000 0.036420 
#    y 0.000000 1.628520 0.000000 
#    z 0.036420 0.000000 1.717900 
# 
# From -- ./inp_files/216191.got.cif
#   From: 2010.05.17/outbox.ucp.g08.bks.cvg/sg15_109_cif.got.tgz:216191.got - 2010.06.11 12:40:34.
