data_PCOD9308035
_publ_section_title
;
Structure prediction by ZEFSAII (Michael W. Deem and Ramdas Pophale) SiO2 
 PCOD9308035
Probable space group: C 2/C
;
_chemical_formula_sum "Si O2"
_cell_formula_units_Z 36
_cell_length_a 16.193985
_cell_length_b 10.746620
_cell_length_c 15.111894
_cell_angle_alpha 90.000000
_cell_angle_beta 141.221949
_cell_angle_gamma 90.000000
_cell_volume 1647.140143
_symmetry_space_group_name_H-M "C 2/C"
_symmetry_group_IT_number 15
_symmetry_cell_setting 'monoclinic'
loop_
_space_group_symop_operation_xyz
x,y,z
-x,y,1/2-z
-x,-y,-z
x,-y,1/2+z
1/2+x,1/2+y,z
1/2-x,1/2+y,1/2-z
1/2-x,1/2-y,-z
1/2+x,1/2-y,1/2+z
loop_
_atom_site_type_symbol
_atom_site_label
_atom_site_fract_x
_atom_site_fract_y
_atom_site_fract_z
Si Si1 0.714878 0.629827 0.911605
Si Si2 0.500000 0.445419 0.750000
Si Si3 0.493567 0.016453 0.139445
Si Si4 0.423450 0.739107 0.342375
Si Si5 0.127034 0.256556 0.663353
O O1 0.620583 0.532574 0.881546
O O2 0.638074 0.675098 0.760812
O O3 0.750000 0.750000 0.000000
O O4 0.846906 0.559714 0.991824
O O5 0.549348 0.359692 0.711500
O O6 0.500000 0.039595 0.250000
O O7 0.591348 0.105161 0.167179
O O8 0.526021 0.874219 0.147178
O O9 0.269018 0.744456 0.235505
O O10 0.511368 0.710861 0.502289
#
# Coordination Sequence:
#
# PCOD9308035 Si02
#       5
#     8   4   8   8   8
#     4  12  26  49  76 110 149 198 248 302 374 446
#     4  12  30  48  76 110 150 196 252 304 370 450
#     4  12  25  49  77 104 156 197 242 308 380 438
#     4  12  29  49  75 113 151 195 247 313 376 429
#     4  12  27  47  77 111 147 196 254 304 366 446
#
# _framework density 21.856064
#
# number of rings (size 3 to 8) (size 9 to 14) (size 15 to 20)
#    0.000    0.000    5.556    3.333    6.222    2.667 
#    0.000    0.000    0.000    0.000    0.000    0.000 
#    0.000    0.000    0.000    0.000    0.000    0.000 
#
# Total GULP energy -100884.097673 kJ/mol
# GULP energy per Si atom -5604.672093 kJ/mol
# Density = 2.180632 g / cm^3
# Si number density = 21.856064 Si / 1000 Ang^3
#
#
#
# Elastic Constant Matrix: (Units=GPa)
#
#
# Indices 1 2 3 4 5 6 
#
# 1 75.8853 36.3283 -5.5901 0.0000 17.6894 0.0000
# 2 36.3283 120.4409 8.3354 0.0000 26.0067 0.0000
# 3 -5.5901 8.3354 65.1346 0.0000 5.8396 0.0000
# 4 0.0000 0.0000 0.0000 11.1938 0.0000 3.1629
# 5 17.6894 26.0067 5.8396 0.0000 49.6208 0.0000
# 6 0.0000 0.0000 0.0000 3.1629 0.0000 50.4089
#
#
#
# Elastic Compliance Matrix: (Units=1/GPa)
#
#
# Indices 1 2 3 4 5 6 
#
# 1 0.016271 -0.004234 0.002283 0.000000 -0.003850 0.000000
# 2 -0.004234 0.010502 -0.001364 0.000000 -0.003834 0.000000
# 3 0.002283 -0.001364 0.015900 0.000000 -0.001970 0.000000
# 4 0.000000 0.000000 0.000000 0.090947 0.000000 -0.005707
# 5 -0.003850 -0.003834 -0.001970 0.000000 0.023767 0.000000
# 6 0.000000 0.000000 0.000000 -0.005707 0.000000 0.020196
#
#
# Mechanical properties :
#
#
# Convention : Reuss Voigt Hill
#
# Bulk Modulus (GPa) = 27.74420 37.73425 32.73922
# Shear Modulus (GPa) = 25.48075 37.07051 31.27563
#
# Velocity S-wave (km/s) = 3.41815 4.12287 3.78694
# Velocity P-wave (km/s) = 5.31977 6.32190 5.84236
#
# Compressibility (1/GPa) = 0.03604357
#
# Stress axis : x y z
#
# Youngs Moduli (GPa) = 61.46090 95.21667 62.89321
#
# Poissons Ratio (x) = 0.40319 -0.14361
# Poissons Ratio (y) = 0.26025 0.08576
# Poissons Ratio (z) = -0.14034 0.12984
#
# Static dielectric constant tensor:
#      x y z
#    x 1.787630 0.000000 -0.017190 
#    y 0.000000 1.781240 0.000000 
#    z -0.017190 0.000000 1.813600 
# 
# From -- ./inp_files/94429.got.cif
#   From: 2010.05.17/outbox.cif.g08.bks.cpg/sg15_48_cif.got.tgz:94429.got - 2010.06.03 18:47:42.
