data_PCOD9308749
_publ_section_title
;
Structure prediction by ZEFSAII (Michael W. Deem and Ramdas Pophale) SiO2 
 PCOD9308749
Probable space group: C 2/C
;
_chemical_formula_sum "Si O2"
_cell_formula_units_Z 30
_cell_length_a 21.000000
_cell_length_b 15.000000
_cell_length_c 15.000000
_cell_angle_alpha 90.000000
_cell_angle_beta 140.000000
_cell_angle_gamma 90.000000
_cell_volume 3037.171456
_symmetry_space_group_name_H-M "C 2/C"
_symmetry_group_IT_number 15
_symmetry_cell_setting 'monoclinic'
loop_
_space_group_symop_operation_xyz
x,y,z
-x,y,1/2-z
-x,-y,-z
x,-y,1/2+z
1/2+x,1/2+y,z
1/2-x,1/2+y,1/2-z
1/2-x,1/2-y,-z
1/2+x,1/2-y,1/2+z
loop_
_atom_site_type_symbol
_atom_site_label
_atom_site_fract_x
_atom_site_fract_y
_atom_site_fract_z
Si Si1 0.500000 0.210554 0.750000
Si Si2 0.217230 0.355461 0.463612
Si Si3 0.179980 0.776012 0.647225
Si Si4 0.008095 0.185927 0.444807
Si Si5 0.308517 0.982081 0.910377
Si Si6 0.887897 0.644833 0.356885
Si Si7 0.711305 0.603497 0.653577
Si Si8 0.445288 0.140070 0.101689
O O1 0.401649 0.151647 0.655405
O O2 0.499547 0.273451 0.662407
O O3 0.250000 0.250000 0.500000
O O4 0.247590 0.416170 0.581188
O O5 0.254313 0.402881 0.412716
O O6 0.271950 0.835410 0.710319
O O7 0.234870 0.697175 0.761459
O O8 0.116823 0.722774 0.505503
O O9 0.098823 0.825573 0.622789
O O10 0.062009 0.262891 0.560010
O O11 0.092005 0.109955 0.531146
O O12 0.248349 0.032455 0.766746
O O13 0.384362 0.919913 0.937379
O O14 0.368216 0.058664 0.026714
O O15 0.964093 0.609977 0.365295
O O16 0.500000 0.166393 0.250000
#
# Coordination Sequence:
#
# PCOD9308749 Si02
#       8
#     4   8   8   8   8   8   8   8
#     4  12  20  30  62  96 116 150 214 270 296 368
#     4  12  23  39  64  97 124 171 216 260 319 388
#     4   9  19  38  62  84 117 163 209 253 307 373
#     4  10  19  34  59  90 117 158 210 260 306 370
#     4  11  24  36  58  90 129 162 199 264 332 375
#     4  10  20  37  59  83 120 165 204 250 313 378
#     4  10  21  38  57  89 131 159 205 265 322 375
#     4  10  23  37  57  91 124 157 202 257 320 377
#
# _framework density 9.8776119999999992
#
# number of rings (size 3 to 8) (size 9 to 14) (size 15 to 20)
#    0.000    1.600    4.000    1.200    2.800    0.533 
#    0.000    0.667    0.000    0.000    0.000    0.000 
#    0.000    0.000    0.000    0.000    0.000    0.000 
#
# Total GULP energy -167307.454466 kJ/mol
# GULP energy per Si atom -5576.915149 kJ/mol
# Density = 0.985513 g / cm^3
# Si number density = 9.877612 Si / 1000 Ang^3
#
#
#
# Elastic Constant Matrix: (Units=GPa)
#
#
# Indices 1 2 3 4 5 6 
#
# 1 68.2146 30.8510 39.6999 0.0000 -0.9445 0.0000
# 2 30.8510 53.6657 25.2527 0.0000 4.0737 0.0000
# 3 39.6999 25.2527 97.0938 0.0000 4.2323 0.0000
# 4 0.0000 0.0000 0.0000 7.3767 0.0000 -8.6071
# 5 -0.9445 4.0737 4.2323 0.0000 38.3709 0.0000
# 6 0.0000 0.0000 0.0000 -8.6071 0.0000 16.2797
#
#
#
# Elastic Compliance Matrix: (Units=1/GPa)
#
#
# Indices 1 2 3 4 5 6 
#
# 1 0.023462 -0.010380 -0.007000 0.000000 0.002452 0.000000
# 2 -0.010380 0.025929 -0.002380 0.000000 -0.002746 0.000000
# 3 -0.007000 -0.002380 0.013844 0.000000 -0.001447 0.000000
# 4 0.000000 0.000000 0.000000 0.353847 0.000000 0.187079
# 5 0.002452 -0.002746 -0.001447 0.000000 0.026573 0.000000
# 6 0.000000 0.000000 0.000000 0.187079 0.000000 0.160335
#
#
# Mechanical properties :
#
#
# Convention : Reuss Voigt Hill
#
# Bulk Modulus (GPa) = 42.16812 45.62018 43.89415
# Shear Modulus (GPa) = 7.67560 20.61681 14.14620
#
# Velocity S-wave (km/s) = 1.97327 3.23400 2.67886
# Velocity P-wave (km/s) = 5.15590 6.08998 5.64231
#
# Compressibility (1/GPa) = 0.02371460
#
# Stress axis : x y z
#
# Youngs Moduli (GPa) = 42.62184 38.56638 72.23467
#
# Poissons Ratio (x) = 0.40031 0.50568
# Poissons Ratio (y) = 0.44240 0.17192
# Poissons Ratio (z) = 0.29837 0.09179
#
# Static dielectric constant tensor:
#      x y z
#    x 1.710050 0.000000 -0.002350 
#    y 0.000000 1.707540 0.000000 
#    z -0.002350 0.000000 1.734640 
# 
# From -- ./inp_files/168639.got.cif
#   From: 2010.05.17/outbox.ucp.g08.bks.cvg/sg15_85_cif.got.tgz:168639.got - 2010.06.11 12:40:34.
