data_PCOD9308285
_publ_section_title
;
Structure prediction by ZEFSAII (Michael W. Deem and Ramdas Pophale) SiO2 
 PCOD9308285
Probable space group: C 2/C
;
_chemical_formula_sum "Si O2"
_cell_formula_units_Z 28
_cell_length_a 8.110126
_cell_length_b 14.438182
_cell_length_c 15.009702
_cell_angle_alpha 90.000000
_cell_angle_beta 142.193679
_cell_angle_gamma 90.000000
_cell_volume 1077.379144
_symmetry_space_group_name_H-M "C 2/C"
_symmetry_group_IT_number 15
_symmetry_cell_setting 'monoclinic'
loop_
_space_group_symop_operation_xyz
x,y,z
-x,y,1/2-z
-x,-y,-z
x,-y,1/2+z
1/2+x,1/2+y,z
1/2-x,1/2+y,1/2-z
1/2-x,1/2-y,-z
1/2+x,1/2-y,1/2+z
loop_
_atom_site_type_symbol
_atom_site_label
_atom_site_fract_x
_atom_site_fract_y
_atom_site_fract_z
Si Si1 0.414431 0.245783 0.979306
Si Si2 0.187701 0.060461 0.144380
Si Si3 0.500000 0.183013 0.750000
Si Si4 0.635677 0.061176 0.635662
O O1 0.733228 0.253631 0.135645
O O2 0.250000 0.250000 0.000000
O O3 0.377537 0.332351 0.897174
O O4 0.296488 0.153366 0.887533
O O5 0.500000 0.057373 0.250000
O O6 0.166379 0.009979 0.230098
O O7 0.000000 0.000000 0.000000
O O8 0.496086 0.114522 0.661771
O O9 0.500000 0.000000 0.500000
#
# Coordination Sequence:
#
# PCOD9308285 Si02
#       4
#     8   8   4   8
#     4  12  30  55  90 127 177 234 303 366 456 536
#     4  12  26  53  84 125 177 227 293 365 441 536
#     4  12  28  60  82 130 182 230 300 376 442 544
#     4  12  28  54  88 130 175 236 293 370 447 534
#
# _framework density 25.988994999999999
#
# number of rings (size 3 to 8) (size 9 to 14) (size 15 to 20)
#    0.000    0.000    4.286    2.571    8.000    0.000 
#   10.286    0.000    0.000    0.000    0.000    0.000 
#    0.000    0.000    0.000    0.000    0.000    0.000 
#
# Total GULP energy -78271.219130 kJ/mol
# GULP energy per Si atom -5590.801366 kJ/mol
# Density = 2.592984 g / cm^3
# Si number density = 25.988995 Si / 1000 Ang^3
#
#
#
# Elastic Constant Matrix: (Units=GPa)
#
#
# Indices 1 2 3 4 5 6 
#
# 1 142.2082 38.6116 79.6323 0.0016 -9.8342 0.0008
# 2 38.6116 250.2031 106.4821 0.0006 -25.4446 0.0005
# 3 79.6323 106.4821 230.6483 0.0025 -17.2912 0.0023
# 4 0.0016 0.0006 0.0025 45.0044 0.0015 -24.6465
# 5 -9.8342 -25.4446 -17.2912 0.0015 82.0426 0.0011
# 6 0.0008 0.0005 0.0023 -24.6465 0.0011 46.8760
#
#
#
# Elastic Compliance Matrix: (Units=1/GPa)
#
#
# Indices 1 2 3 4 5 6 
#
# 1 0.008732 -0.000045 -0.002963 0.000000 0.000408 0.000000
# 2 -0.000045 0.005069 -0.002243 0.000000 0.001094 0.000000
# 3 -0.002963 -0.002243 0.006417 -0.000001 0.000302 -0.000001
# 4 0.000000 0.000000 -0.000001 0.031205 -0.000001 0.016407
# 5 0.000408 0.001094 0.000302 -0.000001 0.012641 -0.000001
# 6 0.000000 0.000000 -0.000001 0.016407 -0.000001 0.029959
#
#
# Mechanical properties :
#
#
# Convention : Reuss Voigt Hill
#
# Bulk Modulus (GPa) = 102.92481 119.16795 111.04638
# Shear Modulus (GPa) = 46.39758 61.34018 53.86888
#
# Velocity S-wave (km/s) = 4.22984 4.86350 4.55769
# Velocity P-wave (km/s) = 7.97149 8.80289 8.39748
#
# Compressibility (1/GPa) = 0.00971583
#
# Stress axis : x y z
#
# Youngs Moduli (GPa) = 114.52473 197.25898 155.84104
#
# Poissons Ratio (x) = 0.00884 0.46182
# Poissons Ratio (y) = 0.00513 0.34954
# Poissons Ratio (z) = 0.33938 0.44243
#
# Static dielectric constant tensor:
#      x y z
#    x 2.364630 0.000000 0.009850 
#    y 0.000000 1.996290 0.000000 
#    z 0.009850 0.000000 2.051730 
# 
# From -- ./inp_files/134697.got.cif
#   From: 2010.05.17/outbox.cif.g08.bks.cpg/sg15_68_cif.got.tgz:134697.got - 2010.06.03 18:47:42.
