data_PCOD9308597
_publ_section_title
;
Structure prediction by ZEFSAII (Michael W. Deem and Ramdas Pophale) SiO2 
 PCOD9308597
Probable space group: C 2/C
;
_chemical_formula_sum "Si O2"
_cell_formula_units_Z 32
_cell_length_a 26.719641
_cell_length_b 5.239475
_cell_length_c 9.221307
_cell_angle_alpha 90.000000
_cell_angle_beta 122.781560
_cell_angle_gamma 90.000000
_cell_volume 1085.358093
_symmetry_space_group_name_H-M "C 2/C"
_symmetry_group_IT_number 15
_symmetry_cell_setting 'monoclinic'
loop_
_space_group_symop_operation_xyz
x,y,z
-x,y,1/2-z
-x,-y,-z
x,-y,1/2+z
1/2+x,1/2+y,z
1/2-x,1/2+y,1/2-z
1/2-x,1/2-y,-z
1/2+x,1/2-y,1/2+z
loop_
_atom_site_type_symbol
_atom_site_label
_atom_site_fract_x
_atom_site_fract_y
_atom_site_fract_z
Si Si1 0.309008 0.922282 0.181368
Si Si2 0.434028 0.053366 0.343219
Si Si3 0.935994 0.136190 0.096157
Si Si4 0.188735 0.072568 0.997594
O O1 0.303577 0.635957 0.117466
O O2 0.376612 0.943853 0.339263
O O3 0.311726 0.140797 0.060675
O O4 0.250885 0.013466 0.177601
O O5 0.431961 0.336874 0.414236
O O6 0.500000 0.000000 0.500000
O O7 0.432768 0.901926 0.187544
O O8 0.000000 0.021343 0.250000
O O9 0.875333 0.991075 0.039418
#
# Coordination Sequence:
#
# PCOD9308597 Si02
#       4
#     8   8   8   8
#     4   9  18  36  60  86 117 158 206 252 306 367
#     4   9  18  36  62  91 126 167 211 260 314 374
#     4   9  18  36  60  93 128 167 212 261 314 373
#     4   9  18  36  60  85 117 158 204 254 305 365
#
# _framework density 29.483353999999999
#
# number of rings (size 3 to 8) (size 9 to 14) (size 15 to 20)
#    0.000    3.000    0.000    0.000    0.000    0.000 
#    0.000   43.750    0.000    0.000    0.000    0.000 
#    0.000    0.000    0.000    0.000    0.000    0.000 
#
# Total GULP energy -89155.633515 kJ/mol
# GULP energy per Si atom -5572.227095 kJ/mol
# Density = 2.941625 g / cm^3
# Si number density = 29.483354 Si / 1000 Ang^3
#
#
#
# Elastic Constant Matrix: (Units=GPa)
#
#
# Indices 1 2 3 4 5 6 
#
# 1 225.2458 59.4773 104.5959 0.0000 54.8940 0.0000
# 2 59.4773 127.6260 52.7740 0.0000 -7.2986 0.0000
# 3 104.5959 52.7740 138.7735 0.0000 16.9628 0.0000
# 4 0.0000 0.0000 0.0000 43.1383 0.0000 -4.5363
# 5 54.8940 -7.2986 16.9628 0.0000 67.2824 0.0000
# 6 0.0000 0.0000 0.0000 -4.5363 0.0000 63.3756
#
#
#
# Elastic Compliance Matrix: (Units=1/GPa)
#
#
# Indices 1 2 3 4 5 6 
#
# 1 0.008976 -0.002451 -0.005061 0.000000 -0.006313 0.000000
# 2 -0.002451 0.010224 -0.002498 0.000000 0.003739 0.000000
# 3 -0.005061 -0.002498 0.011865 0.000000 0.000867 0.000000
# 4 0.000000 0.000000 0.000000 0.023357 0.000000 0.001672
# 5 -0.006313 0.003739 0.000867 0.000000 0.020200 0.000000
# 6 0.000000 0.000000 0.000000 0.001672 0.000000 0.015899
#
#
# Mechanical properties :
#
#
# Convention : Reuss Voigt Hill
#
# Bulk Modulus (GPa) = 90.54449 102.81554 96.68002
# Shear Modulus (GPa) = 43.77450 53.07914 48.42682
#
# Velocity S-wave (km/s) = 3.85739 4.24761 4.05719
# Velocity P-wave (km/s) = 7.11451 7.68143 7.40340
#
# Compressibility (1/GPa) = 0.01104429
#
# Stress axis : x y z
#
# Youngs Moduli (GPa) = 111.41401 97.80650 84.28397
#
# Poissons Ratio (x) = 0.23972 0.42659
# Poissons Ratio (y) = 0.27307 0.21052
# Poissons Ratio (z) = 0.56390 0.24430
#
# Static dielectric constant tensor:
#      x y z
#    x 2.295580 0.000000 -0.034590 
#    y 0.000000 2.571590 0.000000 
#    z -0.034590 0.000000 2.463070 
# 
# From -- ./inp_files/115449.got.cif
#   From: 2010.05.17/outbox.cif.g08.bks.cpg/sg15_58_cif.got.tgz:115449.got - 2010.06.03 18:47:42.
