data_PCOD9308501
_publ_section_title
;
Structure prediction by ZEFSAII (Michael W. Deem and Ramdas Pophale) SiO2 
 PCOD9308501
Probable space group: C 2/C
;
_chemical_formula_sum "Si O2"
_cell_formula_units_Z 44
_cell_length_a 16.778029
_cell_length_b 9.023372
_cell_length_c 15.500191
_cell_angle_alpha 90.000000
_cell_angle_beta 53.363703
_cell_angle_gamma 90.000000
_cell_volume 1883.038535
_symmetry_space_group_name_H-M "C 2/C"
_symmetry_group_IT_number 15
_symmetry_cell_setting 'monoclinic'
loop_
_space_group_symop_operation_xyz
x,y,z
-x,y,1/2-z
-x,-y,-z
x,-y,1/2+z
1/2+x,1/2+y,z
1/2-x,1/2+y,1/2-z
1/2-x,1/2-y,-z
1/2+x,1/2-y,1/2+z
loop_
_atom_site_type_symbol
_atom_site_label
_atom_site_fract_x
_atom_site_fract_y
_atom_site_fract_z
Si Si1 0.392313 0.796704 0.055253
Si Si2 0.961051 0.555828 0.137806
Si Si3 0.132468 0.150794 0.254854
Si Si4 0.500000 0.446579 0.250000
Si Si5 0.714821 0.576855 0.580220
Si Si6 0.642247 0.042638 0.641583
O O1 0.363386 0.682186 0.147358
O O2 0.300241 0.809334 0.050113
O O3 0.413588 0.946626 0.097938
O O4 0.494715 0.796623 0.934512
O O5 0.884302 0.572705 0.265165
O O6 0.056470 0.476108 0.123426
O O7 0.135315 0.299796 0.194947
O O8 0.031172 0.060448 0.305032
O O9 0.212834 0.042529 0.160399
O O10 0.398767 0.369557 0.344302
O O11 0.753670 0.489386 0.471533
#
# Coordination Sequence:
#
# PCOD9308501 Si02
#       6
#     8   8   8   4   8   8
#     4   9  15  27  42  67 102 126 151 205 258 281
#     4   8  15  23  43  67  94 119 155 201 254 283
#     4   9  16  27  43  67 100 124 159 203 240 294
#     4   8  18  28  42  72  98 124 170 192 238 296
#     4   9  18  27  44  72  96 130 160 201 245 294
#     4   9  14  26  43  69  94 117 156 208 242 281
#
# _framework density 23.366489000000001
#
# number of rings (size 3 to 8) (size 9 to 14) (size 15 to 20)
#    1.091    2.182    0.000    2.727    0.000    0.000 
#    0.000    0.000    0.000    4.364    0.000   38.182 
#    0.000    0.000    0.000    0.364    0.000    0.000 
#
# Total GULP energy -122548.329617 kJ/mol
# GULP energy per Si atom -5570.378619 kJ/mol
# Density = 2.331331 g / cm^3
# Si number density = 23.366489 Si / 1000 Ang^3
#
#
#
# Elastic Constant Matrix: (Units=GPa)
#
#
# Indices 1 2 3 4 5 6 
#
# 1 79.7556 4.8566 36.1127 0.0000 -4.4413 0.0000
# 2 4.8566 52.2172 16.2057 0.0000 -1.8181 0.0000
# 3 36.1127 16.2057 128.8891 0.0000 -20.3880 0.0000
# 4 0.0000 0.0000 0.0000 23.6712 0.0000 -0.1489
# 5 -4.4413 -1.8181 -20.3880 0.0000 37.8361 0.0000
# 6 0.0000 0.0000 0.0000 -0.1489 0.0000 19.2413
#
#
#
# Elastic Compliance Matrix: (Units=1/GPa)
#
#
# Indices 1 2 3 4 5 6 
#
# 1 0.014370 -0.000083 -0.004099 0.000000 -0.000526 0.000000
# 2 -0.000083 0.019935 -0.002551 0.000000 -0.000426 0.000000
# 3 -0.004099 -0.002551 0.009983 0.000000 0.004776 0.000000
# 4 0.000000 0.000000 0.000000 0.042247 0.000000 0.000327
# 5 -0.000526 -0.000426 0.004776 0.000000 0.028921 0.000000
# 6 0.000000 0.000000 0.000000 0.000327 0.000000 0.051974
#
#
# Mechanical properties :
#
#
# Convention : Reuss Voigt Hill
#
# Bulk Modulus (GPa) = 32.44276 41.69019 37.06648
# Shear Modulus (GPa) = 26.15463 29.72885 27.94174
#
# Velocity S-wave (km/s) = 3.34926 3.57078 3.46179
# Velocity P-wave (km/s) = 5.37319 5.90603 5.64590
#
# Compressibility (1/GPa) = 0.03082352
#
# Stress axis : x y z
#
# Youngs Moduli (GPa) = 69.58904 50.16239 100.16764
#
# Poissons Ratio (x) = 0.00415 0.41059
# Poissons Ratio (y) = 0.00575 0.25551
# Poissons Ratio (z) = 0.28525 0.12795
#
# Static dielectric constant tensor:
#      x y z
#    x 1.904620 0.000000 0.014810 
#    y 0.000000 1.911110 0.000000 
#    z 0.014810 0.000000 1.928400 
# 
# From -- ./inp_files/214398.got.cif
#   From: 2010.05.17/outbox.cif.g08.bks.cpg/sg15_108_cif.got.tgz:214398.got - 2010.06.03 18:47:42.
