data_PCOD9308570
_publ_section_title
;
Structure prediction by ZEFSAII (Michael W. Deem and Ramdas Pophale) SiO2 
 PCOD9308570
Probable space group: C 2/C
;
_chemical_formula_sum "Si O2"
_cell_formula_units_Z 48
_cell_length_a 14.002673
_cell_length_b 19.814882
_cell_length_c 7.362121
_cell_angle_alpha 90.000000
_cell_angle_beta 79.999588
_cell_angle_gamma 90.000000
_cell_volume 2011.667950
_symmetry_space_group_name_H-M "C 2/C"
_symmetry_group_IT_number 15
_symmetry_cell_setting 'monoclinic'
loop_
_space_group_symop_operation_xyz
x,y,z
-x,y,1/2-z
-x,-y,-z
x,-y,1/2+z
1/2+x,1/2+y,z
1/2-x,1/2+y,1/2-z
1/2-x,1/2-y,-z
1/2+x,1/2-y,1/2+z
loop_
_atom_site_type_symbol
_atom_site_label
_atom_site_fract_x
_atom_site_fract_y
_atom_site_fract_z
Si Si1 0.799528 0.805385 0.280581
Si Si2 0.000000 0.476756 0.250000
Si Si3 0.582785 0.574215 0.445975
Si Si4 0.500000 0.780765 0.750000
Si Si5 0.409742 0.101802 0.065084
Si Si6 0.124474 0.932809 0.360666
Si Si7 0.225381 0.170551 0.294701
O O1 0.809944 0.867493 0.138913
O O2 0.756455 0.826697 0.491055
O O3 0.732192 0.746566 0.226299
O O4 0.904673 0.767743 0.281679
O O5 0.058827 0.531415 0.349552
O O6 0.921697 0.424325 0.357729
O O7 0.649817 0.511267 0.363648
O O8 0.467537 0.566758 0.473134
O O9 0.596984 0.579544 0.658341
O O10 0.620601 0.637902 0.325872
O O11 0.518658 0.835280 0.906757
O O12 0.307469 0.125979 0.174971
#
# Coordination Sequence:
#
# PCOD9308570 Si02
#       7
#     8   4   8   4   8   8   8
#     4   9  16  28  48  71  95 125 162 195 231 286
#     4   9  18  34  48  68  96 125 160 194 240 295
#     4   9  17  29  47  72  96 120 154 195 237 278
#     4   9  16  30  50  70  92 127 164 192 232 287
#     4   9  18  30  50  71  93 125 159 198 240 284
#     4   9  17  30  49  69  94 128 157 189 236 289
#     4   9  17  28  47  73  96 118 156 203 236 270
#
# _framework density 23.860797000000002
#
# number of rings (size 3 to 8) (size 9 to 14) (size 15 to 20)
#    0.000    3.000    0.000    2.000    0.000    2.667 
#    0.000    1.667    0.000   26.000    0.000    0.000 
#    0.000    0.000    0.000    0.000    0.000    0.000 
#
# Total GULP energy -133627.536629 kJ/mol
# GULP energy per Si atom -5567.814026 kJ/mol
# Density = 2.380649 g / cm^3
# Si number density = 23.860797 Si / 1000 Ang^3
#
#
#
# Elastic Constant Matrix: (Units=GPa)
#
#
# Indices 1 2 3 4 5 6 
#
# 1 32.7882 24.8177 16.2862 0.0000 -6.3270 0.0000
# 2 24.8177 167.8115 50.7768 0.0000 -24.7475 0.0000
# 3 16.2862 50.7768 69.3073 0.0000 -20.8752 0.0000
# 4 0.0000 0.0000 0.0000 12.7272 0.0000 -21.9922
# 5 -6.3270 -24.7475 -20.8752 0.0000 26.6790 0.0000
# 6 0.0000 0.0000 0.0000 -21.9922 0.0000 30.3854
#
#
#
# Elastic Compliance Matrix: (Units=1/GPa)
#
#
# Indices 1 2 3 4 5 6 
#
# 1 0.036130 -0.003500 -0.005656 0.000000 0.000896 0.000000
# 2 -0.003500 0.008261 -0.004150 0.000000 0.003586 0.000000
# 3 -0.005656 -0.004150 0.022549 0.000000 0.012453 0.000000
# 4 0.000000 0.000000 0.000000 -0.313468 0.000000 -0.226880
# 5 0.000896 0.003586 0.012453 0.000000 0.050765 0.000000
# 6 0.000000 0.000000 0.000000 -0.226880 0.000000 -0.131299
#
#
# Mechanical properties :
#
#
# Convention : Reuss Voigt Hill
#
# Bulk Modulus (GPa) = 24.79630 50.40760 37.60195
# Shear Modulus (GPa) = -17.42114 25.82675 4.20281
#
# Velocity S-wave (km/s) = -2.70500 3.29354 1.32861
# Velocity P-wave (km/s) = 0.81156 5.96949 4.25990
#
# Compressibility (1/GPa) = 0.04032859
#
# Stress axis : x y z
#
# Youngs Moduli (GPa) = 27.67770 121.04836 44.34849
#
# Poissons Ratio (x) = 0.42363 0.25084
# Poissons Ratio (y) = 0.09686 0.18404
# Poissons Ratio (z) = 0.15655 0.50234
#
# Static dielectric constant tensor:
#      x y z
#    x 2.006080 0.000000 0.036550 
#    y 0.000000 1.978080 0.000000 
#    z 0.036550 0.000000 1.968370 
# 
# From -- ./inp_files/49635.got.cif
#   From: 2010.05.17/outbox.cif.g08.bks.cpg/sg15_25_cif.got.tgz:49635.got - 2010.06.03 18:47:42.
