data_PCOD9308683
_publ_section_title
;
Structure prediction by ZEFSAII (Michael W. Deem and Ramdas Pophale) SiO2 
 PCOD9308683
Probable space group: C 2/C
;
_chemical_formula_sum "Si O2"
_cell_formula_units_Z 32
_cell_length_a 27.000000
_cell_length_b 12.000000
_cell_length_c 15.000000
_cell_angle_alpha 90.000000
_cell_angle_beta 40.000000
_cell_angle_gamma 90.000000
_cell_volume 3123.947783
_symmetry_space_group_name_H-M "C 2/C"
_symmetry_group_IT_number 15
_symmetry_cell_setting 'monoclinic'
loop_
_space_group_symop_operation_xyz
x,y,z
-x,y,1/2-z
-x,-y,-z
x,-y,1/2+z
1/2+x,1/2+y,z
1/2-x,1/2+y,1/2-z
1/2-x,1/2-y,-z
1/2+x,1/2-y,1/2+z
loop_
_atom_site_type_symbol
_atom_site_label
_atom_site_fract_x
_atom_site_fract_y
_atom_site_fract_z
Si Si1 0.231673 0.491608 0.880703
Si Si2 0.408404 0.602120 0.898105
Si Si3 0.913009 0.774242 0.128000
Si Si4 0.668562 0.803214 0.581549
Si Si5 0.026781 0.772315 0.817306
Si Si6 0.821788 0.083045 0.616404
Si Si7 0.100141 0.001476 0.770491
Si Si8 0.819396 0.731127 0.971100
O O1 0.241900 0.533449 0.764632
O O2 0.321754 0.473901 0.784536
O O3 0.190684 0.580775 0.002737
O O4 0.191700 0.373747 0.949286
O O5 0.500000 0.600622 0.750000
O O6 0.374535 0.726717 0.934262
O O7 0.369870 0.545115 0.865358
O O8 0.380415 0.521174 0.016566
O O9 0.883066 0.703044 0.254833
O O10 0.845307 0.827632 0.160854
O O11 0.943886 0.890981 0.128655
O O12 0.970537 0.726844 0.972593
O O13 0.750000 0.750000 0.500000
O O14 0.047922 0.895907 0.822285
O O15 0.106965 0.710395 0.693106
O O16 0.000000 0.779901 0.750000
O O17 0.824236 0.158680 0.525167
O O18 0.750000 0.750000 0.000000
#
# Coordination Sequence:
#
# PCOD9308683 Si02
#       8
#     8   8   8   8   8   8   8   8
#     4  11  24  42  63  97 127 176 217 264 315 405
#     4  11  21  36  63  96 127 157 206 277 324 374
#     4  10  21  36  65  94 125 167 211 260 333 379
#     4  11  22  43  63  88 133 174 212 255 322 393
#     4  12  21  38  62  94 131 163 215 269 327 379
#     4  11  22  38  67  98 127 162 211 278 332 372
#     4  10  18  36  61  91 129 152 201 271 328 378
#     4  12  25  44  63  96 136 172 215 268 329 392
#
# _framework density 10.243449
#
# number of rings (size 3 to 8) (size 9 to 14) (size 15 to 20)
#    0.000    1.000    7.500    1.500    1.750    3.000 
#    0.000    1.250    0.000    0.000    0.000    0.000 
#    0.000    0.000    0.000    0.000    0.000    0.000 
#
# Total GULP energy -178165.637400 kJ/mol
# GULP energy per Si atom -5567.676169 kJ/mol
# Density = 1.022013 g / cm^3
# Si number density = 10.243449 Si / 1000 Ang^3
#
#
#
# Elastic Constant Matrix: (Units=GPa)
#
#
# Indices 1 2 3 4 5 6 
#
# 1 36.8115 15.8926 15.3000 0.0000 1.6170 0.0000
# 2 15.8926 84.5791 53.0479 0.0000 -0.4086 0.0000
# 3 15.3000 53.0479 178.1222 0.0000 11.1809 0.0000
# 4 0.0000 0.0000 0.0000 40.1575 0.0000 1.0738
# 5 1.6170 -0.4086 11.1809 0.0000 28.1568 0.0000
# 6 0.0000 0.0000 0.0000 1.0738 0.0000 15.7231
#
#
#
# Elastic Compliance Matrix: (Units=1/GPa)
#
#
# Indices 1 2 3 4 5 6 
#
# 1 0.029789 -0.004985 -0.000987 0.000000 -0.001391 0.000000
# 2 -0.004985 0.015482 -0.004322 0.000000 0.002227 0.000000
# 3 -0.000987 -0.004322 0.007165 0.000000 -0.002851 0.000000
# 4 0.000000 0.000000 0.000000 0.024948 0.000000 -0.001704
# 5 -0.001391 0.002227 -0.002851 0.000000 0.036760 0.000000
# 6 0.000000 0.000000 0.000000 -0.001704 0.000000 0.063717
#
#
# Mechanical properties :
#
#
# Convention : Reuss Voigt Hill
#
# Bulk Modulus (GPa) = 31.39997 51.99932 41.69965
# Shear Modulus (GPa) = 23.91605 31.15895 27.53750
#
# Velocity S-wave (km/s) = 3.42040 3.90413 3.67025
# Velocity P-wave (km/s) = 5.56408 6.76460 6.19350
#
# Compressibility (1/GPa) = 0.03184716
#
# Stress axis : x y z
#
# Youngs Moduli (GPa) = 33.56948 64.59238 139.56496
#
# Poissons Ratio (x) = 0.32201 0.13771
# Poissons Ratio (y) = 0.16735 0.60324
# Poissons Ratio (z) = 0.03312 0.27919
#
# Static dielectric constant tensor:
#      x y z
#    x 1.830820 0.000000 0.022940 
#    y 0.000000 1.764160 0.000000 
#    z 0.022940 0.000000 1.789620 
# 
# From -- ./inp_files/177833.got.cif
#   From: 2010.05.17/outbox.ucp.g08.bks.cvg/sg15_89_cif.got.tgz:177833.got - 2010.06.11 12:40:34.
