data_PCOD9308820
_publ_section_title
;
Structure prediction by ZEFSAII (Michael W. Deem and Ramdas Pophale) SiO2 
 PCOD9308820
Probable space group: C 2/C
;
_chemical_formula_sum "Si O2"
_cell_formula_units_Z 32
_cell_length_a 15.000000
_cell_length_b 12.000000
_cell_length_c 18.000000
_cell_angle_alpha 90.000000
_cell_angle_beta 90.000000
_cell_angle_gamma 90.000000
_cell_volume 3240.000000
_symmetry_space_group_name_H-M "C 2/C"
_symmetry_group_IT_number 15
_symmetry_cell_setting 'monoclinic'
loop_
_space_group_symop_operation_xyz
x,y,z
-x,y,1/2-z
-x,-y,-z
x,-y,1/2+z
1/2+x,1/2+y,z
1/2-x,1/2+y,1/2-z
1/2-x,1/2-y,-z
1/2+x,1/2-y,1/2+z
loop_
_atom_site_type_symbol
_atom_site_label
_atom_site_fract_x
_atom_site_fract_y
_atom_site_fract_z
Si Si1 0.898120 0.183645 0.573406
Si Si2 0.059016 0.142021 0.381741
Si Si3 0.694575 0.364788 0.274587
Si Si4 0.251364 0.374432 0.697607
Si Si5 0.665750 0.524463 0.512185
Si Si6 0.360482 0.942982 0.944134
Si Si7 0.524431 0.154742 0.537624
Si Si8 0.060996 0.068339 0.652478
O O1 0.827208 0.163605 0.639302
O O2 0.870111 0.097343 0.509198
O O3 0.913970 0.297303 0.529402
O O4 0.991679 0.151419 0.612441
O O5 0.147770 0.147796 0.331535
O O6 0.004220 0.252785 0.401901
O O7 0.993106 0.048344 0.348312
O O8 0.102053 0.100050 0.459799
O O9 0.742621 0.491606 0.273170
O O10 0.729934 0.243023 0.242466
O O11 0.603199 0.390247 0.229127
O O12 0.178077 0.383714 0.630521
O O13 0.768666 0.535770 0.489533
O O14 0.644574 0.553174 0.596628
O O15 0.431605 0.879722 0.996963
O O16 0.417527 0.054947 0.927036
#
# Coordination Sequence:
#
# PCOD9308820 Si02
#       8
#     8   8   8   8   8   8   8   8
#     4  11  20  41  65  97 133 174 224 283 328 407
#     4  10  20  40  67  95 131 169 230 279 331 400
#     4  12  26  43  69  97 143 182 229 270 350 410
#     4  11  26  47  66  95 139 182 227 281 336 418
#     4  10  19  38  66  94 128 165 229 277 331 388
#     4  10  24  41  60  99 139 166 223 290 344 395
#     4  11  22  39  69  97 131 174 222 289 349 394
#     4  11  20  37  68 103 123 176 226 278 325 408
#
# _framework density 9.8765429999999999
#
# number of rings (size 3 to 8) (size 9 to 14) (size 15 to 20)
#    0.000    1.250    6.250    1.875    1.750    3.500 
#    2.250    0.000    0.000    0.000    0.000    0.000 
#    0.000    0.000    0.000    0.000    0.000    0.000 
#
# Total GULP energy -178306.296782 kJ/mol
# GULP energy per Si atom -5572.071774 kJ/mol
# Density = 0.985406 g / cm^3
# Si number density = 9.876543 Si / 1000 Ang^3
#
#
#
# Elastic Constant Matrix: (Units=GPa)
#
#
# Indices 1 2 3 4 5 6 
#
# 1 56.0819 25.9403 9.0953 0.0000 -13.7874 0.0000
# 2 25.9403 106.7567 20.3691 0.0000 -11.1523 0.0000
# 3 9.0953 20.3691 52.7966 0.0000 -8.0360 0.0000
# 4 0.0000 0.0000 0.0000 28.2854 0.0000 -6.8788
# 5 -13.7874 -11.1523 -8.0360 0.0000 22.3279 0.0000
# 6 0.0000 0.0000 0.0000 -6.8788 0.0000 26.0679
#
#
#
# Elastic Compliance Matrix: (Units=1/GPa)
#
#
# Indices 1 2 3 4 5 6 
#
# 1 0.022750 -0.004202 -0.000507 0.000000 0.011767 0.000000
# 2 -0.004202 0.011212 -0.003326 0.000000 0.001808 0.000000
# 3 -0.000507 -0.003326 0.021171 0.000000 0.005645 0.000000
# 4 0.000000 0.000000 0.000000 0.037778 0.000000 0.009969
# 5 0.011767 0.001808 0.005645 0.000000 0.054988 0.000000
# 6 0.000000 0.000000 0.000000 0.009969 0.000000 0.040992
#
#
# Mechanical properties :
#
#
# Convention : Reuss Voigt Hill
#
# Bulk Modulus (GPa) = 25.60091 36.27162 30.93626
# Shear Modulus (GPa) = 22.93781 26.01827 24.47804
#
# Velocity S-wave (km/s) = 3.41137 3.63323 3.52405
# Velocity P-wave (km/s) = 5.33903 6.00024 5.67926
#
# Compressibility (1/GPa) = 0.03906112
#
# Stress axis : x y z
#
# Youngs Moduli (GPa) = 43.95680 89.19292 47.23552
#
# Poissons Ratio (x) = 0.37478 0.02395
# Poissons Ratio (y) = 0.18470 0.15713
# Poissons Ratio (z) = 0.02229 0.29669
#
# Static dielectric constant tensor:
#      x y z
#    x 1.682870 0.000000 -0.034370 
#    y 0.000000 1.751830 0.000000 
#    z -0.034370 0.000000 1.710210 
# 
# From -- ./inp_files/204487.got.cif
#   From: 2010.05.17/outbox.ucp.g08.bks.cvg/sg15_103_cif.got.tgz:204487.got - 2010.06.11 12:40:34.
