data_PCOD9308477
_publ_section_title
;
Structure prediction by ZEFSAII (Michael W. Deem and Ramdas Pophale) SiO2 
 PCOD9308477
Probable space group: C 2/C
;
_chemical_formula_sum "Si O2"
_cell_formula_units_Z 40
_cell_length_a 22.886327
_cell_length_b 6.955164
_cell_length_c 13.920088
_cell_angle_alpha 90.000000
_cell_angle_beta 37.729933
_cell_angle_gamma 90.000000
_cell_volume 1355.921417
_symmetry_space_group_name_H-M "C 2/C"
_symmetry_group_IT_number 15
_symmetry_cell_setting 'monoclinic'
loop_
_space_group_symop_operation_xyz
x,y,z
-x,y,1/2-z
-x,-y,-z
x,-y,1/2+z
1/2+x,1/2+y,z
1/2-x,1/2+y,1/2-z
1/2-x,1/2-y,-z
1/2+x,1/2-y,1/2+z
loop_
_atom_site_type_symbol
_atom_site_label
_atom_site_fract_x
_atom_site_fract_y
_atom_site_fract_z
Si Si1 0.471000 0.938771 0.176318
Si Si2 0.729783 0.019552 0.522721
Si Si3 0.171478 0.405693 0.892514
Si Si4 0.573154 0.482528 0.283997
Si Si5 0.128453 0.983659 0.934565
O O1 0.500000 0.972129 0.250000
O O2 0.366205 0.028488 0.293827
O O3 0.448590 0.710554 0.197505
O O4 0.568703 0.983338 0.991328
O O5 0.750000 0.250000 0.500000
O O6 0.701505 0.982916 0.449065
O O7 0.834619 0.928708 0.399501
O O8 0.147845 0.189418 0.956053
O O9 0.267479 0.388744 0.705214
O O10 0.469538 0.389859 0.399992
O O11 0.601729 0.463427 0.358368
#
# Coordination Sequence:
#
# PCOD9308477 Si02
#       5
#     8   8   8   8   8
#     4   8  13  22  39  65  84 100 138 183 206 226
#     4   8  13  23  41  63  81  99 136 183 207 225
#     4   9  16  25  40  64  85 109 136 167 207 246
#     4   8  14  24  40  59  81 109 132 163 209 247
#     4   9  16  26  40  60  88 111 136 163 202 253
#
# _framework density 29.500236000000001
#
# number of rings (size 3 to 8) (size 9 to 14) (size 15 to 20)
#    0.000    3.600    0.000    0.000    0.000    0.000 
#    0.000    0.000    0.000   43.200    0.000  106.400 
#    0.000    0.000    0.000    0.000    0.000    0.000 
#
# Total GULP energy -111797.796176 kJ/mol
# GULP energy per Si atom -5589.889809 kJ/mol
# Density = 2.943309 g / cm^3
# Si number density = 29.500236 Si / 1000 Ang^3
#
#
#
# Elastic Constant Matrix: (Units=GPa)
#
#
# Indices 1 2 3 4 5 6 
#
# 1 134.6635 23.9742 93.3286 0.0003 -36.7360 -0.0005
# 2 23.9742 98.3448 14.3773 0.0003 -2.3516 -0.0020
# 3 93.3286 14.3773 388.1420 0.0024 -79.3747 -0.0011
# 4 0.0003 0.0003 0.0024 31.7066 -0.0021 6.3032
# 5 -36.7360 -2.3516 -79.3747 -0.0021 70.0505 0.0015
# 6 -0.0005 -0.0020 -0.0011 6.3032 0.0015 13.4398
#
#
#
# Elastic Compliance Matrix: (Units=1/GPa)
#
#
# Indices 1 2 3 4 5 6 
#
# 1 0.009799 -0.002075 -0.001618 0.000000 0.003236 -0.000001
# 2 -0.002075 0.010664 -0.000059 0.000000 -0.000797 0.000002
# 3 -0.001618 -0.000059 0.003636 0.000000 0.003270 0.000000
# 4 0.000000 0.000000 0.000000 0.034782 0.000002 -0.016313
# 5 0.003236 -0.000797 0.003270 0.000002 0.019651 -0.000003
# 6 -0.000001 0.000002 0.000000 -0.016313 -0.000003 0.082057
#
#
# Mechanical properties :
#
#
# Convention : Reuss Voigt Hill
#
# Bulk Modulus (GPa) = 60.25540 98.27893 79.26717
# Shear Modulus (GPa) = 28.79785 55.67072 42.23429
#
# Velocity S-wave (km/s) = 3.12779 4.34882 3.78783
# Velocity P-wave (km/s) = 5.78912 7.65528 6.78665
#
# Compressibility (1/GPa) = 0.01659602
#
# Stress axis : x y z
#
# Youngs Moduli (GPa) = 102.04870 93.77591 275.01238
#
# Poissons Ratio (x) = 0.19458 0.44484
# Poissons Ratio (y) = 0.21175 0.01625
# Poissons Ratio (z) = 0.16506 0.00554
#
# Static dielectric constant tensor:
#      x y z
#    x 2.236860 0.000000 -0.019880 
#    y 0.000000 2.642890 0.000000 
#    z -0.019880 0.000000 2.433220 
# 
# From -- ./inp_files/158808.got.cif
#   From: 2010.05.17/outbox.cif.g08.bks.cpg/sg15_80_cif.got.tgz:158808.got - 2010.06.03 18:47:42.
