data_PCOD9308384
_publ_section_title
;
Structure prediction by ZEFSAII (Michael W. Deem and Ramdas Pophale) SiO2 
 PCOD9308384
Probable space group: C 2/C
;
_chemical_formula_sum "Si O2"
_cell_formula_units_Z 24
_cell_length_a 10.304212
_cell_length_b 8.935824
_cell_length_c 18.318778
_cell_angle_alpha 90.000000
_cell_angle_beta 25.477174
_cell_angle_gamma 90.000000
_cell_volume 725.549948
_symmetry_space_group_name_H-M "C 2/C"
_symmetry_group_IT_number 15
_symmetry_cell_setting 'monoclinic'
loop_
_space_group_symop_operation_xyz
x,y,z
-x,y,1/2-z
-x,-y,-z
x,-y,1/2+z
1/2+x,1/2+y,z
1/2-x,1/2+y,1/2-z
1/2-x,1/2-y,-z
1/2+x,1/2-y,1/2+z
loop_
_atom_site_type_symbol
_atom_site_label
_atom_site_fract_x
_atom_site_fract_y
_atom_site_fract_z
Si Si1 0.141200 0.125710 0.594102
Si Si2 0.292615 0.077720 0.290106
Si Si3 0.692449 0.186736 0.449971
O O1 0.368589 0.985620 0.501113
O O2 0.000000 0.136305 0.750000
O O3 0.904682 0.034068 0.659307
O O4 0.037867 0.308997 0.623950
O O5 0.500000 0.012142 0.250000
O O6 0.053761 0.191701 0.449954
O O7 0.750000 0.250000 0.500000
O O8 0.000000 0.192241 0.250000
#
# Coordination Sequence:
#
# PCOD9308384 Si02
#       3
#     8   8   8
#     4   8  23  42  71  99 141 188 240 282 364 419
#     4   9  22  43  72  97 143 191 237 284 367 424
#     4  12  28  45  74 113 147 185 246 306 355 428
#
# _framework density 33.078356999999997
#
# number of rings (size 3 to 8) (size 9 to 14) (size 15 to 20)
#    2.000    0.000    0.000    1.000   14.000    4.000 
#    0.000    3.333    0.000    0.000    0.000    0.000 
#    0.000    0.000    0.000    0.000    0.000    0.000 
#
# Total GULP energy -67188.749576 kJ/mol
# GULP energy per Si atom -5599.062465 kJ/mol
# Density = 3.300307 g / cm^3
# Si number density = 33.078357 Si / 1000 Ang^3
#
#
#
# Elastic Constant Matrix: (Units=GPa)
#
#
# Indices 1 2 3 4 5 6 
#
# 1 303.3685 132.5244 72.8108 -0.0141 -23.1535 0.0005
# 2 132.5244 356.5603 144.3985 -0.0154 18.3736 0.0001
# 3 72.8108 144.3985 323.1112 -0.0983 12.3827 -0.0079
# 4 -0.0141 -0.0154 -0.0983 88.1941 0.0244 -11.3728
# 5 -23.1535 18.3736 12.3827 0.0244 80.2897 0.0030
# 6 0.0005 0.0001 -0.0079 -11.3728 0.0030 40.1091
#
#
#
# Elastic Compliance Matrix: (Units=1/GPa)
#
#
# Indices 1 2 3 4 5 6 
#
# 1 0.004147 -0.001490 -0.000330 0.000000 0.001588 0.000000
# 2 -0.001490 0.003984 -0.001402 -0.000001 -0.001125 0.000000
# 3 -0.000330 -0.001402 0.003809 0.000004 -0.000362 0.000002
# 4 0.000000 -0.000001 0.000004 0.011769 -0.000004 0.003337
# 5 0.001588 -0.001125 -0.000362 -0.000004 0.013226 -0.000002
# 6 0.000000 0.000000 0.000002 0.003337 -0.000002 0.025878
#
#
# Mechanical properties :
#
#
# Convention : Reuss Voigt Hill
#
# Bulk Modulus (GPa) = 181.86141 186.94528 184.40334
# Shear Modulus (GPa) = 70.33444 83.93899 77.13672
#
# Velocity S-wave (km/s) = 4.61618 5.04291 4.83425
# Velocity P-wave (km/s) = 9.13841 9.51559 9.32891
#
# Compressibility (1/GPa) = 0.00549869
#
# Stress axis : x y z
#
# Youngs Moduli (GPa) = 241.11280 251.01165 262.50732
#
# Poissons Ratio (x) = 0.37396 0.08653
# Poissons Ratio (y) = 0.35921 0.36792
# Poissons Ratio (z) = 0.07948 0.35181
#
# Static dielectric constant tensor:
#      x y z
#    x 2.548650 0.000000 -0.005970 
#    y 0.000000 2.678530 0.000040 
#    z -0.005970 0.000040 3.209740 
# 
# From -- ./inp_files/236397.got.cif
#   From: 2010.05.17/outbox.cif.g08.bks.cpg/sg15_119_cif.got.tgz:236397.got - 2010.06.03 18:47:42.
