data_PCOD9308107
_publ_section_title
;
Structure prediction by ZEFSAII (Michael W. Deem and Ramdas Pophale) SiO2 
 PCOD9308107
Probable space group: C 2/C
;
_chemical_formula_sum "Si O2"
_cell_formula_units_Z 28
_cell_length_a 25.547740
_cell_length_b 9.410177
_cell_length_c 11.774674
_cell_angle_alpha 90.000000
_cell_angle_beta 27.268897
_cell_angle_gamma 90.000000
_cell_volume 1296.949522
_symmetry_space_group_name_H-M "C 2/C"
_symmetry_group_IT_number 15
_symmetry_cell_setting 'monoclinic'
loop_
_space_group_symop_operation_xyz
x,y,z
-x,y,1/2-z
-x,-y,-z
x,-y,1/2+z
1/2+x,1/2+y,z
1/2-x,1/2+y,1/2-z
1/2-x,1/2-y,-z
1/2+x,1/2-y,1/2+z
loop_
_atom_site_type_symbol
_atom_site_label
_atom_site_fract_x
_atom_site_fract_y
_atom_site_fract_z
Si Si1 0.877359 0.707837 0.435685
Si Si2 0.297163 0.515918 0.600949
Si Si3 0.000000 0.219488 0.250000
Si Si4 0.099446 0.604586 0.348943
O O1 0.784329 0.591909 0.650676
O O2 0.842422 0.861571 0.550422
O O3 0.882597 0.712068 0.289657
O O4 0.000000 0.667522 0.250000
O O5 0.404340 0.619269 0.376858
O O6 0.213521 0.484195 0.656663
O O7 0.939331 0.314944 0.462472
O O8 0.000000 0.500000 0.500000
#
# Coordination Sequence:
#
# PCOD9308107 Si02
#       4
#     8   8   4   8
#     4  12  26  48  73 108 146 191 242 297 359 429
#     4  12  26  46  74 106 147 188 240 294 361 430
#     4  12  28  46  74 110 144 192 242 294 364 432
#     4  12  26  47  75 107 149 189 240 301 361 426
#
# _framework density 21.589122
#
# number of rings (size 3 to 8) (size 9 to 14) (size 15 to 20)
#    0.000    0.000    7.143    2.571    0.000    4.571 
#    0.000    0.000    0.000    0.000    0.000    0.000 
#    0.000    0.000    0.000    0.000    0.000    0.000 
#
# Total GULP energy -78353.305538 kJ/mol
# GULP energy per Si atom -5596.664681 kJ/mol
# Density = 2.153998 g / cm^3
# Si number density = 21.589122 Si / 1000 Ang^3
#
#
#
# Elastic Constant Matrix: (Units=GPa)
#
#
# Indices 1 2 3 4 5 6 
#
# 1 104.4428 28.8146 26.9806 0.0000 -27.5625 0.0000
# 2 28.8146 126.8527 48.8970 0.0000 -2.6376 0.0000
# 3 26.9806 48.8970 58.5909 0.0000 -31.0857 0.0000
# 4 0.0000 0.0000 0.0000 34.6218 0.0000 -14.6804
# 5 -27.5625 -2.6376 -31.0857 0.0000 47.9452 0.0000
# 6 0.0000 0.0000 0.0000 -14.6804 0.0000 26.2938
#
#
#
# Elastic Compliance Matrix: (Units=1/GPa)
#
#
# Indices 1 2 3 4 5 6 
#
# 1 0.012097 -0.002834 0.000612 0.000000 0.007195 0.000000
# 2 -0.002834 0.015204 -0.017993 0.000000 -0.012459 0.000000
# 3 0.000612 -0.017993 0.047962 0.000000 0.030459 0.000000
# 4 0.000000 0.000000 0.000000 0.037842 0.000000 0.021128
# 5 0.007195 -0.012459 0.030459 0.000000 0.044056 0.000000
# 6 0.000000 0.000000 0.000000 0.021128 0.000000 0.049828
#
#
# Mechanical properties :
#
#
# Convention : Reuss Voigt Hill
#
# Bulk Modulus (GPa) = 28.70914 55.47454 42.09184
# Shear Modulus (GPa) = 19.30271 34.11843 26.71057
#
# Velocity S-wave (km/s) = 2.99338 3.97968 3.52123
# Velocity P-wave (km/s) = 5.02732 6.84606 6.00593
#
# Compressibility (1/GPa) = 0.03483212
#
# Stress axis : x y z
#
# Youngs Moduli (GPa) = 82.66313 65.77365 20.84994
#
# Poissons Ratio (x) = 0.18642 -0.01277
# Poissons Ratio (y) = 0.23429 0.37516
# Poissons Ratio (z) = -0.05061 1.18348
#
# Static dielectric constant tensor:
#      x y z
#    x 1.763180 0.000000 -0.020300 
#    y 0.000000 1.778840 0.000000 
#    z -0.020300 0.000000 1.788860 
# 
# From -- ./inp_files/93098.got.cif
#   From: 2010.05.17/outbox.cif.g08.bks.cpg/sg15_47_cif.got.tgz:93098.got - 2010.06.03 18:47:42.
