data_PCOD9308580
_publ_section_title
;
Structure prediction by ZEFSAII (Michael W. Deem and Ramdas Pophale) SiO2 
 PCOD9308580
Probable space group: C 2/C
;
_chemical_formula_sum "Si O2"
_cell_formula_units_Z 32
_cell_length_a 12.659817
_cell_length_b 12.787460
_cell_length_c 12.204930
_cell_angle_alpha 90.000000
_cell_angle_beta 134.280601
_cell_angle_gamma 90.000000
_cell_volume 1414.545953
_symmetry_space_group_name_H-M "C 2/C"
_symmetry_group_IT_number 15
_symmetry_cell_setting 'monoclinic'
loop_
_space_group_symop_operation_xyz
x,y,z
-x,y,1/2-z
-x,-y,-z
x,-y,1/2+z
1/2+x,1/2+y,z
1/2-x,1/2+y,1/2-z
1/2-x,1/2-y,-z
1/2+x,1/2-y,1/2+z
loop_
_atom_site_type_symbol
_atom_site_label
_atom_site_fract_x
_atom_site_fract_y
_atom_site_fract_z
Si Si1 0.174789 0.521313 0.406052
Si Si2 0.315144 0.167792 0.736765
Si Si3 0.354636 0.222572 0.208753
Si Si4 0.358998 0.858690 0.947940
O O1 0.235004 0.436153 0.362668
O O2 0.232388 0.638726 0.429578
O O3 0.190998 0.467896 0.536359
O O4 0.000000 0.527471 0.250000
O O5 0.238121 0.188077 0.798369
O O6 0.489692 0.167533 0.880489
O O7 0.263631 0.268980 0.631010
O O8 0.500000 0.256590 0.250000
O O9 0.394817 0.149544 0.344929
#
# Coordination Sequence:
#
# PCOD9308580 Si02
#       4
#     8   8   8   8
#     4   9  17  33  56  79 102 137 183 218 251 312
#     4   9  19  34  55  81 106 138 177 219 264 309
#     4   9  20  33  53  83 105 140 176 219 262 310
#     4   9  19  35  57  79 106 136 182 218 261 309
#
# _framework density 22.622102000000002
#
# number of rings (size 3 to 8) (size 9 to 14) (size 15 to 20)
#    1.500    1.500    0.000    0.750    0.000   10.000 
#    0.000    1.250    0.000    4.500    0.000    0.000 
#    0.000    0.000    0.000    0.000    0.000    0.000 
#
# Total GULP energy -89130.951737 kJ/mol
# GULP energy per Si atom -5570.684484 kJ/mol
# Density = 2.257061 g / cm^3
# Si number density = 22.622102 Si / 1000 Ang^3
#
#
#
# Elastic Constant Matrix: (Units=GPa)
#
#
# Indices 1 2 3 4 5 6 
#
# 1 76.4572 44.5105 32.1197 0.0000 -25.3925 0.0000
# 2 44.5105 98.5555 7.2186 0.0000 2.9620 0.0000
# 3 32.1197 7.2186 66.3247 0.0000 -11.7357 0.0000
# 4 0.0000 0.0000 0.0000 33.6585 0.0000 -9.4104
# 5 -25.3925 2.9620 -11.7357 0.0000 29.9622 0.0000
# 6 0.0000 0.0000 0.0000 -9.4104 0.0000 22.1300
#
#
#
# Elastic Compliance Matrix: (Units=1/GPa)
#
#
# Indices 1 2 3 4 5 6 
#
# 1 0.036997 -0.016765 -0.011014 0.000000 0.028697 0.000000
# 2 -0.016765 0.017893 0.003593 0.000000 -0.014569 0.000000
# 3 -0.011014 0.003593 0.019669 0.000000 -0.001986 0.000000
# 4 0.000000 0.000000 0.000000 0.033719 0.000000 0.014338
# 5 0.028697 -0.014569 -0.001986 0.000000 0.058358 0.000000
# 6 0.000000 0.000000 0.000000 0.014338 0.000000 0.051285
#
#
# Mechanical properties :
#
#
# Convention : Reuss Voigt Hill
#
# Bulk Modulus (GPa) = 38.18638 45.44833 41.81736
# Shear Modulus (GPa) = 18.18045 27.64938 22.91492
#
# Velocity S-wave (km/s) = 2.83796 3.49983 3.18613
# Velocity P-wave (km/s) = 5.25885 6.03868 5.66220
#
# Compressibility (1/GPa) = 0.02618734
#
# Stress axis : x y z
#
# Youngs Moduli (GPa) = 27.02927 55.88912 50.84167
#
# Poissons Ratio (x) = 0.93696 0.55999
# Poissons Ratio (y) = 0.45313 -0.18270
# Poissons Ratio (z) = 0.29771 -0.20084
#
# Static dielectric constant tensor:
#      x y z
#    x 1.846180 0.000000 -0.089540 
#    y 0.000000 1.892310 0.000000 
#    z -0.089540 0.000000 1.937840 
# 
# From -- ./inp_files/28438.got.cif
#   From: 2010.05.17/outbox.cif.g08.bks.cpg/sg15_15_cif.got.tgz:28438.got - 2010.06.03 18:47:42.
