data_PCOD9308623
_publ_section_title
;
Structure prediction by ZEFSAII (Michael W. Deem and Ramdas Pophale) SiO2 
 PCOD9308623
Probable space group: C 2/C
;
_chemical_formula_sum "Si O2"
_cell_formula_units_Z 30
_cell_length_a 9.000000
_cell_length_b 21.000000
_cell_length_c 24.000000
_cell_angle_alpha 90.000000
_cell_angle_beta 40.000000
_cell_angle_gamma 90.000000
_cell_volume 2915.684598
_symmetry_space_group_name_H-M "C 2/C"
_symmetry_group_IT_number 15
_symmetry_cell_setting 'monoclinic'
loop_
_space_group_symop_operation_xyz
x,y,z
-x,y,1/2-z
-x,-y,-z
x,-y,1/2+z
1/2+x,1/2+y,z
1/2-x,1/2+y,1/2-z
1/2-x,1/2-y,-z
1/2+x,1/2-y,1/2+z
loop_
_atom_site_type_symbol
_atom_site_label
_atom_site_fract_x
_atom_site_fract_y
_atom_site_fract_z
Si Si1 0.527000 0.749638 0.417770
Si Si2 0.550105 0.220684 0.676160
Si Si3 0.500000 0.024167 0.250000
Si Si4 0.980426 0.603008 0.943816
Si Si5 0.795684 0.414347 0.231604
Si Si6 0.830870 0.918227 0.428280
Si Si7 0.501143 0.540104 0.441003
Si Si8 0.600192 0.302036 0.009909
O O1 0.567499 0.740500 0.340546
O O2 0.567012 0.823715 0.419573
O O3 0.643065 0.706117 0.431240
O O4 0.250000 0.750000 0.500000
O O5 0.500000 0.250285 0.750000
O O6 0.442077 0.149493 0.704363
O O7 0.826594 0.213148 0.592857
O O8 0.732397 0.056492 0.154736
O O9 0.391471 0.975312 0.236558
O O10 0.140069 0.571822 0.850554
O O11 0.074519 0.580024 0.976183
O O12 0.709816 0.592722 0.003486
O O13 0.533100 0.400021 0.325653
O O14 0.851386 0.869222 0.474279
O O15 0.904928 0.987557 0.426274
O O16 0.500000 0.500000 0.500000
O O17 0.750000 0.250000 0.000000
#
# Coordination Sequence:
#
# PCOD9308623 Si02
#       8
#     8   8   4   8   8   8   8   8
#     4   9  21  33  56  86 116 160 201 247 308 371
#     4  10  17  32  56  83 114 152 200 260 315 353
#     4  10  18  36  56  90 116 162 206 250 310 374
#     4  11  21  37  57  95 123 157 201 253 326 374
#     4  10  18  33  59  90 118 148 203 269 313 355
#     4  11  22  36  60  91 126 156 204 261 323 371
#     4  11  23  37  63  91 122 164 208 258 313 384
#     4  11  20  36  54  88 121 162 200 250 314 379
#
# _framework density 10.289179000000001
#
# number of rings (size 3 to 8) (size 9 to 14) (size 15 to 20)
#    0.000    1.600    4.667    1.600    3.733    0.000 
#    0.000    0.667    0.000    3.200   10.400    0.000 
#    0.000    0.000    0.000    0.000    0.000    0.000 
#
# Total GULP energy -167069.330316 kJ/mol
# GULP energy per Si atom -5568.977677 kJ/mol
# Density = 1.026576 g / cm^3
# Si number density = 10.289179 Si / 1000 Ang^3
#
#
#
# Elastic Constant Matrix: (Units=GPa)
#
#
# Indices 1 2 3 4 5 6 
#
# 1 135.6695 17.4675 41.5359 0.0004 9.5316 -0.0010
# 2 17.4675 37.6905 15.8401 0.0032 2.7950 -0.0014
# 3 41.5359 15.8401 83.8250 0.0030 6.8294 -0.0035
# 4 0.0004 0.0032 0.0030 26.8038 -0.0050 -1.3573
# 5 9.5316 2.7950 6.8294 -0.0050 40.9741 0.0020
# 6 -0.0010 -0.0014 -0.0035 -1.3573 0.0020 23.1167
#
#
#
# Elastic Compliance Matrix: (Units=1/GPa)
#
#
# Indices 1 2 3 4 5 6 
#
# 1 0.008960 -0.002429 -0.003877 0.000000 -0.001272 0.000000
# 2 -0.002429 0.029526 -0.004316 -0.000003 -0.000730 0.000001
# 3 -0.003877 -0.004316 0.014770 -0.000001 -0.001265 0.000002
# 4 0.000000 -0.000003 -0.000001 0.037419 0.000005 0.002197
# 5 -0.001272 -0.000730 -0.001265 0.000005 0.024962 -0.000002
# 6 0.000000 0.000001 0.000002 0.002197 -0.000002 0.043388
#
#
# Mechanical properties :
#
#
# Convention : Reuss Voigt Hill
#
# Bulk Modulus (GPa) = 31.23971 45.20802 38.22386
# Shear Modulus (GPa) = 26.18635 30.33504 28.26069
#
# Velocity S-wave (km/s) = 3.57111 3.84360 3.70986
# Velocity P-wave (km/s) = 5.67605 6.45864 6.07995
#
# Compressibility (1/GPa) = 0.03201054
#
# Stress axis : x y z
#
# Youngs Moduli (GPa) = 111.60787 33.86889 67.70705
#
# Poissons Ratio (x) = 0.08226 0.26251
# Poissons Ratio (y) = 0.27106 0.29226
# Poissons Ratio (z) = 0.43272 0.14619
#
# Static dielectric constant tensor:
#      x y z
#    x 1.810140 0.000000 0.058250 
#    y 0.000000 1.904770 0.000000 
#    z 0.058250 0.000000 1.809800 
# 
# From -- ./inp_files/266232.got.cif
#   From: 2010.05.17/outbox.ucp.g08.bks.cvg/sg15_134_cif.got.tgz:266232.got - 2010.06.11 12:40:34.
