data_PCOD9308331
_publ_section_title
;
Structure prediction by ZEFSAII (Michael W. Deem and Ramdas Pophale) SiO2 
 PCOD9308331
Probable space group: C 2/C
;
_chemical_formula_sum "Si O2"
_cell_formula_units_Z 28
_cell_length_a 17.406206
_cell_length_b 6.960126
_cell_length_c 17.306612
_cell_angle_alpha 90.000000
_cell_angle_beta 148.219626
_cell_angle_gamma 90.000000
_cell_volume 1104.250087
_symmetry_space_group_name_H-M "C 2/C"
_symmetry_group_IT_number 15
_symmetry_cell_setting 'monoclinic'
loop_
_space_group_symop_operation_xyz
x,y,z
-x,y,1/2-z
-x,-y,-z
x,-y,1/2+z
1/2+x,1/2+y,z
1/2-x,1/2+y,1/2-z
1/2-x,1/2-y,-z
1/2+x,1/2-y,1/2+z
loop_
_atom_site_type_symbol
_atom_site_label
_atom_site_fract_x
_atom_site_fract_y
_atom_site_fract_z
Si Si1 0.236906 0.366683 0.121019
Si Si2 0.298538 0.445122 0.349783
Si Si3 0.978794 0.692891 0.602194
Si Si4 0.000000 0.014093 0.250000
O O1 0.277750 0.453826 0.240089
O O2 0.192941 0.149389 0.101122
O O3 0.376479 0.389081 0.185493
O O4 0.107758 0.493614 0.974681
O O5 0.432426 0.307250 0.485346
O O6 0.149254 0.348943 0.253260
O O7 0.932824 0.838981 0.629892
#
# Coordination Sequence:
#
# PCOD9308331 Si02
#       4
#     8   8   8   4
#     4  12  27  49  78 115 150 202 252 313 380 451
#     4  12  28  49  85 108 153 202 262 309 375 454
#     4  12  27  53  77 114 154 200 257 314 377 454
#     4  12  28  50  74 114 164 194 246 322 386 448
#
# _framework density 25.356576
#
# number of rings (size 3 to 8) (size 9 to 14) (size 15 to 20)
#    0.000    0.000    5.714    1.714    4.000    4.571 
#    0.000    0.000    0.000    0.000    0.000    0.000 
#    0.000    0.000    0.000    0.000    0.000    0.000 
#
# Total GULP energy -78630.901246 kJ/mol
# GULP energy per Si atom -5616.492946 kJ/mol
# Density = 2.529886 g / cm^3
# Si number density = 25.356576 Si / 1000 Ang^3
#
#
#
# Elastic Constant Matrix: (Units=GPa)
#
#
# Indices 1 2 3 4 5 6 
#
# 1 129.5239 35.1648 5.0331 0.0000 15.4130 0.0000
# 2 35.1648 170.2212 40.9024 0.0000 29.7400 0.0000
# 3 5.0331 40.9024 83.2697 0.0000 9.7757 0.0000
# 4 0.0000 0.0000 0.0000 38.6831 0.0000 -1.0570
# 5 15.4130 29.7400 9.7757 0.0000 32.8361 0.0000
# 6 0.0000 0.0000 0.0000 -1.0570 0.0000 34.4343
#
#
#
# Elastic Compliance Matrix: (Units=1/GPa)
#
#
# Indices 1 2 3 4 5 6 
#
# 1 0.008411 -0.001355 0.000494 0.000000 -0.002867 0.000000
# 2 -0.001355 0.007881 -0.003136 0.000000 -0.005568 0.000000
# 3 0.000494 -0.003136 0.013692 0.000000 -0.001468 0.000000
# 4 0.000000 0.000000 0.000000 0.025873 0.000000 0.000794
# 5 -0.002867 -0.005568 -0.001468 0.000000 0.037281 0.000000
# 6 0.000000 0.000000 0.000000 0.000794 0.000000 0.029065
#
#
# Mechanical properties :
#
#
# Convention : Reuss Voigt Hill
#
# Bulk Modulus (GPa) = 45.47560 60.57949 53.02755
# Shear Modulus (GPa) = 36.35692 41.31832 38.83762
#
# Velocity S-wave (km/s) = 3.79070 4.04108 3.91789
# Velocity P-wave (km/s) = 6.09365 6.76141 6.43619
#
# Compressibility (1/GPa) = 0.02198981
#
# Stress axis : x y z
#
# Youngs Moduli (GPa) = 118.89859 126.88817 73.03600
#
# Poissons Ratio (x) = 0.17196 -0.03608
# Poissons Ratio (y) = 0.16113 0.22901
# Poissons Ratio (z) = -0.05873 0.39786
#
# Static dielectric constant tensor:
#      x y z
#    x 1.981110 0.000000 -0.032520 
#    y 0.000000 1.984500 0.000000 
#    z -0.032520 0.000000 2.007370 
# 
# From -- ./inp_files/64675.got.cif
#   From: 2010.05.17/outbox.cif.g08.bks.cpg/sg15_33_cif.got.tgz:64675.got - 2010.06.03 18:47:42.
