data_PCOD9308852
_publ_section_title
;
Structure prediction by ZEFSAII (Michael W. Deem and Ramdas Pophale) SiO2 
 PCOD9308852
Probable space group: C 2/C
;
_chemical_formula_sum "Si O2"
_cell_formula_units_Z 30
_cell_length_a 21.000000
_cell_length_b 9.000000
_cell_length_c 21.000000
_cell_angle_alpha 90.000000
_cell_angle_beta 50.000000
_cell_angle_gamma 90.000000
_cell_volume 3040.430395
_symmetry_space_group_name_H-M "C 2/C"
_symmetry_group_IT_number 15
_symmetry_cell_setting 'monoclinic'
loop_
_space_group_symop_operation_xyz
x,y,z
-x,y,1/2-z
-x,-y,-z
x,-y,1/2+z
1/2+x,1/2+y,z
1/2-x,1/2+y,1/2-z
1/2-x,1/2-y,-z
1/2+x,1/2-y,1/2+z
loop_
_atom_site_type_symbol
_atom_site_label
_atom_site_fract_x
_atom_site_fract_y
_atom_site_fract_z
Si Si1 0.664574 0.044187 0.681064
Si Si2 0.702244 0.952557 0.802549
Si Si3 0.000000 0.643301 0.250000
Si Si4 0.509421 0.589150 0.646728
Si Si5 0.844816 0.020740 0.029551
Si Si6 0.880062 0.854884 0.735417
Si Si7 0.093583 0.282871 0.419136
Si Si8 0.077550 0.791257 0.421899
O O1 0.746933 0.012431 0.586350
O O2 0.642379 0.218212 0.703713
O O3 0.693355 0.992776 0.733807
O O4 0.582449 0.955451 0.710731
O O5 0.795513 0.938089 0.768242
O O6 0.654353 0.798894 0.844420
O O7 0.651079 0.074331 0.874842
O O8 0.988744 0.756183 0.316623
O O9 0.602179 0.537698 0.569106
O O10 0.449480 0.467010 0.717120
O O11 0.463444 0.614073 0.608290
O O12 0.887869 0.891237 0.043482
O O13 0.861853 0.167752 0.061465
O O14 0.912742 0.784167 0.647975
O O15 0.999935 0.307111 0.503890
#
# Coordination Sequence:
#
# PCOD9308852 Si02
#       8
#     8   8   4   8   8   8   8   8
#     4  11  24  40  62  88 127 166 210 252 300 371
#     4  11  21  33  61  99 125 157 194 259 321 370
#     4  12  28  44  64  84 118 176 222 250 288 370
#     4  11  23  41  63  90 125 165 209 250 305 374
#     4  11  20  39  65  93 127 158 198 262 323 367
#     4  11  21  37  64  94 125 157 198 264 316 366
#     4  10  20  31  56  97 129 154 187 245 329 376
#     4  11  18  38  60  96 128 157 194 257 328 366
#
# _framework density 9.8670240000000007
#
# number of rings (size 3 to 8) (size 9 to 14) (size 15 to 20)
#    0.000    1.067    6.667    1.200    3.733    1.067 
#    0.000    0.000    0.000    1.600    0.000    0.000 
#    0.000    0.000    0.000    0.000    0.000    0.000 
#
# Total GULP energy -167616.188668 kJ/mol
# GULP energy per Si atom -5587.206289 kJ/mol
# Density = 0.984457 g / cm^3
# Si number density = 9.867024 Si / 1000 Ang^3
#
#
#
# Elastic Constant Matrix: (Units=GPa)
#
#
# Indices 1 2 3 4 5 6 
#
# 1 98.8268 43.7002 43.4588 0.0000 -36.8504 0.0000
# 2 43.7002 88.7201 28.5366 0.0000 -22.0079 0.0000
# 3 43.4588 28.5366 85.3030 0.0000 -44.2101 0.0000
# 4 0.0000 0.0000 0.0000 28.6300 0.0000 -7.2918
# 5 -36.8504 -22.0079 -44.2101 0.0000 28.7159 0.0000
# 6 0.0000 0.0000 0.0000 -7.2918 0.0000 18.7821
#
#
#
# Elastic Compliance Matrix: (Units=1/GPa)
#
#
# Indices 1 2 3 4 5 6 
#
# 1 0.025327 -0.004092 0.018235 0.000000 0.057439 0.000000
# 2 -0.004092 0.014907 0.001472 0.000000 0.008440 0.000000
# 3 0.018235 0.001472 0.072507 0.000000 0.136158 0.000000
# 4 0.000000 0.000000 0.000000 0.038761 0.000000 0.015048
# 5 0.057439 0.008440 0.136158 0.000000 0.324627 0.000000
# 6 0.000000 0.000000 0.000000 0.015048 0.000000 0.059084
#
#
# Mechanical properties :
#
#
# Convention : Reuss Voigt Hill
#
# Bulk Modulus (GPa) = 6.94585 56.02678 31.48631
# Shear Modulus (GPa) = 9.05838 25.70256 17.38047
#
# Velocity S-wave (km/s) = 2.14481 3.61286 2.97094
# Velocity P-wave (km/s) = 3.10821 6.77172 5.26864
#
# Compressibility (1/GPa) = 0.14397096
#
# Stress axis : x y z
#
# Youngs Moduli (GPa) = 39.48294 67.08201 13.79169
#
# Poissons Ratio (x) = 0.27450 -0.25149
# Poissons Ratio (y) = 0.16157 -0.02030
# Poissons Ratio (z) = -0.71995 -0.09874
#
# Static dielectric constant tensor:
#      x y z
#    x 1.653170 0.000000 -0.010040 
#    y 0.000000 1.731170 0.000000 
#    z -0.010040 0.000000 1.728360 
# 
# From -- ./inp_files/252105.got.cif
#   From: 2010.05.17/outbox.ucp.g08.bks.cvg/sg15_127_cif.got.tgz:252105.got - 2010.06.11 12:40:34.
