data_PCOD9308997
_publ_section_title
;
Structure prediction by ZEFSAII (Michael W. Deem and Ramdas Pophale) SiO2 
 PCOD9308997
Probable space group: C 2/C
;
_chemical_formula_sum "Si O2"
_cell_formula_units_Z 22
_cell_length_a 9.000000
_cell_length_b 24.000000
_cell_length_c 12.000000
_cell_angle_alpha 90.000000
_cell_angle_beta 60.000000
_cell_angle_gamma 90.000000
_cell_volume 2244.737847
_symmetry_space_group_name_H-M "C 2/C"
_symmetry_group_IT_number 15
_symmetry_cell_setting 'monoclinic'
loop_
_space_group_symop_operation_xyz
x,y,z
-x,y,1/2-z
-x,-y,-z
x,-y,1/2+z
1/2+x,1/2+y,z
1/2-x,1/2+y,1/2-z
1/2-x,1/2-y,-z
1/2+x,1/2-y,1/2+z
loop_
_atom_site_type_symbol
_atom_site_label
_atom_site_fract_x
_atom_site_fract_y
_atom_site_fract_z
Si Si1 0.330558 0.463342 0.045769
Si Si2 0.987101 0.669097 0.929703
Si Si3 0.950023 0.748147 0.396572
Si Si4 0.790768 0.839246 0.148139
Si Si5 0.608575 0.055418 0.440252
Si Si6 0.500000 0.966240 0.750000
O O1 0.329318 0.404310 0.110811
O O2 0.161031 0.496121 0.151042
O O3 0.500000 0.500000 0.000000
O O4 0.293969 0.452653 0.927472
O O5 0.166906 0.675392 0.798463
O O6 0.825375 0.681835 0.911461
O O7 0.974344 0.702417 0.048032
O O8 0.976070 0.603940 0.957667
O O9 0.750000 0.750000 0.500000
O O10 0.000000 0.736857 0.250000
O O11 0.035114 0.806471 0.399487
O O12 0.581392 0.068304 0.321017
O O13 0.500000 0.000000 0.500000
#
# Coordination Sequence:
#
# PCOD9308997 Si02
#       6
#     8   8   8   8   8   4
#     4  10  21  39  63  93 124 165 217 259 318 390
#     4  10  21  41  69  90 124 173 213 265 324 388
#     4  12  25  43  63  97 129 164 223 274 327 387
#     4  10  21  43  66  90 126 170 217 263 325 386
#     4   9  19  36  60  91 121 161 203 250 318 380
#     4  10  20  38  58  90 128 160 202 264 316 380
#
# _framework density 9.8006989999999998
#
# number of rings (size 3 to 8) (size 9 to 14) (size 15 to 20)
#    0.000    1.818    1.818    3.818    1.273    3.636 
#    3.273    0.000    0.000    0.000    0.000    0.000 
#    0.000    0.000    0.000    0.000    0.000    0.000 
#
# Total GULP energy -122587.359140 kJ/mol
# GULP energy per Si atom -5572.152688 kJ/mol
# Density = 0.977839 g / cm^3
# Si number density = 9.800699 Si / 1000 Ang^3
#
#
#
# Elastic Constant Matrix: (Units=GPa)
#
#
# Indices 1 2 3 4 5 6 
#
# 1 126.3951 41.0053 73.7669 0.0000 -8.2405 0.0000
# 2 41.0053 51.2731 29.8479 0.0000 0.9691 0.0000
# 3 73.7669 29.8479 103.1143 0.0000 7.7321 0.0000
# 4 0.0000 0.0000 0.0000 21.9755 0.0000 0.3693
# 5 -8.2405 0.9691 7.7321 0.0000 37.1019 0.0000
# 6 0.0000 0.0000 0.0000 0.3693 0.0000 34.8949
#
#
#
# Elastic Compliance Matrix: (Units=1/GPa)
#
#
# Indices 1 2 3 4 5 6 
#
# 1 0.016723 -0.007529 -0.010237 0.000000 0.006044 0.000000
# 2 -0.007529 0.026870 -0.002249 0.000000 -0.001905 0.000000
# 3 -0.010237 -0.002249 0.018122 0.000000 -0.005992 0.000000
# 4 0.000000 0.000000 0.000000 0.045513 0.000000 -0.000482
# 5 0.006044 -0.001905 -0.005992 0.000000 0.029594 0.000000
# 6 0.000000 0.000000 0.000000 -0.000482 0.000000 0.028663
#
#
# Mechanical properties :
#
#
# Convention : Reuss Voigt Hill
#
# Bulk Modulus (GPa) = 46.11600 63.33587 54.72593
# Shear Modulus (GPa) = 23.50255 27.87195 25.68725
#
# Velocity S-wave (km/s) = 3.46645 3.77495 3.62398
# Velocity P-wave (km/s) = 6.29283 7.16815 6.74470
#
# Compressibility (1/GPa) = 0.02168445
#
# Stress axis : x y z
#
# Youngs Moduli (GPa) = 59.79762 37.21667 55.18160
#
# Poissons Ratio (x) = 0.28020 0.56492
# Poissons Ratio (y) = 0.45021 0.12410
# Poissons Ratio (z) = 0.61217 0.08370
#
# Static dielectric constant tensor:
#      x y z
#    x 1.720950 0.000000 0.029650 
#    y 0.000000 1.690080 0.000000 
#    z 0.029650 0.000000 1.679250 
# 
# From -- ./inp_files/79681.got.cif
#   From: 2010.05.17/outbox.ucp.g08.bks.cvg/sg15_40_cif.got.tgz:79681.got - 2010.06.11 12:40:34.
