data_PCOD9308427
_publ_section_title
;
Structure prediction by ZEFSAII (Michael W. Deem and Ramdas Pophale) SiO2 
 PCOD9308427
Probable space group: C 2/C
;
_chemical_formula_sum "Si O2"
_cell_formula_units_Z 32
_cell_length_a 7.690447
_cell_length_b 22.757137
_cell_length_c 10.115601
_cell_angle_alpha 90.000000
_cell_angle_beta 52.570218
_cell_angle_gamma 90.000000
_cell_volume 1405.838522
_symmetry_space_group_name_H-M "C 2/C"
_symmetry_group_IT_number 15
_symmetry_cell_setting 'monoclinic'
loop_
_space_group_symop_operation_xyz
x,y,z
-x,y,1/2-z
-x,-y,-z
x,-y,1/2+z
1/2+x,1/2+y,z
1/2-x,1/2+y,1/2-z
1/2-x,1/2-y,-z
1/2+x,1/2-y,1/2+z
loop_
_atom_site_type_symbol
_atom_site_label
_atom_site_fract_x
_atom_site_fract_y
_atom_site_fract_z
Si Si1 0.309943 0.317179 0.445924
Si Si2 0.507185 0.905934 0.057306
Si Si3 0.461691 0.381529 0.923882
Si Si4 0.191902 0.005805 0.256376
O O1 0.500000 0.319933 0.250000
O O2 0.250000 0.250000 0.500000
O O3 0.118814 0.358473 0.474239
O O4 0.404816 0.341587 0.539296
O O5 0.340863 0.949262 0.211386
O O6 0.058046 0.947453 0.908450
O O7 0.643469 0.949872 0.897343
O O8 0.500000 0.369442 0.750000
O O9 0.199718 0.376417 0.054019
O O10 0.000000 0.983173 0.250000
#
# Coordination Sequence:
#
# PCOD9308427 Si02
#       4
#     8   8   8   8
#     4  12  29  47  70 102 141 190 244 295 351 423
#     4   9  19  41  67 100 143 180 228 288 351 414
#     4   9  22  44  72 105 140 185 239 286 357 421
#     4   8  16  36  70 103 138 181 223 284 351 422
#
# _framework density 22.762215000000001
#
# number of rings (size 3 to 8) (size 9 to 14) (size 15 to 20)
#    0.000    3.000    0.000    0.750    7.000    2.000 
#    0.000   41.250    0.000    0.000    0.000    0.000 
#    0.000    0.000    0.000    0.000    0.000    0.000 
#
# Total GULP energy -89295.283240 kJ/mol
# GULP energy per Si atom -5580.955202 kJ/mol
# Density = 2.271041 g / cm^3
# Si number density = 22.762215 Si / 1000 Ang^3
#
#
#
# Elastic Constant Matrix: (Units=GPa)
#
#
# Indices 1 2 3 4 5 6 
#
# 1 211.7476 108.8028 55.3822 0.0000 10.4013 0.0000
# 2 108.8028 116.9612 44.7798 0.0000 34.6871 0.0000
# 3 55.3822 44.7798 87.0474 0.0000 19.6311 0.0000
# 4 0.0000 0.0000 0.0000 3.0256 0.0000 23.4723
# 5 10.4013 34.6871 19.6311 0.0000 39.4148 0.0000
# 6 0.0000 0.0000 0.0000 23.4723 0.0000 26.1028
#
#
#
# Elastic Compliance Matrix: (Units=1/GPa)
#
#
# Indices 1 2 3 4 5 6 
#
# 1 0.011220 -0.011972 -0.003028 0.000000 0.009083 0.000000
# 2 -0.011972 0.025821 -0.001413 0.000000 -0.018861 0.000000
# 3 -0.003028 -0.001413 0.015412 0.000000 -0.005634 0.000000
# 4 0.000000 0.000000 0.000000 -0.055306 0.000000 0.049732
# 5 0.009083 -0.018861 -0.005634 0.000000 0.042379 0.000000
# 6 0.000000 0.000000 0.000000 0.049732 0.000000 -0.006411
#
#
# Mechanical properties :
#
#
# Convention : Reuss Voigt Hill
#
# Bulk Modulus (GPa) = 50.94933 92.63176 71.79055
# Shear Modulus (GPa) = 68.98136 27.49474 48.23805
#
# Velocity S-wave (km/s) = 5.51099 3.47927 4.60849
# Velocity P-wave (km/s) = 7.93263 7.54481 7.74115
#
# Compressibility (1/GPa) = 0.01962734
#
# Stress axis : x y z
#
# Youngs Moduli (GPa) = 89.12729 38.72830 64.88449
#
# Poissons Ratio (x) = 0.46364 0.19649
# Poissons Ratio (y) = 1.06700 0.09167
# Poissons Ratio (z) = 0.26991 0.05471
#
# Static dielectric constant tensor:
#      x y z
#    x 1.953250 0.000000 0.049780 
#    y 0.000000 1.873520 0.000000 
#    z 0.049780 0.000000 2.065150 
# 
# From -- ./inp_files/22866.got.cif
#   From: 2010.05.17/outbox.cif.g08.bks.cpg/sg15_12_cif.got.tgz:22866.got - 2010.06.03 18:47:42.
