data_PCOD9308447
_publ_section_title
;
Structure prediction by ZEFSAII (Michael W. Deem and Ramdas Pophale) SiO2 
 PCOD9308447
Probable space group: C 2/C
;
_chemical_formula_sum "Si O2"
_cell_formula_units_Z 48
_cell_length_a 7.300205
_cell_length_b 17.688858
_cell_length_c 16.532731
_cell_angle_alpha 90.000000
_cell_angle_beta 103.225986
_cell_angle_gamma 90.000000
_cell_volume 2078.281440
_symmetry_space_group_name_H-M "C 2/C"
_symmetry_group_IT_number 15
_symmetry_cell_setting 'monoclinic'
loop_
_space_group_symop_operation_xyz
x,y,z
-x,y,1/2-z
-x,-y,-z
x,-y,1/2+z
1/2+x,1/2+y,z
1/2-x,1/2+y,1/2-z
1/2-x,1/2-y,-z
1/2+x,1/2-y,1/2+z
loop_
_atom_site_type_symbol
_atom_site_label
_atom_site_fract_x
_atom_site_fract_y
_atom_site_fract_z
Si Si1 0.100152 0.704662 0.541238
Si Si2 0.749243 0.570935 0.622290
Si Si3 0.849890 0.993908 0.627324
Si Si4 0.218157 0.871090 0.280468
Si Si5 0.568903 0.357340 0.948662
Si Si6 0.833703 0.433173 0.544964
O O1 0.250000 0.750000 0.500000
O O2 0.192420 0.669578 0.632306
O O3 0.954514 0.768019 0.555138
O O4 0.041024 0.635643 0.475857
O O5 0.549641 0.532871 0.626052
O O6 0.805236 0.627379 0.699688
O O7 0.696722 0.618488 0.537583
O O8 0.879483 0.498559 0.614391
O O9 0.868392 0.904066 0.624382
O O10 0.719096 0.018938 0.539794
O O11 0.784582 0.039259 0.698204
O O12 0.000000 0.844863 0.250000
O O13 0.360815 0.392943 0.946229
#
# Coordination Sequence:
#
# PCOD9308447 Si02
#       6
#     8   8   8   8   8   8
#     4   9  14  19  28  43  63  91 115 136 169 208
#     4   8  12  19  29  41  61  92 119 138 161 201
#     4   7  11  18  27  39  57  85 114 137 162 201
#     4   9  14  19  28  43  63  91 119 140 161 200
#     4   8  12  19  29  41  61  92 115 134 169 209
#     4   7  11  18  27  39  57  85 114 137 162 201
#
# _framework density 23.096005000000002
#
# number of rings (size 3 to 8) (size 9 to 14) (size 15 to 20)
#    0.000    4.000    0.000    5.000    0.000    0.000 
#    0.000    0.000    0.000    0.000    0.000    0.000 
#    0.000    0.000    0.000  841.500    0.000    0.000 
#
# Total GULP energy -133661.360772 kJ/mol
# GULP energy per Si atom -5569.223366 kJ/mol
# Density = 2.304344 g / cm^3
# Si number density = 23.096005 Si / 1000 Ang^3
#
#
#
# Elastic Constant Matrix: (Units=GPa)
#
#
# Indices 1 2 3 4 5 6 
#
# 1 61.9323 26.4304 16.4981 0.0000 11.4024 0.0000
# 2 26.4304 152.4106 49.1511 0.0000 -1.8483 0.0000
# 3 16.4981 49.1511 103.7633 0.0000 -1.8655 0.0000
# 4 0.0000 0.0000 0.0000 37.4707 0.0000 -11.2720
# 5 11.4024 -1.8483 -1.8655 0.0000 16.4454 0.0000
# 6 0.0000 0.0000 0.0000 -11.2720 0.0000 23.3500
#
#
#
# Elastic Compliance Matrix: (Units=1/GPa)
#
#
# Indices 1 2 3 4 5 6 
#
# 1 0.020797 -0.003110 -0.002103 0.000000 -0.015008 0.000000
# 2 -0.003110 0.008213 -0.003347 0.000000 0.002700 0.000000
# 3 -0.002103 -0.003347 0.011600 0.000000 0.002398 0.000000
# 4 0.000000 0.000000 0.000000 0.031221 0.000000 0.015072
# 5 -0.015008 0.002700 0.002398 0.000000 0.071789 0.000000
# 6 0.000000 0.000000 0.000000 0.015072 0.000000 0.050102
#
#
# Mechanical properties :
#
#
# Convention : Reuss Voigt Hill
#
# Bulk Modulus (GPa) = 42.57303 55.80727 49.19015
# Shear Modulus (GPa) = 22.86507 30.52167 26.69337
#
# Velocity S-wave (km/s) = 3.14984 3.63921 3.40333
# Velocity P-wave (km/s) = 5.63043 6.47102 6.06530
#
# Compressibility (1/GPa) = 0.02348905
#
# Stress axis : x y z
#
# Youngs Moduli (GPa) = 48.08278 121.76142 86.20424
#
# Poissons Ratio (x) = 0.37872 0.18131
# Poissons Ratio (y) = 0.14955 0.28854
# Poissons Ratio (z) = 0.10113 0.40756
#
# Static dielectric constant tensor:
#      x y z
#    x 2.010680 0.000000 0.001220 
#    y 0.000000 1.877520 0.000000 
#    z 0.001220 0.000000 1.876320 
# 
# From -- ./inp_files/204669.got.cif
#   From: 2010.05.17/outbox.cif.g08.bks.cpg/sg15_103_cif.got.tgz:204669.got - 2010.06.03 18:47:42.
