data_PCOD9308761
_publ_section_title
;
Structure prediction by ZEFSAII (Michael W. Deem and Ramdas Pophale) SiO2 
 PCOD9308761
Probable space group: C 2/C
;
_chemical_formula_sum "Si O2"
_cell_formula_units_Z 32
_cell_length_a 18.000000
_cell_length_b 21.000000
_cell_length_c 24.000000
_cell_angle_alpha 90.000000
_cell_angle_beta 160.000000
_cell_angle_gamma 90.000000
_cell_volume 3102.806740
_symmetry_space_group_name_H-M "C 2/C"
_symmetry_group_IT_number 15
_symmetry_cell_setting 'monoclinic'
loop_
_space_group_symop_operation_xyz
x,y,z
-x,y,1/2-z
-x,-y,-z
x,-y,1/2+z
1/2+x,1/2+y,z
1/2-x,1/2+y,1/2-z
1/2-x,1/2-y,-z
1/2+x,1/2-y,1/2+z
loop_
_atom_site_type_symbol
_atom_site_label
_atom_site_fract_x
_atom_site_fract_y
_atom_site_fract_z
Si Si1 0.193388 0.154965 0.270698
Si Si2 0.509273 0.882088 0.422258
Si Si3 0.310552 0.125290 0.576936
Si Si4 0.223973 0.488213 0.717010
Si Si5 0.367262 0.279741 0.326991
Si Si6 0.306998 0.481002 0.990378
Si Si7 0.426304 0.928785 0.780165
Si Si8 0.864922 0.287343 0.712431
O O1 0.310221 0.153369 0.412983
O O2 0.273648 0.085440 0.303943
O O3 0.273977 0.215374 0.291144
O O4 0.929863 0.156655 0.089841
O O5 0.597427 0.882566 0.420933
O O6 0.292530 0.838685 0.272832
O O7 0.453352 0.953517 0.407192
O O8 0.500000 0.153973 0.750000
O O9 0.263785 0.054123 0.566636
O O10 0.434801 0.518560 0.835446
O O11 0.214381 0.469271 0.775363
O O12 0.609545 0.292423 0.519282
O O13 0.386374 0.267274 0.274100
O O14 0.202482 0.439879 0.867811
O O15 0.172985 0.455939 0.949550
O O16 0.438366 0.852982 0.794194
O O17 0.000000 0.278618 0.750000
#
# Coordination Sequence:
#
# PCOD9308761 Si02
#       8
#     8   8   8   8   8   8   8   8
#     4  11  26  46  68 101 146 182 231 290 352 422
#     4  12  25  45  70 102 143 182 235 285 360 413
#     4  11  23  41  72 104 137 180 227 288 347 423
#     4  11  22  39  71  98 139 185 225 288 352 418
#     4  12  27  47  70 100 138 190 241 285 348 422
#     4  10  19  35  59 106 138 166 228 283 347 407
#     4  11  19  37  66 103 139 175 227 293 347 403
#     4  12  25  46  72  98 140 187 236 294 349 413
#
# _framework density 10.313243
#
# number of rings (size 3 to 8) (size 9 to 14) (size 15 to 20)
#    0.000    0.750    6.250    2.250    1.750    1.500 
#    0.000    0.000    0.000    0.000    0.000    0.000 
#    0.000    0.000    0.000    0.000    0.000    0.000 
#
# Total GULP energy -178436.083849 kJ/mol
# GULP energy per Si atom -5576.127620 kJ/mol
# Density = 1.028977 g / cm^3
# Si number density = 10.313243 Si / 1000 Ang^3
#
#
#
# Elastic Constant Matrix: (Units=GPa)
#
#
# Indices 1 2 3 4 5 6 
#
# 1 78.2668 18.1465 29.8163 -0.0021 15.9174 -0.0212
# 2 18.1465 66.1521 2.1864 -0.0435 17.0978 0.0596
# 3 29.8163 2.1864 100.0528 -0.1390 19.6483 0.0343
# 4 -0.0021 -0.0435 -0.1390 29.0150 0.0704 8.5594
# 5 15.9174 17.0978 19.6483 0.0704 32.4524 -0.0075
# 6 -0.0212 0.0596 0.0343 8.5594 -0.0075 29.0119
#
#
#
# Elastic Compliance Matrix: (Units=1/GPa)
#
#
# Indices 1 2 3 4 5 6 
#
# 1 0.015762 -0.003251 -0.003909 -0.000022 -0.003652 0.000028
# 2 -0.003251 0.018405 0.002449 0.000083 -0.009585 -0.000070
# 3 -0.003909 0.002449 0.012465 0.000095 -0.006920 -0.000053
# 4 -0.000022 0.000083 0.000095 0.037752 -0.000175 -0.011138
# 5 -0.003652 -0.009585 -0.006920 -0.000175 0.041846 0.000088
# 6 0.000028 -0.000070 -0.000053 -0.011138 0.000088 0.037755
#
#
# Mechanical properties :
#
#
# Convention : Reuss Voigt Hill
#
# Bulk Modulus (GPa) = 26.87395 38.30779 32.59087
# Shear Modulus (GPa) = 26.90907 31.05069 28.97988
#
# Velocity S-wave (km/s) = 3.61583 3.88413 3.75238
# Velocity P-wave (km/s) = 5.52172 6.22316 5.88291
#
# Compressibility (1/GPa) = 0.03721076
#
# Stress axis : x y z
#
# Youngs Moduli (GPa) = 63.44201 54.33287 80.22255
#
# Poissons Ratio (x) = 0.17663 0.31361
# Poissons Ratio (y) = 0.20624 -0.19647
# Poissons Ratio (z) = 0.24801 -0.13307
#
# Static dielectric constant tensor:
#      x y z
#    x 1.777480 0.000000 -0.014000 
#    y 0.000000 1.722300 -0.000050 
#    z -0.014000 -0.000050 1.755110 
# 
# From -- ./inp_files/278138.got.cif
#   From: 2010.05.17/outbox.ucp.g08.bks.cvg/sg15_140_cif.got.tgz:278138.got - 2010.06.11 12:40:34.
