data_PCOD9308956
_publ_section_title
;
Structure prediction by ZEFSAII (Michael W. Deem and Ramdas Pophale) SiO2 
 PCOD9308956
Probable space group: C 2/C
;
_chemical_formula_sum "Si O2"
_cell_formula_units_Z 24
_cell_length_a 12.000000
_cell_length_b 12.000000
_cell_length_c 18.000000
_cell_angle_alpha 90.000000
_cell_angle_beta 70.000000
_cell_angle_gamma 90.000000
_cell_volume 2435.683273
_symmetry_space_group_name_H-M "C 2/C"
_symmetry_group_IT_number 15
_symmetry_cell_setting 'monoclinic'
loop_
_space_group_symop_operation_xyz
x,y,z
-x,y,1/2-z
-x,-y,-z
x,-y,1/2+z
1/2+x,1/2+y,z
1/2-x,1/2+y,1/2-z
1/2-x,1/2-y,-z
1/2+x,1/2-y,1/2+z
loop_
_atom_site_type_symbol
_atom_site_label
_atom_site_fract_x
_atom_site_fract_y
_atom_site_fract_z
Si Si1 0.975424 0.132737 0.169557
Si Si2 0.060896 0.880845 0.499894
Si Si3 0.369976 0.805678 0.001200
Si Si4 0.785149 0.947359 0.165045
Si Si5 0.859875 0.372533 0.168362
Si Si6 0.953095 0.434523 0.836441
O O1 0.920935 0.255778 0.175168
O O2 0.000000 0.111124 0.250000
O O3 0.879330 0.042584 0.164529
O O4 0.082039 0.126198 0.084152
O O5 0.163635 0.874183 0.414822
O O6 0.964436 0.787085 0.504057
O O7 0.000000 0.000000 0.500000
O O8 0.339092 0.872432 0.084211
O O9 0.250000 0.750000 0.000000
O O10 0.426235 0.868530 0.917897
O O11 0.749798 0.886012 0.249707
O O12 0.668619 0.006388 0.159472
O O13 0.949855 0.471984 0.166738
O O14 0.000000 0.373958 0.750000
#
# Coordination Sequence:
#
# PCOD9308956 Si02
#       6
#     8   8   8   8   8   8
#     4  10  20  37  56  80 111 145 184 230 281 338
#     4   9  20  37  55  81 113 145 184 232 285 331
#     4  11  22  37  60  85 115 151 192 239 284 338
#     4  10  21  37  59  82 111 149 189 235 283 338
#     4  10  22  39  57  82 116 151 184 231 291 342
#     4  10  21  39  58  82 115 149 186 235 287 341
#
# _framework density 9.8534980000000001
#
# number of rings (size 3 to 8) (size 9 to 14) (size 15 to 20)
#    0.000    2.000    0.000    5.000    0.000    8.000 
#    0.000    8.333    0.000    0.000    0.000    0.000 
#    0.000    0.000    0.000    0.000    0.000    0.000 
#
# Total GULP energy -133780.847211 kJ/mol
# GULP energy per Si atom -5574.201967 kJ/mol
# Density = 0.983107 g / cm^3
# Si number density = 9.853498 Si / 1000 Ang^3
#
#
#
# Elastic Constant Matrix: (Units=GPa)
#
#
# Indices 1 2 3 4 5 6 
#
# 1 56.2407 2.5116 55.0368 0.0000 6.1797 0.0000
# 2 2.5116 53.9892 57.4077 0.0000 -2.5789 0.0000
# 3 55.0368 57.4077 256.8641 0.0000 2.7036 0.0000
# 4 0.0000 0.0000 0.0000 38.7313 0.0000 -1.4667
# 5 6.1797 -2.5789 2.7036 0.0000 38.8566 0.0000
# 6 0.0000 0.0000 0.0000 -1.4667 0.0000 20.2157
#
#
#
# Elastic Compliance Matrix: (Units=1/GPa)
#
#
# Indices 1 2 3 4 5 6 
#
# 1 0.024089 0.005495 -0.006358 0.000000 -0.003024 0.000000
# 2 0.005495 0.025705 -0.006936 0.000000 0.001315 0.000000
# 3 -0.006358 -0.006936 0.006805 0.000000 0.000077 0.000000
# 4 0.000000 0.000000 0.000000 0.025890 0.000000 0.001878
# 5 -0.003024 0.001315 0.000077 0.000000 0.026298 0.000000
# 6 0.000000 0.000000 0.000000 0.001878 0.000000 0.049603
#
#
# Mechanical properties :
#
#
# Convention : Reuss Voigt Hill
#
# Bulk Modulus (GPa) = 24.38945 66.33404 45.36174
# Shear Modulus (GPa) = 26.64472 36.36992 31.50732
#
# Velocity S-wave (km/s) = 3.68100 4.30063 4.00282
# Velocity P-wave (km/s) = 5.51990 7.64158 6.66570
#
# Compressibility (1/GPa) = 0.04100133
#
# Stress axis : x y z
#
# Youngs Moduli (GPa) = 41.51220 38.90347 146.95660
#
# Poissons Ratio (x) = -0.21378 0.93432
# Poissons Ratio (y) = -0.22812 1.01931
# Poissons Ratio (z) = 0.26393 0.26984
#
# Static dielectric constant tensor:
#      x y z
#    x 1.684030 0.000000 -0.021330 
#    y 0.000000 1.673130 0.000000 
#    z -0.021330 0.000000 1.781670 
# 
# From -- ./inp_files/196490.got.cif
#   From: 2010.05.17/outbox.ucp.g08.bks.cvg/sg15_99_cif.got.tgz:196490.got - 2010.06.11 12:40:34.
