data_PCOD9308832
_publ_section_title
;
Structure prediction by ZEFSAII (Michael W. Deem and Ramdas Pophale) SiO2 
 PCOD9308832
Probable space group: C 2/C
;
_chemical_formula_sum "Si O2"
_cell_formula_units_Z 32
_cell_length_a 24.000000
_cell_length_b 9.000000
_cell_length_c 30.000000
_cell_angle_alpha 90.000000
_cell_angle_beta 30.000000
_cell_angle_gamma 90.000000
_cell_volume 3240.000000
_symmetry_space_group_name_H-M "C 2/C"
_symmetry_group_IT_number 15
_symmetry_cell_setting 'monoclinic'
loop_
_space_group_symop_operation_xyz
x,y,z
-x,y,1/2-z
-x,-y,-z
x,-y,1/2+z
1/2+x,1/2+y,z
1/2-x,1/2+y,1/2-z
1/2-x,1/2-y,-z
1/2+x,1/2-y,1/2+z
loop_
_atom_site_type_symbol
_atom_site_label
_atom_site_fract_x
_atom_site_fract_y
_atom_site_fract_z
Si Si1 0.485127 0.914643 0.944208
Si Si2 0.203163 0.954163 0.495810
Si Si3 0.088901 0.717934 0.908875
Si Si4 0.386430 0.074283 0.301940
Si Si5 0.915382 0.769670 0.766009
Si Si6 0.648251 0.262413 0.263428
Si Si7 0.963204 0.070049 0.140222
Si Si8 0.721049 0.897635 0.956693
O O1 0.563784 0.827561 0.854600
O O2 0.556998 0.055738 0.911804
O O3 0.452528 0.807426 0.009874
O O4 0.377928 0.996789 0.994188
O O5 0.231402 0.961871 0.529117
O O6 0.197600 0.776910 0.486246
O O7 0.082451 0.008603 0.564556
O O8 0.291882 0.046404 0.405135
O O9 0.219910 0.755184 0.818974
O O10 0.042864 0.838921 0.903021
O O11 0.500000 0.106287 0.250000
O O12 0.369212 0.196105 0.274850
O O13 0.393540 0.907011 0.276327
O O14 0.953612 0.824439 0.690887
O O15 0.811887 0.870026 0.854697
O O16 0.000000 0.781127 0.750000
O O17 0.623751 0.436353 0.291117
#
# Coordination Sequence:
#
# PCOD9308832 Si02
#       8
#     8   8   8   8   8   8   8   8
#     4  11  24  47  72  96 136 182 230 292 346 417
#     4  10  21  38  70 104 136 175 232 287 350 416
#     4  11  26  48  69  95 132 181 242 282 346 415
#     4  10  23  43  67  98 138 182 223 285 354 425
#     4  10  20  39  70 101 135 178 233 283 339 415
#     4  12  27  44  67 100 138 181 227 288 354 419
#     4  12  24  43  67 102 137 177 231 289 345 426
#     4  10  19  39  72 104 134 179 232 289 345 419
#
# _framework density 9.8765429999999999
#
# number of rings (size 3 to 8) (size 9 to 14) (size 15 to 20)
#    0.000    1.250    2.500    3.000    3.500    2.000 
#    4.500    1.250    0.000    0.000    0.000    0.000 
#    0.000    0.000    0.000    0.000    0.000    0.000 
#
# Total GULP energy -178406.340481 kJ/mol
# GULP energy per Si atom -5575.198140 kJ/mol
# Density = 0.985406 g / cm^3
# Si number density = 9.876543 Si / 1000 Ang^3
#
#
#
# Elastic Constant Matrix: (Units=GPa)
#
#
# Indices 1 2 3 4 5 6 
#
# 1 141.1522 30.4928 56.6131 0.0004 5.2849 -0.0014
# 2 30.4928 59.9646 15.4173 0.0009 9.5916 0.0026
# 3 56.6131 15.4173 113.9329 0.0000 4.3079 -0.0003
# 4 0.0004 0.0009 0.0000 38.4563 0.0002 4.0470
# 5 5.2849 9.5916 4.3079 0.0002 43.0005 0.0002
# 6 -0.0014 0.0026 -0.0003 4.0470 0.0002 25.9947
#
#
#
# Elastic Compliance Matrix: (Units=1/GPa)
#
#
# Indices 1 2 3 4 5 6 
#
# 1 0.009614 -0.003808 -0.004266 0.000000 0.000095 0.000001
# 2 -0.003808 0.019370 -0.000586 0.000000 -0.003794 -0.000002
# 3 -0.004266 -0.000586 0.010993 0.000000 -0.000446 0.000000
# 4 0.000000 0.000000 0.000000 0.026437 0.000000 -0.004116
# 5 0.000095 -0.003794 -0.000446 0.000000 0.024135 0.000000
# 6 0.000001 -0.000002 0.000000 -0.004116 0.000000 0.039110
#
#
# Mechanical properties :
#
#
# Convention : Reuss Voigt Hill
#
# Bulk Modulus (GPa) = 44.13173 57.78845 50.96009
# Shear Modulus (GPa) = 32.35611 35.65874 34.00742
#
# Velocity S-wave (km/s) = 4.05165 4.25340 4.15375
# Velocity P-wave (km/s) = 6.65417 7.31032 6.98995
#
# Compressibility (1/GPa) = 0.02265943
#
# Stress axis : x y z
#
# Youngs Moduli (GPa) = 104.01042 51.62583 90.96792
#
# Poissons Ratio (x) = 0.19657 0.38805
# Poissons Ratio (y) = 0.39602 0.05328
# Poissons Ratio (z) = 0.44368 0.03024
#
# Static dielectric constant tensor:
#      x y z
#    x 1.700470 0.000000 -0.025420 
#    y 0.000000 1.694710 0.000000 
#    z -0.025420 0.000000 1.753120 
# 
# From -- ./inp_files/318617.got.cif
#   From: 2010.05.17/outbox.ucp.g08.bks.cvg/sg15_160_cif.got.tgz:318617.got - 2010.06.11 12:40:34.
