data_PCOD9308860
_publ_section_title
;
Structure prediction by ZEFSAII (Michael W. Deem and Ramdas Pophale) SiO2 
 PCOD9308860
Probable space group: C 2/C
;
_chemical_formula_sum "Si O2"
_cell_formula_units_Z 30
_cell_length_a 15.000000
_cell_length_b 27.000000
_cell_length_c 15.000000
_cell_angle_alpha 90.000000
_cell_angle_beta 30.000000
_cell_angle_gamma 90.000000
_cell_volume 3037.500000
_symmetry_space_group_name_H-M "C 2/C"
_symmetry_group_IT_number 15
_symmetry_cell_setting 'monoclinic'
loop_
_space_group_symop_operation_xyz
x,y,z
-x,y,1/2-z
-x,-y,-z
x,-y,1/2+z
1/2+x,1/2+y,z
1/2-x,1/2+y,1/2-z
1/2-x,1/2-y,-z
1/2+x,1/2-y,1/2+z
loop_
_atom_site_type_symbol
_atom_site_label
_atom_site_fract_x
_atom_site_fract_y
_atom_site_fract_z
Si Si1 0.940431 0.044952 0.429059
Si Si2 0.027204 0.442643 0.501154
Si Si3 0.611042 0.908413 0.245174
Si Si4 0.766877 0.807867 0.818737
Si Si5 0.312524 0.605247 0.155581
Si Si6 0.410879 0.799498 0.230065
Si Si7 0.065866 0.933112 0.289406
Si Si8 0.500000 0.625937 0.250000
O O1 0.756005 0.048690 0.641120
O O2 0.883907 0.084199 0.401387
O O3 0.098799 0.071788 0.343088
O O4 0.997546 0.990140 0.357604
O O5 0.995102 0.413598 0.435447
O O6 0.223697 0.433103 0.371834
O O7 0.000000 0.500000 0.500000
O O8 0.876805 0.420778 0.697453
O O9 0.500000 0.915274 0.250000
O O10 0.690339 0.852097 0.176134
O O11 0.791602 0.838598 0.707036
O O12 0.814653 0.750006 0.782676
O O13 0.887409 0.838103 0.785243
O O14 0.567276 0.809344 0.025855
O O15 0.456194 0.599417 0.954143
O O16 0.500000 0.790645 0.250000
O O17 0.000000 0.916731 0.250000
#
# Coordination Sequence:
#
# PCOD9308860 Si02
#       8
#     8   8   8   8   8   8   8   4
#     4  11  21  38  59  88 129 168 218 255 311 379
#     4  12  24  43  62  91 134 171 216 270 319 386
#     4  11  24  37  61  93 136 183 210 253 313 384
#     4  11  23  36  58  89 130 176 208 257 308 382
#     4  11  24  43  61  89 127 171 214 265 327 383
#     4  11  22  36  57  94 133 171 216 250 308 390
#     4  12  26  44  66  93 121 168 228 279 326 372
#     4  10  20  32  54  82 128 172 204 252 294 370
#
# _framework density 9.8765429999999999
#
# number of rings (size 3 to 8) (size 9 to 14) (size 15 to 20)
#    0.000    0.800    5.333    3.200    7.467    0.533 
#    0.000    0.000    0.000    0.000    0.000    3.733 
#    0.000    0.000    0.000    0.000    0.000    0.000 
#
# Total GULP energy -167295.698253 kJ/mol
# GULP energy per Si atom -5576.523275 kJ/mol
# Density = 0.985406 g / cm^3
# Si number density = 9.876543 Si / 1000 Ang^3
#
#
#
# Elastic Constant Matrix: (Units=GPa)
#
#
# Indices 1 2 3 4 5 6 
#
# 1 75.5894 26.2055 37.1534 -0.0044 -9.4791 0.0001
# 2 26.2055 107.0903 26.7689 0.0012 4.0701 0.0012
# 3 37.1534 26.7689 95.9194 -0.0012 -20.8669 -0.0039
# 4 -0.0044 0.0012 -0.0012 36.1552 0.0163 -6.7494
# 5 -9.4791 4.0701 -20.8669 0.0163 23.1237 0.0037
# 6 0.0001 0.0012 -0.0039 -6.7494 0.0037 18.0282
#
#
#
# Elastic Compliance Matrix: (Units=1/GPa)
#
#
# Indices 1 2 3 4 5 6 
#
# 1 0.017188 -0.003020 -0.005184 0.000000 0.002900 -0.000001
# 2 -0.003020 0.011129 -0.003274 0.000002 -0.006152 0.000001
# 3 -0.005184 -0.003274 0.016188 -0.000006 0.013060 -0.000001
# 4 0.000000 0.000002 -0.000006 0.029737 -0.000028 0.011133
# 5 0.002900 -0.006152 0.013060 -0.000028 0.057302 -0.000019
# 6 -0.000001 0.000001 -0.000001 0.011133 -0.000019 0.059636
#
#
# Mechanical properties :
#
#
# Convention : Reuss Voigt Hill
#
# Bulk Modulus (GPa) = 46.40736 50.98384 48.69560
# Shear Modulus (GPa) = 22.59164 28.02619 25.30891
#
# Velocity S-wave (km/s) = 3.38553 3.77082 3.58336
# Velocity P-wave (km/s) = 6.23115 6.69517 6.46732
#
# Compressibility (1/GPa) = 0.02154831
#
# Stress axis : x y z
#
# Youngs Moduli (GPa) = 58.17989 89.85300 61.77345
#
# Poissons Ratio (x) = 0.27139 0.32023
# Poissons Ratio (y) = 0.17573 0.20226
# Poissons Ratio (z) = 0.30160 0.29421
#
# Static dielectric constant tensor:
#      x y z
#    x 1.718080 0.000010 0.140180 
#    y 0.000010 1.706480 0.000040 
#    z 0.140180 0.000040 2.145780 
# 
# From -- ./inp_files/157312.got.cif
#   From: 2010.05.17/outbox.ucp.g08.bks.cvg/sg15_79_cif.got.tgz:157312.got - 2010.06.11 12:40:34.
