data_PCOD9308004
_publ_section_title
;
Structure prediction by ZEFSAII (Michael W. Deem and Ramdas Pophale) SiO2 
 PCOD9308004
Probable space group: C 2/C
;
_chemical_formula_sum "Si O2"
_cell_formula_units_Z 40
_cell_length_a 27.347866
_cell_length_b 7.582150
_cell_length_c 14.550387
_cell_angle_alpha 90.000000
_cell_angle_beta 144.535238
_cell_angle_gamma 90.000000
_cell_volume 1750.530544
_symmetry_space_group_name_H-M "C 2/C"
_symmetry_group_IT_number 15
_symmetry_cell_setting 'monoclinic'
loop_
_space_group_symop_operation_xyz
x,y,z
-x,y,1/2-z
-x,-y,-z
x,-y,1/2+z
1/2+x,1/2+y,z
1/2-x,1/2+y,1/2-z
1/2-x,1/2-y,-z
1/2+x,1/2-y,1/2+z
loop_
_atom_site_type_symbol
_atom_site_label
_atom_site_fract_x
_atom_site_fract_y
_atom_site_fract_z
Si Si1 0.122206 0.798564 0.556292
Si Si2 0.262851 0.214830 0.411427
Si Si3 0.688137 0.838877 0.977468
Si Si4 0.985535 0.490379 0.869510
Si Si5 0.433661 0.647736 0.079617
O O1 0.184086 0.725994 0.729510
O O2 0.166674 0.798878 0.524870
O O3 0.047606 0.660728 0.429306
O O4 0.090337 0.995599 0.529035
O O5 0.250000 0.250000 0.500000
O O6 0.349334 0.291893 0.503132
O O7 0.267823 0.004532 0.406715
O O8 0.607096 0.927958 0.803512
O O9 0.750000 0.750000 0.000000
O O10 0.017073 0.679533 0.880567
O O11 0.000000 0.500000 0.000000
O O12 0.500000 0.558154 0.250000
#
# Coordination Sequence:
#
# PCOD9308004 Si02
#       5
#     8   8   8   8   8
#     4  12  27  47  76 108 148 198 249 305 377 444
#     4  12  26  47  74 111 149 196 250 311 376 442
#     4  12  26  49  76 110 153 195 252 311 375 451
#     4  12  27  49  77 108 153 200 245 311 377 444
#     4  12  25  48  74 103 153 195 248 308 373 444
#
# _framework density 22.850214999999999
#
# number of rings (size 3 to 8) (size 9 to 14) (size 15 to 20)
#    0.000    0.000    4.000    5.400    5.600    0.800 
#    0.000    0.000    0.000    0.000    0.000    0.000 
#    0.000    0.000    0.000    0.000    0.000    0.000 
#
# Total GULP energy -111961.757541 kJ/mol
# GULP energy per Si atom -5598.087877 kJ/mol
# Density = 2.279821 g / cm^3
# Si number density = 22.850215 Si / 1000 Ang^3
#
#
#
# Elastic Constant Matrix: (Units=GPa)
#
#
# Indices 1 2 3 4 5 6 
#
# 1 84.4248 13.9674 29.7060 0.0000 -9.9203 0.0000
# 2 13.9674 102.0018 14.4241 0.0000 8.1449 0.0000
# 3 29.7060 14.4241 146.6341 0.0000 1.1249 0.0000
# 4 0.0000 0.0000 0.0000 33.5320 0.0000 -3.5033
# 5 -9.9203 8.1449 1.1249 0.0000 35.4054 0.0000
# 6 0.0000 0.0000 0.0000 -3.5033 0.0000 25.2843
#
#
#
# Elastic Compliance Matrix: (Units=1/GPa)
#
#
# Indices 1 2 3 4 5 6 
#
# 1 0.013570 -0.001834 -0.002602 0.000000 0.004307 0.000000
# 2 -0.001834 0.010374 -0.000627 0.000000 -0.002880 0.000000
# 3 -0.002602 -0.000627 0.007415 0.000000 -0.000820 0.000000
# 4 0.000000 0.000000 0.000000 0.030260 0.000000 0.004193
# 5 0.004307 -0.002880 -0.000820 0.000000 0.030140 0.000000
# 6 0.000000 0.000000 0.000000 0.004193 0.000000 0.040131
#
#
# Mechanical properties :
#
#
# Convention : Reuss Voigt Hill
#
# Bulk Modulus (GPa) = 47.09670 49.91729 48.50699
# Shear Modulus (GPa) = 33.53634 37.17521 35.35578
#
# Velocity S-wave (km/s) = 3.83516 4.03787 3.93782
# Velocity P-wave (km/s) = 6.34563 6.60546 6.47685
#
# Compressibility (1/GPa) = 0.02123291
#
# Stress axis : x y z
#
# Youngs Moduli (GPa) = 73.69307 96.39915 134.86717
#
# Poissons Ratio (x) = 0.17681 0.35088
# Poissons Ratio (y) = 0.13516 0.08453
# Poissons Ratio (z) = 0.19172 0.06042
#
# Static dielectric constant tensor:
#      x y z
#    x 1.856020 0.000000 -0.005520 
#    y 0.000000 1.768710 0.000000 
#    z -0.005520 0.000000 1.817530 
# 
# From -- ./inp_files/181264.got.cif
#   From: 2010.05.17/outbox.cif.g08.bks.cpg/sg15_91_cif.got.tgz:181264.got - 2010.06.03 18:47:42.
