data_PCOD9308314
_publ_section_title
;
Structure prediction by ZEFSAII (Michael W. Deem and Ramdas Pophale) SiO2 
 PCOD9308314
Probable space group: C 2/C
;
_chemical_formula_sum "Si O2"
_cell_formula_units_Z 32
_cell_length_a 11.615357
_cell_length_b 9.686130
_cell_length_c 14.957822
_cell_angle_alpha 90.000000
_cell_angle_beta 134.107619
_cell_angle_gamma 90.000000
_cell_volume 1208.359263
_symmetry_space_group_name_H-M "C 2/C"
_symmetry_group_IT_number 15
_symmetry_cell_setting 'monoclinic'
loop_
_space_group_symop_operation_xyz
x,y,z
-x,y,1/2-z
-x,-y,-z
x,-y,1/2+z
1/2+x,1/2+y,z
1/2-x,1/2+y,1/2-z
1/2-x,1/2-y,-z
1/2+x,1/2-y,1/2+z
loop_
_atom_site_type_symbol
_atom_site_label
_atom_site_fract_x
_atom_site_fract_y
_atom_site_fract_z
Si Si1 0.272776 0.816828 0.273352
Si Si2 0.421197 0.326087 0.607196
Si Si3 0.065524 0.573989 0.188592
Si Si4 0.733592 0.401487 0.447418
O O1 0.149773 0.697657 0.181777
O O2 0.439823 0.735871 0.379704
O O3 0.000000 0.617390 0.250000
O O4 0.206127 0.880672 0.328395
O O5 0.500000 0.306510 0.750000
O O6 0.250000 0.250000 0.500000
O O7 0.684635 0.054324 0.765673
O O8 0.388829 0.489202 0.577763
O O9 0.908591 0.529874 0.051075
O O10 0.750000 0.250000 0.500000
#
# Coordination Sequence:
#
# PCOD9308314 Si02
#       4
#     8   8   8   8
#     4  12  28  47  80 108 158 210 261 325 410 462
#     4  12  29  52  81 119 161 211 270 333 399 484
#     4  12  27  48  74 114 155 207 270 328 397 485
#     4  12  28  49  75 113 161 205 270 333 393 483
#
# _framework density 26.482189999999999
#
# number of rings (size 3 to 8) (size 9 to 14) (size 15 to 20)
#    0.000    0.000    5.000    3.000   10.500    1.000 
#    0.000    0.000    0.000    0.000    0.000    0.000 
#    0.000    0.000    0.000    0.000    0.000    0.000 
#
# Total GULP energy -89634.295659 kJ/mol
# GULP energy per Si atom -5602.143479 kJ/mol
# Density = 2.642192 g / cm^3
# Si number density = 26.482190 Si / 1000 Ang^3
#
#
#
# Elastic Constant Matrix: (Units=GPa)
#
#
# Indices 1 2 3 4 5 6 
#
# 1 56.7029 36.5455 11.9469 0.0000 15.4705 0.0000
# 2 36.5455 144.1989 41.8922 0.0000 11.0757 0.0000
# 3 11.9469 41.8922 113.6270 0.0000 6.2892 0.0000
# 4 0.0000 0.0000 0.0000 51.4967 0.0000 22.4687
# 5 15.4705 11.0757 6.2892 0.0000 31.9076 0.0000
# 6 0.0000 0.0000 0.0000 22.4687 0.0000 48.8061
#
#
#
# Elastic Compliance Matrix: (Units=1/GPa)
#
#
# Indices 1 2 3 4 5 6 
#
# 1 0.023653 -0.005249 -0.000018 0.000000 -0.009643 0.000000
# 2 -0.005249 0.009081 -0.002793 0.000000 -0.000057 0.000000
# 3 -0.000018 -0.002793 0.009886 0.000000 -0.000970 0.000000
# 4 0.000000 0.000000 0.000000 0.024300 0.000000 -0.011187
# 5 -0.009643 -0.000057 -0.000970 0.000000 0.036227 0.000000
# 6 0.000000 0.000000 0.000000 -0.011187 0.000000 0.025639
#
#
# Mechanical properties :
#
#
# Convention : Reuss Voigt Hill
#
# Bulk Modulus (GPa) = 37.73487 55.03312 46.38399
# Shear Modulus (GPa) = 32.52259 41.38502 36.95381
#
# Velocity S-wave (km/s) = 3.50822 3.95745 3.73959
# Velocity P-wave (km/s) = 5.53987 6.45819 6.01658
#
# Compressibility (1/GPa) = 0.02650069
#
# Stress axis : x y z
#
# Youngs Moduli (GPa) = 42.27720 110.12178 101.15267
#
# Poissons Ratio (x) = 0.57800 0.00183
# Poissons Ratio (y) = 0.22190 0.28251
# Poissons Ratio (z) = 0.00077 0.30756
#
# Static dielectric constant tensor:
#      x y z
#    x 2.055190 0.000000 -0.044500 
#    y 0.000000 2.121770 0.000000 
#    z -0.044500 0.000000 2.164010 
# 
# From -- ./inp_files/272982.got.cif
#   From: 2010.05.17/outbox.cif.g08.bks.cpg/sg15_137_cif.got.tgz:272982.got - 2010.06.03 18:47:42.
