data_PCOD9308765
_publ_section_title
;
Structure prediction by ZEFSAII (Michael W. Deem and Ramdas Pophale) SiO2 
 PCOD9308765
Probable space group: C 2/C
;
_chemical_formula_sum "Si O2"
_cell_formula_units_Z 30
_cell_length_a 12.000000
_cell_length_b 24.000000
_cell_length_c 21.000000
_cell_angle_alpha 90.000000
_cell_angle_beta 30.000000
_cell_angle_gamma 90.000000
_cell_volume 3024.000000
_symmetry_space_group_name_H-M "C 2/C"
_symmetry_group_IT_number 15
_symmetry_cell_setting 'monoclinic'
loop_
_space_group_symop_operation_xyz
x,y,z
-x,y,1/2-z
-x,-y,-z
x,-y,1/2+z
1/2+x,1/2+y,z
1/2-x,1/2+y,1/2-z
1/2-x,1/2-y,-z
1/2+x,1/2-y,1/2+z
loop_
_atom_site_type_symbol
_atom_site_label
_atom_site_fract_x
_atom_site_fract_y
_atom_site_fract_z
Si Si1 0.559492 0.348113 0.914543
Si Si2 0.040242 0.725419 0.497923
Si Si3 0.251259 0.952688 0.643567
Si Si4 0.299971 0.083610 0.399926
Si Si5 0.541229 0.853654 0.885754
Si Si6 0.971621 0.484263 0.403000
Si Si7 0.500000 0.780563 0.250000
Si Si8 0.446457 0.855560 0.388671
O O1 0.602298 0.392932 0.951157
O O2 0.743338 0.352705 0.767436
O O3 0.579109 0.284555 0.930472
O O4 0.314922 0.354142 0.003710
O O5 0.993878 0.700778 0.450848
O O6 0.300768 0.741836 0.371272
O O7 0.008731 0.679569 0.569132
O O8 0.398536 0.899497 0.590097
O O9 0.334019 0.981446 0.537449
O O10 0.000000 0.936602 0.750000
O O11 0.294416 0.990032 0.685892
O O12 0.500000 0.085929 0.250000
O O13 0.344638 0.126153 0.436271
O O14 0.342701 0.023643 0.415279
O O15 0.004585 0.420773 0.364596
O O16 0.572398 0.821432 0.271079
#
# Coordination Sequence:
#
# PCOD9308765 Si02
#       8
#     8   8   8   8   8   8   4   8
#     4  10  21  36  56  83 113 151 194 224 285 354
#     4  11  20  35  58  84 110 148 190 242 280 338
#     4  10  20  37  59  86 108 147 193 235 286 340
#     4   9  21  39  56  81 114 153 190 233 284 346
#     4  10  19  35  61  81 110 147 190 239 276 337
#     4  10  21  37  59  83 116 144 188 244 285 335
#     4  10  22  34  50  82 118 138 178 228 288 336
#     4  11  21  36  56  84 114 148 186 238 288 334
#
# _framework density 9.9206350000000008
#
# number of rings (size 3 to 8) (size 9 to 14) (size 15 to 20)
#    0.000    1.867    1.333    4.000    1.867    1.067 
#    4.800    0.000    0.000    0.800    0.000    0.000 
#    0.000    0.000    0.000    0.000    0.000    0.000 
#
# Total GULP energy -167140.345989 kJ/mol
# GULP energy per Si atom -5571.344866 kJ/mol
# Density = 0.989806 g / cm^3
# Si number density = 9.920635 Si / 1000 Ang^3
#
#
#
# Elastic Constant Matrix: (Units=GPa)
#
#
# Indices 1 2 3 4 5 6 
#
# 1 91.6262 25.1835 4.0701 -0.0520 22.0031 0.0342
# 2 25.1835 107.3892 -7.5830 0.0039 21.7028 0.0303
# 3 4.0701 -7.5830 8.0369 0.0719 10.3583 0.0068
# 4 -0.0520 0.0039 0.0719 21.1926 0.0149 15.9674
# 5 22.0031 21.7028 10.3583 0.0149 29.1260 -0.0339
# 6 0.0342 0.0303 0.0068 15.9674 -0.0339 54.4970
#
#
#
# Elastic Compliance Matrix: (Units=1/GPa)
#
#
# Indices 1 2 3 4 5 6 
#
# 1 0.014036 0.001654 0.017921 0.000005 -0.018209 -0.000025
# 2 0.001654 0.026911 0.096024 -0.000309 -0.055451 0.000028
# 3 0.017921 0.096024 0.582733 -0.001932 -0.292329 0.000247
# 4 0.000005 -0.000309 -0.001932 0.060561 0.000862 -0.017743
# 5 -0.018209 -0.055451 -0.292329 0.000862 0.193371 -0.000054
# 6 -0.000025 0.000028 0.000247 -0.017743 -0.000054 0.023548
#
#
# Mechanical properties :
#
#
# Convention : Reuss Voigt Hill
#
# Bulk Modulus (GPa) = 1.16976 27.82151 14.49563
# Shear Modulus (GPa) = 5.23603 33.32190 19.27896
#
# Velocity S-wave (km/s) = 1.62625 4.10252 3.12053
# Velocity P-wave (km/s) = 2.02906 6.04098 4.50613
#
# Compressibility (1/GPa) = 0.85487723
#
# Stress axis : x y z
#
# Youngs Moduli (GPa) = 71.24516 37.15967 1.71605
#
# Poissons Ratio (x) = -0.06146 -0.03075
# Poissons Ratio (y) = -0.11783 -0.16478
# Poissons Ratio (z) = -1.27679 -3.56821
#
# Static dielectric constant tensor:
#      x y z
#    x 1.717750 -0.000010 -0.007360 
#    y -0.000010 1.751320 0.000030 
#    z -0.007360 0.000030 1.731330 
# 
# From -- ./inp_files/90890.got.cif
#   From: 2010.05.17/outbox.ucp.g08.bks.cvg/sg15_46_cif.got.tgz:90890.got - 2010.06.11 12:40:34.
