data_PCOD9308783
_publ_section_title
;
Structure prediction by ZEFSAII (Michael W. Deem and Ramdas Pophale) SiO2 
 PCOD9308783
Probable space group: C 2/C
;
_chemical_formula_sum "Si O2"
_cell_formula_units_Z 32
_cell_length_a 24.000000
_cell_length_b 12.000000
_cell_length_c 12.000000
_cell_angle_alpha 90.000000
_cell_angle_beta 70.000000
_cell_angle_gamma 90.000000
_cell_volume 3247.577697
_symmetry_space_group_name_H-M "C 2/C"
_symmetry_group_IT_number 15
_symmetry_cell_setting 'monoclinic'
loop_
_space_group_symop_operation_xyz
x,y,z
-x,y,1/2-z
-x,-y,-z
x,-y,1/2+z
1/2+x,1/2+y,z
1/2-x,1/2+y,1/2-z
1/2-x,1/2-y,-z
1/2+x,1/2-y,1/2+z
loop_
_atom_site_type_symbol
_atom_site_label
_atom_site_fract_x
_atom_site_fract_y
_atom_site_fract_z
Si Si1 0.747349 0.659331 0.601373
Si Si2 0.656868 0.525945 0.526469
Si Si3 0.028148 0.188507 0.352300
Si Si4 0.124719 0.267445 0.436830
Si Si5 0.434995 0.854915 0.505699
Si Si6 0.649795 0.321127 0.357991
Si Si7 0.057478 0.050038 0.773562
Si Si8 0.472616 0.926672 0.885061
O O1 0.750000 0.750000 0.500000
O O2 0.715424 0.553982 0.561545
O O3 0.814508 0.661196 0.602640
O O4 0.703963 0.691234 0.733683
O O5 0.639612 0.643628 0.476617
O O6 0.662449 0.421303 0.438230
O O7 0.602922 0.503368 0.648851
O O8 0.090861 0.244443 0.342841
O O9 0.000000 0.203220 0.250000
O O10 0.978998 0.250587 0.458208
O O11 0.036287 0.056090 0.360393
O O12 0.076603 0.337747 0.540863
O O13 0.372276 0.795552 0.572507
O O14 0.467047 0.923212 0.582279
O O15 0.442142 0.949851 0.405787
O O16 0.594915 0.364110 0.319784
O O17 0.000000 0.097051 0.750000
O O18 0.500000 0.895085 0.750000
#
# Coordination Sequence:
#
# PCOD9308783 Si02
#       8
#     8   8   8   8   8   8   8   8
#     4   9  22  42  62  91 121 168 217 254 310 382
#     4  10  21  37  59  93 124 154 212 263 312 376
#     4  10  19  36  59  90 132 158 189 256 316 379
#     4  10  21  41  63  87 118 167 217 253 311 383
#     4  10  23  38  57  90 126 163 208 251 316 375
#     4  11  21  38  62  92 129 159 203 274 318 371
#     4  10  21  30  56  96 125 164 191 244 329 379
#     4  10  23  40  60  85 121 169 216 259 301 377
#
# _framework density 9.8534980000000001
#
# number of rings (size 3 to 8) (size 9 to 14) (size 15 to 20)
#    0.000    2.000    1.250    1.875    8.750    1.000 
#    4.500    2.500    0.000    2.250    0.000    0.000 
#    0.000    0.000    0.000    0.000    0.000    0.000 
#
# Total GULP energy -178299.615812 kJ/mol
# GULP energy per Si atom -5571.862994 kJ/mol
# Density = 0.983107 g / cm^3
# Si number density = 9.853498 Si / 1000 Ang^3
#
#
#
# Elastic Constant Matrix: (Units=GPa)
#
#
# Indices 1 2 3 4 5 6 
#
# 1 129.1979 19.1464 29.1499 0.0000 0.2769 0.0000
# 2 19.1464 80.1052 26.4965 0.0000 -17.7254 0.0000
# 3 29.1499 26.4965 53.0084 0.0000 -15.9115 0.0000
# 4 0.0000 0.0000 0.0000 13.6402 0.0000 -1.7341
# 5 0.2769 -17.7254 -15.9115 0.0000 25.5021 0.0000
# 6 0.0000 0.0000 0.0000 -1.7341 0.0000 19.3397
#
#
#
# Elastic Compliance Matrix: (Units=1/GPa)
#
#
# Indices 1 2 3 4 5 6 
#
# 1 0.009261 -0.001314 -0.005832 0.000000 -0.004653 0.000000
# 2 -0.001314 0.016250 -0.004929 0.000000 0.008234 0.000000
# 3 -0.005832 -0.004929 0.028948 0.000000 0.014699 0.000000
# 4 0.000000 0.000000 0.000000 0.074158 0.000000 0.006649
# 5 -0.004653 0.008234 0.014699 0.000000 0.054157 0.000000
# 6 0.000000 0.000000 0.000000 0.006649 0.000000 0.052303
#
#
# Mechanical properties :
#
#
# Convention : Reuss Voigt Hill
#
# Bulk Modulus (GPa) = 32.99350 45.76634 39.37992
# Shear Modulus (GPa) = 18.56461 24.19765 21.38113
#
# Velocity S-wave (km/s) = 3.07258 3.50790 3.29743
# Velocity P-wave (km/s) = 5.41905 6.29928 5.87567
#
# Compressibility (1/GPa) = 0.03030900
#
# Stress axis : x y z
#
# Youngs Moduli (GPa) = 107.98368 61.53948 34.54452
#
# Poissons Ratio (x) = 0.08085 0.20148
# Poissons Ratio (y) = 0.14187 0.17025
# Poissons Ratio (z) = 0.62981 0.30330
#
# Static dielectric constant tensor:
#      x y z
#    x 1.716140 0.000000 0.031740 
#    y 0.000000 1.708330 0.000000 
#    z 0.031740 0.000000 1.753320 
# 
# From -- ./inp_files/118009.got.cif
#   From: 2010.05.17/outbox.ucp.g08.bks.cvg/sg15_60_cif.got.tgz:118009.got - 2010.06.11 12:40:34.
