data_PCOD9308332
_publ_section_title
;
Structure prediction by ZEFSAII (Michael W. Deem and Ramdas Pophale) SiO2 
 PCOD9308332
Probable space group: C 2/C
;
_chemical_formula_sum "Si O2"
_cell_formula_units_Z 32
_cell_length_a 16.993147
_cell_length_b 4.919931
_cell_length_c 20.893786
_cell_angle_alpha 90.000000
_cell_angle_beta 135.480430
_cell_angle_gamma 90.000000
_cell_volume 1224.792920
_symmetry_space_group_name_H-M "C 2/C"
_symmetry_group_IT_number 15
_symmetry_cell_setting 'monoclinic'
loop_
_space_group_symop_operation_xyz
x,y,z
-x,y,1/2-z
-x,-y,-z
x,-y,1/2+z
1/2+x,1/2+y,z
1/2-x,1/2+y,1/2-z
1/2-x,1/2-y,-z
1/2+x,1/2-y,1/2+z
loop_
_atom_site_type_symbol
_atom_site_label
_atom_site_fract_x
_atom_site_fract_y
_atom_site_fract_z
Si Si1 0.533365 0.407836 0.448407
Si Si2 0.788028 0.776833 0.107894
Si Si3 0.680543 0.871669 0.728492
Si Si4 0.914351 0.275848 0.140633
O O1 0.500000 0.500000 0.500000
O O2 0.133161 0.579798 0.388727
O O3 0.658898 0.297199 0.528346
O O4 0.437255 0.194969 0.372356
O O5 0.775087 0.323191 0.252026
O O6 0.810930 0.083716 0.101319
O O7 0.673245 0.783339 0.797676
O O8 0.462282 0.356853 0.603691
O O9 0.000000 0.255923 0.250000
#
# Coordination Sequence:
#
# PCOD9308332 Si02
#       4
#     8   8   8   8
#     4  12  28  49  82 115 154 206 257 319 385 462
#     4  12  27  51  77 111 154 202 256 317 380 463
#     4  12  27  49  78 116 156 200 258 324 388 454
#     4  12  27  51  78 112 156 203 253 316 387 455
#
# _framework density 26.126863
#
# number of rings (size 3 to 8) (size 9 to 14) (size 15 to 20)
#    0.000    0.000    5.000    3.750    0.000    3.000 
#    0.000    0.000    0.000    0.000    0.000    0.000 
#    0.000    0.000    0.000    0.000    0.000    0.000 
#
# Total GULP energy -89952.572211 kJ/mol
# GULP energy per Si atom -5622.035763 kJ/mol
# Density = 2.606740 g / cm^3
# Si number density = 26.126863 Si / 1000 Ang^3
#
#
#
# Elastic Constant Matrix: (Units=GPa)
#
#
# Indices 1 2 3 4 5 6 
#
# 1 128.9133 17.1126 63.7464 -0.0001 0.3685 -0.0002
# 2 17.1126 79.2110 15.0565 0.0000 11.4232 0.0017
# 3 63.7464 15.0565 187.9797 0.0000 15.7012 -0.0003
# 4 -0.0001 0.0000 0.0000 22.5912 -0.0001 3.1953
# 5 0.3685 11.4232 15.7012 -0.0001 70.8546 0.0000
# 6 -0.0002 0.0017 -0.0003 3.1953 0.0000 38.8352
#
#
#
# Elastic Compliance Matrix: (Units=1/GPa)
#
#
# Indices 1 2 3 4 5 6 
#
# 1 0.009540 -0.001587 -0.003184 0.000000 0.000912 0.000000
# 2 -0.001587 0.013333 -0.000357 0.000000 -0.002062 -0.000001
# 3 -0.003184 -0.000357 0.006543 0.000000 -0.001376 0.000000
# 4 0.000000 0.000000 0.000000 0.044786 0.000000 -0.003685
# 5 0.000912 -0.002062 -0.001376 0.000000 0.014746 0.000000
# 6 0.000000 -0.000001 0.000000 -0.003685 0.000000 0.026053
#
#
# Mechanical properties :
#
#
# Convention : Reuss Voigt Hill
#
# Bulk Modulus (GPa) = 52.19740 65.32612 58.76176
# Shear Modulus (GPa) = 37.98118 46.46877 42.22497
#
# Velocity S-wave (km/s) = 3.81691 4.22190 4.02450
# Velocity P-wave (km/s) = 6.28067 6.98739 6.64344
#
# Compressibility (1/GPa) = 0.01915804
#
# Stress axis : x y z
#
# Youngs Moduli (GPa) = 104.82468 75.00343 152.83444
#
# Poissons Ratio (x) = 0.11905 0.48664
# Poissons Ratio (y) = 0.16638 0.05463
# Poissons Ratio (z) = 0.33377 0.02681
#
# Static dielectric constant tensor:
#      x y z
#    x 2.028460 0.000000 -0.023330 
#    y 0.000000 1.992530 0.000000 
#    z -0.023330 0.000000 2.004010 
# 
# From -- ./inp_files/149847.got.cif
#   From: 2010.05.17/outbox.cif.g08.bks.cpg/sg15_75_cif.got.tgz:149847.got - 2010.06.03 18:47:42.
