data_PCOD9308838
_publ_section_title
;
Structure prediction by ZEFSAII (Michael W. Deem and Ramdas Pophale) SiO2 
 PCOD9308838
Probable space group: C 2/C
;
_chemical_formula_sum "Si O2"
_cell_formula_units_Z 24
_cell_length_a 12.000000
_cell_length_b 15.000000
_cell_length_c 27.000000
_cell_angle_alpha 90.000000
_cell_angle_beta 150.000000
_cell_angle_gamma 90.000000
_cell_volume 2430.000000
_symmetry_space_group_name_H-M "C 2/C"
_symmetry_group_IT_number 15
_symmetry_cell_setting 'monoclinic'
loop_
_space_group_symop_operation_xyz
x,y,z
-x,y,1/2-z
-x,-y,-z
x,-y,1/2+z
1/2+x,1/2+y,z
1/2-x,1/2+y,1/2-z
1/2-x,1/2-y,-z
1/2+x,1/2-y,1/2+z
loop_
_atom_site_type_symbol
_atom_site_label
_atom_site_fract_x
_atom_site_fract_y
_atom_site_fract_z
Si Si1 0.107495 0.334396 0.587159
Si Si2 0.781101 0.016883 0.948536
Si Si3 0.668436 0.775626 0.414415
Si Si4 0.700045 0.319661 0.191389
Si Si5 0.667192 0.554883 0.915156
Si Si6 0.500000 0.545152 0.250000
Si Si7 0.000000 0.460702 0.250000
O O1 0.216883 0.289833 0.580889
O O2 0.065648 0.252685 0.608005
O O3 0.292030 0.394269 0.685257
O O4 0.898464 0.395051 0.494071
O O5 0.742833 0.122381 0.936910
O O6 0.586143 0.987835 0.833023
O O7 0.803377 0.983454 0.015416
O O8 0.000000 0.000000 0.000000
O O9 0.750000 0.750000 0.500000
O O10 0.404254 0.776960 0.300708
O O11 0.528791 0.373243 0.158129
O O12 0.811198 0.392569 0.197335
O O13 0.595639 0.499017 0.838187
#
# Coordination Sequence:
#
# PCOD9308838 Si02
#       7
#     8   8   8   8   8   4   4
#     4  12  23  46  67  93 135 182 223 274 344 408
#     4  11  22  41  66  99 127 166 217 281 332 390
#     4  11  23  41  71  92 126 179 231 262 327 418
#     4  11  21  45  68  93 129 178 222 275 334 397
#     4  12  28  40  70 103 139 171 224 292 337 394
#     4  12  27  46  62 101 140 180 220 270 351 406
#     4  10  19  40  68  89 128 166 222 262 329 394
#
# _framework density 9.8765429999999999
#
# number of rings (size 3 to 8) (size 9 to 14) (size 15 to 20)
#    0.000    0.667    6.667    2.000    7.000    0.000 
#    0.000    0.000    0.000    0.000    0.000    0.000 
#    0.000    0.000    0.000    0.000    0.000    0.000 
#
# Total GULP energy -133646.051400 kJ/mol
# GULP energy per Si atom -5568.585475 kJ/mol
# Density = 0.985406 g / cm^3
# Si number density = 9.876543 Si / 1000 Ang^3
#
#
#
# Elastic Constant Matrix: (Units=GPa)
#
#
# Indices 1 2 3 4 5 6 
#
# 1 62.6080 35.6074 52.5953 0.0001 -19.7556 0.0002
# 2 35.6074 61.8895 46.3417 0.0005 -1.4168 0.0001
# 3 52.5953 46.3417 117.5999 0.0004 -23.0145 -0.0006
# 4 0.0001 0.0005 0.0004 12.7138 0.0001 -13.1314
# 5 -19.7556 -1.4168 -23.0145 0.0001 52.2567 0.0000
# 6 0.0002 0.0001 -0.0006 -13.1314 0.0000 5.1918
#
#
#
# Elastic Compliance Matrix: (Units=1/GPa)
#
#
# Indices 1 2 3 4 5 6 
#
# 1 0.032395 -0.012528 -0.007902 0.000001 0.008427 0.000001
# 2 -0.012528 0.028429 -0.006977 0.000001 -0.007038 0.000002
# 3 -0.007902 -0.006977 0.015501 -0.000001 0.003650 -0.000001
# 4 0.000001 0.000001 -0.000001 -0.048783 0.000000 -0.123384
# 5 0.008427 -0.007038 0.003650 0.000000 0.023739 0.000000
# 6 0.000001 0.000002 -0.000001 -0.123384 0.000000 -0.119460
#
#
# Mechanical properties :
#
#
# Convention : Reuss Voigt Hill
#
# Bulk Modulus (GPa) = 46.48915 56.79848 51.64382
# Shear Modulus (GPa) = -807.48861 21.20265 -393.14298
#
# Velocity S-wave (km/s) = -20.24052 3.27981 -14.12306
# Velocity P-wave (km/s) = 22.86158 6.56959 15.48374
#
# Compressibility (1/GPa) = 0.02151039
#
# Stress axis : x y z
#
# Youngs Moduli (GPa) = 30.86868 35.17538 64.51012
#
# Poissons Ratio (x) = 0.44068 0.50978
# Poissons Ratio (y) = 0.38673 0.45009
# Poissons Ratio (z) = 0.24394 0.24542
#
# Static dielectric constant tensor:
#      x y z
#    x 1.964730 0.000000 0.221960 
#    y 0.000000 1.718950 0.000000 
#    z 0.221960 0.000000 1.978260 
# 
# From -- ./inp_files/293148.got.cif
#   From: 2010.05.17/outbox.ucp.g08.bks.cvg/sg15_147_cif.got.tgz:293148.got - 2010.06.11 12:40:34.
