data_PCOD9308017
_publ_section_title
;
Structure prediction by ZEFSAII (Michael W. Deem and Ramdas Pophale) SiO2 
 PCOD9308017
Probable space group: C 2/C
;
_chemical_formula_sum "Si O2"
_cell_formula_units_Z 44
_cell_length_a 15.336810
_cell_length_b 7.995794
_cell_length_c 19.375144
_cell_angle_alpha 90.000000
_cell_angle_beta 58.194934
_cell_angle_gamma 90.000000
_cell_volume 2019.211715
_symmetry_space_group_name_H-M "C 2/C"
_symmetry_group_IT_number 15
_symmetry_cell_setting 'monoclinic'
loop_
_space_group_symop_operation_xyz
x,y,z
-x,y,1/2-z
-x,-y,-z
x,-y,1/2+z
1/2+x,1/2+y,z
1/2-x,1/2+y,1/2-z
1/2-x,1/2-y,-z
1/2+x,1/2-y,1/2+z
loop_
_atom_site_type_symbol
_atom_site_label
_atom_site_fract_x
_atom_site_fract_y
_atom_site_fract_z
Si Si1 0.000000 0.261437 0.750000
Si Si2 0.421840 0.630335 0.000699
Si Si3 0.670045 0.495515 0.718662
Si Si4 0.633321 0.202795 0.839302
Si Si5 0.545794 0.938636 0.592962
Si Si6 0.768424 0.935631 0.963714
O O1 0.085488 0.140409 0.746913
O O2 0.047105 0.377378 0.671052
O O3 0.356377 0.705765 0.091156
O O4 0.500000 0.500000 0.000000
O O5 0.486754 0.779442 0.938950
O O6 0.351320 0.538991 0.973670
O O7 0.631718 0.342399 0.780935
O O8 0.771836 0.576851 0.709145
O O9 0.697271 0.435500 0.630025
O O10 0.529654 0.094279 0.883548
O O11 0.658983 0.976802 0.518837
O O12 0.750000 0.750000 0.000000
#
# Coordination Sequence:
#
# PCOD9308017 Si02
#       6
#     4   8   8   8   8   8
#     4  12  26  46  76 104 148 194 248 306 362 440
#     4  12  25  48  76 110 143 194 245 308 370 435
#     4  12  28  50  70 111 149 195 243 305 370 436
#     4  12  28  46  77 105 152 192 249 306 366 442
#     4  12  26  49  75 109 146 195 247 302 369 435
#     4  12  28  47  77 107 148 194 247 302 371 445
#
# _framework density 21.790683000000001
#
# number of rings (size 3 to 8) (size 9 to 14) (size 15 to 20)
#    0.000    0.000    3.636    5.455   10.182    0.000 
#    0.000    0.000    0.000    0.000    0.000    0.000 
#    0.000    0.000    0.000    0.000    0.000    0.000 
#
# Total GULP energy -123317.260868 kJ/mol
# GULP energy per Si atom -5605.330039 kJ/mol
# Density = 2.174109 g / cm^3
# Si number density = 21.790683 Si / 1000 Ang^3
#
#
#
# Elastic Constant Matrix: (Units=GPa)
#
#
# Indices 1 2 3 4 5 6 
#
# 1 76.4826 11.1450 11.6617 0.0000 5.0158 0.0000
# 2 11.1450 93.1942 41.5167 0.0000 22.4427 0.0000
# 3 11.6617 41.5167 127.5704 0.0000 25.7191 0.0000
# 4 0.0000 0.0000 0.0000 64.1480 0.0000 0.5252
# 5 5.0158 22.4427 25.7191 0.0000 32.4075 0.0000
# 6 0.0000 0.0000 0.0000 0.5252 0.0000 32.3618
#
#
#
# Elastic Compliance Matrix: (Units=1/GPa)
#
#
# Indices 1 2 3 4 5 6 
#
# 1 0.013393 -0.001105 -0.000716 0.000000 -0.000740 0.000000
# 2 -0.001105 0.013902 -0.002996 0.000000 -0.007078 0.000000
# 3 -0.000716 -0.002996 0.010046 0.000000 -0.005787 0.000000
# 4 0.000000 0.000000 0.000000 0.015591 0.000000 -0.000253
# 5 -0.000740 -0.007078 -0.005787 0.000000 0.040466 0.000000
# 6 0.000000 0.000000 0.000000 -0.000253 0.000000 0.030905
#
#
# Mechanical properties :
#
#
# Convention : Reuss Voigt Hill
#
# Bulk Modulus (GPa) = 36.09043 47.32157 41.70600
# Shear Modulus (GPa) = 34.92297 41.31171 38.11734
#
# Velocity S-wave (km/s) = 4.00766 4.35885 4.18694
# Velocity P-wave (km/s) = 6.16550 6.86268 6.52341
#
# Compressibility (1/GPa) = 0.02770817
#
# Stress axis : x y z
#
# Youngs Moduli (GPa) = 74.66316 71.93348 99.54198
#
# Poissons Ratio (x) = 0.07946 0.07124
# Poissons Ratio (y) = 0.08248 0.29824
# Poissons Ratio (z) = 0.05343 0.21552
#
# Static dielectric constant tensor:
#      x y z
#    x 1.795930 0.000000 -0.016660 
#    y 0.000000 1.824140 0.000000 
#    z -0.016660 0.000000 1.809700 
# 
# From -- ./inp_files/202932.got.cif
#   From: 2010.05.17/outbox.cif.g08.bks.cpg/sg15_102_cif.got.tgz:202932.got - 2010.06.03 18:47:42.
