data_PCOD9308192
_publ_section_title
;
Structure prediction by ZEFSAII (Michael W. Deem and Ramdas Pophale) SiO2 
 PCOD9308192
Probable space group: C 2/C
;
_chemical_formula_sum "Si O2"
_cell_formula_units_Z 40
_cell_length_a 24.040883
_cell_length_b 9.098479
_cell_length_c 19.369920
_cell_angle_alpha 90.000000
_cell_angle_beta 21.019320
_cell_angle_gamma 90.000000
_cell_volume 1519.698749
_symmetry_space_group_name_H-M "C 2/C"
_symmetry_group_IT_number 15
_symmetry_cell_setting 'monoclinic'
loop_
_space_group_symop_operation_xyz
x,y,z
-x,y,1/2-z
-x,-y,-z
x,-y,1/2+z
1/2+x,1/2+y,z
1/2-x,1/2+y,1/2-z
1/2-x,1/2-y,-z
1/2+x,1/2-y,1/2+z
loop_
_atom_site_type_symbol
_atom_site_label
_atom_site_fract_x
_atom_site_fract_y
_atom_site_fract_z
Si Si1 0.232317 0.670621 0.250680
Si Si2 0.578701 0.141471 0.067132
Si Si3 0.079363 0.170071 0.339025
Si Si4 0.368642 0.573093 0.827647
Si Si5 0.800876 0.463230 0.344105
O O1 0.333829 0.603914 0.194968
O O2 0.033669 0.778156 0.286072
O O3 0.208292 0.558519 0.215311
O O4 0.333803 0.804432 0.102645
O O5 0.468569 0.004099 0.181815
O O6 0.428397 0.240547 0.037828
O O7 0.707785 0.110033 0.974466
O O8 0.198767 0.291439 0.171140
O O9 0.050927 0.049048 0.313788
O O10 0.323764 0.513741 0.954858
#
# Coordination Sequence:
#
# PCOD9308192 Si02
#       5
#     8   8   8   8   8
#     4  12  27  46  80 110 156 203 264 309 391 455
#     4  12  26  48  80 112 152 207 265 316 381 469
#     4  12  29  50  78 116 159 204 258 329 392 459
#     4  12  29  49  81 114 159 204 266 319 394 464
#     4  12  27  50  79 111 161 206 262 319 393 461
#
# _framework density 26.321006000000001
#
# number of rings (size 3 to 8) (size 9 to 14) (size 15 to 20)
#    0.000    0.000    4.000    3.600    8.400    1.600 
#    0.000    2.000    0.000    0.000    0.000    0.000 
#    0.000    0.000    0.000    0.000    0.000    0.000 
#
# Total GULP energy -112488.450748 kJ/mol
# GULP energy per Si atom -5624.422537 kJ/mol
# Density = 2.626110 g / cm^3
# Si number density = 26.321006 Si / 1000 Ang^3
#
#
#
# Elastic Constant Matrix: (Units=GPa)
#
#
# Indices 1 2 3 4 5 6 
#
# 1 161.0161 29.1133 50.4986 -0.0001 8.1731 0.0002
# 2 29.1133 89.6844 46.1092 0.0000 17.9119 0.0001
# 3 50.4986 46.1092 143.3222 -0.0001 16.8205 0.0001
# 4 -0.0001 0.0000 -0.0001 24.8910 0.0001 2.7521
# 5 8.1731 17.9119 16.8205 0.0001 49.2275 -0.0001
# 6 0.0002 0.0001 0.0001 2.7521 -0.0001 39.9511
#
#
#
# Elastic Compliance Matrix: (Units=1/GPa)
#
#
# Indices 1 2 3 4 5 6 
#
# 1 0.007092 -0.001217 -0.002106 0.000000 -0.000015 0.000000
# 2 -0.001217 0.014186 -0.003702 0.000000 -0.003695 0.000000
# 3 -0.002106 -0.003702 0.009075 0.000000 -0.001404 0.000000
# 4 0.000000 0.000000 0.000000 0.040484 0.000000 -0.002789
# 5 -0.000015 -0.003695 -0.001404 0.000000 0.022141 0.000000
# 6 0.000000 0.000000 0.000000 -0.002789 0.000000 0.025223
#
#
# Mechanical properties :
#
#
# Convention : Reuss Voigt Hill
#
# Bulk Modulus (GPa) = 61.32976 71.71833 66.52404
# Shear Modulus (GPa) = 36.31553 40.70070 38.50811
#
# Velocity S-wave (km/s) = 3.71848 3.93659 3.82909
# Velocity P-wave (km/s) = 6.46432 6.92597 6.69912
#
# Compressibility (1/GPa) = 0.01630530
#
# Stress axis : x y z
#
# Youngs Moduli (GPa) = 141.01113 70.49099 110.19461
#
# Poissons Ratio (x) = 0.08575 0.23202
# Poissons Ratio (y) = 0.17154 0.40790
# Poissons Ratio (z) = 0.29690 0.26093
#
# Static dielectric constant tensor:
#      x y z
#    x 2.075600 0.000000 -0.007100 
#    y 0.000000 1.988490 0.000000 
#    z -0.007100 0.000000 2.077800 
# 
# From -- ./inp_files/176059.got.cif
#   From: 2010.05.17/outbox.cif.g08.bks.cpg/sg15_89_cif.got.tgz:176059.got - 2010.06.03 18:47:42.
