data_PCOD9308681
_publ_section_title
;
Structure prediction by ZEFSAII (Michael W. Deem and Ramdas Pophale) SiO2 
 PCOD9308681
Probable space group: C 2/C
;
_chemical_formula_sum "Si O2"
_cell_formula_units_Z 30
_cell_length_a 9.000000
_cell_length_b 24.000000
_cell_length_c 15.000000
_cell_angle_alpha 90.000000
_cell_angle_beta 110.000000
_cell_angle_gamma 90.000000
_cell_volume 3044.604091
_symmetry_space_group_name_H-M "C 2/C"
_symmetry_group_IT_number 15
_symmetry_cell_setting 'monoclinic'
loop_
_space_group_symop_operation_xyz
x,y,z
-x,y,1/2-z
-x,-y,-z
x,-y,1/2+z
1/2+x,1/2+y,z
1/2-x,1/2+y,1/2-z
1/2-x,1/2-y,-z
1/2+x,1/2-y,1/2+z
loop_
_atom_site_type_symbol
_atom_site_label
_atom_site_fract_x
_atom_site_fract_y
_atom_site_fract_z
Si Si1 0.500000 0.677527 0.750000
Si Si2 0.775611 0.161432 0.450364
Si Si3 0.628245 0.501031 0.702552
Si Si4 0.858314 0.548931 0.096092
Si Si5 0.430008 0.392669 0.410945
Si Si6 0.937863 0.633686 0.636763
Si Si7 0.321581 0.779409 0.383526
Si Si8 0.632389 0.033333 0.607183
O O1 0.523079 0.641317 0.667250
O O2 0.335243 0.710031 0.707064
O O3 0.643741 0.115925 0.398093
O O4 0.716670 0.189588 0.530577
O O5 0.823446 0.213529 0.399514
O O6 0.934759 0.124749 0.492692
O O7 0.500000 0.475539 0.750000
O O8 0.751586 0.469401 0.660059
O O9 0.555818 0.543583 0.615996
O O10 0.730144 0.538671 0.792332
O O11 0.029816 0.519061 0.123593
O O12 0.806331 0.531692 0.982569
O O13 0.251631 0.375083 0.402573
O O14 0.000000 0.623320 0.750000
O O15 0.020543 0.691689 0.623460
O O16 0.016583 0.586059 0.591810
#
# Coordination Sequence:
#
# PCOD9308681 Si02
#       8
#     4   8   8   8   8   8   8   8
#     4  10  18  36  60  92 106 162 210 262 304 372
#     4  10  23  41  58  88 126 168 204 261 316 391
#     4  12  23  38  62  93 130 166 209 268 317 387
#     4  11  23  41  63  91 129 167 211 256 323 391
#     4  11  21  34  65  92 120 157 214 263 317 363
#     4  12  19  36  64  95 121 157 210 278 311 365
#     4  10  21  39  62  86 123 157 217 257 320 373
#     4  11  22  40  63  95 125 165 217 262 325 379
#
# _framework density 9.8534980000000001
#
# number of rings (size 3 to 8) (size 9 to 14) (size 15 to 20)
#    0.000    1.067    6.000    1.200    0.000    2.667 
#    2.400    0.667    0.000    0.000    0.000    0.000 
#    0.000    0.000    0.000    0.000    0.000    0.000 
#
# Total GULP energy -167029.157296 kJ/mol
# GULP energy per Si atom -5567.638577 kJ/mol
# Density = 0.983107 g / cm^3
# Si number density = 9.853498 Si / 1000 Ang^3
#
#
#
# Elastic Constant Matrix: (Units=GPa)
#
#
# Indices 1 2 3 4 5 6 
#
# 1 105.8446 10.7743 9.3321 0.0000 -20.2634 0.0000
# 2 10.7743 81.6604 11.1502 0.0000 -1.9379 0.0000
# 3 9.3321 11.1502 38.5361 0.0000 -18.4586 0.0000
# 4 0.0000 0.0000 0.0000 24.2595 0.0000 -6.7430
# 5 -20.2634 -1.9379 -18.4586 0.0000 35.2150 0.0000
# 6 0.0000 0.0000 0.0000 -6.7430 0.0000 32.8624
#
#
#
# Elastic Compliance Matrix: (Units=1/GPa)
#
#
# Indices 1 2 3 4 5 6 
#
# 1 0.010774 -0.001397 0.000972 0.000000 0.006632 0.000000
# 2 -0.001397 0.013002 -0.004628 0.000000 -0.002514 0.000000
# 3 0.000972 -0.004628 0.036318 0.000000 0.019341 0.000000
# 4 0.000000 0.000000 0.000000 0.043714 0.000000 0.008970
# 5 0.006632 -0.002514 0.019341 0.000000 0.042213 0.000000
# 6 0.000000 0.000000 0.000000 0.008970 0.000000 0.032270
#
#
# Mechanical properties :
#
#
# Convention : Reuss Voigt Hill
#
# Bulk Modulus (GPa) = 20.00488 32.06158 26.03323
# Shear Modulus (GPa) = 24.38303 31.45301 27.91802
#
# Velocity S-wave (km/s) = 3.52131 3.99937 3.76793
# Velocity P-wave (km/s) = 5.16779 6.13442 5.67173
#
# Compressibility (1/GPa) = 0.04998780
#
# Stress axis : x y z
#
# Youngs Moduli (GPa) = 92.81607 76.90875 27.53471
#
# Poissons Ratio (x) = 0.10743 -0.02676
# Poissons Ratio (y) = 0.12965 0.12744
# Poissons Ratio (z) = -0.09020 0.35595
#
# Static dielectric constant tensor:
#      x y z
#    x 1.744590 0.000000 0.037820 
#    y 0.000000 1.722860 0.000000 
#    z 0.037820 0.000000 1.727240 
# 
# From -- ./inp_files/137882.got.cif
#   From: 2010.05.17/outbox.ucp.g08.bks.cvg/sg15_69_cif.got.tgz:137882.got - 2010.06.11 12:40:34.
