data_PCOD9308231
_publ_section_title
;
Structure prediction by ZEFSAII (Michael W. Deem and Ramdas Pophale) SiO2 
 PCOD9308231
Probable space group: C 2/C
;
_chemical_formula_sum "Si O2"
_cell_formula_units_Z 48
_cell_length_a 14.278475
_cell_length_b 5.893479
_cell_length_c 28.877541
_cell_angle_alpha 90.000000
_cell_angle_beta 120.133712
_cell_angle_gamma 90.000000
_cell_volume 2101.636840
_symmetry_space_group_name_H-M "C 2/C"
_symmetry_group_IT_number 15
_symmetry_cell_setting 'monoclinic'
loop_
_space_group_symop_operation_xyz
x,y,z
-x,y,1/2-z
-x,-y,-z
x,-y,1/2+z
1/2+x,1/2+y,z
1/2-x,1/2+y,1/2-z
1/2-x,1/2-y,-z
1/2+x,1/2-y,1/2+z
loop_
_atom_site_type_symbol
_atom_site_label
_atom_site_fract_x
_atom_site_fract_y
_atom_site_fract_z
Si Si1 0.917267 0.003788 0.312590
Si Si2 0.802787 0.502954 0.499436
Si Si3 0.692353 0.809668 0.291538
Si Si4 0.003869 0.375183 0.110852
Si Si5 0.419961 0.149759 0.177462
Si Si6 0.727498 0.034057 0.615749
O O1 0.861774 0.184266 0.264831
O O2 0.988417 0.111261 0.371959
O O3 0.814088 0.876086 0.308099
O O4 0.996326 0.854979 0.301265
O O5 0.750000 0.250000 0.500000
O O6 0.919367 0.531251 0.552572
O O7 0.806957 0.515202 0.444934
O O8 0.750000 0.750000 0.500000
O O9 0.703648 0.657887 0.340514
O O10 0.615392 0.017899 0.285521
O O11 0.969712 0.493326 0.150005
O O12 0.123551 0.426017 0.122074
O O13 0.304194 0.247661 0.132421
#
# Coordination Sequence:
#
# PCOD9308231 Si02
#       6
#     8   8   8   8   8   8
#     4  12  28  51  77 114 157 205 267 333 406 490
#     4  12  27  50  81 123 163 219 275 337 412 490
#     4  12  28  51  77 114 157 205 267 333 406 490
#     4  12  26  50  79 115 155 208 265 334 402 484
#     4  12  26  50  76 104 156 201 260 321 408 480
#     4  12  26  50  79 115 155 208 265 334 402 484
#
# _framework density 22.839341999999998
#
# number of rings (size 3 to 8) (size 9 to 14) (size 15 to 20)
#    0.000    0.000    5.000    4.500    0.000    4.000 
#    0.000    2.500    0.000    0.000    0.000    0.000 
#    0.000    0.000    0.000    0.000    0.000    0.000 
#
# Total GULP energy -134208.568779 kJ/mol
# GULP energy per Si atom -5592.023699 kJ/mol
# Density = 2.278736 g / cm^3
# Si number density = 22.839342 Si / 1000 Ang^3
#
#
#
# Elastic Constant Matrix: (Units=GPa)
#
#
# Indices 1 2 3 4 5 6 
#
# 1 163.3899 47.0111 8.9593 0.0000 -1.0696 0.0000
# 2 47.0111 75.4144 12.2374 0.0000 -0.3463 0.0000
# 3 8.9593 12.2374 88.7996 0.0000 -13.0660 0.0000
# 4 0.0000 0.0000 0.0000 21.0731 0.0000 12.5553
# 5 -1.0696 -0.3463 -13.0660 0.0000 41.6178 0.0000
# 6 0.0000 0.0000 0.0000 12.5553 0.0000 47.4900
#
#
#
# Elastic Compliance Matrix: (Units=1/GPa)
#
#
# Indices 1 2 3 4 5 6 
#
# 1 0.007460 -0.004634 -0.000096 0.000000 0.000123 0.000000
# 2 -0.004634 0.016452 -0.001884 0.000000 -0.000574 0.000000
# 3 -0.000096 -0.001884 0.012086 0.000000 0.003776 0.000000
# 4 0.000000 0.000000 0.000000 0.056326 0.000000 -0.014891
# 5 0.000123 -0.000574 0.003776 0.000000 0.025212 0.000000
# 6 0.000000 0.000000 0.000000 -0.014891 0.000000 0.024994
#
#
# Mechanical properties :
#
#
# Convention : Reuss Voigt Hill
#
# Bulk Modulus (GPa) = 43.91784 51.55773 47.73779
# Shear Modulus (GPa) = 30.60945 39.32926 34.96936
#
# Velocity S-wave (km/s) = 3.66486 4.15420 3.91717
# Velocity P-wave (km/s) = 6.09746 6.75521 6.43474
#
# Compressibility (1/GPa) = 0.02276979
#
# Stress axis : x y z
#
# Youngs Moduli (GPa) = 134.05338 60.78332 82.73835
#
# Poissons Ratio (x) = 0.28167 0.00794
# Poissons Ratio (y) = 0.62121 0.15589
# Poissons Ratio (z) = 0.01286 0.11452
#
# Static dielectric constant tensor:
#      x y z
#    x 1.794530 0.000000 0.022450 
#    y 0.000000 1.993120 0.000000 
#    z 0.022450 0.000000 1.870180 
# 
# From -- ./inp_files/312446.got.cif
#   From: 2010.05.17/outbox.cif.g08.bks.cpg/sg15_157_cif.got.tgz:312446.got - 2010.06.03 18:47:42.
