data_PCOD9308610
_publ_section_title
;
Structure prediction by ZEFSAII (Michael W. Deem and Ramdas Pophale) SiO2 
 PCOD9308610
Probable space group: C 2/C
;
_chemical_formula_sum "Si O2"
_cell_formula_units_Z 30
_cell_length_a 24.000000
_cell_length_b 21.000000
_cell_length_c 6.000000
_cell_angle_alpha 90.000000
_cell_angle_beta 90.000000
_cell_angle_gamma 90.000000
_cell_volume 3024.000000
_symmetry_space_group_name_H-M "C 2/C"
_symmetry_group_IT_number 15
_symmetry_cell_setting 'monoclinic'
loop_
_space_group_symop_operation_xyz
x,y,z
-x,y,1/2-z
-x,-y,-z
x,-y,1/2+z
1/2+x,1/2+y,z
1/2-x,1/2+y,1/2-z
1/2-x,1/2-y,-z
1/2+x,1/2-y,1/2+z
loop_
_atom_site_type_symbol
_atom_site_label
_atom_site_fract_x
_atom_site_fract_y
_atom_site_fract_z
Si Si1 0.807176 0.331566 0.849957
Si Si2 0.419204 0.665458 0.916280
Si Si3 0.817566 0.789890 0.679217
Si Si4 0.435300 0.521935 0.766820
Si Si5 0.500000 0.737869 0.250000
Si Si6 0.519620 0.073307 0.001012
Si Si7 0.395951 0.232026 0.043367
Si Si8 0.147761 0.536690 0.018060
O O1 0.743610 0.317982 0.770038
O O2 0.857371 0.321869 0.666513
O O3 0.812093 0.401976 0.954943
O O4 0.814521 0.275463 0.033685
O O5 0.431998 0.597783 0.806726
O O6 0.416716 0.721092 0.734847
O O7 0.358953 0.664317 0.039591
O O8 0.465445 0.691008 0.088155
O O9 0.850860 0.770516 0.898736
O O10 0.500000 0.500653 0.750000
O O11 0.413227 0.505858 0.511081
O O12 0.451229 0.777143 0.385659
O O13 0.500000 0.100260 0.250000
O O14 0.586233 0.068009 0.009074
O O15 0.500000 0.096863 0.750000
O O16 0.500000 0.000000 0.000000
O O17 0.152958 0.498334 0.265807
#
# Coordination Sequence:
#
# PCOD9308610 Si02
#       8
#     8   8   8   8   4   8   8   8
#     4  10  23  42  67  95 123 168 224 272 329 393
#     4  10  21  37  62  88 126 170 209 273 334 391
#     4   9  21  43  68  92 120 166 224 279 331 388
#     4  10  22  34  54  88 128 171 216 256 316 400
#     4  10  20  34  64  90 130 158 206 266 346 388
#     4  10  16  34  60  81 120 167 213 244 304 384
#     4  10  20  38  66  92 124 165 212 272 334 393
#     4  12  24  41  68  97 133 175 218 269 328 397
#
# _framework density 9.9206350000000008
#
# number of rings (size 3 to 8) (size 9 to 14) (size 15 to 20)
#    0.000    1.867    2.667    1.600    8.400    0.000 
#    0.000    5.333    7.333    0.000    0.000    0.000 
#    0.000    0.000    0.000    0.000    0.000    0.000 
#
# Total GULP energy -167013.066007 kJ/mol
# GULP energy per Si atom -5567.102200 kJ/mol
# Density = 0.989806 g / cm^3
# Si number density = 9.920635 Si / 1000 Ang^3
#
#
#
# Elastic Constant Matrix: (Units=GPa)
#
#
# Indices 1 2 3 4 5 6 
#
# 1 116.5410 32.9893 40.4046 0.0000 2.0168 0.0000
# 2 32.9893 66.1690 35.3798 0.0000 1.6121 0.0000
# 3 40.4046 35.3798 153.5996 0.0000 8.2116 0.0000
# 4 0.0000 0.0000 0.0000 19.2127 0.0000 -8.8550
# 5 2.0168 1.6121 8.2116 0.0000 37.5356 0.0000
# 6 0.0000 0.0000 0.0000 -8.8550 0.0000 24.5209
#
#
#
# Elastic Compliance Matrix: (Units=1/GPa)
#
#
# Indices 1 2 3 4 5 6 
#
# 1 0.010390 -0.004241 -0.001757 0.000000 0.000008 0.000000
# 2 -0.004241 0.018967 -0.003260 0.000000 0.000126 0.000000
# 3 -0.001757 -0.003260 0.007802 0.000000 -0.001472 0.000000
# 4 0.000000 0.000000 0.000000 0.062442 0.000000 0.022549
# 5 0.000008 0.000126 -0.001472 0.000000 0.026958 0.000000
# 6 0.000000 0.000000 0.000000 0.022549 0.000000 0.048924
#
#
# Mechanical properties :
#
#
# Convention : Reuss Voigt Hill
#
# Bulk Modulus (GPa) = 53.63655 61.53968 57.58812
# Shear Modulus (GPa) = 24.97337 31.42289 28.19813
#
# Velocity S-wave (km/s) = 3.55161 3.98391 3.77395
# Velocity P-wave (km/s) = 6.62647 7.22810 6.93381
#
# Compressibility (1/GPa) = 0.01864400
#
# Stress axis : x y z
#
# Youngs Moduli (GPa) = 96.24570 52.72253 128.16953
#
# Poissons Ratio (x) = 0.22360 0.22516
# Poissons Ratio (y) = 0.40818 0.41784
# Poissons Ratio (z) = 0.16908 0.17188
#
# Static dielectric constant tensor:
#      x y z
#    x 1.785780 0.000000 -0.002930 
#    y 0.000000 1.589360 0.000000 
#    z -0.002930 0.000000 1.783150 
# 
# From -- ./inp_files/15849.got.cif
#   From: 2010.05.17/outbox.ucp.g08.bks.cvg/sg15_8_cif.got.tgz:15849.got - 2010.06.11 12:40:34.
