data_PCOD9308143
_publ_section_title
;
Structure prediction by ZEFSAII (Michael W. Deem and Ramdas Pophale) SiO2 
 PCOD9308143
Probable space group: C 2/C
;
_chemical_formula_sum "Si O2"
_cell_formula_units_Z 40
_cell_length_a 15.098854
_cell_length_b 15.585063
_cell_length_c 18.765257
_cell_angle_alpha 90.000000
_cell_angle_beta 157.340406
_cell_angle_gamma 90.000000
_cell_volume 1701.201473
_symmetry_space_group_name_H-M "C 2/C"
_symmetry_group_IT_number 15
_symmetry_cell_setting 'monoclinic'
loop_
_space_group_symop_operation_xyz
x,y,z
-x,y,1/2-z
-x,-y,-z
x,-y,1/2+z
1/2+x,1/2+y,z
1/2-x,1/2+y,1/2-z
1/2-x,1/2-y,-z
1/2+x,1/2-y,1/2+z
loop_
_atom_site_type_symbol
_atom_site_label
_atom_site_fract_x
_atom_site_fract_y
_atom_site_fract_z
Si Si1 0.468757 0.436058 0.539881
Si Si2 0.261329 0.526928 0.032624
Si Si3 0.388776 0.830967 0.304021
Si Si4 0.903254 0.334658 0.599469
Si Si5 0.649940 0.832429 0.637285
O O1 0.500000 0.500000 0.500000
O O2 0.305990 0.466832 0.481584
O O3 0.351030 0.358916 0.409111
O O4 0.719453 0.421727 0.758893
O O5 0.500000 0.546214 0.250000
O O6 0.196786 0.427386 0.000157
O O7 0.077876 0.602144 0.914588
O O8 0.442032 0.835373 0.427714
O O9 0.360527 0.729462 0.267237
O O10 0.750000 0.250000 0.500000
O O11 0.000000 0.353021 0.750000
O O12 0.069799 0.309147 0.657453
#
# Coordination Sequence:
#
# PCOD9308143 Si02
#       5
#     8   8   8   8   8
#     4  12  27  47  78 109 155 200 249 313 379 457
#     4  12  27  49  75 114 152 200 250 318 380 455
#     4  12  26  49  75 114 152 195 257 306 387 452
#     4  12  27  49  75 110 151 198 261 318 386 450
#     4  12  26  47  77 112 150 205 249 316 379 461
#
# _framework density 23.512794
#
# number of rings (size 3 to 8) (size 9 to 14) (size 15 to 20)
#    0.000    0.000    4.000    6.000    5.600    2.400 
#    3.600    0.000    0.000    0.000    0.000    0.000 
#    0.000    0.000    0.000    0.000    0.000    0.000 
#
# Total GULP energy -111531.220943 kJ/mol
# GULP energy per Si atom -5576.561047 kJ/mol
# Density = 2.345928 g / cm^3
# Si number density = 23.512794 Si / 1000 Ang^3
#
#
#
# Elastic Constant Matrix: (Units=GPa)
#
#
# Indices 1 2 3 4 5 6 
#
# 1 135.8102 44.8796 17.7045 0.0098 -4.2385 0.0029
# 2 44.8796 73.1107 3.1943 -0.0697 4.8245 -0.0167
# 3 17.7045 3.1943 89.2517 -0.1136 -19.1555 -0.0426
# 4 0.0098 -0.0697 -0.1136 42.4680 -0.0174 -2.8574
# 5 -4.2385 4.8245 -19.1555 -0.0174 34.7215 0.0036
# 6 0.0029 -0.0167 -0.0426 -2.8574 0.0036 22.3933
#
#
#
# Elastic Compliance Matrix: (Units=1/GPa)
#
#
# Indices 1 2 3 4 5 6 
#
# 1 0.009523 -0.005862 -0.001424 -0.000016 0.001192 -0.000011
# 2 -0.005862 0.017497 -0.000157 0.000030 -0.003234 0.000018
# 3 -0.001424 -0.000157 0.012999 0.000040 0.007019 0.000029
# 4 -0.000016 0.000030 0.000040 0.023751 0.000027 0.003031
# 5 0.001192 -0.003234 0.007019 0.000027 0.033268 0.000009
# 6 -0.000011 0.000018 0.000029 0.003031 0.000009 0.045043
#
#
# Mechanical properties :
#
#
# Convention : Reuss Voigt Hill
#
# Bulk Modulus (GPa) = 39.78893 47.74771 43.76832
# Shear Modulus (GPa) = 30.23982 35.40953 32.82467
#
# Velocity S-wave (km/s) = 3.59011 3.88489 3.74041
# Velocity P-wave (km/s) = 5.84331 6.36195 6.10813
#
# Compressibility (1/GPa) = 0.02513262
#
# Stress axis : x y z
#
# Youngs Moduli (GPa) = 105.00596 57.15311 76.92981
#
# Poissons Ratio (x) = 0.33505 0.10951
# Poissons Ratio (y) = 0.61559 0.01210
# Poissons Ratio (z) = 0.14948 0.00899
#
# Static dielectric constant tensor:
#      x y z
#    x 1.867940 -0.000190 -0.026320 
#    y -0.000190 2.600720 0.001030 
#    z -0.026320 0.001030 2.195280 
# 
# From -- ./inp_files/205840.got.cif
#   From: 2010.05.17/outbox.cif.g08.bks.cpg/sg15_103_cif.got.tgz:205840.got - 2010.06.03 18:47:42.
