data_PCOD9308206
_publ_section_title
;
Structure prediction by ZEFSAII (Michael W. Deem and Ramdas Pophale) SiO2 
 PCOD9308206
Probable space group: C 2/C
;
_chemical_formula_sum "Si O2"
_cell_formula_units_Z 36
_cell_length_a 26.241127
_cell_length_b 8.661248
_cell_length_c 15.480795
_cell_angle_alpha 90.000000
_cell_angle_beta 26.891025
_cell_angle_gamma 90.000000
_cell_volume 1591.395087
_symmetry_space_group_name_H-M "C 2/C"
_symmetry_group_IT_number 15
_symmetry_cell_setting 'monoclinic'
loop_
_space_group_symop_operation_xyz
x,y,z
-x,y,1/2-z
-x,-y,-z
x,-y,1/2+z
1/2+x,1/2+y,z
1/2-x,1/2+y,1/2-z
1/2-x,1/2-y,-z
1/2+x,1/2-y,1/2+z
loop_
_atom_site_type_symbol
_atom_site_label
_atom_site_fract_x
_atom_site_fract_y
_atom_site_fract_z
Si Si1 0.000000 0.775342 0.250000
Si Si2 0.824872 0.378252 0.146684
Si Si3 0.353686 0.298575 0.784562
Si Si4 0.142470 0.151372 0.691176
Si Si5 0.098618 0.274511 0.935604
O O1 0.065451 0.869014 0.223879
O O2 0.905452 0.681054 0.447004
O O3 0.846896 0.287432 0.202884
O O4 0.854420 0.557079 0.114117
O O5 0.694068 0.344487 0.323014
O O6 0.342236 0.482590 0.792237
O O7 0.470637 0.256586 0.656351
O O8 0.250000 0.250000 0.000000
O O9 0.250000 0.250000 0.500000
O O10 0.089659 0.254787 0.845858
#
# Coordination Sequence:
#
# PCOD9308206 Si02
#       5
#     4   8   8   8   8
#     4  12  28  46  80 104 150 196 258 306 396 438
#     4  12  28  48  79 114 148 206 254 319 388 462
#     4  12  29  48  78 111 156 203 256 314 387 460
#     4  12  26  49  76 111 153 200 254 319 382 457
#     4  12  27  49  78 110 158 196 262 314 387 457
#
# _framework density 22.621662000000001
#
# number of rings (size 3 to 8) (size 9 to 14) (size 15 to 20)
#    0.000    0.000    4.444    4.000    6.222    0.889 
#    0.000    0.000    0.000    0.000    0.000    0.000 
#    0.000    0.000    0.000    0.000    0.000    0.000 
#
# Total GULP energy -100732.779250 kJ/mol
# GULP energy per Si atom -5596.265514 kJ/mol
# Density = 2.257017 g / cm^3
# Si number density = 22.621662 Si / 1000 Ang^3
#
#
#
# Elastic Constant Matrix: (Units=GPa)
#
#
# Indices 1 2 3 4 5 6 
#
# 1 130.9073 46.7833 58.0310 0.0000 -26.6777 0.0000
# 2 46.7833 143.3520 52.0559 0.0000 -8.2416 0.0000
# 3 58.0310 52.0559 177.4808 0.0000 -33.0541 0.0000
# 4 0.0000 0.0000 0.0000 5.6789 0.0000 3.4644
# 5 -26.6777 -8.2416 -33.0541 0.0000 46.4635 0.0000
# 6 0.0000 0.0000 0.0000 3.4644 0.0000 33.1700
#
#
#
# Elastic Compliance Matrix: (Units=1/GPa)
#
#
# Indices 1 2 3 4 5 6 
#
# 1 0.010153 -0.002405 -0.001853 0.000000 0.004084 0.000000
# 2 -0.002405 0.008381 -0.001904 0.000000 -0.001249 0.000000
# 3 -0.001853 -0.001904 0.007536 0.000000 0.003959 0.000000
# 4 0.000000 0.000000 0.000000 0.188073 0.000000 -0.019643
# 5 0.004084 -0.001249 0.003959 0.000000 0.026462 0.000000
# 6 0.000000 0.000000 0.000000 -0.019643 0.000000 0.032199
#
#
# Mechanical properties :
#
#
# Convention : Reuss Voigt Hill
#
# Bulk Modulus (GPa) = 72.76312 85.05339 78.90825
# Shear Modulus (GPa) = 17.25854 36.72048 26.98951
#
# Velocity S-wave (km/s) = 2.76510 4.03332 3.45785
# Velocity P-wave (km/s) = 6.51379 7.70520 7.13441
#
# Compressibility (1/GPa) = 0.01374323
#
# Stress axis : x y z
#
# Youngs Moduli (GPa) = 98.49728 119.32440 132.69039
#
# Poissons Ratio (x) = 0.28703 0.24593
# Poissons Ratio (y) = 0.23693 0.25267
# Poissons Ratio (z) = 0.18256 0.22722
#
# Static dielectric constant tensor:
#      x y z
#    x 1.859180 0.000000 -0.025140 
#    y 0.000000 1.760260 0.000000 
#    z -0.025140 0.000000 1.852110 
# 
# From -- ./inp_files/176815.got.cif
#   From: 2010.05.17/outbox.cif.g08.bks.cpg/sg15_89_cif.got.tgz:176815.got - 2010.06.03 18:47:42.
