data_PCOD9308189
_publ_section_title
;
Structure prediction by ZEFSAII (Michael W. Deem and Ramdas Pophale) SiO2 
 PCOD9308189
Probable space group: C 2/C
;
_chemical_formula_sum "Si O2"
_cell_formula_units_Z 28
_cell_length_a 12.623442
_cell_length_b 12.171832
_cell_length_c 9.009409
_cell_angle_alpha 90.000000
_cell_angle_beta 125.444861
_cell_angle_gamma 90.000000
_cell_volume 1127.752736
_symmetry_space_group_name_H-M "C 2/C"
_symmetry_group_IT_number 15
_symmetry_cell_setting 'monoclinic'
loop_
_space_group_symop_operation_xyz
x,y,z
-x,y,1/2-z
-x,-y,-z
x,-y,1/2+z
1/2+x,1/2+y,z
1/2-x,1/2+y,1/2-z
1/2-x,1/2-y,-z
1/2+x,1/2-y,1/2+z
loop_
_atom_site_type_symbol
_atom_site_label
_atom_site_fract_x
_atom_site_fract_y
_atom_site_fract_z
Si Si1 0.241352 0.415688 0.587199
Si Si2 0.500000 0.003823 0.250000
Si Si3 0.674780 0.205326 0.295912
Si Si4 0.385463 0.587003 0.892918
O O1 0.266843 0.322279 0.730330
O O2 0.284507 0.529509 0.698390
O O3 0.321648 0.397598 0.502260
O O4 0.089018 0.427136 0.424686
O O5 0.603478 0.090162 0.267041
O O6 0.750000 0.250000 0.500000
O O7 0.578770 0.298657 0.155343
O O8 0.500000 0.500000 0.000000
#
# Coordination Sequence:
#
# PCOD9308189 Si02
#       4
#     8   4   8   8
#     4  12  26  50  75 110 151 203 254 314 383 461
#     4  12  26  48  80 106 156 194 264 310 374 466
#     4  12  27  48  77 111 150 201 251 312 389 455
#     4  12  27  48  74 113 155 195 256 318 383 454
#
# _framework density 24.828137999999999
#
# number of rings (size 3 to 8) (size 9 to 14) (size 15 to 20)
#    0.000    0.000    5.714    2.571    8.000    0.000 
#    5.143    0.000    0.000    0.000    0.000    0.000 
#    0.000    0.000    0.000    0.000    0.000    0.000 
#
# Total GULP energy -78388.805872 kJ/mol
# GULP energy per Si atom -5599.200419 kJ/mol
# Density = 2.477163 g / cm^3
# Si number density = 24.828138 Si / 1000 Ang^3
#
#
#
# Elastic Constant Matrix: (Units=GPa)
#
#
# Indices 1 2 3 4 5 6 
#
# 1 84.5780 13.6711 68.8618 0.0000 -20.6254 0.0000
# 2 13.6711 90.9670 44.0225 0.0000 -13.7950 0.0000
# 3 68.8618 44.0225 181.8212 0.0000 -17.8479 0.0000
# 4 0.0000 0.0000 0.0000 60.4494 0.0000 -11.2379
# 5 -20.6254 -13.7950 -17.8479 0.0000 52.1843 0.0000
# 6 0.0000 0.0000 0.0000 -11.2379 0.0000 33.5949
#
#
#
# Elastic Compliance Matrix: (Units=1/GPa)
#
#
# Indices 1 2 3 4 5 6 
#
# 1 0.018421 0.001315 -0.006774 0.000000 0.005312 0.000000
# 2 0.001315 0.012828 -0.003332 0.000000 0.002771 0.000000
# 3 -0.006774 -0.003332 0.008819 0.000000 -0.000542 0.000000
# 4 0.000000 0.000000 0.000000 0.017640 0.000000 0.005901
# 5 0.005312 0.002771 -0.000542 0.000000 0.021810 0.000000
# 6 0.000000 0.000000 0.000000 0.005901 0.000000 0.031740
#
#
# Mechanical properties :
#
#
# Convention : Reuss Voigt Hill
#
# Bulk Modulus (GPa) = 44.47003 67.83077 56.15040
# Shear Modulus (GPa) = 36.67444 44.63309 40.65376
#
# Velocity S-wave (km/s) = 3.84752 4.24451 4.05088
# Velocity P-wave (km/s) = 6.13905 7.16942 6.67415
#
# Compressibility (1/GPa) = 0.02248706
#
# Stress axis : x y z
#
# Youngs Moduli (GPa) = 54.28517 77.95389 113.39270
#
# Poissons Ratio (x) = -0.10252 0.76809
# Poissons Ratio (y) = -0.07139 0.37782
# Poissons Ratio (z) = 0.36771 0.25974
#
# Static dielectric constant tensor:
#      x y z
#    x 2.027170 0.000000 -0.013890 
#    y 0.000000 1.997450 0.000000 
#    z -0.013890 0.000000 1.962680 
# 
# From -- ./inp_files/36665.got.cif
#   From: 2010.05.17/outbox.cif.g08.bks.cpg/sg15_19_cif.got.tgz:36665.got - 2010.06.03 18:47:42.
