data_PCOD9308893
_publ_section_title
;
Structure prediction by ZEFSAII (Michael W. Deem and Ramdas Pophale) SiO2 
 PCOD9308893
Probable space group: C 2/C
;
_chemical_formula_sum "Si O2"
_cell_formula_units_Z 32
_cell_length_a 24.000000
_cell_length_b 18.000000
_cell_length_c 21.000000
_cell_angle_alpha 90.000000
_cell_angle_beta 160.000000
_cell_angle_gamma 90.000000
_cell_volume 3102.806740
_symmetry_space_group_name_H-M "C 2/C"
_symmetry_group_IT_number 15
_symmetry_cell_setting 'monoclinic'
loop_
_space_group_symop_operation_xyz
x,y,z
-x,y,1/2-z
-x,-y,-z
x,-y,1/2+z
1/2+x,1/2+y,z
1/2-x,1/2+y,1/2-z
1/2-x,1/2-y,-z
1/2+x,1/2-y,1/2+z
loop_
_atom_site_type_symbol
_atom_site_label
_atom_site_fract_x
_atom_site_fract_y
_atom_site_fract_z
Si Si1 0.183273 0.086049 0.922429
Si Si2 0.692318 0.171874 0.831525
Si Si3 0.290216 0.082841 0.774256
Si Si4 0.351723 0.823766 0.711898
Si Si5 0.811779 0.588929 0.293788
Si Si6 0.803346 0.420309 0.042148
Si Si7 0.701023 0.162330 0.088164
Si Si8 0.258599 0.158391 0.872014
O O1 0.202014 0.105252 0.868278
O O2 0.000000 0.089611 0.750000
O O3 0.280309 0.146620 0.068765
O O4 0.249313 0.002741 0.003012
O O5 0.757090 0.122270 0.842438
O O6 0.750018 0.138451 0.960948
O O7 0.495988 0.165453 0.622332
O O8 0.737567 0.256535 0.865643
O O9 0.220852 0.125482 0.761513
O O10 0.250896 0.995569 0.732362
O O11 0.489220 0.087161 0.990138
O O12 0.275793 0.873162 0.687559
O O13 0.314357 0.739028 0.690321
O O14 0.545446 0.834860 0.916323
O O15 0.750794 0.635355 0.289416
O O16 0.000000 0.420418 0.250000
O O17 0.746501 0.394623 0.911107
#
# Coordination Sequence:
#
# PCOD9308893 Si02
#       8
#     8   8   8   8   8   8   8   8
#     4  12  25  40  59  84 113 144 185 236 287 338
#     4  10  20  35  57  85 116 151 190 231 277 330
#     4   9  18  34  57  83 112 149 191 232 276 329
#     4  11  22  38  60  84 114 150 189 232 279 334
#     4   9  18  34  57  83 112 149 191 232 276 329
#     4  10  21  38  60  84 113 152 192 228 275 334
#     4  10  20  35  57  85 116 151 190 231 277 330
#     4  11  22  38  60  84 114 150 189 232 279 334
#
# _framework density 10.313243
#
# number of rings (size 3 to 8) (size 9 to 14) (size 15 to 20)
#    0.000    1.750    0.000    4.875    0.000    5.000 
#    0.000    1.250    0.000    5.250    0.000    0.000 
#    0.000    0.000    0.000    0.000    0.000    0.000 
#
# Total GULP energy -178903.740168 kJ/mol
# GULP energy per Si atom -5590.741880 kJ/mol
# Density = 1.028977 g / cm^3
# Si number density = 10.313243 Si / 1000 Ang^3
#
#
#
# Elastic Constant Matrix: (Units=GPa)
#
#
# Indices 1 2 3 4 5 6 
#
# 1 136.1827 30.8857 21.4537 0.0234 -0.1503 0.0118
# 2 30.8857 107.5462 -3.5798 0.0602 11.0378 0.0356
# 3 21.4537 -3.5798 10.0612 0.0692 4.6129 0.0419
# 4 0.0234 0.0602 0.0692 10.2214 0.0286 -9.3080
# 5 -0.1503 11.0378 4.6129 0.0286 15.5168 0.0112
# 6 0.0118 0.0356 0.0419 -9.3080 0.0112 45.2431
#
#
#
# Elastic Compliance Matrix: (Units=1/GPa)
#
#
# Indices 1 2 3 4 5 6 
#
# 1 0.017069 -0.008685 -0.049089 0.000399 0.020936 0.000125
# 2 -0.008685 0.015026 0.033353 -0.000330 -0.020687 -0.000103
# 3 -0.049089 0.033353 0.262873 -0.002199 -0.102344 -0.000684
# 4 0.000399 -0.000330 -0.002199 0.120407 0.000652 0.024774
# 5 0.020936 -0.020687 -0.102344 0.000652 0.109788 0.000213
# 6 0.000125 -0.000103 -0.000684 0.024774 0.000213 0.027200
#
#
# Mechanical properties :
#
#
# Convention : Reuss Voigt Hill
#
# Bulk Modulus (GPa) = 4.06296 39.03439 21.54867
# Shear Modulus (GPa) = 7.31799 27.86496 17.59148
#
# Velocity S-wave (km/s) = 1.88562 3.67949 2.92354
# Velocity P-wave (km/s) = 2.59129 6.08416 4.67610
#
# Compressibility (1/GPa) = 0.24612619
#
# Stress axis : x y z
#
# Youngs Moduli (GPa) = 58.58554 66.55077 3.80412
#
# Poissons Ratio (x) = 0.57799 0.18674
# Poissons Ratio (y) = 0.50881 -0.12688
# Poissons Ratio (z) = 2.87589 -2.21966
#
# Static dielectric constant tensor:
#      x y z
#    x 1.710830 0.000000 -0.008430 
#    y 0.000000 1.704020 -0.000010 
#    z -0.008430 -0.000010 1.735570 
# 
# From -- ./inp_files/256019.got.cif
#   From: 2010.05.17/outbox.ucp.g08.bks.cvg/sg15_129_cif.got.tgz:256019.got - 2010.06.11 12:40:34.
