data_PCOD9308378
_publ_section_title
;
Structure prediction by ZEFSAII (Michael W. Deem and Ramdas Pophale) SiO2 
 PCOD9308378
Probable space group: C 2/C
;
_chemical_formula_sum "Si O2"
_cell_formula_units_Z 28
_cell_length_a 8.594652
_cell_length_b 18.511767
_cell_length_c 7.603431
_cell_angle_alpha 90.000000
_cell_angle_beta 131.280279
_cell_angle_gamma 90.000000
_cell_volume 909.095933
_symmetry_space_group_name_H-M "C 2/C"
_symmetry_group_IT_number 15
_symmetry_cell_setting 'monoclinic'
loop_
_space_group_symop_operation_xyz
x,y,z
-x,y,1/2-z
-x,-y,-z
x,-y,1/2+z
1/2+x,1/2+y,z
1/2-x,1/2+y,1/2-z
1/2-x,1/2-y,-z
1/2+x,1/2-y,1/2+z
loop_
_atom_site_type_symbol
_atom_site_label
_atom_site_fract_x
_atom_site_fract_y
_atom_site_fract_z
Si Si1 0.431697 0.757028 0.530097
Si Si2 0.782449 0.894728 0.129796
Si Si3 0.500000 0.346827 0.750000
Si Si4 0.279301 0.963236 0.791130
O O1 0.500000 0.647051 0.750000
O O2 0.386675 0.839476 0.428919
O O3 0.163514 0.731802 0.317522
O O4 0.511224 0.705330 0.428424
O O5 0.719825 0.928447 0.898289
O O6 0.846767 0.961264 0.297121
O O7 0.688114 0.403068 0.853539
O O8 0.500000 0.000000 0.000000
#
# Coordination Sequence:
#
# PCOD9308378 Si02
#       4
#     8   8   4   8
#     4  12  28  55  86 133 187 240 312 384 462 558
#     4  12  27  55  86 129 189 236 306 397 450 557
#     4  12  30  56  98 130 188 252 302 384 486 538
#     4  12  27  54  90 132 178 243 312 381 468 553
#
# _framework density 30.799831000000001
#
# number of rings (size 3 to 8) (size 9 to 14) (size 15 to 20)
#    0.000    0.000    4.286    4.286    0.000    1.143 
#   10.286    0.000    0.000    0.000    0.000    0.000 
#    0.000    0.000    0.000    0.000    0.000    0.000 
#
# Total GULP energy -78403.325307 kJ/mol
# GULP energy per Si atom -5600.237522 kJ/mol
# Density = 3.072973 g / cm^3
# Si number density = 30.799831 Si / 1000 Ang^3
#
#
#
# Elastic Constant Matrix: (Units=GPa)
#
#
# Indices 1 2 3 4 5 6 
#
# 1 205.5073 80.2803 85.3397 0.0000 11.9114 0.0000
# 2 80.2803 273.1893 94.7338 0.0000 -21.5010 0.0000
# 3 85.3397 94.7338 225.2872 0.0000 -14.7325 0.0000
# 4 0.0000 0.0000 0.0000 29.5630 0.0000 -16.0663
# 5 11.9114 -21.5010 -14.7325 0.0000 66.5839 0.0000
# 6 0.0000 0.0000 0.0000 -16.0663 0.0000 98.3753
#
#
#
# Elastic Compliance Matrix: (Units=1/GPa)
#
#
# Indices 1 2 3 4 5 6 
#
# 1 0.006317 -0.001333 -0.001963 0.000000 -0.001995 0.000000
# 2 -0.001333 0.004633 -0.001349 0.000000 0.001436 0.000000
# 3 -0.001963 -0.001349 0.005829 0.000000 0.001205 0.000000
# 4 0.000000 0.000000 0.000000 0.037121 0.000000 0.006062
# 5 -0.001995 0.001436 0.001205 0.000000 0.016106 0.000000
# 6 0.000000 0.000000 0.000000 0.006062 0.000000 0.011155
#
#
# Mechanical properties :
#
#
# Convention : Reuss Voigt Hill
#
# Bulk Modulus (GPa) = 133.53671 136.07682 134.80676
# Shear Modulus (GPa) = 53.79363 68.47978 61.13670
#
# Velocity S-wave (km/s) = 4.18372 4.72039 4.46013
# Velocity P-wave (km/s) = 8.17242 8.60153 8.38972
#
# Compressibility (1/GPa) = 0.00748858
#
# Stress axis : x y z
#
# Youngs Moduli (GPa) = 158.29137 215.83936 171.56542
#
# Poissons Ratio (x) = 0.28765 0.33680
# Poissons Ratio (y) = 0.21096 0.23152
# Poissons Ratio (z) = 0.31074 0.29127
#
# Static dielectric constant tensor:
#      x y z
#    x 3.017650 0.000000 0.250200 
#    y 0.000000 2.576190 0.000000 
#    z 0.250200 0.000000 2.464670 
# 
# From -- ./inp_files/27748.got.cif
#   From: 2010.05.17/outbox.cif.g08.bks.cpg/sg15_14_cif.got.tgz:27748.got - 2010.06.03 18:47:42.
