data_PCOD9308370
_publ_section_title
;
Structure prediction by ZEFSAII (Michael W. Deem and Ramdas Pophale) SiO2 
 PCOD9308370
Probable space group: C 2/C
;
_chemical_formula_sum "Si O2"
_cell_formula_units_Z 40
_cell_length_a 5.250242
_cell_length_b 15.141508
_cell_length_c 26.028874
_cell_angle_alpha 90.000000
_cell_angle_beta 126.782608
_cell_angle_gamma 90.000000
_cell_volume 1657.254727
_symmetry_space_group_name_H-M "C 2/C"
_symmetry_group_IT_number 15
_symmetry_cell_setting 'monoclinic'
loop_
_space_group_symop_operation_xyz
x,y,z
-x,y,1/2-z
-x,-y,-z
x,-y,1/2+z
1/2+x,1/2+y,z
1/2-x,1/2+y,1/2-z
1/2-x,1/2-y,-z
1/2+x,1/2-y,1/2+z
loop_
_atom_site_type_symbol
_atom_site_label
_atom_site_fract_x
_atom_site_fract_y
_atom_site_fract_z
Si Si1 0.500000 0.764582 0.250000
Si Si2 0.761437 0.122883 0.858769
Si Si3 0.148343 0.526046 0.186652
Si Si4 0.213102 0.468015 0.574174
Si Si5 0.000000 0.658719 0.250000
Si Si6 0.631631 0.236677 0.042943
O O1 0.209353 0.814111 0.186459
O O2 0.686783 0.712119 0.228022
O O3 0.744247 0.184632 0.906026
O O4 0.433839 0.073028 0.807906
O O5 0.008867 0.042463 0.893312
O O6 0.500000 0.544025 0.250000
O O7 0.094756 0.528857 0.119226
O O8 0.939198 0.595393 0.193632
O O9 0.241895 0.362351 0.570281
O O10 0.000000 0.500000 0.500000
O O11 0.750000 0.250000 0.000000
O O12 0.250000 0.250000 0.000000
#
# Coordination Sequence:
#
# PCOD9308370 Si02
#       6
#     4   8   8   8   4   8
#     4  12  29  50  81 124 162 216 286 349 431 498
#     4  12  29  49  82 117 168 214 282 345 422 511
#     4  12  27  52  81 122 165 219 281 345 428 502
#     4  12  27  52  83 119 168 220 277 345 427 501
#     4  12  27  52  81 120 166 216 274 361 417 510
#     4  12  29  52  79 119 161 215 280 339 416 507
#
# _framework density 24.136303999999999
#
# number of rings (size 3 to 8) (size 9 to 14) (size 15 to 20)
#    0.000    0.000    3.000    5.400    9.800    1.600 
#    0.000    0.000    0.000    0.000    0.000    0.000 
#    0.000    0.000    0.000    0.000    0.000    0.000 
#
# Total GULP energy -111752.938164 kJ/mol
# GULP energy per Si atom -5587.646908 kJ/mol
# Density = 2.408137 g / cm^3
# Si number density = 24.136304 Si / 1000 Ang^3
#
#
#
# Elastic Constant Matrix: (Units=GPa)
#
#
# Indices 1 2 3 4 5 6 
#
# 1 132.2020 70.3793 72.6743 0.0001 -23.5281 -0.0001
# 2 70.3793 176.1296 56.7863 0.0000 -5.2695 0.0000
# 3 72.6743 56.7863 142.1807 0.0001 -23.7655 0.0000
# 4 0.0001 0.0000 0.0001 56.6398 0.0001 -2.4542
# 5 -23.5281 -5.2695 -23.7655 0.0001 52.0090 0.0000
# 6 -0.0001 0.0000 0.0000 -2.4542 0.0000 35.4735
#
#
#
# Elastic Compliance Matrix: (Units=1/GPa)
#
#
# Indices 1 2 3 4 5 6 
#
# 1 0.012401 -0.003431 -0.004427 0.000000 0.003239 0.000000
# 2 -0.003431 0.007482 -0.001480 0.000000 -0.001471 0.000000
# 3 -0.004427 -0.001480 0.010315 0.000000 0.002561 0.000000
# 4 0.000000 0.000000 0.000000 0.017709 0.000000 0.001225
# 5 0.003239 -0.001471 0.002561 0.000000 0.021714 0.000000
# 6 0.000000 0.000000 0.000000 0.001225 0.000000 0.028275
#
#
# Mechanical properties :
#
#
# Convention : Reuss Voigt Hill
#
# Bulk Modulus (GPa) = 86.79164 94.46579 90.62872
# Shear Modulus (GPa) = 41.52409 45.53596 43.53002
#
# Velocity S-wave (km/s) = 4.15227 4.34823 4.25138
# Velocity P-wave (km/s) = 7.68280 8.02701 7.85679
#
# Compressibility (1/GPa) = 0.01152185
#
# Stress axis : x y z
#
# Youngs Moduli (GPa) = 80.64057 133.65572 96.94389
#
# Poissons Ratio (x) = 0.45858 0.42914
# Poissons Ratio (y) = 0.27668 0.14351
# Poissons Ratio (z) = 0.35697 0.19785
#
# Static dielectric constant tensor:
#      x y z
#    x 1.985130 0.000000 0.012160 
#    y 0.000000 2.020680 0.000000 
#    z 0.012160 0.000000 1.792030 
# 
# From -- ./inp_files/285519.got.cif
#   From: 2010.05.17/outbox.cif.g08.bks.cpg/sg15_143_cif.got.tgz:285519.got - 2010.06.03 18:47:42.
