data_PCOD9308624
_publ_section_title
;
Structure prediction by ZEFSAII (Michael W. Deem and Ramdas Pophale) SiO2 
 PCOD9308624
Probable space group: C 2/C
;
_chemical_formula_sum "Si O2"
_cell_formula_units_Z 20
_cell_length_a 21.000000
_cell_length_b 21.000000
_cell_length_c 15.000000
_cell_angle_alpha 90.000000
_cell_angle_beta 20.000000
_cell_angle_gamma 90.000000
_cell_volume 2262.463248
_symmetry_space_group_name_H-M "C 2/C"
_symmetry_group_IT_number 15
_symmetry_cell_setting 'monoclinic'
loop_
_space_group_symop_operation_xyz
x,y,z
-x,y,1/2-z
-x,-y,-z
x,-y,1/2+z
1/2+x,1/2+y,z
1/2-x,1/2+y,1/2-z
1/2-x,1/2-y,-z
1/2+x,1/2-y,1/2+z
loop_
_atom_site_type_symbol
_atom_site_label
_atom_site_fract_x
_atom_site_fract_y
_atom_site_fract_z
Si Si1 0.101299 0.950662 0.300967
Si Si2 0.000000 0.986647 0.750000
Si Si3 0.800986 0.601582 0.900055
Si Si4 0.542728 0.221352 0.588434
Si Si5 0.000000 0.496809 0.250000
Si Si6 0.083044 0.841161 0.853546
O O1 0.041130 0.882561 0.417412
O O2 0.038169 0.969644 0.284664
O O3 0.321564 0.962162 0.009411
O O4 0.000000 0.000000 0.500000
O O5 0.169588 0.937731 0.507702
O O6 0.892694 0.668341 0.753743
O O7 0.956077 0.551587 0.727103
O O8 0.678267 0.615965 0.150361
O O9 0.500000 0.233058 0.750000
O O10 0.745030 0.190321 0.320128
O O11 0.522249 0.285130 0.559905
#
# Coordination Sequence:
#
# PCOD9308624 Si02
#       6
#     8   4   8   8   4   8
#     4  11  21  39  59  84 121 159 195 243 294 352
#     4  10  22  32  61  87 116 154 196 236 296 354
#     4  10  17  34  55  87 118 143 186 245 306 350
#     4  10  20  33  56  90 117 147 191 247 305 352
#     4  10  18  36  61  85 118 156 190 242 296 348
#     4  11  21  34  57  81 121 150 185 238 300 355
#
# _framework density 8.8399230000000006
#
# number of rings (size 3 to 8) (size 9 to 14) (size 15 to 20)
#    0.000    1.600    7.000    2.400    4.200    0.000 
#    0.000   13.000    0.000    3.600    0.000    0.000 
#    0.000    0.000    0.000    0.000    0.000    0.000 
#
# Total GULP energy -111555.998220 kJ/mol
# GULP energy per Si atom -5577.799911 kJ/mol
# Density = 0.881980 g / cm^3
# Si number density = 8.839923 Si / 1000 Ang^3
#
#
#
# Elastic Constant Matrix: (Units=GPa)
#
#
# Indices 1 2 3 4 5 6 
#
# 1 59.3094 58.9870 51.1196 0.0220 -8.0065 -0.0001
# 2 58.9870 136.9255 70.4421 0.0073 -4.4083 0.0036
# 3 51.1196 70.4421 107.4206 0.0204 -7.6372 -0.0011
# 4 0.0220 0.0073 0.0204 32.7877 -0.0229 9.6346
# 5 -8.0065 -4.4083 -7.6372 -0.0229 22.8980 0.0017
# 6 -0.0001 0.0036 -0.0011 9.6346 0.0017 18.0468
#
#
#
# Elastic Compliance Matrix: (Units=1/GPa)
#
#
# Indices 1 2 3 4 5 6 
#
# 1 0.037157 -0.010478 -0.010274 -0.000013 0.007548 0.000008
# 2 -0.010478 0.013978 -0.004352 0.000007 -0.002424 -0.000007
# 3 -0.010274 -0.004352 0.017144 -0.000003 0.001288 0.000003
# 4 -0.000013 0.000007 -0.000003 0.036174 0.000033 -0.019312
# 5 0.007548 -0.002424 0.001288 0.000033 0.046274 -0.000021
# 6 0.000008 -0.000007 0.000003 -0.019312 -0.000021 0.065722
#
#
# Mechanical properties :
#
#
# Convention : Reuss Voigt Hill
#
# Bulk Modulus (GPa) = 55.34266 73.86144 64.60205
# Shear Modulus (GPa) = 18.33639 22.95361 20.64500
#
# Velocity S-wave (km/s) = 3.22395 3.60709 3.42089
# Velocity P-wave (km/s) = 6.72526 7.69520 7.22652
#
# Compressibility (1/GPa) = 0.01806924
#
# Stress axis : x y z
#
# Youngs Moduli (GPa) = 26.91319 71.53975 58.32869
#
# Poissons Ratio (x) = 0.74961 0.59929
# Poissons Ratio (y) = 0.28200 0.25387
# Poissons Ratio (z) = 0.27652 0.31137
#
# Static dielectric constant tensor:
#      x y z
#    x 0.487820 -0.000940 1.182930 
#    y -0.000940 1.616040 0.001020 
#    z 1.182930 0.001020 0.277720 
# 
# From -- ./inp_files/29136.got.cif
#   From: 2010.05.17/outbox.ucp.g08.bks.cvg/sg15_15_cif.got.tgz:29136.got - 2010.06.11 12:40:34.
