data_PCOD9308918
_publ_section_title
;
Structure prediction by ZEFSAII (Michael W. Deem and Ramdas Pophale) SiO2 
 PCOD9308918
Probable space group: C 2/C
;
_chemical_formula_sum "Si O2"
_cell_formula_units_Z 28
_cell_length_a 21.000000
_cell_length_b 18.000000
_cell_length_c 21.000000
_cell_angle_alpha 90.000000
_cell_angle_beta 160.000000
_cell_angle_gamma 90.000000
_cell_volume 2714.955898
_symmetry_space_group_name_H-M "C 2/C"
_symmetry_group_IT_number 15
_symmetry_cell_setting 'monoclinic'
loop_
_space_group_symop_operation_xyz
x,y,z
-x,y,1/2-z
-x,-y,-z
x,-y,1/2+z
1/2+x,1/2+y,z
1/2-x,1/2+y,1/2-z
1/2-x,1/2-y,-z
1/2+x,1/2-y,1/2+z
loop_
_atom_site_type_symbol
_atom_site_label
_atom_site_fract_x
_atom_site_fract_y
_atom_site_fract_z
Si Si1 0.223524 0.439459 0.144756
Si Si2 0.651223 0.521572 0.063331
Si Si3 0.859557 0.306618 0.976332
Si Si4 0.266669 0.640309 0.894170
Si Si5 0.715381 0.587522 0.446871
Si Si6 0.525595 0.054644 0.339721
Si Si7 0.131391 0.410981 0.613249
O O1 0.445783 0.444055 0.359808
O O2 0.150891 0.525324 0.077943
O O3 0.149951 0.406007 0.009848
O O4 0.082782 0.405591 0.064831
O O5 0.639316 0.431509 0.050386
O O6 0.738801 0.555062 0.209802
O O7 0.817830 0.538500 0.170265
O O8 0.063640 0.341848 0.176177
O O9 0.871066 0.218703 0.990612
O O10 0.735721 0.346820 0.913991
O O11 0.796452 0.334968 0.847935
O O12 0.237930 0.620561 0.940837
O O13 0.500000 0.561615 0.250000
O O14 0.854452 0.519754 0.563276
O O15 0.500000 0.097064 0.250000
#
# Coordination Sequence:
#
# PCOD9308918 Si02
#       7
#     8   8   8   8   8   8   8
#     4  10  20  36  57  79 103 148 201 251 307 349
#     4  11  22  39  61  80 111 157 207 257 299 354
#     4  12  24  40  54  81 116 158 210 258 297 352
#     4  12  24  37  56  80 115 158 204 252 302 351
#     4  12  22  38  55  77 115 164 206 249 296 348
#     4  11  20  33  54  84 118 148 196 245 294 347
#     4  10  22  39  57  80 109 148 212 263 300 350
#
# _framework density 10.313243
#
# number of rings (size 3 to 8) (size 9 to 14) (size 15 to 20)
#    0.000    0.857    4.286    4.714    2.000    0.000 
#    0.000    0.000    0.000    0.000    0.000    0.000 
#    0.000    0.000    0.000   68.143   24.571    7.000 
#
# Total GULP energy -156300.170531 kJ/mol
# GULP energy per Si atom -5582.148948 kJ/mol
# Density = 1.028977 g / cm^3
# Si number density = 10.313243 Si / 1000 Ang^3
#
#
#
# Elastic Constant Matrix: (Units=GPa)
#
#
# Indices 1 2 3 4 5 6 
#
# 1 124.2388 34.2532 65.8239 0.0025 -10.7922 -0.0107
# 2 34.2532 31.3960 6.0606 0.0313 -3.8038 -0.0008
# 3 65.8239 6.0606 134.3598 0.0574 20.7120 0.0154
# 4 0.0025 0.0313 0.0574 14.0965 0.0151 -0.2680
# 5 -10.7922 -3.8038 20.7120 0.0151 34.6045 -0.0140
# 6 -0.0107 -0.0008 0.0154 -0.2680 -0.0140 16.5967
#
#
#
# Elastic Compliance Matrix: (Units=1/GPa)
#
#
# Indices 1 2 3 4 5 6 
#
# 1 0.019224 -0.017781 -0.010178 0.000067 0.010133 0.000031
# 2 -0.017781 0.049333 0.007166 -0.000131 -0.004412 -0.000022
# 3 -0.010178 0.007166 0.013742 -0.000059 -0.010611 -0.000029
# 4 0.000067 -0.000131 -0.000059 0.070962 0.000011 0.001146
# 5 0.010133 -0.004412 -0.010611 0.000011 0.037924 0.000048
# 6 0.000031 -0.000022 -0.000029 0.001146 0.000048 0.060271
#
#
# Mechanical properties :
#
#
# Convention : Reuss Voigt Hill
#
# Bulk Modulus (GPa) = 24.56267 55.80779 40.18523
# Shear Modulus (GPa) = 16.30717 25.31666 20.81192
#
# Velocity S-wave (km/s) = 2.81480 3.50721 3.17991
# Velocity P-wave (km/s) = 4.74324 6.59665 5.74518
#
# Compressibility (1/GPa) = 0.04071219
#
# Stress axis : x y z
#
# Youngs Moduli (GPa) = 52.01813 20.27040 72.77209
#
# Poissons Ratio (x) = 0.36043 0.74067
# Poissons Ratio (y) = 0.92495 -0.52149
# Poissons Ratio (z) = 0.52944 -0.14526
#
# Static dielectric constant tensor:
#      x y z
#    x 1.844910 0.000000 -0.059760 
#    y 0.000000 1.709150 -0.000030 
#    z -0.059760 -0.000030 1.827220 
# 
# From -- ./inp_files/253380.got.cif
#   From: 2010.05.17/outbox.ucp.g08.bks.cvg/sg15_127_cif.got.tgz:253380.got - 2010.06.11 12:40:34.
