data_PCOD9308622
_publ_section_title
;
Structure prediction by ZEFSAII (Michael W. Deem and Ramdas Pophale) SiO2 
 PCOD9308622
Probable space group: C 2/C
;
_chemical_formula_sum "Si O2"
_cell_formula_units_Z 32
_cell_length_a 15.000000
_cell_length_b 24.000000
_cell_length_c 15.000000
_cell_angle_alpha 90.000000
_cell_angle_beta 40.000000
_cell_angle_gamma 90.000000
_cell_volume 3471.053092
_symmetry_space_group_name_H-M "C 2/C"
_symmetry_group_IT_number 15
_symmetry_cell_setting 'monoclinic'
loop_
_space_group_symop_operation_xyz
x,y,z
-x,y,1/2-z
-x,-y,-z
x,-y,1/2+z
1/2+x,1/2+y,z
1/2-x,1/2+y,1/2-z
1/2-x,1/2-y,-z
1/2+x,1/2-y,1/2+z
loop_
_atom_site_type_symbol
_atom_site_label
_atom_site_fract_x
_atom_site_fract_y
_atom_site_fract_z
Si Si1 0.667152 0.614748 0.197718
Si Si2 0.638162 0.503274 0.772619
Si Si3 0.145468 0.120072 0.691301
Si Si4 0.334063 0.881160 0.885104
Si Si5 0.685477 0.496990 0.946522
Si Si6 0.836547 0.122839 0.492203
Si Si7 0.220257 0.805219 0.814499
Si Si8 0.395566 0.700360 0.609531
O O1 0.695602 0.548995 0.174397
O O2 0.502252 0.616263 0.346746
O O3 0.712007 0.640278 0.069049
O O4 0.730381 0.647769 0.230582
O O5 0.692525 0.560948 0.694520
O O6 0.673015 0.492956 0.849124
O O7 0.470927 0.508245 0.895429
O O8 0.267031 0.137638 0.530606
O O9 0.112143 0.159121 0.800290
O O10 0.000000 0.114972 0.750000
O O11 0.500000 0.882871 0.750000
O O12 0.278681 0.835779 0.856965
O O13 0.273184 0.943785 0.912574
O O14 0.723816 0.561640 0.937508
O O15 0.825435 0.167576 0.579638
O O16 0.310605 0.754061 0.707797
O O17 0.057640 0.789941 0.958111
#
# Coordination Sequence:
#
# PCOD9308622 Si02
#       8
#     8   8   8   8   8   8   8   8
#     4   9  18  33  61  96 122 151 201 258 310 354
#     4  10  17  31  65  97 119 152 199 258 300 361
#     4  12  22  39  64  96 122 158 205 251 305 365
#     4  12  26  41  61  93 133 162 198 251 314 373
#     4  10  17  34  62  93 127 152 196 252 309 360
#     4   9  18  34  62  94 120 155 202 253 302 368
#     4  11  24  43  62  88 121 163 212 258 301 357
#     4  11  24  41  64  91 121 160 211 257 302 358
#
# _framework density 9.2191039999999997
#
# number of rings (size 3 to 8) (size 9 to 14) (size 15 to 20)
#    0.000    1.500    5.000    0.750    3.500    1.500 
#    0.000    0.625    5.500    0.000    0.000    0.000 
#    0.000    0.000    0.000    0.000    0.000    0.000 
#
# Total GULP energy -178416.999971 kJ/mol
# GULP energy per Si atom -5575.531249 kJ/mol
# Density = 0.919812 g / cm^3
# Si number density = 9.219104 Si / 1000 Ang^3
#
#
#
# Elastic Constant Matrix: (Units=GPa)
#
#
# Indices 1 2 3 4 5 6 
#
# 1 44.2067 23.5125 44.2229 -0.0003 17.3148 -0.0004
# 2 23.5125 98.0896 43.6829 -0.0007 11.5221 0.0003
# 3 44.2229 43.6829 97.8144 0.0011 7.2272 0.0000
# 4 -0.0003 -0.0007 0.0011 29.9919 -0.0012 -3.6935
# 5 17.3148 11.5221 7.2272 -0.0012 22.7419 0.0006
# 6 -0.0004 0.0003 0.0000 -3.6935 0.0006 6.2833
#
#
#
# Elastic Compliance Matrix: (Units=1/GPa)
#
#
# Indices 1 2 3 4 5 6 
#
# 1 0.065366 0.001285 -0.027036 0.000001 -0.041826 0.000008
# 2 0.001285 0.013273 -0.006082 0.000000 -0.005770 0.000000
# 3 -0.027036 -0.006082 0.023977 -0.000001 0.016046 -0.000003
# 4 0.000001 0.000000 -0.000001 0.035944 0.000001 0.021129
# 5 -0.041826 -0.005770 0.016046 0.000001 0.073641 -0.000009
# 6 0.000008 0.000000 -0.000003 0.021129 -0.000009 0.171571
#
#
# Mechanical properties :
#
#
# Convention : Reuss Voigt Hill
#
# Bulk Modulus (GPa) = 25.67418 51.43861 38.55640
# Shear Modulus (GPa) = 10.85960 20.38292 15.62126
#
# Velocity S-wave (km/s) = 2.42951 3.32847 2.91387
# Velocity P-wave (km/s) = 4.67169 6.53682 5.68132
#
# Compressibility (1/GPa) = 0.03894963
#
# Stress axis : x y z
#
# Youngs Moduli (GPa) = 15.29849 75.33964 41.70598
#
# Poissons Ratio (x) = -0.09679 1.12756
# Poissons Ratio (y) = -0.01965 0.25366
# Poissons Ratio (z) = 0.41361 0.45823
#
# Static dielectric constant tensor:
#      x y z
#    x 1.677710 0.000000 0.020380 
#    y 0.000000 1.647580 0.000000 
#    z 0.020380 0.000000 1.609990 
# 
# From -- ./inp_files/156797.got.cif
#   From: 2010.05.17/outbox.ucp.g08.bks.cvg/sg15_79_cif.got.tgz:156797.got - 2010.06.11 12:40:34.
