data_PCOD9308286
_publ_section_title
;
Structure prediction by ZEFSAII (Michael W. Deem and Ramdas Pophale) SiO2 
 PCOD9308286
Probable space group: C 2/C
;
_chemical_formula_sum "Si O2"
_cell_formula_units_Z 28
_cell_length_a 16.192095
_cell_length_b 16.462870
_cell_length_c 8.790951
_cell_angle_alpha 90.000000
_cell_angle_beta 153.072597
_cell_angle_gamma 90.000000
_cell_volume 1061.230065
_symmetry_space_group_name_H-M "C 2/C"
_symmetry_group_IT_number 15
_symmetry_cell_setting 'monoclinic'
loop_
_space_group_symop_operation_xyz
x,y,z
-x,y,1/2-z
-x,-y,-z
x,-y,1/2+z
1/2+x,1/2+y,z
1/2-x,1/2+y,1/2-z
1/2-x,1/2-y,-z
1/2+x,1/2-y,1/2+z
loop_
_atom_site_type_symbol
_atom_site_label
_atom_site_fract_x
_atom_site_fract_y
_atom_site_fract_z
Si Si1 0.287725 0.700991 0.721736
Si Si2 0.846558 0.432853 0.283386
Si Si3 0.500000 0.532627 0.750000
Si Si4 0.818527 0.159012 0.225669
O O1 0.250000 0.750000 0.500000
O O2 0.184614 0.616816 0.608150
O O3 0.231373 0.765375 0.753791
O O4 0.499859 0.680189 0.069422
O O5 0.850344 0.366583 0.156072
O O6 0.000000 0.500000 0.500000
O O7 0.655239 0.477264 0.933853
O O8 0.386943 0.588610 0.450495
#
# Coordination Sequence:
#
# PCOD9308286 Si02
#       4
#     8   8   4   8
#     4  12  26  53  87 125 170 229 289 353 438 529
#     4  12  30  53  86 126 173 224 290 365 443 514
#     4  12  26  54  82 116 172 214 288 364 434 510
#     4  12  27  54  85 121 172 227 288 358 438 534
#
# _framework density 26.384478000000001
#
# number of rings (size 3 to 8) (size 9 to 14) (size 15 to 20)
#    0.000    0.000    5.714    1.714    4.000    3.429 
#    0.000    1.429    0.000    0.000    0.000    0.000 
#    0.000    0.000    0.000    0.000    0.000    0.000 
#
# Total GULP energy -78408.827880 kJ/mol
# GULP energy per Si atom -5600.630563 kJ/mol
# Density = 2.632443 g / cm^3
# Si number density = 26.384478 Si / 1000 Ang^3
#
#
#
# Elastic Constant Matrix: (Units=GPa)
#
#
# Indices 1 2 3 4 5 6 
#
# 1 143.3202 80.6838 35.4901 0.0000 4.6577 0.0000
# 2 80.6838 167.2926 50.7031 0.0000 1.7318 0.0000
# 3 35.4901 50.7031 86.1623 0.0000 8.1942 0.0000
# 4 0.0000 0.0000 0.0000 67.8916 0.0000 -1.3531
# 5 4.6577 1.7318 8.1942 0.0000 48.6865 0.0000
# 6 0.0000 0.0000 0.0000 -1.3531 0.0000 69.2290
#
#
#
# Elastic Compliance Matrix: (Units=1/GPa)
#
#
# Indices 1 2 3 4 5 6 
#
# 1 0.009752 -0.004255 -0.001462 0.000000 -0.000536 0.000000
# 2 -0.004255 0.009142 -0.003694 0.000000 0.000704 0.000000
# 3 -0.001462 -0.003694 0.014590 0.000000 -0.002184 0.000000
# 4 0.000000 0.000000 0.000000 0.014735 0.000000 0.000288
# 5 -0.000536 0.000704 -0.002184 0.000000 0.020933 0.000000
# 6 0.000000 0.000000 0.000000 0.000288 0.000000 0.014450
#
#
# Mechanical properties :
#
#
# Convention : Reuss Voigt Hill
#
# Bulk Modulus (GPa) = 68.20405 81.16989 74.68697
# Shear Modulus (GPa) = 46.59322 52.48797 49.54059
#
# Velocity S-wave (km/s) = 4.20686 4.46505 4.33788
# Velocity P-wave (km/s) = 7.03584 7.57716 7.31151
#
# Compressibility (1/GPa) = 0.01466189
#
# Stress axis : x y z
#
# Youngs Moduli (GPa) = 102.54236 109.38746 68.54089
#
# Poissons Ratio (x) = 0.46540 0.10023
# Poissons Ratio (y) = 0.43628 0.25319
# Poissons Ratio (z) = 0.14994 0.40408
#
# Static dielectric constant tensor:
#      x y z
#    x 2.214790 0.000000 -0.098920 
#    y 0.000000 2.361470 0.000000 
#    z -0.098920 0.000000 2.024140 
# 
# From -- ./inp_files/112912.got.cif
#   From: 2010.05.17/outbox.cif.g08.bks.cpg/sg15_57_cif.got.tgz:112912.got - 2010.06.03 18:47:42.
