data_PCOD9308059
_publ_section_title
;
Structure prediction by ZEFSAII (Michael W. Deem and Ramdas Pophale) SiO2 
 PCOD9308059
Probable space group: C 2/C
;
_chemical_formula_sum "Si O2"
_cell_formula_units_Z 32
_cell_length_a 12.292672
_cell_length_b 8.459882
_cell_length_c 12.299562
_cell_angle_alpha 90.000000
_cell_angle_beta 111.705439
_cell_angle_gamma 90.000000
_cell_volume 1188.396931
_symmetry_space_group_name_H-M "C 2/C"
_symmetry_group_IT_number 15
_symmetry_cell_setting 'monoclinic'
loop_
_space_group_symop_operation_xyz
x,y,z
-x,y,1/2-z
-x,-y,-z
x,-y,1/2+z
1/2+x,1/2+y,z
1/2-x,1/2+y,1/2-z
1/2-x,1/2-y,-z
1/2+x,1/2-y,1/2+z
loop_
_atom_site_type_symbol
_atom_site_label
_atom_site_fract_x
_atom_site_fract_y
_atom_site_fract_z
Si Si1 0.784879 0.285824 0.249097
Si Si2 0.579370 0.347138 0.005833
Si Si3 0.000000 0.510048 0.750000
Si Si4 0.000000 0.500000 0.000000
Si Si5 0.135725 0.984129 0.314226
O O1 0.882142 0.391357 0.228065
O O2 0.829530 0.108002 0.267608
O O3 0.736860 0.353782 0.345308
O O4 0.669611 0.300827 0.132850
O O5 0.647358 0.407746 0.924471
O O6 0.500000 0.500000 0.000000
O O7 0.512280 0.182943 0.960348
O O8 0.984289 0.432529 0.623970
O O9 0.000000 0.935644 0.250000
#
# Coordination Sequence:
#
# PCOD9308059 Si02
#       5
#     8   8   4   4   8
#     4  12  26  48  83 110 169 219 274 358 419 507
#     4  12  27  50  83 120 167 222 289 356 424 516
#     4  12  28  50  84 124 164 228 290 342 436 508
#     4  12  28  54  84 120 174 224 282 354 424 510
#     4  12  25  51  75 118 160 217 286 346 423 510
#
# _framework density 26.927030999999999
#
# number of rings (size 3 to 8) (size 9 to 14) (size 15 to 20)
#    0.000    0.000    6.250    2.250    3.500    4.000 
#    2.250    2.500    0.000    0.000    0.000    0.000 
#    0.000    0.000    0.000    0.000    0.000    0.000 
#
# Total GULP energy -89075.436439 kJ/mol
# GULP energy per Si atom -5567.214777 kJ/mol
# Density = 2.686574 g / cm^3
# Si number density = 26.927031 Si / 1000 Ang^3
#
#
#
# Elastic Constant Matrix: (Units=GPa)
#
#
# Indices 1 2 3 4 5 6 
#
# 1 174.2604 80.4072 23.1054 0.0000 -2.2730 0.0000
# 2 80.4072 118.2931 12.2382 0.0000 -15.6859 0.0000
# 3 23.1054 12.2382 114.4322 0.0000 -25.6074 0.0000
# 4 0.0000 0.0000 0.0000 30.4165 0.0000 -5.7680
# 5 -2.2730 -15.6859 -25.6074 0.0000 42.8093 0.0000
# 6 0.0000 0.0000 0.0000 -5.7680 0.0000 52.8080
#
#
#
# Elastic Compliance Matrix: (Units=1/GPa)
#
#
# Indices 1 2 3 4 5 6 
#
# 1 0.008776 -0.006161 -0.001748 0.000000 -0.002837 0.000000
# 2 -0.006161 0.013216 0.000971 0.000000 0.005096 0.000000
# 3 -0.001748 0.000971 0.010445 0.000000 0.006511 0.000000
# 4 0.000000 0.000000 0.000000 0.033572 0.000000 0.003667
# 5 -0.002837 0.005096 0.006511 0.000000 0.028971 0.000000
# 6 0.000000 0.000000 0.000000 0.003667 0.000000 0.019337
#
#
# Mechanical properties :
#
#
# Convention : Reuss Voigt Hill
#
# Bulk Modulus (GPa) = 53.87370 70.94302 62.40836
# Shear Modulus (GPa) = 37.20794 44.62242 40.91518
#
# Velocity S-wave (km/s) = 3.72130 4.07524 3.90228
# Velocity P-wave (km/s) = 6.20603 6.96757 6.59780
#
# Compressibility (1/GPa) = 0.01856193
#
# Stress axis : x y z
#
# Youngs Moduli (GPa) = 113.94827 75.66326 95.74077
#
# Poissons Ratio (x) = 0.46613 0.16735
# Poissons Ratio (y) = 0.70199 -0.09295
# Poissons Ratio (z) = 0.19918 -0.07346
#
# Static dielectric constant tensor:
#      x y z
#    x 2.173600 0.000000 -0.073510 
#    y 0.000000 2.198960 0.000000 
#    z -0.073510 0.000000 2.290340 
# 
# From -- ./inp_files/140836.got.cif
#   From: 2010.05.17/outbox.cif.g08.bks.cpg/sg15_71_cif.got.tgz:140836.got - 2010.06.03 18:47:42.
