data_PCOD9308769
_publ_section_title
;
Structure prediction by ZEFSAII (Michael W. Deem and Ramdas Pophale) SiO2 
 PCOD9308769
Probable space group: C 2/C
;
_chemical_formula_sum "Si O2"
_cell_formula_units_Z 32
_cell_length_a 21.000000
_cell_length_b 12.000000
_cell_length_c 27.000000
_cell_angle_alpha 90.000000
_cell_angle_beta 150.000000
_cell_angle_gamma 90.000000
_cell_volume 3402.000000
_symmetry_space_group_name_H-M "C 2/C"
_symmetry_group_IT_number 15
_symmetry_cell_setting 'monoclinic'
loop_
_space_group_symop_operation_xyz
x,y,z
-x,y,1/2-z
-x,-y,-z
x,-y,1/2+z
1/2+x,1/2+y,z
1/2-x,1/2+y,1/2-z
1/2-x,1/2-y,-z
1/2+x,1/2-y,1/2+z
loop_
_atom_site_type_symbol
_atom_site_label
_atom_site_fract_x
_atom_site_fract_y
_atom_site_fract_z
Si Si1 0.408179 0.262496 0.831991
Si Si2 0.708016 0.666797 0.138213
Si Si3 0.998677 0.825555 0.088501
Si Si4 0.401017 0.405732 0.727836
Si Si5 0.560164 0.668853 0.736922
Si Si6 0.054600 0.411880 0.591240
Si Si7 0.610304 0.110655 0.014919
Si Si8 0.258071 0.550250 0.783491
O O1 0.356521 0.302600 0.851544
O O2 0.423898 0.349733 0.797529
O O3 0.309632 0.166240 0.748706
O O4 0.538640 0.198128 0.932195
O O5 0.821866 0.751275 0.199691
O O6 0.745755 0.538337 0.174494
O O7 0.611587 0.669713 0.026843
O O8 0.967742 0.832555 0.126104
O O9 0.061097 0.703506 0.123918
O O10 0.103133 0.918079 0.143370
O O11 0.500000 0.377134 0.750000
O O12 0.398855 0.539944 0.730768
O O13 0.259330 0.371522 0.616346
O O14 0.500000 0.701209 0.750000
O O15 0.055571 0.381472 0.534169
O O16 0.174156 0.491310 0.683960
O O17 0.933003 0.483964 0.526482
#
# Coordination Sequence:
#
# PCOD9308769 Si02
#       8
#     8   8   8   8   8   8   8   8
#     4  11  23  37  67  97 124 170 210 262 321 371
#     4  12  23  39  65  99 132 159 210 275 318 367
#     4  12  21  37  63  94 127 161 205 268 318 369
#     4  11  25  45  65  88 131 172 213 262 307 384
#     4  11  25  45  65  88 126 175 215 255 316 386
#     4  10  19  35  62  93 127 160 205 264 304 374
#     4  10  20  36  63  97 119 166 215 248 317 377
#     4  11  21  36  60  98 130 162 198 264 326 367
#
# _framework density 9.4062319999999993
#
# number of rings (size 3 to 8) (size 9 to 14) (size 15 to 20)
#    0.000    1.000    3.750    4.125    1.750    1.000 
#    0.000    0.625    0.000    0.000    0.000    0.000 
#    0.000    0.000    0.000    0.000    0.000    0.000 
#
# Total GULP energy -178576.361082 kJ/mol
# GULP energy per Si atom -5580.511284 kJ/mol
# Density = 0.938482 g / cm^3
# Si number density = 9.406232 Si / 1000 Ang^3
#
#
#
# Elastic Constant Matrix: (Units=GPa)
#
#
# Indices 1 2 3 4 5 6 
#
# 1 131.9494 45.2338 59.5936 0.0001 -14.9317 0.0000
# 2 45.2338 79.5141 33.8512 -0.0002 -7.8744 -0.0001
# 3 59.5936 33.8512 126.9272 -0.0004 -8.7213 -0.0001
# 4 0.0001 -0.0002 -0.0004 29.1113 -0.0001 -7.8786
# 5 -14.9317 -7.8744 -8.7213 -0.0001 24.5002 0.0000
# 6 0.0000 -0.0001 -0.0001 -7.8786 0.0000 29.8570
#
#
#
# Elastic Compliance Matrix: (Units=1/GPa)
#
#
# Indices 1 2 3 4 5 6 
#
# 1 0.011279 -0.004372 -0.003848 0.000000 0.004099 0.000000
# 2 -0.004372 0.016146 -0.002132 0.000000 0.001766 0.000000
# 3 -0.003848 -0.002132 0.010297 0.000000 0.000635 0.000000
# 4 0.000000 0.000000 0.000000 0.036993 0.000000 0.009762
# 5 0.004099 0.001766 0.000635 0.000000 0.044108 0.000000
# 6 0.000000 0.000000 0.000000 0.009762 0.000000 0.036069
#
#
# Mechanical properties :
#
#
# Convention : Reuss Voigt Hill
#
# Bulk Modulus (GPa) = 58.76029 68.41643 63.58836
# Shear Modulus (GPa) = 27.58315 30.00784 28.79550
#
# Velocity S-wave (km/s) = 3.83328 3.99821 3.91661
# Velocity P-wave (km/s) = 7.13404 7.60005 7.37073
#
# Compressibility (1/GPa) = 0.01701830
#
# Stress axis : x y z
#
# Youngs Moduli (GPa) = 88.65746 61.93390 97.11150
#
# Poissons Ratio (x) = 0.27080 0.37369
# Poissons Ratio (y) = 0.38765 0.20704
# Poissons Ratio (z) = 0.34115 0.13204
#
# Static dielectric constant tensor:
#      x y z
#    x 1.625700 0.000000 -0.002200 
#    y 0.000000 1.692240 0.000000 
#    z -0.002200 0.000000 1.719070 
# 
# From -- ./inp_files/300848.got.cif
#   From: 2010.05.17/outbox.ucp.g08.bks.cvg/sg15_151_cif.got.tgz:300848.got - 2010.06.11 12:40:34.
