data_PCOD9308926
_publ_section_title
;
Structure prediction by ZEFSAII (Michael W. Deem and Ramdas Pophale) SiO2 
 PCOD9308926
Probable space group: C 2/C
;
_chemical_formula_sum "Si O2"
_cell_formula_units_Z 24
_cell_length_a 12.000000
_cell_length_b 12.000000
_cell_length_c 18.000000
_cell_angle_alpha 90.000000
_cell_angle_beta 70.000000
_cell_angle_gamma 90.000000
_cell_volume 2435.683273
_symmetry_space_group_name_H-M "C 2/C"
_symmetry_group_IT_number 15
_symmetry_cell_setting 'monoclinic'
loop_
_space_group_symop_operation_xyz
x,y,z
-x,y,1/2-z
-x,-y,-z
x,-y,1/2+z
1/2+x,1/2+y,z
1/2-x,1/2+y,1/2-z
1/2-x,1/2-y,-z
1/2+x,1/2-y,1/2+z
loop_
_atom_site_type_symbol
_atom_site_label
_atom_site_fract_x
_atom_site_fract_y
_atom_site_fract_z
Si Si1 0.242169 0.077209 0.610075
Si Si2 0.483928 0.128047 0.529846
Si Si3 0.994561 0.000344 0.411758
Si Si4 0.115032 0.166744 0.776302
Si Si5 0.687965 0.178846 0.381978
Si Si6 0.047122 0.758544 0.654278
O O1 0.345430 0.146900 0.547223
O O2 0.213896 0.132011 0.695264
O O3 0.127656 0.059284 0.585513
O O4 0.284078 0.951836 0.619767
O O5 0.578992 0.199647 0.462742
O O6 0.506406 0.156940 0.611012
O O7 0.500000 0.000000 0.500000
O O8 0.992708 0.125180 0.376722
O O9 0.000000 0.000000 0.500000
O O10 0.092321 0.927146 0.344922
O O11 0.147528 0.278963 0.811249
O O12 0.000000 0.175700 0.750000
O O13 0.809758 0.239510 0.375810
O O14 0.000000 0.755896 0.750000
#
# Coordination Sequence:
#
# PCOD9308926 Si02
#       6
#     8   8   8   8   8   8
#     4   9  20  38  57  81 114 149 187 237 285 342
#     4  10  21  37  56  83 116 147 186 237 290 337
#     4  10  20  36  59  85 112 149 195 238 284 338
#     4  10  20  37  57  82 115 146 183 236 291 336
#     4  10  20  37  59  83 111 152 192 233 284 347
#     4  11  21  37  61  86 111 151 200 239 280 346
#
# _framework density 9.8534980000000001
#
# number of rings (size 3 to 8) (size 9 to 14) (size 15 to 20)
#    0.000    2.000    0.000    5.000    0.000    2.667 
#    0.000   17.500    0.000    0.000    0.000    0.000 
#    0.000    0.000    0.000    0.000    0.000    0.000 
#
# Total GULP energy -133815.402199 kJ/mol
# GULP energy per Si atom -5575.641758 kJ/mol
# Density = 0.983107 g / cm^3
# Si number density = 9.853498 Si / 1000 Ang^3
#
#
#
# Elastic Constant Matrix: (Units=GPa)
#
#
# Indices 1 2 3 4 5 6 
#
# 1 65.2987 22.7984 65.4098 0.0000 -17.1416 0.0000
# 2 22.7984 28.0752 21.5959 0.0000 5.2572 0.0000
# 3 65.4098 21.5959 136.6482 0.0000 7.2598 0.0000
# 4 0.0000 0.0000 0.0000 28.8268 0.0000 17.9106
# 5 -17.1416 5.2572 7.2598 0.0000 41.6926 0.0000
# 6 0.0000 0.0000 0.0000 17.9106 0.0000 16.5171
#
#
#
# Elastic Compliance Matrix: (Units=1/GPa)
#
#
# Indices 1 2 3 4 5 6 
#
# 1 0.066599 -0.039851 -0.027558 0.000000 0.037205 0.000000
# 2 -0.039851 0.065077 0.010191 0.000000 -0.026365 0.000000
# 3 -0.027558 0.010191 0.019752 0.000000 -0.016055 0.000000
# 4 0.000000 0.000000 0.000000 0.106326 0.000000 -0.115296
# 5 0.037205 -0.026365 -0.016055 0.000000 0.045402 0.000000
# 6 0.000000 0.000000 0.000000 -0.115296 0.000000 0.185567
#
#
# Mechanical properties :
#
#
# Convention : Reuss Voigt Hill
#
# Bulk Modulus (GPa) = 27.03198 49.95892 38.49545
# Shear Modulus (GPa) = 8.12364 25.42182 16.77273
#
# Velocity S-wave (km/s) = 2.03253 3.59554 2.92054
# Velocity P-wave (km/s) = 4.38804 6.53017 5.56318
#
# Compressibility (1/GPa) = 0.03699322
#
# Stress axis : x y z
#
# Youngs Moduli (GPa) = 15.01515 15.36652 50.62873
#
# Poissons Ratio (x) = 0.61236 1.39523
# Poissons Ratio (y) = 0.59836 -0.51598
# Poissons Ratio (z) = 0.41379 -0.15661
#
# Static dielectric constant tensor:
#      x y z
#    x 1.739050 0.000000 -0.059280 
#    y 0.000000 1.697370 0.000000 
#    z -0.059280 0.000000 1.700660 
# 
# From -- ./inp_files/182448.got.cif
#   From: 2010.05.17/outbox.ucp.g08.bks.cvg/sg15_92_cif.got.tgz:182448.got - 2010.06.11 12:40:34.
