data_PCOD9308461
_publ_section_title
;
Structure prediction by ZEFSAII (Michael W. Deem and Ramdas Pophale) SiO2 
 PCOD9308461
Probable space group: C 2/C
;
_chemical_formula_sum "Si O2"
_cell_formula_units_Z 48
_cell_length_a 7.097734
_cell_length_b 7.981699
_cell_length_c 29.765413
_cell_angle_alpha 90.000000
_cell_angle_beta 81.162704
_cell_angle_gamma 90.000000
_cell_volume 1666.251074
_symmetry_space_group_name_H-M "C 2/C"
_symmetry_group_IT_number 15
_symmetry_cell_setting 'monoclinic'
loop_
_space_group_symop_operation_xyz
x,y,z
-x,y,1/2-z
-x,-y,-z
x,-y,1/2+z
1/2+x,1/2+y,z
1/2-x,1/2+y,1/2-z
1/2-x,1/2-y,-z
1/2+x,1/2-y,1/2+z
loop_
_atom_site_type_symbol
_atom_site_label
_atom_site_fract_x
_atom_site_fract_y
_atom_site_fract_z
Si Si1 0.118521 0.894707 0.345534
Si Si2 0.291366 0.781333 0.738811
Si Si3 0.609052 0.936988 0.906153
Si Si4 0.461866 0.425490 0.571974
Si Si5 0.694487 0.110705 0.821461
Si Si6 0.034823 0.256701 0.989416
O O1 0.256847 0.851050 0.299157
O O2 0.096146 0.726550 0.375597
O O3 0.908097 0.911241 0.332739
O O4 0.167264 0.040043 0.379500
O O5 0.500000 0.737240 0.750000
O O6 0.166890 0.768026 0.788802
O O7 0.316414 0.955853 0.712766
O O8 0.824918 0.922989 0.916306
O O9 0.490642 0.908443 0.956574
O O10 0.573778 0.086914 0.871784
O O11 0.468895 0.591411 0.541194
O O12 0.413736 0.275209 0.539269
O O13 0.250000 0.250000 0.000000
#
# Coordination Sequence:
#
# PCOD9308461 Si02
#       6
#     8   8   8   8   8   8
#     4   8  14  24  38  55  78 110 143 178 224 269
#     4   9  17  29  43  60  82 109 141 179 221 267
#     4   8  13  21  34  53  78 112 147 181 225 270
#     4   8  12  18  30  50  78 114 149 183 224 268
#     4   9  16  27  42  58  80 110 142 179 224 269
#     4   8  12  17  27  48  80 115 150 186 224 267
#
# _framework density 28.807183999999999
#
# number of rings (size 3 to 8) (size 9 to 14) (size 15 to 20)
#    0.000    3.667    0.000    0.000    0.000    0.000 
#    0.000    2.500    0.000    0.000    0.000    0.000 
#    0.000    1.333    0.000  572.500    0.000 1447.667 
#
# Total GULP energy -134181.579415 kJ/mol
# GULP energy per Si atom -5590.899142 kJ/mol
# Density = 2.874162 g / cm^3
# Si number density = 28.807184 Si / 1000 Ang^3
#
#
#
# Elastic Constant Matrix: (Units=GPa)
#
#
# Indices 1 2 3 4 5 6 
#
# 1 100.8201 -4.2847 27.0616 0.0000 -9.7967 0.0000
# 2 -4.2847 87.3681 37.2538 0.0000 15.0021 0.0000
# 3 27.0616 37.2538 238.4758 0.0000 15.8350 0.0000
# 4 0.0000 0.0000 0.0000 59.4339 0.0000 8.1309
# 5 -9.7967 15.0021 15.8350 0.0000 14.7735 0.0000
# 6 0.0000 0.0000 0.0000 8.1309 0.0000 21.1965
#
#
#
# Elastic Compliance Matrix: (Units=1/GPa)
#
#
# Indices 1 2 3 4 5 6 
#
# 1 0.011378 -0.000336 -0.001897 0.000000 0.009920 0.000000
# 2 -0.000336 0.014273 -0.001307 0.000000 -0.013316 0.000000
# 3 -0.001897 -0.001307 0.004961 0.000000 -0.005248 0.000000
# 4 0.000000 0.000000 0.000000 0.017757 0.000000 -0.006812
# 5 0.009920 -0.013316 -0.005248 0.000000 0.093414 0.000000
# 6 0.000000 0.000000 0.000000 -0.006812 0.000000 0.049791
#
#
# Mechanical properties :
#
#
# Convention : Reuss Voigt Hill
#
# Bulk Modulus (GPa) = 42.49866 60.74726 51.62296
# Shear Modulus (GPa) = 24.21311 43.52300 33.86806
#
# Velocity S-wave (km/s) = 2.90232 3.89117 3.43254
# Velocity P-wave (km/s) = 5.10060 6.42818 5.80249
#
# Compressibility (1/GPa) = 0.02353015
#
# Stress axis : x y z
#
# Youngs Moduli (GPa) = 87.89263 70.06095 201.55958
#
# Poissons Ratio (x) = 0.02357 0.38240
# Poissons Ratio (y) = 0.02957 0.26351
# Poissons Ratio (z) = 0.16675 0.09159
#
# Static dielectric constant tensor:
#      x y z
#    x 2.148970 0.000000 -0.115660 
#    y 0.000000 2.375130 0.000000 
#    z -0.115660 0.000000 2.294290 
# 
# From -- ./inp_files/306688.got.cif
#   From: 2010.05.17/outbox.cif.g08.bks.cpg/sg15_154_cif.got.tgz:306688.got - 2010.06.03 18:47:42.
