data_PCOD9308725
_publ_section_title
;
Structure prediction by ZEFSAII (Michael W. Deem and Ramdas Pophale) SiO2 
 PCOD9308725
Probable space group: C 2/C
;
_chemical_formula_sum "Si O2"
_cell_formula_units_Z 28
_cell_length_a 15.000000
_cell_length_b 15.000000
_cell_length_c 24.000000
_cell_angle_alpha 90.000000
_cell_angle_beta 30.000000
_cell_angle_gamma 90.000000
_cell_volume 2700.000000
_symmetry_space_group_name_H-M "C 2/C"
_symmetry_group_IT_number 15
_symmetry_cell_setting 'monoclinic'
loop_
_space_group_symop_operation_xyz
x,y,z
-x,y,1/2-z
-x,-y,-z
x,-y,1/2+z
1/2+x,1/2+y,z
1/2-x,1/2+y,1/2-z
1/2-x,1/2-y,-z
1/2+x,1/2-y,1/2+z
loop_
_atom_site_type_symbol
_atom_site_label
_atom_site_fract_x
_atom_site_fract_y
_atom_site_fract_z
Si Si1 0.625635 0.106883 0.531628
Si Si2 0.214148 0.157764 0.368119
Si Si3 0.911431 0.485897 0.241575
Si Si4 0.037950 0.910113 0.400261
Si Si5 0.996837 0.103553 0.378168
Si Si6 0.266808 0.161117 0.685446
Si Si7 0.309630 0.471594 0.824933
O O1 0.537726 0.036006 0.621523
O O2 0.808579 0.142019 0.459945
O O3 0.460073 0.171717 0.609744
O O4 0.685310 0.066425 0.440321
O O5 0.263590 0.260781 0.341518
O O6 0.109905 0.127008 0.479027
O O7 0.080319 0.142578 0.388515
O O8 0.374451 0.090383 0.268861
O O9 0.716346 0.442717 0.336614
O O10 0.000000 0.450236 0.250000
O O11 0.112667 0.840276 0.315206
O O12 0.966297 0.998237 0.408042
O O13 0.142345 0.099404 0.249619
O O14 0.264882 0.062071 0.660939
O O15 0.500000 0.492628 0.750000
#
# Coordination Sequence:
#
# PCOD9308725 Si02
#       7
#     8   8   8   8   8   8   8
#     4  10  19  34  56  75  98 133 173 211 239 290
#     4  11  21  33  52  75 106 135 159 205 261 302
#     4  10  19  33  55  78  96 129 178 210 240 292
#     4   9  19  36  52  71 102 135 167 207 248 294
#     4   9  18  35  55  75  98 133 174 204 246 296
#     4  10  22  33  49  79 105 129 165 207 253 298
#     4   9  19  36  55  73 100 136 170 205 245 295
#
# _framework density 10.370369999999999
#
# number of rings (size 3 to 8) (size 9 to 14) (size 15 to 20)
#    0.000    2.286    0.000    4.714    0.000    3.429 
#    0.000    0.000    0.000    7.714    0.000    0.000 
#    0.000    0.000    0.000    0.000    0.000    0.000 
#
# Total GULP energy -156247.707250 kJ/mol
# GULP energy per Si atom -5580.275259 kJ/mol
# Density = 1.034677 g / cm^3
# Si number density = 10.370370 Si / 1000 Ang^3
#
#
#
# Elastic Constant Matrix: (Units=GPa)
#
#
# Indices 1 2 3 4 5 6 
#
# 1 33.4089 -9.5327 12.8877 -0.0001 18.9896 0.0000
# 2 -9.5327 33.9352 33.0092 -0.0010 8.0624 0.0002
# 3 12.8877 33.0092 108.4241 -0.0026 31.0048 0.0009
# 4 -0.0001 -0.0010 -0.0026 -2.0527 0.0010 7.2029
# 5 18.9896 8.0624 31.0048 0.0010 32.1300 -0.0002
# 6 0.0000 0.0002 0.0009 7.2029 -0.0002 10.2083
#
#
#
# Elastic Compliance Matrix: (Units=1/GPa)
#
#
# Indices 1 2 3 4 5 6 
#
# 1 0.065825 0.034705 -0.006595 -0.000011 -0.041249 0.000006
# 2 0.034705 0.060307 -0.016977 -0.000006 -0.019262 0.000004
# 3 -0.006595 -0.016977 0.017737 -0.000006 -0.008959 0.000003
# 4 -0.000011 -0.000006 -0.000006 -0.140155 0.000019 0.098892
# 5 -0.041249 -0.019262 -0.008959 0.000019 0.068981 -0.000011
# 6 0.000006 0.000004 0.000003 0.098892 -0.000011 0.028182
#
#
# Mechanical properties :
#
#
# Convention : Reuss Voigt Hill
#
# Bulk Modulus (GPa) = 6.01917 27.61072 16.81495
# Shear Modulus (GPa) = 37.31624 17.35071 27.33348
#
# Velocity S-wave (km/s) = 4.24627 2.89546 3.63418
# Velocity P-wave (km/s) = 5.19129 4.95171 5.07292
#
# Compressibility (1/GPa) = 0.16613593
#
# Stress axis : x y z
#
# Youngs Moduli (GPa) = 15.19188 16.58176 56.37819
#
# Poissons Ratio (x) = -0.57547 0.37179
# Poissons Ratio (y) = -0.52724 0.95715
# Poissons Ratio (z) = 0.10018 0.28152
#
# Static dielectric constant tensor:
#      x y z
#    x 1.774800 0.000000 -0.012630 
#    y 0.000000 1.744930 0.000000 
#    z -0.012630 0.000000 1.726410 
# 
# From -- ./inp_files/119210.got.cif
#   From: 2010.05.17/outbox.ucp.g08.bks.cvg/sg15_60_cif.got.tgz:119210.got - 2010.06.11 12:40:34.
