data_PCOD9308835
_publ_section_title
;
Structure prediction by ZEFSAII (Michael W. Deem and Ramdas Pophale) SiO2 
 PCOD9308835
Probable space group: C 2/C
;
_chemical_formula_sum "Si O2"
_cell_formula_units_Z 32
_cell_length_a 21.000000
_cell_length_b 12.000000
_cell_length_c 18.000000
_cell_angle_alpha 90.000000
_cell_angle_beta 50.000000
_cell_angle_gamma 90.000000
_cell_volume 3474.777594
_symmetry_space_group_name_H-M "C 2/C"
_symmetry_group_IT_number 15
_symmetry_cell_setting 'monoclinic'
loop_
_space_group_symop_operation_xyz
x,y,z
-x,y,1/2-z
-x,-y,-z
x,-y,1/2+z
1/2+x,1/2+y,z
1/2-x,1/2+y,1/2-z
1/2-x,1/2-y,-z
1/2+x,1/2-y,1/2+z
loop_
_atom_site_type_symbol
_atom_site_label
_atom_site_fract_x
_atom_site_fract_y
_atom_site_fract_z
Si Si1 0.408956 0.619258 0.347808
Si Si2 0.300372 0.519976 0.307148
Si Si3 0.321721 0.573491 0.565486
Si Si4 0.177670 0.663887 0.582249
Si Si5 0.840216 0.210112 0.702526
Si Si6 0.509798 0.819220 0.526340
Si Si7 0.890963 0.462153 0.509021
Si Si8 0.834695 0.839925 0.640929
O O1 0.500000 0.586989 0.250000
O O2 0.337465 0.549652 0.359179
O O3 0.389118 0.600543 0.450176
O O4 0.391908 0.748604 0.339665
O O5 0.333083 0.399573 0.258492
O O6 0.199129 0.525602 0.381410
O O7 0.338864 0.609209 0.220798
O O8 0.228694 0.590294 0.602545
O O9 0.329718 0.662854 0.626167
O O10 0.333008 0.448950 0.588829
O O11 0.250000 0.750000 0.500000
O O12 0.137404 0.589453 0.548072
O O13 0.933286 0.264906 0.632040
O O14 0.757410 0.280905 0.788222
O O15 0.455555 0.878618 0.501486
O O16 0.584060 0.735817 0.441410
O O17 0.561190 0.919274 0.528018
#
# Coordination Sequence:
#
# PCOD9308835 Si02
#       8
#     8   8   8   8   8   8   8   8
#     4  11  24  39  63  97 130 165 214 273 330 385
#     4  11  22  40  65  92 129 172 216 266 328 384
#     4  10  23  41  66  91 128 166 217 263 329 388
#     4  10  19  40  63  88 123 161 208 266 326 379
#     4  11  23  42  64  94 132 168 220 270 325 383
#     4  11  24  39  64  94 134 169 221 263 326 388
#     4  11  21  40  65  95 124 171 218 268 321 386
#     4  11  24  39  66  96 127 171 215 269 328 380
#
# _framework density 9.2092220000000005
#
# number of rings (size 3 to 8) (size 9 to 14) (size 15 to 20)
#    0.000    1.250    5.000    2.250    5.250    1.000 
#    2.250    2.500    0.000    0.000    0.000    0.000 
#    0.000    0.000    0.000    0.000    0.000    0.000 
#
# Total GULP energy -178400.711775 kJ/mol
# GULP energy per Si atom -5575.022243 kJ/mol
# Density = 0.918826 g / cm^3
# Si number density = 9.209222 Si / 1000 Ang^3
#
#
#
# Elastic Constant Matrix: (Units=GPa)
#
#
# Indices 1 2 3 4 5 6 
#
# 1 106.2771 47.4900 38.3395 0.0000 -16.1252 0.0000
# 2 47.4900 110.8579 43.3341 0.0000 -13.7526 0.0000
# 3 38.3395 43.3341 104.1563 0.0000 -27.8543 0.0000
# 4 0.0000 0.0000 0.0000 38.2437 0.0000 -11.3083
# 5 -16.1252 -13.7526 -27.8543 0.0000 44.1648 0.0000
# 6 0.0000 0.0000 0.0000 -11.3083 0.0000 33.9282
#
#
#
# Elastic Compliance Matrix: (Units=1/GPa)
#
#
# Indices 1 2 3 4 5 6 
#
# 1 0.012387 -0.004168 -0.002361 0.000000 0.001735 0.000000
# 2 -0.004168 0.012190 -0.003523 0.000000 0.000052 0.000000
# 3 -0.002361 -0.003523 0.013727 0.000000 0.006698 0.000000
# 4 0.000000 0.000000 0.000000 0.029007 0.000000 0.009668
# 5 0.001735 0.000052 0.006698 0.000000 0.027517 0.000000
# 6 0.000000 0.000000 0.000000 0.009668 0.000000 0.032696
#
#
# Mechanical properties :
#
#
# Convention : Reuss Voigt Hill
#
# Bulk Modulus (GPa) = 54.94967 64.40208 59.67587
# Shear Modulus (GPa) = 32.53165 36.07586 34.30375
#
# Velocity S-wave (km/s) = 4.20724 4.43050 4.32031
# Velocity P-wave (km/s) = 7.31437 7.82396 7.57345
#
# Compressibility (1/GPa) = 0.01819847
#
# Stress axis : x y z
#
# Youngs Moduli (GPa) = 80.72929 82.03544 72.84676
#
# Poissons Ratio (x) = 0.34193 0.17202
# Poissons Ratio (y) = 0.33649 0.25667
# Poissons Ratio (z) = 0.19063 0.28905
#
# Static dielectric constant tensor:
#      x y z
#    x 1.642140 0.000000 0.004760 
#    y 0.000000 1.664280 0.000000 
#    z 0.004760 0.000000 1.651000 
# 
# From -- ./inp_files/215045.got.cif
#   From: 2010.05.17/outbox.ucp.g08.bks.cvg/sg15_108_cif.got.tgz:215045.got - 2010.06.11 12:40:34.
