data_PCOD9308493
_publ_section_title
;
Structure prediction by ZEFSAII (Michael W. Deem and Ramdas Pophale) SiO2 
 PCOD9308493
Probable space group: C 2/C
;
_chemical_formula_sum "Si O2"
_cell_formula_units_Z 48
_cell_length_a 6.781946
_cell_length_b 32.579043
_cell_length_c 10.603923
_cell_angle_alpha 90.000000
_cell_angle_beta 46.798514
_cell_angle_gamma 90.000000
_cell_volume 1707.880485
_symmetry_space_group_name_H-M "C 2/C"
_symmetry_group_IT_number 15
_symmetry_cell_setting 'monoclinic'
loop_
_space_group_symop_operation_xyz
x,y,z
-x,y,1/2-z
-x,-y,-z
x,-y,1/2+z
1/2+x,1/2+y,z
1/2-x,1/2+y,1/2-z
1/2-x,1/2-y,-z
1/2+x,1/2-y,1/2+z
loop_
_atom_site_type_symbol
_atom_site_label
_atom_site_fract_x
_atom_site_fract_y
_atom_site_fract_z
Si Si1 0.274441 0.231996 0.212809
Si Si2 0.204992 0.340966 0.946886
Si Si3 0.504328 0.314729 0.053983
Si Si4 0.221610 0.900386 0.950179
Si Si5 0.178276 0.575590 0.544058
Si Si6 0.729795 0.988038 0.542612
O O1 0.432031 0.198038 0.059465
O O2 0.207090 0.208353 0.369468
O O3 0.000000 0.238308 0.250000
O O4 0.394847 0.276434 0.177517
O O5 0.500000 0.344603 0.750000
O O6 0.265363 0.329223 0.063859
O O7 0.082243 0.386285 0.001050
O O8 0.623671 0.357304 0.051331
O O9 0.500000 0.893517 0.750000
O O10 0.229556 0.942358 0.027991
O O11 0.983649 0.912110 0.952360
O O12 0.178473 0.529721 0.486004
O O13 0.000000 0.574087 0.750000
O O14 0.500000 0.984048 0.750000
O O15 0.000000 0.000000 0.500000
#
# Coordination Sequence:
#
# PCOD9308493 Si02
#       6
#     8   8   8   8   8   8
#     4   9  16  27  42  64  91 116 143 185 230 264
#     4   8  15  26  41  66  96 120 139 174 232 283
#     4   9  17  27  42  62  84 118 153 180 219 268
#     4   9  17  29  43  63  92 124 149 178 224 273
#     4   9  16  26  46  75  91 106 148 195 224 255
#     4   8  14  25  41  64  89 110 140 184 222 257
#
# _framework density 28.105014000000001
#
# number of rings (size 3 to 8) (size 9 to 14) (size 15 to 20)
#    0.000    3.667    0.000    2.000    0.000    5.333 
#    0.000    0.833    0.000    0.000    0.000  184.333 
#    0.000    0.000    0.000    0.000    0.000    0.000 
#
# Total GULP energy -134288.801542 kJ/mol
# GULP energy per Si atom -5595.366731 kJ/mol
# Density = 2.804105 g / cm^3
# Si number density = 28.105014 Si / 1000 Ang^3
#
#
#
# Elastic Constant Matrix: (Units=GPa)
#
#
# Indices 1 2 3 4 5 6 
#
# 1 114.5696 66.0652 20.9877 0.0000 -11.6098 0.0000
# 2 66.0652 397.9280 49.1299 0.0000 -0.2064 0.0000
# 3 20.9877 49.1299 116.7380 0.0000 -18.4662 0.0000
# 4 0.0000 0.0000 0.0000 36.7448 0.0000 -10.5134
# 5 -11.6098 -0.2064 -18.4662 0.0000 28.2421 0.0000
# 6 0.0000 0.0000 0.0000 -10.5134 0.0000 42.8347
#
#
#
# Elastic Compliance Matrix: (Units=1/GPa)
#
#
# Indices 1 2 3 4 5 6 
#
# 1 0.010145 -0.001615 -0.000542 0.000000 0.003804 0.000000
# 2 -0.001615 0.002924 -0.001162 0.000000 -0.001402 0.000000
# 3 -0.000542 -0.001162 0.010168 0.000000 0.006417 0.000000
# 4 0.000000 0.000000 0.000000 0.029270 0.000000 0.007184
# 5 0.003804 -0.001402 0.006417 0.000000 0.041157 0.000000
# 6 0.000000 0.000000 0.000000 0.007184 0.000000 0.025109
#
#
# Mechanical properties :
#
#
# Convention : Reuss Voigt Hill
#
# Bulk Modulus (GPa) = 60.25169 100.17790 80.21479
# Shear Modulus (GPa) = 38.18421 54.43450 46.30936
#
# Velocity S-wave (km/s) = 3.68995 4.40571 4.06362
# Velocity P-wave (km/s) = 6.29595 7.84869 7.11480
#
# Compressibility (1/GPa) = 0.01659705
#
# Stress axis : x y z
#
# Youngs Moduli (GPa) = 98.57489 342.00532 98.35003
#
# Poissons Ratio (x) = 0.55244 0.05334
# Poissons Ratio (y) = 0.15923 0.11428
# Poissons Ratio (z) = 0.05346 0.39741
#
# Static dielectric constant tensor:
#      x y z
#    x 2.351990 0.000000 -0.086310 
#    y 0.000000 2.205360 0.000000 
#    z -0.086310 0.000000 2.148040 
# 
# From -- ./inp_files/201313.got.cif
#   From: 2010.05.17/outbox.cif.g08.bks.cpg/sg15_101_cif.got.tgz:201313.got - 2010.06.03 18:47:42.
