data_PCOD9308614
_publ_section_title
;
Structure prediction by ZEFSAII (Michael W. Deem and Ramdas Pophale) SiO2 
 PCOD9308614
Probable space group: C 2/C
;
_chemical_formula_sum "Si O2"
_cell_formula_units_Z 32
_cell_length_a 30.000000
_cell_length_b 12.000000
_cell_length_c 15.000000
_cell_angle_alpha 90.000000
_cell_angle_beta 40.000000
_cell_angle_gamma 90.000000
_cell_volume 3471.053092
_symmetry_space_group_name_H-M "C 2/C"
_symmetry_group_IT_number 15
_symmetry_cell_setting 'monoclinic'
loop_
_space_group_symop_operation_xyz
x,y,z
-x,y,1/2-z
-x,-y,-z
x,-y,1/2+z
1/2+x,1/2+y,z
1/2-x,1/2+y,1/2-z
1/2-x,1/2-y,-z
1/2+x,1/2-y,1/2+z
loop_
_atom_site_type_symbol
_atom_site_label
_atom_site_fract_x
_atom_site_fract_y
_atom_site_fract_z
Si Si1 0.419239 0.767359 0.959490
Si Si2 0.412188 0.771364 0.780992
Si Si3 0.668602 0.244767 0.609835
Si Si4 0.569663 0.985150 0.010342
Si Si5 0.403960 0.990464 0.232493
Si Si6 0.908345 0.112359 0.132862
Si Si7 0.573760 0.363007 0.410798
Si Si8 0.076852 0.262580 0.090450
O O1 0.392693 0.723479 0.906095
O O2 0.503315 0.768056 0.841933
O O3 0.405325 0.896751 0.992893
O O4 0.388983 0.692595 0.082295
O O5 0.394621 0.702394 0.720979
O O6 0.386084 0.897728 0.813160
O O7 0.750000 0.250000 0.500000
O O8 0.636504 0.123610 0.686471
O O9 0.632477 0.340664 0.722119
O O10 0.640064 0.269775 0.555786
O O11 0.486225 0.973529 0.125321
O O12 0.586472 0.892401 0.055709
O O13 0.600457 0.975056 0.864465
O O14 0.895114 0.985108 0.131915
O O15 0.990847 0.125486 0.022557
O O16 0.581069 0.297464 0.490205
O O17 0.000000 0.243404 0.250000
#
# Coordination Sequence:
#
# PCOD9308614 Si02
#       8
#     8   8   8   8   8   8   8   8
#     4   9  17  28  49  85 123 146 175 236 309 351
#     4   9  17  29  51  87 117 141 184 243 303 339
#     4  12  25  40  58  87 125 160 194 238 302 367
#     4  10  17  29  59  91 115 140 190 254 298 340
#     4  10  17  32  57  86 121 146 184 248 306 340
#     4  10  20  37  56  84 120 158 195 241 289 344
#     4  10  20  35  59  88 115 150 201 252 283 341
#     4  12  21  36  61  91 116 152 201 244 294 346
#
# _framework density 9.2191039999999997
#
# number of rings (size 3 to 8) (size 9 to 14) (size 15 to 20)
#    0.000    1.750    5.000    0.750    1.750    1.000 
#    2.250    1.250    0.000    0.750    0.000    0.000 
#    0.000    0.000    0.000    0.000    0.000    0.000 
#
# Total GULP energy -178209.566121 kJ/mol
# GULP energy per Si atom -5569.048941 kJ/mol
# Density = 0.919812 g / cm^3
# Si number density = 9.219104 Si / 1000 Ang^3
#
#
#
# Elastic Constant Matrix: (Units=GPa)
#
#
# Indices 1 2 3 4 5 6 
#
# 1 75.2647 34.3867 33.2638 0.0000 34.8565 0.0000
# 2 34.3867 87.7156 26.7754 0.0000 8.2882 0.0000
# 3 33.2638 26.7754 14.2242 0.0000 16.5099 0.0000
# 4 0.0000 0.0000 0.0000 63.0274 0.0000 120.6480
# 5 34.8565 8.2882 16.5099 0.0000 21.2037 0.0000
# 6 0.0000 0.0000 0.0000 120.6480 0.0000 247.3336
#
#
#
# Elastic Compliance Matrix: (Units=1/GPa)
#
#
# Indices 1 2 3 4 5 6 
#
# 1 0.075621 -0.024420 0.024251 0.000000 -0.133651 0.000000
# 2 -0.024420 0.003281 0.060517 0.000000 -0.008260 0.000000
# 3 0.024251 0.060517 -0.276338 0.000000 0.151645 0.000000
# 4 0.000000 0.000000 0.000000 0.239468 0.000000 -0.116811
# 5 -0.133651 -0.008260 0.151645 0.000000 0.152022 0.000000
# 6 0.000000 0.000000 0.000000 -0.116811 0.000000 0.061023
#
#
# Mechanical properties :
#
#
# Convention : Reuss Voigt Hill
#
# Bulk Modulus (GPa) = -13.03133 40.67293 13.82080
# Shear Modulus (GPa) = 45.95565 71.83151 58.89358
#
# Velocity S-wave (km/s) = 4.99782 6.24840 5.65777
# Velocity P-wave (km/s) = 5.12069 8.61183 7.08467
#
# Compressibility (1/GPa) = -0.07673816
#
# Stress axis : x y z
#
# Youngs Moduli (GPa) = 13.22375 304.77245 -3.61876
#
# Poissons Ratio (x) = 7.44245 0.08776
# Poissons Ratio (y) = 0.32292 0.21900
# Poissons Ratio (z) = -0.32069 -18.44389
#
# Static dielectric constant tensor:
#      x y z
#    x 1.588350 0.000000 0.055740 
#    y 0.000000 1.648360 0.000000 
#    z 0.055740 0.000000 1.626790 
# 
# From -- ./inp_files/181750.got.cif
#   From: 2010.05.17/outbox.ucp.g08.bks.cvg/sg15_91_cif.got.tgz:181750.got - 2010.06.11 12:40:34.
