data_PCOD9308773
_publ_section_title
;
Structure prediction by ZEFSAII (Michael W. Deem and Ramdas Pophale) SiO2 
 PCOD9308773
Probable space group: C 2/C
;
_chemical_formula_sum "Si O2"
_cell_formula_units_Z 32
_cell_length_a 18.000000
_cell_length_b 27.000000
_cell_length_c 21.000000
_cell_angle_alpha 90.000000
_cell_angle_beta 20.000000
_cell_angle_gamma 90.000000
_cell_volume 3490.657583
_symmetry_space_group_name_H-M "C 2/C"
_symmetry_group_IT_number 15
_symmetry_cell_setting 'monoclinic'
loop_
_space_group_symop_operation_xyz
x,y,z
-x,y,1/2-z
-x,-y,-z
x,-y,1/2+z
1/2+x,1/2+y,z
1/2-x,1/2+y,1/2-z
1/2-x,1/2-y,-z
1/2+x,1/2-y,1/2+z
loop_
_atom_site_type_symbol
_atom_site_label
_atom_site_fract_x
_atom_site_fract_y
_atom_site_fract_z
Si Si1 0.993629 0.971916 0.136553
Si Si2 0.720081 0.462097 0.539044
Si Si3 0.230417 0.438696 0.804674
Si Si4 0.121154 0.787755 0.714943
Si Si5 0.391292 0.185934 0.705766
Si Si6 0.773844 0.398168 0.215596
Si Si7 0.359154 0.624195 0.491583
Si Si8 0.325180 0.011558 0.764101
O O1 0.889850 0.918569 0.206825
O O2 0.142042 0.983876 0.077190
O O3 0.805005 0.014242 0.288016
O O4 0.152267 0.990752 0.953020
O O5 0.500000 0.442357 0.750000
O O6 0.743300 0.420473 0.466073
O O7 0.946975 0.471259 0.390242
O O8 0.433125 0.401236 0.640482
O O9 0.159247 0.466721 0.798300
O O10 0.021972 0.409691 0.997157
O O11 0.351201 0.812311 0.512607
O O12 0.163109 0.742462 0.730240
O O13 0.000000 0.766444 0.750000
O O14 0.964220 0.830604 0.867378
O O15 0.270989 0.157911 0.743709
O O16 0.319205 0.150063 0.820840
O O17 0.733507 0.439890 0.302382
#
# Coordination Sequence:
#
# PCOD9308773 Si02
#       8
#     8   8   8   8   8   8   8   8
#     4  10  20  34  49  78 110 141 180 225 273 323
#     4  11  22  36  51  79 112 150 184 226 270 330
#     4  10  19  36  53  77 107 142 182 227 270 329
#     4  12  26  42  54  79 109 144 190 244 287 319
#     4  12  25  40  60  76 106 147 190 240 284 331
#     4  11  20  34  56  77 102 148 185 223 275 332
#     4  11  23  40  57  79 110 148 195 229 277 335
#     4  11  20  33  53  78 109 144 184 222 269 329
#
# _framework density 9.1673270000000002
#
# number of rings (size 3 to 8) (size 9 to 14) (size 15 to 20)
#    0.000    1.000    2.500    8.625    1.750    0.000 
#    2.250    0.000    0.000    0.000    0.000    0.000 
#    0.000    1.000    4.750    0.750    0.000    0.125 
#
# Total GULP energy -178513.464636 kJ/mol
# GULP energy per Si atom -5578.545770 kJ/mol
# Density = 0.914646 g / cm^3
# Si number density = 9.167327 Si / 1000 Ang^3
#
#
#
# Elastic Constant Matrix: (Units=GPa)
#
#
# Indices 1 2 3 4 5 6 
#
# 1 35.8278 32.6167 17.2659 -0.0389 -8.3103 0.1066
# 2 32.6167 100.4597 20.6993 -0.0434 -2.6475 0.0796
# 3 17.2659 20.6993 83.3599 0.0220 10.3349 0.1045
# 4 -0.0389 -0.0434 0.0220 28.4425 -0.0193 0.1901
# 5 -8.3103 -2.6475 10.3349 -0.0193 24.3598 -0.0744
# 6 0.1066 0.0796 0.1045 0.1901 -0.0744 30.2116
#
#
#
# Elastic Compliance Matrix: (Units=1/GPa)
#
#
# Indices 1 2 3 4 5 6 
#
# 1 0.049126 -0.013551 -0.009189 0.000067 0.019185 -0.000059
# 2 -0.013551 0.014360 -0.000400 0.000002 -0.002892 0.000004
# 3 -0.009189 -0.000400 0.015192 -0.000031 -0.009624 -0.000043
# 4 0.000067 0.000002 -0.000031 0.035160 0.000063 -0.000221
# 5 0.019185 -0.002892 -0.009624 0.000063 0.051365 0.000099
# 6 -0.000059 0.000004 -0.000043 -0.000221 0.000099 0.033102
#
#
# Mechanical properties :
#
#
# Convention : Reuss Voigt Hill
#
# Bulk Modulus (GPa) = 30.86631 40.09013 35.47822
# Shear Modulus (GPa) = 19.57821 26.54047 23.05934
#
# Velocity S-wave (km/s) = 3.27131 3.80881 3.55024
# Velocity P-wave (km/s) = 5.58033 6.42308 6.01648
#
# Compressibility (1/GPa) = 0.03239778
#
# Stress axis : x y z
#
# Youngs Moduli (GPa) = 20.35574 69.63691 65.82372
#
# Poissons Ratio (x) = 0.94365 0.60484
# Poissons Ratio (y) = 0.27584 0.02636
# Poissons Ratio (z) = 0.18705 0.02789
#
# Static dielectric constant tensor:
#      x y z
#    x 1.763750 -0.000040 0.085410 
#    y -0.000040 1.612970 0.000100 
#    z 0.085410 0.000100 1.699820 
# 
# From -- ./inp_files/250424.got.cif
#   From: 2010.05.17/outbox.ucp.g08.bks.cvg/sg15_126_cif.got.tgz:250424.got - 2010.06.11 12:40:34.
