data_PCOD9308094
_publ_section_title
;
Structure prediction by ZEFSAII (Michael W. Deem and Ramdas Pophale) SiO2 
 PCOD9308094
Probable space group: C 2/C
;
_chemical_formula_sum "Si O2"
_cell_formula_units_Z 44
_cell_length_a 11.398894
_cell_length_b 7.055446
_cell_length_c 21.375308
_cell_angle_alpha 90.000000
_cell_angle_beta 82.900340
_cell_angle_gamma 90.000000
_cell_volume 1705.912922
_symmetry_space_group_name_H-M "C 2/C"
_symmetry_group_IT_number 15
_symmetry_cell_setting 'monoclinic'
loop_
_space_group_symop_operation_xyz
x,y,z
-x,y,1/2-z
-x,-y,-z
x,-y,1/2+z
1/2+x,1/2+y,z
1/2-x,1/2+y,1/2-z
1/2-x,1/2-y,-z
1/2+x,1/2-y,1/2+z
loop_
_atom_site_type_symbol
_atom_site_label
_atom_site_fract_x
_atom_site_fract_y
_atom_site_fract_z
Si Si1 0.150869 0.195999 0.056749
Si Si2 0.865177 0.237930 0.620148
Si Si3 0.381372 0.015939 0.724644
Si Si4 0.500000 0.000000 0.500000
Si Si5 0.890765 0.761961 0.447616
Si Si6 0.724884 0.355024 0.845667
O O1 0.231005 0.202015 0.114066
O O2 0.052644 0.354664 0.054785
O O3 0.107758 0.984475 0.046565
O O4 0.250000 0.250000 0.000000
O O5 0.904461 0.326682 0.682736
O O6 0.966593 0.308589 0.563865
O O7 0.863946 0.011405 0.620688
O O8 0.500000 0.082804 0.750000
O O9 0.288009 0.964025 0.784134
O O10 0.334814 0.172145 0.679934
O O11 0.632882 0.872045 0.492610
O O12 0.821456 0.701467 0.390950
#
# Coordination Sequence:
#
# PCOD9308094 Si02
#       6
#     8   8   8   4   8   8
#     4  12  27  47  72 107 145 187 240 298 356 422
#     4  12  26  45  72 105 142 187 237 293 354 428
#     4  12  26  45  73 106 140 186 239 294 360 431
#     4  12  26  46  74 106 144 188 238 294 356 422
#     4  12  27  47  73 109 144 189 244 294 357 435
#     4  12  26  45  74 105 145 184 235 298 359 425
#
# _framework density 25.792639999999999
#
# number of rings (size 3 to 8) (size 9 to 14) (size 15 to 20)
#    0.000    0.000    9.091    0.545    0.000    7.273 
#    0.000    0.000    0.000    0.000    0.000    0.000 
#    0.000    0.000    0.000    0.000    0.000    0.000 
#
# Total GULP energy -123008.924425 kJ/mol
# GULP energy per Si atom -5591.314747 kJ/mol
# Density = 2.573394 g / cm^3
# Si number density = 25.792640 Si / 1000 Ang^3
#
#
#
# Elastic Constant Matrix: (Units=GPa)
#
#
# Indices 1 2 3 4 5 6 
#
# 1 113.8702 65.9898 54.8769 0.0000 28.0244 0.0000
# 2 65.9898 238.3738 39.7934 0.0000 31.1391 0.0000
# 3 54.8769 39.7934 107.9554 0.0000 33.5938 0.0000
# 4 0.0000 0.0000 0.0000 53.9176 0.0000 9.3726
# 5 28.0244 31.1391 33.5938 0.0000 67.8271 0.0000
# 6 0.0000 0.0000 0.0000 9.3726 0.0000 40.1036
#
#
#
# Elastic Compliance Matrix: (Units=1/GPa)
#
#
# Indices 1 2 3 4 5 6 
#
# 1 0.013209 -0.002561 -0.005247 0.000000 -0.001683 0.000000
# 2 -0.002561 0.005093 -0.000209 0.000000 -0.001176 0.000000
# 3 -0.005247 -0.000209 0.013362 0.000000 -0.004354 0.000000
# 4 0.000000 0.000000 0.000000 0.019332 0.000000 -0.004518
# 5 -0.001683 -0.001176 -0.004354 0.000000 0.018135 0.000000
# 6 0.000000 0.000000 0.000000 -0.004518 0.000000 0.025991
#
#
# Mechanical properties :
#
#
# Convention : Reuss Voigt Hill
#
# Bulk Modulus (GPa) = 63.98043 86.83552 75.40798
# Shear Modulus (GPa) = 42.96773 52.33894 47.65333
#
# Velocity S-wave (km/s) = 4.08596 4.50957 4.30298
# Velocity P-wave (km/s) = 6.86437 7.80095 7.34760
#
# Compressibility (1/GPa) = 0.01562978
#
# Stress axis : x y z
#
# Youngs Moduli (GPa) = 75.70737 196.36199 74.83766
#
# Poissons Ratio (x) = 0.50286 0.39265
# Poissons Ratio (y) = 0.19388 0.01567
# Poissons Ratio (z) = 0.39721 0.04112
#
# Static dielectric constant tensor:
#      x y z
#    x 2.198180 0.000000 -0.018060 
#    y 0.000000 2.135480 0.000000 
#    z -0.018060 0.000000 2.136360 
# 
# From -- ./inp_files/294202.got.cif
#   From: 2010.05.17/outbox.cif.g08.bks.cpg/sg15_148_cif.got.tgz:294202.got - 2010.06.03 18:47:42.
