data_PCOD9308999
_publ_section_title
;
Structure prediction by ZEFSAII (Michael W. Deem and Ramdas Pophale) SiO2 
 PCOD9308999
Probable space group: C 2/C
;
_chemical_formula_sum "Si O2"
_cell_formula_units_Z 32
_cell_length_a 18.000000
_cell_length_b 12.000000
_cell_length_c 30.000000
_cell_angle_alpha 90.000000
_cell_angle_beta 30.000000
_cell_angle_gamma 90.000000
_cell_volume 3240.000000
_symmetry_space_group_name_H-M "C 2/C"
_symmetry_group_IT_number 15
_symmetry_cell_setting 'monoclinic'
loop_
_space_group_symop_operation_xyz
x,y,z
-x,y,1/2-z
-x,-y,-z
x,-y,1/2+z
1/2+x,1/2+y,z
1/2-x,1/2+y,1/2-z
1/2-x,1/2-y,-z
1/2+x,1/2-y,1/2+z
loop_
_atom_site_type_symbol
_atom_site_label
_atom_site_fract_x
_atom_site_fract_y
_atom_site_fract_z
Si Si1 0.236168 0.500705 0.452365
Si Si2 0.826016 0.578170 0.920184
Si Si3 0.850693 0.784400 0.855748
Si Si4 0.647256 0.224652 0.382407
Si Si5 0.118498 0.467288 0.379839
Si Si6 0.321693 0.940629 0.836398
Si Si7 0.314179 0.795892 0.074808
Si Si8 0.680747 0.922642 0.248198
O O1 0.250132 0.526142 0.497209
O O2 0.342277 0.586447 0.371793
O O3 0.260939 0.375236 0.423203
O O4 0.062174 0.528842 0.531035
O O5 0.822107 0.710392 0.914033
O O6 0.769570 0.515065 0.905424
O O7 0.003552 0.565480 0.833642
O O8 0.712995 0.752799 0.896539
O O9 0.000000 0.756051 0.750000
O O10 0.472042 0.243980 0.472814
O O11 0.744884 0.303296 0.300208
O O12 0.667048 0.092724 0.365798
O O13 0.156670 0.378070 0.398192
O O14 0.197277 0.443850 0.291912
O O15 0.500000 0.945596 0.750000
O O16 0.273802 0.813199 0.865728
O O17 0.265502 0.993523 0.818897
#
# Coordination Sequence:
#
# PCOD9308999 Si02
#       8
#     8   8   8   8   8   8   8   8
#     4  10  21  38  59  84 114 155 191 235 289 346
#     4  10  20  38  60  82 114 154 194 236 289 336
#     4  12  19  35  60  88 117 145 192 247 290 330
#     4  11  20  39  61  85 118 151 193 238 288 340
#     4  10  21  38  60  85 115 155 192 234 291 343
#     4  10  22  40  59  84 116 155 193 233 285 344
#     4  11  22  39  61  82 120 158 187 233 290 347
#     4  10  21  38  61  85 115 153 194 239 285 337
#
# _framework density 9.8765429999999999
#
# number of rings (size 3 to 8) (size 9 to 14) (size 15 to 20)
#    0.000    1.500    5.000    1.500    1.750    1.500 
#    0.000    1.250    0.000    0.000    0.000    0.000 
#    0.000    0.000    0.000    0.000    0.000    0.000 
#
# Total GULP energy -178325.425724 kJ/mol
# GULP energy per Si atom -5572.669554 kJ/mol
# Density = 0.985406 g / cm^3
# Si number density = 9.876543 Si / 1000 Ang^3
#
#
#
# Elastic Constant Matrix: (Units=GPa)
#
#
# Indices 1 2 3 4 5 6 
#
# 1 48.9728 22.0261 26.2216 -0.0002 27.7205 0.0000
# 2 22.0261 87.4072 20.7162 0.0001 13.3227 0.0000
# 3 26.2216 20.7162 23.9649 -0.0009 29.8911 -0.0002
# 4 -0.0002 0.0001 -0.0009 28.1651 0.0004 1.6361
# 5 27.7205 13.3227 29.8911 0.0004 20.1504 0.0001
# 6 0.0000 0.0000 -0.0002 1.6361 0.0001 5.1672
#
#
#
# Elastic Compliance Matrix: (Units=1/GPa)
#
#
# Indices 1 2 3 4 5 6 
#
# 1 0.046257 -0.001765 -0.033907 -0.000001 -0.012171 0.000000
# 2 -0.001765 0.012783 0.001889 0.000000 -0.008825 0.000000
# 3 -0.033907 0.001889 -0.024197 -0.000002 0.081289 -0.000002
# 4 -0.000001 0.000000 -0.000002 0.036170 0.000003 -0.011453
# 5 -0.012171 -0.008825 0.081289 0.000003 -0.048380 0.000003
# 6 0.000000 0.000000 -0.000002 -0.011453 0.000003 0.197153
#
#
# Mechanical properties :
#
#
# Convention : Reuss Voigt Hill
#
# Bulk Modulus (GPa) = -30.55971 33.14139 1.29084
# Shear Modulus (GPa) = 18.08674 16.78863 17.43768
#
# Velocity S-wave (km/s) = 3.02924 2.91851 2.97439
# Velocity P-wave (km/s) = 1.80814 5.30765 3.52858
#
# Compressibility (1/GPa) = -0.03272283
#
# Stress axis : x y z
#
# Youngs Moduli (GPa) = 21.61817 78.22889 -41.32783
#
# Poissons Ratio (x) = 0.13810 -1.40130
# Poissons Ratio (y) = 0.03816 0.07807
# Poissons Ratio (z) = 0.73300 -0.14777
#
# Static dielectric constant tensor:
#      x y z
#    x 1.740020 0.000000 0.026470 
#    y 0.000000 1.697920 0.000000 
#    z 0.026470 0.000000 1.705740 
# 
# From -- ./inp_files/316196.got.cif
#   From: 2010.05.17/outbox.ucp.g08.bks.cvg/sg15_159_cif.got.tgz:316196.got - 2010.06.11 12:40:34.
