data_PCOD9308959
_publ_section_title
;
Structure prediction by ZEFSAII (Michael W. Deem and Ramdas Pophale) SiO2 
 PCOD9308959
Probable space group: C 2/C
;
_chemical_formula_sum "Si O2"
_cell_formula_units_Z 32
_cell_length_a 18.000000
_cell_length_b 18.000000
_cell_length_c 15.000000
_cell_angle_alpha 90.000000
_cell_angle_beta 140.000000
_cell_angle_gamma 90.000000
_cell_volume 3123.947783
_symmetry_space_group_name_H-M "C 2/C"
_symmetry_group_IT_number 15
_symmetry_cell_setting 'monoclinic'
loop_
_space_group_symop_operation_xyz
x,y,z
-x,y,1/2-z
-x,-y,-z
x,-y,1/2+z
1/2+x,1/2+y,z
1/2-x,1/2+y,1/2-z
1/2-x,1/2-y,-z
1/2+x,1/2-y,1/2+z
loop_
_atom_site_type_symbol
_atom_site_label
_atom_site_fract_x
_atom_site_fract_y
_atom_site_fract_z
Si Si1 0.702769 0.375700 0.446831
Si Si2 0.893170 0.225565 0.217227
Si Si3 0.934838 0.682427 0.925769
Si Si4 0.537877 0.954709 0.424589
Si Si5 0.585688 0.232496 0.402173
Si Si6 0.237520 0.562408 0.677767
Si Si7 0.716762 0.128145 0.971072
Si Si8 0.229272 0.502989 0.853380
O O1 0.610637 0.318514 0.403203
O O2 0.802048 0.318570 0.506254
O O3 0.683247 0.421466 0.336139
O O4 0.742828 0.430910 0.562224
O O5 0.931605 0.253103 0.349306
O O6 0.830682 0.299301 0.121661
O O7 0.000000 0.209929 0.250000
O O8 0.803791 0.157643 0.126606
O O9 0.811474 0.639438 0.824563
O O10 0.018369 0.615416 0.972519
O O11 0.964596 0.718464 0.046925
O O12 0.608494 0.916688 0.410129
O O13 0.410566 0.986605 0.286539
O O14 0.623313 0.018970 0.536780
O O15 0.500000 0.202519 0.250000
O O16 0.279576 0.512525 0.799692
O O17 0.773161 0.072791 0.952144
#
# Coordination Sequence:
#
# PCOD9308959 Si02
#       8
#     8   8   8   8   8   8   8   8
#     4  10  23  40  61  89 118 158 205 249 304 362
#     4  11  21  39  55  85 127 155 192 242 299 369
#     4  10  20  37  57  88 122 155 196 244 300 365
#     4  11  20  35  59  96 121 146 193 263 316 352
#     4  10  24  43  58  84 121 170 205 241 296 363
#     4  10  21  33  58  91 121 148 196 251 308 351
#     4  11  21  34  61  87 116 161 186 245 315 355
#     4  11  20  36  61  89 119 146 197 260 309 354
#
# _framework density 10.243449
#
# number of rings (size 3 to 8) (size 9 to 14) (size 15 to 20)
#    0.000    1.500    5.000    1.875    5.250    1.000 
#    6.750    0.625    0.000    0.750    0.000    0.000 
#    0.000    0.000    0.000    0.000    0.000    0.000 
#
# Total GULP energy -178407.505893 kJ/mol
# GULP energy per Si atom -5575.234559 kJ/mol
# Density = 1.022013 g / cm^3
# Si number density = 10.243449 Si / 1000 Ang^3
#
#
#
# Elastic Constant Matrix: (Units=GPa)
#
#
# Indices 1 2 3 4 5 6 
#
# 1 70.2365 16.5335 30.1892 0.0000 -41.5975 0.0000
# 2 16.5335 50.8281 22.8465 0.0000 -9.3646 0.0000
# 3 30.1892 22.8465 38.3381 0.0000 -25.3080 -0.0001
# 4 0.0000 0.0000 0.0000 22.4414 0.0000 14.7141
# 5 -41.5975 -9.3646 -25.3080 0.0000 32.0807 0.0000
# 6 0.0000 0.0000 -0.0001 14.7141 0.0000 -43.4372
#
#
#
# Elastic Compliance Matrix: (Units=1/GPa)
#
#
# Indices 1 2 3 4 5 6 
#
# 1 0.068111 -0.012813 0.020517 0.000000 0.100761 0.000000
# 2 -0.012813 0.030911 -0.027840 0.000000 -0.029553 0.000000
# 3 0.020517 -0.027840 0.080784 0.000000 0.082206 0.000000
# 4 0.000000 0.000000 0.000000 0.036462 0.000000 0.012351
# 5 0.100761 -0.029553 0.082206 0.000000 0.218048 0.000000
# 6 0.000000 0.000000 0.000000 0.012351 0.000000 -0.018838
#
#
# Mechanical properties :
#
#
# Convention : Reuss Voigt Hill
#
# Bulk Modulus (GPa) = 7.16667 33.17124 20.16896
# Shear Modulus (GPa) = 9.95498 8.20587 9.08042
#
# Velocity S-wave (km/s) = 2.20675 2.00353 2.10759
# Velocity P-wave (km/s) = 3.16208 4.64529 3.97351
#
# Compressibility (1/GPa) = 0.13953473
#
# Stress axis : x y z
#
# Youngs Moduli (GPa) = 14.68195 32.35134 12.37861
#
# Poissons Ratio (x) = 0.41452 -0.25397
# Poissons Ratio (y) = 0.18812 0.34462
# Poissons Ratio (z) = -0.30123 0.90065
#
# Static dielectric constant tensor:
#      x y z
#    x 1.775680 0.000000 -0.040350 
#    y 0.000000 1.725820 0.000000 
#    z -0.040350 0.000000 1.789880 
# 
# From -- ./inp_files/163297.got.cif
#   From: 2010.05.17/outbox.ucp.g08.bks.cvg/sg15_82_cif.got.tgz:163297.got - 2010.06.11 12:40:34.
