data_PCOD9308720
_publ_section_title
;
Structure prediction by ZEFSAII (Michael W. Deem and Ramdas Pophale) SiO2 
 PCOD9308720
Probable space group: C 2/C
;
_chemical_formula_sum "Si O2"
_cell_formula_units_Z 30
_cell_length_a 15.000000
_cell_length_b 24.000000
_cell_length_c 12.000000
_cell_angle_alpha 90.000000
_cell_angle_beta 130.000000
_cell_angle_gamma 90.000000
_cell_volume 3309.311994
_symmetry_space_group_name_H-M "C 2/C"
_symmetry_group_IT_number 15
_symmetry_cell_setting 'monoclinic'
loop_
_space_group_symop_operation_xyz
x,y,z
-x,y,1/2-z
-x,-y,-z
x,-y,1/2+z
1/2+x,1/2+y,z
1/2-x,1/2+y,1/2-z
1/2-x,1/2-y,-z
1/2+x,1/2-y,1/2+z
loop_
_atom_site_type_symbol
_atom_site_label
_atom_site_fract_x
_atom_site_fract_y
_atom_site_fract_z
Si Si1 0.596429 0.139223 0.246173
Si Si2 0.500000 0.683737 0.750000
Si Si3 0.640050 0.932284 0.588790
Si Si4 0.141901 0.442108 0.131703
Si Si5 0.531292 0.758293 0.552194
Si Si6 0.859597 0.621130 0.646598
Si Si7 0.205048 0.724888 0.755631
Si Si8 0.254169 0.845656 0.432297
O O1 0.500000 0.111684 0.250000
O O2 0.670506 0.099077 0.227648
O O3 0.531939 0.180148 0.107962
O O4 0.679199 0.170396 0.400652
O O5 0.507589 0.719624 0.641559
O O6 0.381474 0.649361 0.650924
O O7 0.498482 0.935951 0.480250
O O8 0.676970 0.900070 0.505856
O O9 0.678559 0.995880 0.628866
O O10 0.173975 0.423064 0.283133
O O11 0.194907 0.401197 0.082350
O O12 0.666695 0.752571 0.618256
O O13 0.426119 0.750238 0.377373
O O14 0.814071 0.679235 0.662036
O O15 0.000000 0.625151 0.750000
O O16 0.229301 0.698562 0.653061
#
# Coordination Sequence:
#
# PCOD9308720 Si02
#       8
#     8   4   8   8   8   8   8   8
#     4  12  19  30  52  80 115 134 173 226 274 323
#     4  10  20  32  54  82 110 142 186 226 276 336
#     4  10  20  30  51  79 110 143 174 217 281 327
#     4   9  18  31  50  77 105 139 175 221 273 324
#     4  11  19  33  53  84 111 148 182 225 286 325
#     4   9  18  34  50  74 112 144 180 222 272 331
#     4  10  20  34  54  80 111 147 185 228 274 328
#     4  10  19  33  52  80 112 139 176 230 278 325
#
# _framework density 9.0653279999999992
#
# number of rings (size 3 to 8) (size 9 to 14) (size 15 to 20)
#    0.000    1.867    3.333    2.400    1.867    2.667 
#    0.000    2.667    0.000    0.800    3.467    0.000 
#    0.000    0.000    0.000    0.000    0.000    0.133 
#
# Total GULP energy -167003.147102 kJ/mol
# GULP energy per Si atom -5566.771570 kJ/mol
# Density = 0.904470 g / cm^3
# Si number density = 9.065328 Si / 1000 Ang^3
#
#
#
# Elastic Constant Matrix: (Units=GPa)
#
#
# Indices 1 2 3 4 5 6 
#
# 1 78.2093 35.4853 37.9748 0.0000 1.4317 0.0000
# 2 35.4853 57.0082 19.3669 0.0000 -7.6469 0.0000
# 3 37.9748 19.3669 51.9902 0.0000 4.2228 0.0000
# 4 0.0000 0.0000 0.0000 10.4986 0.0000 -3.8828
# 5 1.4317 -7.6469 4.2228 0.0000 34.9247 0.0000
# 6 0.0000 0.0000 0.0000 -3.8828 0.0000 16.4958
#
#
#
# Elastic Compliance Matrix: (Units=1/GPa)
#
#
# Indices 1 2 3 4 5 6 
#
# 1 0.024292 -0.010725 -0.013610 0.000000 -0.001698 0.000000
# 2 -0.010725 0.025861 -0.002318 0.000000 0.006382 0.000000
# 3 -0.013610 -0.002318 0.030333 0.000000 -0.003617 0.000000
# 4 0.000000 0.000000 0.000000 0.104333 0.000000 0.024558
# 5 -0.001698 0.006382 -0.003617 0.000000 0.030537 0.000000
# 6 0.000000 0.000000 0.000000 0.024558 0.000000 0.066402
#
#
# Mechanical properties :
#
#
# Convention : Reuss Voigt Hill
#
# Bulk Modulus (GPa) = 36.79298 41.42911 39.11105
# Shear Modulus (GPa) = 14.52962 18.67587 16.60274
#
# Velocity S-wave (km/s) = 2.83394 3.21295 3.02938
# Velocity P-wave (km/s) = 5.57186 6.05508 5.81849
#
# Compressibility (1/GPa) = 0.02717909
#
# Stress axis : x y z
#
# Youngs Moduli (GPa) = 41.16591 38.66867 32.96740
#
# Poissons Ratio (x) = 0.41472 0.44870
# Poissons Ratio (y) = 0.44150 0.07642
# Poissons Ratio (z) = 0.56028 0.08964
#
# Static dielectric constant tensor:
#      x y z
#    x 1.627300 0.000000 0.020050 
#    y 0.000000 1.678860 0.000000 
#    z 0.020050 0.000000 1.673900 
# 
# From -- ./inp_files/100690.got.cif
#   From: 2010.05.17/outbox.ucp.g08.bks.cvg/sg15_51_cif.got.tgz:100690.got - 2010.06.11 12:40:34.
