data_PCOD9308687
_publ_section_title
;
Structure prediction by ZEFSAII (Michael W. Deem and Ramdas Pophale) SiO2 
 PCOD9308687
Probable space group: C 2/C
;
_chemical_formula_sum "Si O2"
_cell_formula_units_Z 26
_cell_length_a 15.000000
_cell_length_b 18.000000
_cell_length_c 12.000000
_cell_angle_alpha 90.000000
_cell_angle_beta 60.000000
_cell_angle_gamma 90.000000
_cell_volume 2805.922308
_symmetry_space_group_name_H-M "C 2/C"
_symmetry_group_IT_number 15
_symmetry_cell_setting 'monoclinic'
loop_
_space_group_symop_operation_xyz
x,y,z
-x,y,1/2-z
-x,-y,-z
x,-y,1/2+z
1/2+x,1/2+y,z
1/2-x,1/2+y,1/2-z
1/2-x,1/2-y,-z
1/2+x,1/2-y,1/2+z
loop_
_atom_site_type_symbol
_atom_site_label
_atom_site_fract_x
_atom_site_fract_y
_atom_site_fract_z
Si Si1 0.878978 0.780904 0.352297
Si Si2 0.672156 0.773237 0.379026
Si Si3 0.312924 0.445706 0.464702
Si Si4 0.500000 0.539534 0.250000
Si Si5 0.344094 0.968153 0.588644
Si Si6 0.546582 0.908789 0.346452
Si Si7 0.843153 0.107747 0.187395
O O1 0.797601 0.767677 0.303329
O O2 0.859680 0.726036 0.469481
O O3 0.839976 0.862042 0.412893
O O4 0.000000 0.780505 0.250000
O O5 0.614194 0.838076 0.347037
O O6 0.641616 0.692960 0.353029
O O7 0.407877 0.492302 0.358758
O O8 0.209362 0.477928 0.471679
O O9 0.319177 0.442068 0.593667
O O10 0.446292 0.584251 0.185240
O O11 0.444630 0.925030 0.483428
O O12 0.255707 0.909527 0.674765
O O13 0.380617 0.020342 0.668931
O O14 0.500000 0.903120 0.250000
#
# Coordination Sequence:
#
# PCOD9308687 Si02
#       7
#     8   8   8   4   8   8   8
#     4  10  20  38  63  88 113 157 197 253 299 341
#     4  10  23  39  58  89 124 153 199 243 294 364
#     4  10  18  37  60  86 116 148 203 253 291 346
#     4  10  20  34  58  86 116 156 196 242 302 356
#     4  10  22  40  61  88 114 156 204 240 297 356
#     4  11  23  41  62  86 123 160 192 246 297 359
#     4  10  22  37  59  86 120 154 196 249 294 353
#
# _framework density 9.2661149999999992
#
# number of rings (size 3 to 8) (size 9 to 14) (size 15 to 20)
#    0.000    1.846    2.308    1.385    3.231    0.000 
#    0.000    3.846    0.000    0.000    0.000    0.000 
#    0.000    0.000    0.000    0.000    0.000    0.000 
#
# Total GULP energy -144789.211717 kJ/mol
# GULP energy per Si atom -5568.815835 kJ/mol
# Density = 0.924503 g / cm^3
# Si number density = 9.266115 Si / 1000 Ang^3
#
#
#
# Elastic Constant Matrix: (Units=GPa)
#
#
# Indices 1 2 3 4 5 6 
#
# 1 138.1124 44.5272 24.7179 0.0000 13.9509 0.0000
# 2 44.5272 75.7403 24.0236 0.0000 8.8398 0.0000
# 3 24.7179 24.0236 38.2938 0.0000 3.9905 0.0000
# 4 0.0000 0.0000 0.0000 -130.4795 0.0000 -118.2008
# 5 13.9509 8.8398 3.9905 0.0000 39.1616 0.0000
# 6 0.0000 0.0000 0.0000 -118.2008 0.0000 -54.3148
#
#
#
# Elastic Compliance Matrix: (Units=1/GPa)
#
#
# Indices 1 2 3 4 5 6 
#
# 1 0.009394 -0.004279 -0.003165 0.000000 -0.002058 0.000000
# 2 -0.004279 0.018718 -0.008793 0.000000 -0.001805 0.000000
# 3 -0.003165 -0.008793 0.033707 0.000000 -0.000322 0.000000
# 4 0.000000 0.000000 0.000000 0.007889 0.000000 -0.017169
# 5 -0.002058 -0.001805 -0.000322 0.000000 0.026709 0.000000
# 6 0.000000 0.000000 0.000000 -0.017169 0.000000 0.018953
#
#
# Mechanical properties :
#
#
# Convention : Reuss Voigt Hill
#
# Bulk Modulus (GPa) = 34.07655 48.74266 41.40961
# Shear Modulus (GPa) = 31.72078 -18.53472 6.59303
#
# Velocity S-wave (km/s) = 4.14170 -3.16592 1.88821
# Velocity P-wave (km/s) = 6.42645 3.60480 5.21027
#
# Compressibility (1/GPa) = 0.02934569
#
# Stress axis : x y z
#
# Youngs Moduli (GPa) = 106.44757 53.42433 29.66769
#
# Poissons Ratio (x) = 0.22859 0.09390
# Poissons Ratio (y) = 0.45546 0.26086
# Poissons Ratio (z) = 0.33692 0.46975
#
# Static dielectric constant tensor:
#      x y z
#    x 1.614690 0.000000 0.012330 
#    y 0.000000 1.638570 0.000000 
#    z 0.012330 0.000000 1.663320 
# 
# From -- ./inp_files/98176.got.cif
#   From: 2010.05.17/outbox.ucp.g08.bks.cvg/sg15_50_cif.got.tgz:98176.got - 2010.06.11 12:40:34.
