data_PCOD9308836
_publ_section_title
;
Structure prediction by ZEFSAII (Michael W. Deem and Ramdas Pophale) SiO2 
 PCOD9308836
Probable space group: C 2/C
;
_chemical_formula_sum "Si O2"
_cell_formula_units_Z 20
_cell_length_a 12.000000
_cell_length_b 9.000000
_cell_length_c 18.000000
_cell_angle_alpha 90.000000
_cell_angle_beta 100.000000
_cell_angle_gamma 90.000000
_cell_volume 1914.466272
_symmetry_space_group_name_H-M "C 2/C"
_symmetry_group_IT_number 15
_symmetry_cell_setting 'monoclinic'
loop_
_space_group_symop_operation_xyz
x,y,z
-x,y,1/2-z
-x,-y,-z
x,-y,1/2+z
1/2+x,1/2+y,z
1/2-x,1/2+y,1/2-z
1/2-x,1/2-y,-z
1/2+x,1/2-y,1/2+z
loop_
_atom_site_type_symbol
_atom_site_label
_atom_site_fract_x
_atom_site_fract_y
_atom_site_fract_z
Si Si1 0.251640 0.178393 0.154833
Si Si2 0.044995 0.932729 0.834758
Si Si3 0.547146 0.658728 0.032325
Si Si4 0.996917 0.271576 0.870969
Si Si5 0.285139 0.014410 0.306172
O O1 0.178091 0.149933 0.072167
O O2 0.384072 0.183226 0.151392
O O3 0.243448 0.056175 0.218500
O O4 0.207260 0.336722 0.182240
O O5 0.179858 0.946985 0.847551
O O6 0.000000 0.883025 0.750000
O O7 0.012896 0.819261 0.895692
O O8 0.989345 0.096913 0.844350
O O9 0.500000 0.500000 0.000000
O O10 0.516745 0.768282 0.962230
O O11 0.894014 0.380944 0.836535
#
# Coordination Sequence:
#
# PCOD9308836 Si02
#       5
#     8   8   8   8   8
#     4  11  23  43  66  98 132 174 226 273 328 399
#     4  10  19  40  64  91 132 169 217 274 329 395
#     4  10  22  40  67  95 133 179 214 270 343 390
#     4  10  22  40  65  94 131 173 218 273 333 395
#     4  11  23  40  70  95 130 174 223 280 327 396
#
# _framework density 10.446776
#
# number of rings (size 3 to 8) (size 9 to 14) (size 15 to 20)
#    0.000    1.600    2.000    3.600    2.800    1.600 
#    7.200    0.000    0.000    0.000    0.000    0.000 
#    0.000    0.000    0.000    0.000    0.000    0.000 
#
# Total GULP energy -111584.146415 kJ/mol
# GULP energy per Si atom -5579.207321 kJ/mol
# Density = 1.042300 g / cm^3
# Si number density = 10.446776 Si / 1000 Ang^3
#
#
#
# Elastic Constant Matrix: (Units=GPa)
#
#
# Indices 1 2 3 4 5 6 
#
# 1 133.8108 49.3717 32.4873 0.0000 16.8267 0.0000
# 2 49.3717 58.8267 29.6704 0.0000 8.3860 0.0000
# 3 32.4873 29.6704 133.8697 0.0000 8.5791 0.0000
# 4 0.0000 0.0000 0.0000 20.9788 0.0000 7.3996
# 5 16.8267 8.3860 8.5791 0.0000 41.9952 0.0000
# 6 0.0000 0.0000 0.0000 7.3996 0.0000 39.4523
#
#
#
# Elastic Compliance Matrix: (Units=1/GPa)
#
#
# Indices 1 2 3 4 5 6 
#
# 1 0.011153 -0.008677 -0.000616 0.000000 -0.002610 0.000000
# 2 -0.008677 0.026269 -0.003651 0.000000 -0.001023 0.000000
# 3 -0.000616 -0.003651 0.008477 0.000000 -0.000756 0.000000
# 4 0.000000 0.000000 0.000000 0.051044 0.000000 -0.009574
# 5 -0.002610 -0.001023 -0.000756 0.000000 0.025217 0.000000
# 6 0.000000 0.000000 0.000000 -0.009574 0.000000 0.027143
#
#
# Mechanical properties :
#
#
# Convention : Reuss Voigt Hill
#
# Bulk Modulus (GPa) = 49.97425 61.06287 55.51856
# Shear Modulus (GPa) = 27.49359 34.81711 31.15535
#
# Velocity S-wave (km/s) = 3.63145 4.08659 3.86573
# Velocity P-wave (km/s) = 6.44622 7.18026 6.82312
#
# Compressibility (1/GPa) = 0.02001031
#
# Stress axis : x y z
#
# Youngs Moduli (GPa) = 89.66457 38.06775 117.96582
#
# Poissons Ratio (x) = 0.33033 0.07267
# Poissons Ratio (y) = 0.77805 0.43067
# Poissons Ratio (z) = 0.05524 0.13898
#
# Static dielectric constant tensor:
#      x y z
#    x 1.801380 0.000000 -0.020500 
#    y 0.000000 1.737320 0.000000 
#    z -0.020500 0.000000 1.808370 
# 
# From -- ./inp_files/195238.got.cif
#   From: 2010.05.17/outbox.ucp.g08.bks.cvg/sg15_98_cif.got.tgz:195238.got - 2010.06.11 12:40:34.
