data_PCOD9308102
_publ_section_title
;
Structure prediction by ZEFSAII (Michael W. Deem and Ramdas Pophale) SiO2 
 PCOD9308102
Probable space group: C 2/C
;
_chemical_formula_sum "Si O2"
_cell_formula_units_Z 24
_cell_length_a 17.045338
_cell_length_b 4.672891
_cell_length_c 13.327123
_cell_angle_alpha 90.000000
_cell_angle_beta 116.156395
_cell_angle_gamma 90.000000
_cell_volume 952.812996
_symmetry_space_group_name_H-M "C 2/C"
_symmetry_group_IT_number 15
_symmetry_cell_setting 'monoclinic'
loop_
_space_group_symop_operation_xyz
x,y,z
-x,y,1/2-z
-x,-y,-z
x,-y,1/2+z
1/2+x,1/2+y,z
1/2-x,1/2+y,1/2-z
1/2-x,1/2-y,-z
1/2+x,1/2-y,1/2+z
loop_
_atom_site_type_symbol
_atom_site_label
_atom_site_fract_x
_atom_site_fract_y
_atom_site_fract_z
Si Si1 0.577343 0.183802 0.993126
Si Si2 0.306301 0.470478 0.270174
Si Si3 0.583564 0.704383 0.856106
O O1 0.634938 0.340851 0.108581
O O2 0.548614 0.440691 0.903366
O O3 0.500000 0.000000 0.000000
O O4 0.624203 0.949413 0.948972
O O5 0.285553 0.801768 0.273556
O O6 0.349415 0.410727 0.187888
O O7 0.500000 0.830230 0.750000
#
# Coordination Sequence:
#
# PCOD9308102 Si02
#       3
#     8   8   8
#     4  12  26  46  76 107 141 191 245 291 355 431
#     4  12  28  47  71 109 150 187 236 306 360 418
#     4  12  26  45  77 106 140 193 244 291 355 431
#
# _framework density 25.188573000000002
#
# number of rings (size 3 to 8) (size 9 to 14) (size 15 to 20)
#    0.000    0.000    3.333    6.000    4.667    8.000 
#    0.000    0.000    0.000    0.000    0.000    0.000 
#    0.000    0.000    0.000    0.000    0.000    0.000 
#
# Total GULP energy -67334.485869 kJ/mol
# GULP energy per Si atom -5611.207156 kJ/mol
# Density = 2.513124 g / cm^3
# Si number density = 25.188573 Si / 1000 Ang^3
#
#
#
# Elastic Constant Matrix: (Units=GPa)
#
#
# Indices 1 2 3 4 5 6 
#
# 1 57.0145 -11.9370 22.8231 0.0000 -17.2642 0.0000
# 2 -11.9370 97.3997 32.4573 -0.0001 -7.6116 0.0001
# 3 22.8231 32.4573 129.1765 0.0000 -11.8708 0.0000
# 4 0.0000 -0.0001 0.0000 43.9695 0.0000 0.3290
# 5 -17.2642 -7.6116 -11.8708 0.0000 36.5806 0.0000
# 6 0.0000 0.0001 0.0000 0.3290 0.0000 41.6227
#
#
#
# Elastic Compliance Matrix: (Units=1/GPa)
#
#
# Indices 1 2 3 4 5 6 
#
# 1 0.023728 0.005260 -0.004519 0.000000 0.010826 0.000000
# 2 0.005260 0.012448 -0.003701 0.000000 0.003871 0.000000
# 3 -0.004519 -0.003701 0.009486 0.000000 0.000175 0.000000
# 4 0.000000 0.000000 0.000000 0.022744 0.000000 -0.000180
# 5 0.010826 0.003871 0.000175 0.000000 0.033309 0.000000
# 6 0.000000 0.000000 0.000000 -0.000180 0.000000 0.024027
#
#
# Mechanical properties :
#
#
# Convention : Reuss Voigt Hill
#
# Bulk Modulus (GPa) = 25.16301 41.14195 33.15248
# Shear Modulus (GPa) = 34.50448 40.45105 37.47777
#
# Velocity S-wave (km/s) = 3.70516 4.01175 3.86150
# Velocity P-wave (km/s) = 5.32126 6.15044 5.75081
#
# Compressibility (1/GPa) = 0.03974087
#
# Stress axis : x y z
#
# Youngs Moduli (GPa) = 42.14446 80.33719 105.41997
#
# Poissons Ratio (x) = -0.42257 0.47640
# Poissons Ratio (y) = -0.22168 0.39018
# Poissons Ratio (z) = 0.19045 0.29734
#
# Static dielectric constant tensor:
#      x y z
#    x 2.002980 0.000000 0.023500 
#    y 0.000000 1.908580 0.000000 
#    z 0.023500 0.000000 1.977760 
# 
# From -- ./inp_files/101902.got.cif
#   From: 2010.05.17/outbox.cif.g08.bks.cpg/sg15_51_cif.got.tgz:101902.got - 2010.06.03 18:47:42.
