data_PCOD9308815
_publ_section_title
;
Structure prediction by ZEFSAII (Michael W. Deem and Ramdas Pophale) SiO2 
 PCOD9308815
Probable space group: C 2/C
;
_chemical_formula_sum "Si O2"
_cell_formula_units_Z 28
_cell_length_a 24.000000
_cell_length_b 9.000000
_cell_length_c 15.000000
_cell_angle_alpha 90.000000
_cell_angle_beta 60.000000
_cell_angle_gamma 90.000000
_cell_volume 2805.922308
_symmetry_space_group_name_H-M "C 2/C"
_symmetry_group_IT_number 15
_symmetry_cell_setting 'monoclinic'
loop_
_space_group_symop_operation_xyz
x,y,z
-x,y,1/2-z
-x,-y,-z
x,-y,1/2+z
1/2+x,1/2+y,z
1/2-x,1/2+y,1/2-z
1/2-x,1/2-y,-z
1/2+x,1/2-y,1/2+z
loop_
_atom_site_type_symbol
_atom_site_label
_atom_site_fract_x
_atom_site_fract_y
_atom_site_fract_z
Si Si1 0.844560 0.579182 0.997636
Si Si2 0.427342 0.179416 0.774020
Si Si3 0.424426 0.497953 0.831467
Si Si4 0.571057 0.991472 0.902786
Si Si5 0.630548 0.279295 0.264881
Si Si6 0.151525 0.915228 0.439135
Si Si7 0.235457 0.393254 0.570528
O O1 0.876339 0.501364 0.059127
O O2 0.833201 0.748555 0.037466
O O3 0.895325 0.579905 0.875823
O O4 0.786013 0.506330 0.991461
O O5 0.500000 0.190664 0.750000
O O6 0.400393 0.345656 0.804027
O O7 0.420681 0.113352 0.681220
O O8 0.500000 0.513967 0.750000
O O9 0.390512 0.631856 0.806478
O O10 0.407818 0.473666 0.950016
O O11 0.577958 0.832136 0.848690
O O12 0.500000 0.000000 0.000000
O O13 0.644503 0.390112 0.337849
O O14 0.685787 0.166591 0.185629
O O15 0.207589 0.027950 0.421264
O O16 0.250000 0.250000 0.500000
#
# Coordination Sequence:
#
# PCOD9308815 Si02
#       7
#     8   8   8   8   8   8   8
#     4  10  22  40  64  92 130 170 213 270 334 384
#     4  10  19  38  62  91 130 172 212 257 324 394
#     4  10  23  43  66  95 135 174 209 266 335 398
#     4  11  22  39  65 100 130 167 219 271 324 395
#     4  11  25  43  66 102 131 170 225 272 328 398
#     4  10  24  46  66  94 132 173 222 273 333 389
#     4  12  24  44  68  93 131 172 228 276 321 388
#
# _framework density 9.9788940000000004
#
# number of rings (size 3 to 8) (size 9 to 14) (size 15 to 20)
#    0.000    1.429    4.286    0.429    2.000    5.714 
#    5.143    0.000    0.000    0.000    0.000    0.000 
#    0.000    0.000    0.000    0.000    0.000    0.000 
#
# Total GULP energy -156019.298310 kJ/mol
# GULP energy per Si atom -5572.117797 kJ/mol
# Density = 0.995618 g / cm^3
# Si number density = 9.978894 Si / 1000 Ang^3
#
#
#
# Elastic Constant Matrix: (Units=GPa)
#
#
# Indices 1 2 3 4 5 6 
#
# 1 44.3917 20.8532 20.0332 0.0000 2.8810 0.0000
# 2 20.8532 30.3879 23.0862 0.0000 -6.9181 0.0000
# 3 20.0332 23.0862 107.6093 0.0000 13.3934 0.0000
# 4 0.0000 0.0000 0.0000 33.8198 0.0000 -1.2464
# 5 2.8810 -6.9181 13.3934 0.0000 24.1747 0.0000
# 6 0.0000 0.0000 0.0000 -1.2464 0.0000 23.3962
#
#
#
# Elastic Compliance Matrix: (Units=1/GPa)
#
#
# Indices 1 2 3 4 5 6 
#
# 1 0.036433 -0.028774 0.001027 0.000000 -0.013145 0.000000
# 2 -0.028774 0.069950 -0.013499 0.000000 0.030925 0.000000
# 3 0.001027 -0.013499 0.013419 0.000000 -0.011420 0.000000
# 4 0.000000 0.000000 0.000000 0.029627 0.000000 0.001578
# 5 -0.013145 0.030925 -0.011420 0.000000 0.058109 0.000000
# 6 0.000000 0.000000 0.000000 0.001578 0.000000 0.042826
#
#
# Mechanical properties :
#
#
# Convention : Reuss Voigt Hill
#
# Bulk Modulus (GPa) = 26.80343 34.48155 30.64249
# Shear Modulus (GPa) = 14.48044 24.17256 19.32650
#
# Velocity S-wave (km/s) = 2.69653 3.48398 3.11524
# Velocity P-wave (km/s) = 4.81189 5.78783 5.32227
#
# Compressibility (1/GPa) = 0.03730865
#
# Stress axis : x y z
#
# Youngs Moduli (GPa) = 27.44740 14.29600 74.52026
#
# Poissons Ratio (x) = 0.41136 -0.07650
# Poissons Ratio (y) = 0.78978 1.00595
# Poissons Ratio (z) = -0.02818 0.19298
#
# Static dielectric constant tensor:
#      x y z
#    x 1.250210 0.000000 0.070450 
#    y 0.000000 1.751510 0.000000 
#    z 0.070450 0.000000 1.708690 
# 
# From -- ./inp_files/172254.got.cif
#   From: 2010.05.17/outbox.ucp.g08.bks.cvg/sg15_87_cif.got.tgz:172254.got - 2010.06.11 12:40:34.
