data_PCOD9308925
_publ_section_title
;
Structure prediction by ZEFSAII (Michael W. Deem and Ramdas Pophale) SiO2 
 PCOD9308925
Probable space group: C 2/C
;
_chemical_formula_sum "Si O2"
_cell_formula_units_Z 20
_cell_length_a 30.000000
_cell_length_b 15.000000
_cell_length_c 9.000000
_cell_angle_alpha 90.000000
_cell_angle_beta 150.000000
_cell_angle_gamma 90.000000
_cell_volume 2025.000000
_symmetry_space_group_name_H-M "C 2/C"
_symmetry_group_IT_number 15
_symmetry_cell_setting 'monoclinic'
loop_
_space_group_symop_operation_xyz
x,y,z
-x,y,1/2-z
-x,-y,-z
x,-y,1/2+z
1/2+x,1/2+y,z
1/2-x,1/2+y,1/2-z
1/2-x,1/2-y,-z
1/2+x,1/2-y,1/2+z
loop_
_atom_site_type_symbol
_atom_site_label
_atom_site_fract_x
_atom_site_fract_y
_atom_site_fract_z
Si Si1 0.847101 0.732739 0.143851
Si Si2 0.791435 0.039431 0.023343
Si Si3 0.328591 0.623301 0.827576
Si Si4 0.010827 0.398458 0.100522
Si Si5 0.784382 0.619838 0.396035
O O1 0.873418 0.795478 0.362351
O O2 0.932908 0.675412 0.333943
O O3 0.775099 0.656376 0.980521
O O4 0.786036 0.801892 0.863842
O O5 0.840834 0.100735 0.039736
O O6 0.736275 0.970429 0.759222
O O7 0.737063 0.096616 0.991299
O O8 0.844972 0.968126 0.281977
O O9 0.110095 0.364451 0.334650
O O10 0.000000 0.406065 0.250000
O O11 0.000000 0.500000 0.000000
#
# Coordination Sequence:
#
# PCOD9308925 Si02
#       5
#     8   8   8   8   8
#     4  10  21  35  54  86 126 165 202 248 313 369
#     4   9  17  33  59  85 116 156 202 250 305 365
#     4   9  17  33  52  81 117 157 201 245 301 362
#     4  12  23  38  62  92 124 162 206 256 309 367
#     4  10  20  36  58  90 124 160 204 256 311 367
#
# _framework density 9.8765429999999999
#
# number of rings (size 3 to 8) (size 9 to 14) (size 15 to 20)
#    0.000    2.000    0.000    7.200    0.000    0.800 
#    0.000    2.000    0.000    0.000    0.000  124.600 
#    0.000    0.000    0.000    0.800    0.000    0.000 
#
# Total GULP energy -111385.626880 kJ/mol
# GULP energy per Si atom -5569.281344 kJ/mol
# Density = 0.985406 g / cm^3
# Si number density = 9.876543 Si / 1000 Ang^3
#
#
#
# Elastic Constant Matrix: (Units=GPa)
#
#
# Indices 1 2 3 4 5 6 
#
# 1 132.9052 48.1770 33.4492 0.0000 -20.4230 0.0000
# 2 48.1770 124.6301 37.2881 0.0000 3.6361 0.0000
# 3 33.4492 37.2881 65.7489 0.0000 6.2079 0.0000
# 4 0.0000 0.0000 0.0000 37.7030 0.0000 -2.8207
# 5 -20.4230 3.6361 6.2079 0.0000 38.5778 0.0000
# 6 0.0000 0.0000 0.0000 -2.8207 0.0000 54.0887
#
#
#
# Elastic Compliance Matrix: (Units=1/GPa)
#
#
# Indices 1 2 3 4 5 6 
#
# 1 0.010756 -0.003043 -0.004378 0.000000 0.006686 0.000000
# 2 -0.003043 0.010525 -0.004239 0.000000 -0.001921 0.000000
# 3 -0.004378 -0.004239 0.020331 0.000000 -0.005189 0.000000
# 4 0.000000 0.000000 0.000000 0.026627 0.000000 0.001389
# 5 0.006686 -0.001921 -0.005189 0.000000 0.030477 0.000000
# 6 0.000000 0.000000 0.000000 0.001389 0.000000 0.018561
#
#
# Mechanical properties :
#
#
# Convention : Reuss Voigt Hill
#
# Bulk Modulus (GPa) = 54.67020 62.34588 58.50804
# Shear Modulus (GPa) = 34.08469 39.69855 36.89162
#
# Velocity S-wave (km/s) = 4.15847 4.48787 4.32631
# Velocity P-wave (km/s) = 7.12699 7.64760 7.39188
#
# Compressibility (1/GPa) = 0.01829150
#
# Stress axis : x y z
#
# Youngs Moduli (GPa) = 92.96758 95.01618 49.18707
#
# Poissons Ratio (x) = 0.28917 0.21532
# Poissons Ratio (y) = 0.28293 0.20851
# Poissons Ratio (z) = 0.40697 0.40278
#
# Static dielectric constant tensor:
#      x y z
#    x 1.736520 0.000000 -0.034860 
#    y 0.000000 1.752850 0.000000 
#    z -0.034860 0.000000 1.748260 
# 
# From -- ./inp_files/70218.got.cif
#   From: 2010.05.17/outbox.ucp.g08.bks.cvg/sg15_36_cif.got.tgz:70218.got - 2010.06.11 12:40:34.
