data_PCOD9308790
_publ_section_title
;
Structure prediction by ZEFSAII (Michael W. Deem and Ramdas Pophale) SiO2 
 PCOD9308790
Probable space group: C 2/C
;
_chemical_formula_sum "Si O2"
_cell_formula_units_Z 32
_cell_length_a 24.000000
_cell_length_b 24.000000
_cell_length_c 18.000000
_cell_angle_alpha 90.000000
_cell_angle_beta 20.000000
_cell_angle_gamma 90.000000
_cell_volume 3546.064846
_symmetry_space_group_name_H-M "C 2/C"
_symmetry_group_IT_number 15
_symmetry_cell_setting 'monoclinic'
loop_
_space_group_symop_operation_xyz
x,y,z
-x,y,1/2-z
-x,-y,-z
x,-y,1/2+z
1/2+x,1/2+y,z
1/2-x,1/2+y,1/2-z
1/2-x,1/2-y,-z
1/2+x,1/2-y,1/2+z
loop_
_atom_site_type_symbol
_atom_site_label
_atom_site_fract_x
_atom_site_fract_y
_atom_site_fract_z
Si Si1 0.367479 0.354704 0.022974
Si Si2 0.670576 0.201544 0.645892
Si Si3 0.140211 0.169836 0.369138
Si Si4 0.891075 0.244166 0.598457
Si Si5 0.682647 0.000231 0.041314
Si Si6 0.749470 0.626227 0.078489
Si Si7 0.665843 0.472552 0.493901
Si Si8 0.505357 0.457300 0.066009
O O1 0.312112 0.320927 0.021218
O O2 0.317273 0.311392 0.150785
O O3 0.559150 0.366521 0.792787
O O4 0.289211 0.415545 0.105898
O O5 0.750000 0.250000 0.500000
O O6 0.639843 0.153029 0.624610
O O7 0.524789 0.227417 0.876103
O O8 0.260053 0.205765 0.273255
O O9 0.246651 0.157845 0.160720
O O10 0.065387 0.107155 0.477845
O O11 0.996415 0.214252 0.530935
O O12 0.500000 0.018204 0.250000
O O13 0.711526 0.939058 0.968371
O O14 0.711853 0.992146 0.093898
O O15 0.824111 0.039007 0.829054
O O16 0.500000 0.461776 0.750000
O O17 0.621490 0.516194 0.484565
O O18 0.500000 0.500000 0.000000
#
# Coordination Sequence:
#
# PCOD9308790 Si02
#       8
#     8   8   8   8   8   8   8   8
#     4  11  17  32  48  74 113 160 203 233 284 346
#     4  12  20  25  47  78 118 162 205 229 270 340
#     4  11  23  38  56  82 122 164 206 241 301 364
#     4  11  23  35  48  83 121 166 206 242 287 361
#     4  11  23  38  60  93 122 152 208 266 312 358
#     4  11  20  31  53  78 118 163 197 243 282 349
#     4  10  19  36  62  86 117 165 207 248 306 369
#     4  11  21  41  65  87 119 172 211 251 315 372
#
# _framework density 9.0240880000000008
#
# number of rings (size 3 to 8) (size 9 to 14) (size 15 to 20)
#    0.000    1.000    8.750    1.125    1.750    1.000 
#    0.000    1.875    0.000    0.000    0.000   11.375 
#    0.000    0.000    0.000    0.000    0.000    0.000 
#
# Total GULP energy -178254.143687 kJ/mol
# GULP energy per Si atom -5570.441990 kJ/mol
# Density = 0.900355 g / cm^3
# Si number density = 9.024088 Si / 1000 Ang^3
#
#
#
# Elastic Constant Matrix: (Units=GPa)
#
#
# Indices 1 2 3 4 5 6 
#
# 1 70.3938 21.1375 21.4518 -0.0312 -18.2491 -0.0020
# 2 21.1375 117.2659 37.1814 -0.0107 -5.6827 -0.0215
# 3 21.4518 37.1814 57.5291 0.0321 -13.9271 -0.0273
# 4 -0.0312 -0.0107 0.0321 32.7061 -0.0093 -0.0535
# 5 -18.2491 -5.6827 -13.9271 -0.0093 21.4212 0.0051
# 6 -0.0020 -0.0215 -0.0273 -0.0535 0.0051 34.0234
#
#
#
# Elastic Compliance Matrix: (Units=1/GPa)
#
#
# Indices 1 2 3 4 5 6 
#
# 1 0.019253 -0.002011 -0.002419 0.000024 0.014296 -0.000004
# 2 -0.002011 0.011006 -0.007206 0.000008 -0.003478 0.000002
# 3 -0.002419 -0.007206 0.026086 -0.000027 0.012988 0.000014
# 4 0.000024 0.000008 -0.000027 0.030576 0.000019 0.000048
# 5 0.014296 -0.003478 0.012988 0.000019 0.066383 -0.000001
# 6 -0.000004 0.000002 0.000014 0.000048 -0.000001 0.029392
#
#
# Mechanical properties :
#
#
# Convention : Reuss Voigt Hill
#
# Bulk Modulus (GPa) = 30.23470 44.97000 37.60235
# Shear Modulus (GPa) = 23.04259 28.65800 25.85029
#
# Velocity S-wave (km/s) = 3.57701 3.98912 3.78867
# Velocity P-wave (km/s) = 5.81795 6.79619 6.32601
#
# Compressibility (1/GPa) = 0.03307458
#
# Stress axis : x y z
#
# Youngs Moduli (GPa) = 51.94065 90.85802 38.33532
#
# Poissons Ratio (x) = 0.18269 0.09272
# Poissons Ratio (y) = 0.10444 0.27623
# Poissons Ratio (z) = 0.12563 0.65468
#
# Static dielectric constant tensor:
#      x y z
#    x 1.688640 -0.000010 -0.032550 
#    y -0.000010 1.671980 -0.000010 
#    z -0.032550 -0.000010 1.636570 
# 
# From -- ./inp_files/220412.got.cif
#   From: 2010.05.17/outbox.ucp.g08.bks.cvg/sg15_111_cif.got.tgz:220412.got - 2010.06.11 12:40:34.
