data_PCOD9308638
_publ_section_title
;
Structure prediction by ZEFSAII (Michael W. Deem and Ramdas Pophale) SiO2 
 PCOD9308638
Probable space group: C 2/C
;
_chemical_formula_sum "Si O2"
_cell_formula_units_Z 24
_cell_length_a 12.000000
_cell_length_b 24.000000
_cell_length_c 9.000000
_cell_angle_alpha 90.000000
_cell_angle_beta 70.000000
_cell_angle_gamma 90.000000
_cell_volume 2435.683273
_symmetry_space_group_name_H-M "C 2/C"
_symmetry_group_IT_number 15
_symmetry_cell_setting 'monoclinic'
loop_
_space_group_symop_operation_xyz
x,y,z
-x,y,1/2-z
-x,-y,-z
x,-y,1/2+z
1/2+x,1/2+y,z
1/2-x,1/2+y,1/2-z
1/2-x,1/2-y,-z
1/2+x,1/2-y,1/2+z
loop_
_atom_site_type_symbol
_atom_site_label
_atom_site_fract_x
_atom_site_fract_y
_atom_site_fract_z
Si Si1 0.302365 0.440024 0.974653
Si Si2 0.619839 0.466820 0.889035
Si Si3 0.864242 0.746935 0.752671
Si Si4 0.987811 0.739901 0.429427
Si Si5 0.494832 0.370960 0.075078
Si Si6 0.802399 0.330896 0.533033
O O1 0.363486 0.461015 0.794277
O O2 0.199825 0.397046 0.976680
O O3 0.279467 0.494501 0.083972
O O4 0.386929 0.399841 0.035559
O O5 0.500000 0.500000 0.000000
O O6 0.606992 0.404957 0.959615
O O7 0.867630 0.731798 0.577867
O O8 0.804231 0.805352 0.820665
O O9 0.000000 0.748049 0.750000
O O10 0.796309 0.699507 0.875679
O O11 0.000000 0.734106 0.250000
O O12 0.011420 0.805362 0.450734
O O13 0.080628 0.695797 0.450829
O O14 0.500000 0.379996 0.250000
#
# Coordination Sequence:
#
# PCOD9308638 Si02
#       6
#     8   8   8   8   8   8
#     4  11  20  33  50  74 109 143 185 227 269 334
#     4  10  19  31  50  75 106 145 186 226 276 332
#     4   9  17  32  53  79 109 146 191 231 282 343
#     4  10  21  35  54  84 117 149 188 236 293 339
#     4  10  18  30  49  75 111 146 175 217 273 338
#     4  10  20  34  55  80 110 154 195 231 279 344
#
# _framework density 9.8534980000000001
#
# number of rings (size 3 to 8) (size 9 to 14) (size 15 to 20)
#    0.000    2.000    0.000    8.000    0.000    3.333 
#    0.000    3.333    0.000    0.000    0.000   15.167 
#    0.000    0.000    0.000    0.000    0.000    0.000 
#
# Total GULP energy -133605.831252 kJ/mol
# GULP energy per Si atom -5566.909635 kJ/mol
# Density = 0.983107 g / cm^3
# Si number density = 9.853498 Si / 1000 Ang^3
#
#
#
# Elastic Constant Matrix: (Units=GPa)
#
#
# Indices 1 2 3 4 5 6 
#
# 1 22.9774 35.6645 25.6490 0.0000 3.1323 0.0000
# 2 35.6645 88.4996 32.5919 0.0000 18.4594 0.0000
# 3 25.6490 32.5919 152.2601 0.0000 21.5870 0.0000
# 4 0.0000 0.0000 0.0000 23.7125 0.0000 5.0546
# 5 3.1323 18.4594 21.5870 0.0000 20.9667 0.0000
# 6 0.0000 0.0000 0.0000 5.0546 0.0000 29.0977
#
#
#
# Elastic Compliance Matrix: (Units=1/GPa)
#
#
# Indices 1 2 3 4 5 6 
#
# 1 0.183369 -0.079128 -0.023354 0.000000 0.066316 0.000000
# 2 -0.079128 0.048264 0.008603 0.000000 -0.039528 0.000000
# 3 -0.023354 0.008603 0.010819 0.000000 -0.015224 0.000000
# 4 0.000000 0.000000 0.000000 0.043793 0.000000 -0.007607
# 5 0.066316 -0.039528 -0.015224 0.000000 0.088263 0.000000
# 6 0.000000 0.000000 0.000000 -0.007607 0.000000 0.035689
#
#
# Mechanical properties :
#
#
# Convention : Reuss Voigt Hill
#
# Bulk Modulus (GPa) = 18.28365 50.17199 34.22782
# Shear Modulus (GPa) = 8.11442 26.07749 17.09595
#
# Velocity S-wave (km/s) = 2.03137 3.64161 2.94854
# Velocity P-wave (km/s) = 3.84706 6.57237 5.38497
#
# Compressibility (1/GPa) = 0.05469368
#
# Stress axis : x y z
#
# Youngs Moduli (GPa) = 5.45347 20.71936 92.43190
#
# Poissons Ratio (x) = 1.63948 2.15866
# Poissons Ratio (y) = 0.43152 -0.79515
# Poissons Ratio (z) = 0.12736 -0.17824
#
# Static dielectric constant tensor:
#      x y z
#    x 1.770960 0.000000 0.025250 
#    y 0.000000 1.727070 0.000000 
#    z 0.025250 0.000000 1.787720 
# 
# From -- ./inp_files/32524.got.cif
#   From: 2010.05.17/outbox.ucp.g08.bks.cvg/sg15_17_cif.got.tgz:32524.got - 2010.06.11 12:40:34.
