data_PCOD9308912
_publ_section_title
;
Structure prediction by ZEFSAII (Michael W. Deem and Ramdas Pophale) SiO2 
 PCOD9308912
Probable space group: C 2/C
;
_chemical_formula_sum "Si O2"
_cell_formula_units_Z 28
_cell_length_a 9.000000
_cell_length_b 18.000000
_cell_length_c 27.000000
_cell_angle_alpha 90.000000
_cell_angle_beta 140.000000
_cell_angle_gamma 90.000000
_cell_volume 2811.553005
_symmetry_space_group_name_H-M "C 2/C"
_symmetry_group_IT_number 15
_symmetry_cell_setting 'monoclinic'
loop_
_space_group_symop_operation_xyz
x,y,z
-x,y,1/2-z
-x,-y,-z
x,-y,1/2+z
1/2+x,1/2+y,z
1/2-x,1/2+y,1/2-z
1/2-x,1/2-y,-z
1/2+x,1/2-y,1/2+z
loop_
_atom_site_type_symbol
_atom_site_label
_atom_site_fract_x
_atom_site_fract_y
_atom_site_fract_z
Si Si1 0.732706 0.965007 0.581991
Si Si2 0.083747 0.645953 0.129816
Si Si3 0.037613 0.048902 0.453115
Si Si4 0.093102 0.079929 0.719103
Si Si5 0.502050 0.034275 0.193002
Si Si6 0.234138 0.809805 0.180997
Si Si7 0.423930 0.616329 0.518585
O O1 0.680953 0.910228 0.613708
O O2 0.869296 0.920925 0.574251
O O3 0.500000 0.000000 0.500000
O O4 0.906197 0.030624 0.641878
O O5 0.213744 0.722963 0.166501
O O6 0.092965 0.601982 0.183634
O O7 0.812989 0.660743 0.048807
O O8 0.769130 0.025978 0.386461
O O9 0.064649 0.107337 0.503635
O O10 0.155421 0.968611 0.490269
O O11 0.123185 0.160494 0.703195
O O12 0.000000 0.083902 0.750000
O O13 0.335428 0.035531 0.777376
O O14 0.500000 0.050554 0.250000
O O15 0.500000 0.832749 0.250000
O O16 0.089048 0.851875 0.102052
#
# Coordination Sequence:
#
# PCOD9308912 Si02
#       7
#     8   8   8   8   8   8   8
#     4  12  22  39  64 101 127 164 222 279 324 388
#     4  11  25  40  65  96 135 174 214 277 336 387
#     4  10  20  35  68  95 122 166 225 268 323 385
#     4  12  24  41  67  94 131 167 229 274 325 388
#     4  11  21  38  66  96 127 168 223 273 323 389
#     4  12  26  42  63  93 137 180 215 266 339 396
#     4  10  20  41  62  91 127 171 219 267 324 393
#
# _framework density 9.9589090000000002
#
# number of rings (size 3 to 8) (size 9 to 14) (size 15 to 20)
#    0.000    0.857    5.714    1.714    2.000    1.714 
#    0.000    2.143    0.000    0.000    0.000    0.000 
#    0.000    0.000    0.000    0.000    0.000    0.000 
#
# Total GULP energy -156229.080150 kJ/mol
# GULP energy per Si atom -5579.610005 kJ/mol
# Density = 0.993624 g / cm^3
# Si number density = 9.958909 Si / 1000 Ang^3
#
#
#
# Elastic Constant Matrix: (Units=GPa)
#
#
# Indices 1 2 3 4 5 6 
#
# 1 148.5470 38.4078 38.9303 -0.0001 -26.4555 0.0000
# 2 38.4078 45.6158 10.6455 0.0000 1.4366 0.0000
# 3 38.9303 10.6455 58.7428 -0.0001 -7.0349 -0.0001
# 4 -0.0001 0.0000 -0.0001 19.7989 -0.0001 0.2952
# 5 -26.4555 1.4366 -7.0349 -0.0001 27.6802 -0.0001
# 6 0.0000 0.0000 -0.0001 0.2952 -0.0001 12.2569
#
#
#
# Elastic Compliance Matrix: (Units=1/GPa)
#
#
# Indices 1 2 3 4 5 6 
#
# 1 0.012640 -0.009770 -0.005259 0.000000 0.011251 0.000000
# 2 -0.009770 0.030586 -0.000388 0.000000 -0.011023 0.000000
# 3 -0.005259 -0.000388 0.020607 0.000000 0.000231 0.000000
# 4 0.000000 0.000000 0.000000 0.050526 0.000000 -0.001217
# 5 0.011251 -0.011023 0.000231 0.000000 0.047511 0.000000
# 6 0.000000 0.000000 0.000000 -0.001217 0.000000 0.081616
#
#
# Mechanical properties :
#
#
# Convention : Reuss Voigt Hill
#
# Bulk Modulus (GPa) = 30.30440 47.65257 38.97848
# Shear Modulus (GPa) = 17.52427 22.94200 20.23314
#
# Velocity S-wave (km/s) = 2.96941 3.39755 3.19067
# Velocity P-wave (km/s) = 5.19656 6.27436 5.76073
#
# Compressibility (1/GPa) = 0.03299851
#
# Stress axis : x y z
#
# Youngs Moduli (GPa) = 79.11476 32.69480 48.52813
#
# Poissons Ratio (x) = 0.31942 0.25520
# Poissons Ratio (y) = 0.77292 0.01885
# Poissons Ratio (z) = 0.41605 0.01270
#
# Static dielectric constant tensor:
#      x y z
#    x -0.597590 0.000010 0.218170 
#    y 0.000010 1.670110 0.000000 
#    z 0.218170 0.000000 1.840090 
# 
# From -- ./inp_files/289773.got.cif
#   From: 2010.05.17/outbox.ucp.g08.bks.cvg/sg15_145_cif.got.tgz:289773.got - 2010.06.11 12:40:34.
