data_PCOD9308627
_publ_section_title
;
Structure prediction by ZEFSAII (Michael W. Deem and Ramdas Pophale) SiO2 
 PCOD9308627
Probable space group: C 2/C
;
_chemical_formula_sum "Si O2"
_cell_formula_units_Z 26
_cell_length_a 30.000000
_cell_length_b 9.000000
_cell_length_c 21.000000
_cell_angle_alpha 90.000000
_cell_angle_beta 150.000000
_cell_angle_gamma 90.000000
_cell_volume 2835.000000
_symmetry_space_group_name_H-M "C 2/C"
_symmetry_group_IT_number 15
_symmetry_cell_setting 'monoclinic'
loop_
_space_group_symop_operation_xyz
x,y,z
-x,y,1/2-z
-x,-y,-z
x,-y,1/2+z
1/2+x,1/2+y,z
1/2-x,1/2+y,1/2-z
1/2-x,1/2-y,-z
1/2+x,1/2-y,1/2+z
loop_
_atom_site_type_symbol
_atom_site_label
_atom_site_fract_x
_atom_site_fract_y
_atom_site_fract_z
Si Si1 0.500000 0.704395 0.250000
Si Si2 0.490501 0.269645 0.539981
Si Si3 0.005076 0.962185 0.148482
Si Si4 0.840948 0.259330 0.447853
Si Si5 0.681749 0.665469 0.227954
Si Si6 0.145848 0.166550 0.734674
Si Si7 0.118898 0.610568 0.988053
O O1 0.526886 0.588572 0.227522
O O2 0.423293 0.812346 0.126919
O O3 0.477860 0.436260 0.553679
O O4 0.596178 0.257039 0.656171
O O5 0.429130 0.254629 0.401592
O O6 0.449790 0.157489 0.541146
O O7 0.093062 0.872897 0.234527
O O8 0.922439 0.854505 0.065954
O O9 0.823610 0.219847 0.351776
O O10 0.741512 0.250016 0.356788
O O11 0.870753 0.431033 0.497601
O O12 0.667074 0.489855 0.224735
O O13 0.783908 0.685170 0.378096
#
# Coordination Sequence:
#
# PCOD9308627 Si02
#       7
#     4   8   8   8   8   8   8
#     4  10  24  44  60  70 112 168 204 222 282 344
#     4  10  17  34  58  85 122 149 182 223 294 354
#     4  10  20  39  59  81 110 163 196 224 276 354
#     4  11  20  33  60  92 117 139 187 246 293 323
#     4  10  18  33  57  89 116 147 180 230 298 344
#     4  10  18  33  58  90 123 142 186 231 290 346
#     4  10  23  36  55  88 119 147 189 245 279 335
#
# _framework density 9.1710759999999993
#
# number of rings (size 3 to 8) (size 9 to 14) (size 15 to 20)
#    0.000    1.846    4.615    0.923    0.000    1.231 
#    0.000   13.077    0.000    0.000    0.000    0.000 
#    0.000    0.000    0.000    0.000    0.000    0.000 
#
# Total GULP energy -144830.242709 kJ/mol
# GULP energy per Si atom -5570.393950 kJ/mol
# Density = 0.915020 g / cm^3
# Si number density = 9.171076 Si / 1000 Ang^3
#
#
#
# Elastic Constant Matrix: (Units=GPa)
#
#
# Indices 1 2 3 4 5 6 
#
# 1 59.7194 11.9693 36.5216 0.0000 14.6666 0.0000
# 2 11.9693 62.1633 34.2163 0.0000 1.2174 0.0000
# 3 36.5216 34.2163 112.3029 0.0000 10.2321 0.0000
# 4 0.0000 0.0000 0.0000 31.5893 0.0000 2.4991
# 5 14.6666 1.2174 10.2321 0.0000 32.8718 0.0000
# 6 0.0000 0.0000 0.0000 2.4991 0.0000 26.7617
#
#
#
# Elastic Compliance Matrix: (Units=1/GPa)
#
#
# Indices 1 2 3 4 5 6 
#
# 1 0.022846 -0.000671 -0.006482 0.000000 -0.008150 0.000000
# 2 -0.000671 0.019390 -0.005816 0.000000 0.001392 0.000000
# 3 -0.006482 -0.005816 0.012866 0.000000 -0.000897 0.000000
# 4 0.000000 0.000000 0.000000 0.031892 0.000000 -0.002978
# 5 -0.008150 0.001392 -0.000897 0.000000 0.034285 0.000000
# 6 0.000000 0.000000 0.000000 -0.002978 0.000000 0.037645
#
#
# Mechanical properties :
#
#
# Convention : Reuss Voigt Hill
#
# Bulk Modulus (GPa) = 34.29075 44.40001 39.34538
# Shear Modulus (GPa) = 25.69573 28.34312 27.01942
#
# Velocity S-wave (km/s) = 3.74694 3.93523 3.84223
# Velocity P-wave (km/s) = 6.12005 6.70128 6.41725
#
# Compressibility (1/GPa) = 0.02916239
#
# Stress axis : x y z
#
# Youngs Moduli (GPa) = 43.77227 51.57274 77.72142
#
# Poissons Ratio (x) = 0.03461 0.50382
# Poissons Ratio (y) = 0.02938 0.45205
# Poissons Ratio (z) = 0.28375 0.29996
#
# Static dielectric constant tensor:
#      x y z
#    x 1.665890 0.000000 -0.010970 
#    y 0.000000 1.640240 0.000000 
#    z -0.010970 0.000000 1.658590 
# 
# From -- ./inp_files/166338.got.cif
#   From: 2010.05.17/outbox.ucp.g08.bks.cvg/sg15_84_cif.got.tgz:166338.got - 2010.06.11 12:40:34.
