data_PCOD9308572
_publ_section_title
;
Structure prediction by ZEFSAII (Michael W. Deem and Ramdas Pophale) SiO2 
 PCOD9308572
Probable space group: C 2/C
;
_chemical_formula_sum "Si O2"
_cell_formula_units_Z 48
_cell_length_a 11.573600
_cell_length_b 19.894228
_cell_length_c 12.560374
_cell_angle_alpha 90.000000
_cell_angle_beta 44.306264
_cell_angle_gamma 90.000000
_cell_volume 2020.042542
_symmetry_space_group_name_H-M "C 2/C"
_symmetry_group_IT_number 15
_symmetry_cell_setting 'monoclinic'
loop_
_space_group_symop_operation_xyz
x,y,z
-x,y,1/2-z
-x,-y,-z
x,-y,1/2+z
1/2+x,1/2+y,z
1/2-x,1/2+y,1/2-z
1/2-x,1/2-y,-z
1/2+x,1/2-y,1/2+z
loop_
_atom_site_type_symbol
_atom_site_label
_atom_site_fract_x
_atom_site_fract_y
_atom_site_fract_z
Si Si1 0.112697 0.283749 0.517825
Si Si2 0.103289 0.162659 0.796304
Si Si3 0.500000 0.561788 0.250000
Si Si4 0.235685 0.024651 0.736095
Si Si5 0.000000 0.265393 0.250000
Si Si6 0.977651 0.579917 0.104602
Si Si7 0.269299 0.159208 0.065996
O O1 0.250000 0.250000 0.500000
O O2 0.215980 0.309240 0.350386
O O3 0.986177 0.223210 0.583555
O O4 0.044161 0.352205 0.615483
O O5 0.142633 0.093202 0.829868
O O6 0.000000 0.151432 0.750000
O O7 0.408026 0.518587 0.222417
O O8 0.637688 0.607950 0.102567
O O9 0.364313 0.045378 0.556002
O O10 0.354730 0.977837 0.731908
O O11 0.148445 0.216735 0.191990
O O12 0.904427 0.310043 0.398925
O O13 0.864477 0.616095 0.090481
#
# Coordination Sequence:
#
# PCOD9308572 Si02
#       7
#     8   8   4   8   4   8   8
#     4   9  18  30  48  74 106 135 171 212 268 305
#     4   9  16  29  49  73  97 137 173 219 256 313
#     4   9  16  30  52  74 100 137 178 218 258 321
#     4   9  16  29  51  75  99 136 183 222 252 314
#     4   9  18  34  52  74 104 135 166 218 270 333
#     4   9  18  30  49  80 105 136 177 227 257 316
#     4   9  18  31  52  77 101 134 175 214 271 313
#
# _framework density 23.761876000000001
#
# number of rings (size 3 to 8) (size 9 to 14) (size 15 to 20)
#    0.000    3.000    0.833    0.000    0.000    2.667 
#    0.000    0.000    0.000   12.000    0.000    0.000 
#    0.000    0.000    0.000    0.000    0.000    0.000 
#
# Total GULP energy -133724.510193 kJ/mol
# GULP energy per Si atom -5571.854591 kJ/mol
# Density = 2.370779 g / cm^3
# Si number density = 23.761876 Si / 1000 Ang^3
#
#
#
# Elastic Constant Matrix: (Units=GPa)
#
#
# Indices 1 2 3 4 5 6 
#
# 1 41.2312 23.6799 35.6642 0.0000 -19.1988 0.0000
# 2 23.6799 169.8193 63.2595 0.0001 -16.7729 0.0000
# 3 35.6642 63.2595 115.9890 0.0003 -28.8357 -0.0001
# 4 0.0000 0.0001 0.0003 2.6677 -0.0001 -16.7996
# 5 -19.1988 -16.7729 -28.8357 -0.0001 22.9662 0.0000
# 6 0.0000 0.0000 -0.0001 -16.7996 0.0000 26.1651
#
#
#
# Elastic Compliance Matrix: (Units=1/GPa)
#
#
# Indices 1 2 3 4 5 6 
#
# 1 0.042709 -0.001119 -0.005595 0.000000 0.027860 0.000000
# 2 -0.001119 0.007423 -0.003764 0.000000 -0.000240 0.000000
# 3 -0.005595 -0.003764 0.015335 0.000000 0.011828 0.000000
# 4 0.000000 0.000000 0.000000 -0.123173 0.000000 -0.079085
# 5 0.027860 -0.000240 0.011828 0.000000 0.081507 0.000000
# 6 0.000000 0.000000 0.000000 -0.079085 0.000000 -0.012558
#
#
# Mechanical properties :
#
#
# Convention : Reuss Voigt Hill
#
# Bulk Modulus (GPa) = 22.46715 63.58299 43.02507
# Shear Modulus (GPa) = 106.29983 23.98887 65.14435
#
# Velocity S-wave (km/s) = 6.69571 3.18079 5.24166
# Velocity P-wave (km/s) = 8.32180 6.34873 7.40131
#
# Compressibility (1/GPa) = 0.04450943
#
# Stress axis : x y z
#
# Youngs Moduli (GPa) = 23.41441 134.71432 65.20835
#
# Poissons Ratio (x) = 0.15079 0.36487
# Poissons Ratio (y) = 0.02621 0.24545
# Poissons Ratio (z) = 0.13102 0.50708
#
# Static dielectric constant tensor:
#      x y z
#    x 2.338050 0.000000 0.224920 
#    y 0.000000 2.031610 0.000000 
#    z 0.224920 0.000000 2.035970 
# 
# From -- ./inp_files/249403.got.cif
#   From: 2010.05.17/outbox.cif.g08.bks.cpg/sg15_125_cif.got.tgz:249403.got - 2010.06.03 18:47:42.
