data_PCOD9308419
_publ_section_title
;
Structure prediction by ZEFSAII (Michael W. Deem and Ramdas Pophale) SiO2 
 PCOD9308419
Probable space group: C 2/C
;
_chemical_formula_sum "Si O2"
_cell_formula_units_Z 24
_cell_length_a 6.933368
_cell_length_b 11.802589
_cell_length_c 10.701539
_cell_angle_alpha 90.000000
_cell_angle_beta 114.620204
_cell_angle_gamma 90.000000
_cell_volume 796.112241
_symmetry_space_group_name_H-M "C 2/C"
_symmetry_group_IT_number 15
_symmetry_cell_setting 'monoclinic'
loop_
_space_group_symop_operation_xyz
x,y,z
-x,y,1/2-z
-x,-y,-z
x,-y,1/2+z
1/2+x,1/2+y,z
1/2-x,1/2+y,1/2-z
1/2-x,1/2-y,-z
1/2+x,1/2-y,1/2+z
loop_
_atom_site_type_symbol
_atom_site_label
_atom_site_fract_x
_atom_site_fract_y
_atom_site_fract_z
Si Si1 0.288312 0.491353 0.254983
Si Si2 0.859454 0.375157 0.537894
Si Si3 0.244569 0.743637 0.851752
O O1 0.500000 0.542528 0.250000
O O2 0.232196 0.550568 0.373879
O O3 0.356890 0.367740 0.331708
O O4 0.156518 0.436819 0.100407
O O5 0.750000 0.250000 0.500000
O O6 0.892504 0.350611 0.856039
O O7 0.000000 0.733561 0.750000
O O8 0.250000 0.750000 0.000000
#
# Coordination Sequence:
#
# PCOD9308419 Si02
#       3
#     8   8   8
#     4  12  28  59 100 149 198 265 345 419 503 608
#     4  12  29  60 101 147 205 268 337 424 512 601
#     4  12  28  59  97 143 204 264 334 422 507 606
#
# _framework density 30.146505999999999
#
# number of rings (size 3 to 8) (size 9 to 14) (size 15 to 20)
#    0.000    0.000    6.667    1.000    0.000    4.000 
#    6.000    5.000    0.000    0.000    0.000    0.000 
#    0.000    0.000    0.000    0.000    0.000    0.000 
#
# Total GULP energy -67311.001061 kJ/mol
# GULP energy per Si atom -5609.250088 kJ/mol
# Density = 3.007789 g / cm^3
# Si number density = 30.146506 Si / 1000 Ang^3
#
#
#
# Elastic Constant Matrix: (Units=GPa)
#
#
# Indices 1 2 3 4 5 6 
#
# 1 227.6972 35.6574 73.7491 0.0000 -11.4433 0.0000
# 2 35.6574 176.5495 89.2242 0.0000 -47.3031 0.0000
# 3 73.7491 89.2242 286.1327 0.0000 -23.3886 0.0000
# 4 0.0000 0.0000 0.0000 -30.2482 0.0000 -46.0068
# 5 -11.4433 -47.3031 -23.3886 0.0000 78.4525 0.0000
# 6 0.0000 0.0000 0.0000 -46.0068 0.0000 64.7589
#
#
#
# Elastic Compliance Matrix: (Units=1/GPa)
#
#
# Indices 1 2 3 4 5 6 
#
# 1 0.004818 -0.000371 -0.001114 0.000000 0.000147 0.000000
# 2 -0.000371 0.007852 -0.002020 0.000000 0.004078 0.000000
# 3 -0.001114 -0.002020 0.004406 0.000000 -0.000067 0.000000
# 4 0.000000 0.000000 0.000000 -0.015890 0.000000 -0.011289
# 5 0.000147 0.004078 -0.000067 0.000000 0.015207 0.000000
# 6 0.000000 0.000000 0.000000 -0.011289 0.000000 0.007422
#
#
# Mechanical properties :
#
#
# Convention : Reuss Voigt Hill
#
# Bulk Modulus (GPa) = 99.32547 120.84898 110.08722
# Shear Modulus (GPa) = 146.27832 55.37591 100.82711
#
# Velocity S-wave (km/s) = 6.97336 4.29055 5.78950
# Velocity P-wave (km/s) = 9.89223 8.04483 9.01597
#
# Compressibility (1/GPa) = 0.01006791
#
# Stress axis : x y z
#
# Youngs Moduli (GPa) = 207.54974 127.34885 226.94072
#
# Poissons Ratio (x) = 0.04719 0.25287
# Poissons Ratio (y) = 0.07691 0.45836
# Poissons Ratio (z) = 0.23127 0.25721
#
# Static dielectric constant tensor:
#      x y z
#    x 2.106550 0.000000 0.021910 
#    y 0.000000 2.749250 0.000000 
#    z 0.021910 0.000000 1.989970 
# 
# From -- ./inp_files/21146.got.cif
#   From: 2010.05.17/outbox.cif.g08.bks.cpg/sg15_11_cif.got.tgz:21146.got - 2010.06.03 18:47:42.
