data_PCOD9308833
_publ_section_title
;
Structure prediction by ZEFSAII (Michael W. Deem and Ramdas Pophale) SiO2 
 PCOD9308833
Probable space group: C 2/C
;
_chemical_formula_sum "Si O2"
_cell_formula_units_Z 32
_cell_length_a 12.000000
_cell_length_b 24.000000
_cell_length_c 12.000000
_cell_angle_alpha 90.000000
_cell_angle_beta 110.000000
_cell_angle_gamma 90.000000
_cell_volume 3247.577697
_symmetry_space_group_name_H-M "C 2/C"
_symmetry_group_IT_number 15
_symmetry_cell_setting 'monoclinic'
loop_
_space_group_symop_operation_xyz
x,y,z
-x,y,1/2-z
-x,-y,-z
x,-y,1/2+z
1/2+x,1/2+y,z
1/2-x,1/2+y,1/2-z
1/2-x,1/2-y,-z
1/2+x,1/2-y,1/2+z
loop_
_atom_site_type_symbol
_atom_site_label
_atom_site_fract_x
_atom_site_fract_y
_atom_site_fract_z
Si Si1 0.766693 0.811712 0.954784
Si Si2 0.247498 0.471437 0.140202
Si Si3 0.420539 0.126465 0.997940
Si Si4 0.058853 0.901530 0.389976
Si Si5 0.126899 0.683668 0.746333
Si Si6 0.692918 0.593990 0.617821
Si Si7 0.366525 0.312610 0.738803
Si Si8 0.805679 0.594978 0.420406
O O1 0.827955 0.812275 0.855040
O O2 0.750000 0.750000 0.000000
O O3 0.641959 0.845654 0.916141
O O4 0.853851 0.850352 0.057551
O O5 0.142810 0.431929 0.056666
O O6 0.359988 0.456750 0.098297
O O7 0.280284 0.448126 0.272879
O O8 0.214608 0.535488 0.144093
O O9 0.388594 0.171092 0.889774
O O10 0.559810 0.115382 0.047168
O O11 0.000000 0.891992 0.250000
O O12 0.949808 0.903641 0.439244
O O13 0.244815 0.651508 0.823455
O O14 0.140155 0.746906 0.791696
O O15 0.000000 0.661775 0.750000
O O16 0.764506 0.580414 0.531540
O O17 0.500000 0.329701 0.750000
O O18 0.278270 0.354963 0.648327
#
# Coordination Sequence:
#
# PCOD9308833 Si02
#       8
#     8   8   8   8   8   8   8   8
#     4  11  22  41  63  89 131 167 197 268 330 359
#     4   9  22  39  61  90 129 163 210 269 315 375
#     4  10  21  41  63  92 121 171 213 251 325 387
#     4   9  20  39  62  92 117 166 225 248 307 398
#     4  10  19  40  61  88 128 161 211 259 319 378
#     4  10  21  38  66  89 119 169 210 265 313 376
#     4  11  26  41  60  94 130 168 206 267 316 376
#     4  12  24  40  63  97 123 166 219 258 315 381
#
# _framework density 9.8534980000000001
#
# number of rings (size 3 to 8) (size 9 to 14) (size 15 to 20)
#    0.000    1.750    2.500    1.875    0.000    6.000 
#    0.000    1.250    0.000    0.000    0.000    0.000 
#    0.000    0.000    0.000    0.000    0.000    0.000 
#
# Total GULP energy -178401.098616 kJ/mol
# GULP energy per Si atom -5575.034332 kJ/mol
# Density = 0.983107 g / cm^3
# Si number density = 9.853498 Si / 1000 Ang^3
#
#
#
# Elastic Constant Matrix: (Units=GPa)
#
#
# Indices 1 2 3 4 5 6 
#
# 1 178.7602 44.9047 32.7359 0.0000 5.8910 0.0000
# 2 44.9047 103.1475 15.0396 0.0000 21.7209 0.0000
# 3 32.7359 15.0396 27.5877 0.0000 -2.6179 0.0000
# 4 0.0000 0.0000 0.0000 8.3836 0.0000 -3.3465
# 5 5.8910 21.7209 -2.6179 0.0000 36.0420 0.0000
# 6 0.0000 0.0000 0.0000 -3.3465 0.0000 21.9403
#
#
#
# Elastic Compliance Matrix: (Units=1/GPa)
#
#
# Indices 1 2 3 4 5 6 
#
# 1 0.007575 -0.002012 -0.007949 0.000000 -0.000603 0.000000
# 2 -0.002012 0.013038 -0.005473 0.000000 -0.007926 0.000000
# 3 -0.007949 -0.005473 0.049441 0.000000 0.008188 0.000000
# 4 0.000000 0.000000 0.000000 0.127014 0.000000 0.019373
# 5 -0.000603 -0.007926 0.008188 0.000000 0.033215 0.000000
# 6 0.000000 0.000000 0.000000 0.019373 0.000000 0.048533
#
#
# Mechanical properties :
#
#
# Convention : Reuss Voigt Hill
#
# Bulk Modulus (GPa) = 25.51872 54.98398 40.25135
# Shear Modulus (GPa) = 15.49208 27.72751 21.60980
#
# Velocity S-wave (km/s) = 2.80683 3.75505 3.31502
# Velocity P-wave (km/s) = 4.84578 6.83827 5.92636
#
# Compressibility (1/GPa) = 0.03918692
#
# Stress axis : x y z
#
# Youngs Moduli (GPa) = 132.01306 76.70123 20.22608
#
# Poissons Ratio (x) = 0.15430 0.16078
# Poissons Ratio (y) = 0.26557 0.11069
# Poissons Ratio (z) = 1.04939 0.41975
#
# Static dielectric constant tensor:
#      x y z
#    x 1.742050 0.000000 -0.039490 
#    y 0.000000 1.690110 0.000000 
#    z -0.039490 0.000000 1.728310 
# 
# From -- ./inp_files/91296.got.cif
#   From: 2010.05.17/outbox.ucp.g08.bks.cvg/sg15_46_cif.got.tgz:91296.got - 2010.06.11 12:40:34.
