data_PCOD9308439
_publ_section_title
;
Structure prediction by ZEFSAII (Michael W. Deem and Ramdas Pophale) SiO2 
 PCOD9308439
Probable space group: C 2/C
;
_chemical_formula_sum "Si O2"
_cell_formula_units_Z 36
_cell_length_a 9.124784
_cell_length_b 11.255115
_cell_length_c 11.123441
_cell_angle_alpha 90.000000
_cell_angle_beta 116.363150
_cell_angle_gamma 90.000000
_cell_volume 1023.572252
_symmetry_space_group_name_H-M "C 2/C"
_symmetry_group_IT_number 15
_symmetry_cell_setting 'monoclinic'
loop_
_space_group_symop_operation_xyz
x,y,z
-x,y,1/2-z
-x,-y,-z
x,-y,1/2+z
1/2+x,1/2+y,z
1/2-x,1/2+y,1/2-z
1/2-x,1/2-y,-z
1/2+x,1/2-y,1/2+z
loop_
_atom_site_type_symbol
_atom_site_label
_atom_site_fract_x
_atom_site_fract_y
_atom_site_fract_z
Si Si1 0.157153 0.916022 0.167331
Si Si2 0.195509 0.383446 0.039036
Si Si3 0.923747 0.827865 0.886142
Si Si4 0.500000 0.960092 0.750000
Si Si5 0.362810 0.837147 0.921314
O O1 0.168857 0.862707 0.303723
O O2 0.336988 0.966661 0.204423
O O3 0.117529 0.816380 0.048797
O O4 0.042577 0.030781 0.125608
O O5 0.042507 0.320094 0.074369
O O6 0.178302 0.528889 0.043521
O O7 0.302146 0.341645 0.960319
O O8 0.809453 0.813826 0.719042
O O9 0.503317 0.875275 0.868662
#
# Coordination Sequence:
#
# PCOD9308439 Si02
#       5
#     8   8   8   4   8
#     4   8  10  20  33  38  62  86  94 124 148 161
#     4   7  12  19  29  43  65  81  92 126 140 175
#     4   6  13  19  27  48  56  77 111 115 137 187
#     4   6  12  20  22  48  66  74 102 110 142 192
#     4   6  12  19  26  44  64  75 100 119 133 189
#
# _framework density 35.170940999999999
#
# number of rings (size 3 to 8) (size 9 to 14) (size 15 to 20)
#    4.000    0.444    0.000    0.000    0.000    0.889 
#    0.000    0.000    0.000    5.333    0.000    0.000 
#    0.000   14.222    0.000    1.778    0.000    0.000 
#
# Total GULP energy -100619.627133 kJ/mol
# GULP energy per Si atom -5589.979285 kJ/mol
# Density = 3.509089 g / cm^3
# Si number density = 35.170941 Si / 1000 Ang^3
#
#
#
# Elastic Constant Matrix: (Units=GPa)
#
#
# Indices 1 2 3 4 5 6 
#
# 1 117.5529 -8.6772 -51.5653 0.0000 68.1165 0.0000
# 2 -8.6772 257.5629 52.6685 0.0000 41.1760 0.0000
# 3 -51.5653 52.6685 206.7260 0.0000 39.1790 0.0000
# 4 0.0000 0.0000 0.0000 162.9918 0.0000 34.2128
# 5 68.1165 41.1760 39.1790 0.0000 86.7767 0.0000
# 6 0.0000 0.0000 0.0000 34.2128 0.0000 89.8077
#
#
#
# Elastic Compliance Matrix: (Units=1/GPa)
#
#
# Indices 1 2 3 4 5 6 
#
# 1 0.039548 0.004462 0.016418 0.000000 -0.040574 0.000000
# 2 0.004462 0.004816 0.001075 0.000000 -0.006273 0.000000
# 3 0.016418 0.001075 0.012246 0.000000 -0.018926 0.000000
# 4 0.000000 0.000000 0.000000 0.006669 0.000000 -0.002540
# 5 -0.040574 -0.006273 -0.018926 0.000000 0.054894 0.000000
# 6 0.000000 0.000000 0.000000 -0.002540 0.000000 0.012103
#
#
# Mechanical properties :
#
#
# Convention : Reuss Voigt Hill
#
# Bulk Modulus (GPa) = 9.94850 62.96599 36.45724
# Shear Modulus (GPa) = 41.71084 107.20963 74.46024
#
# Velocity S-wave (km/s) = 3.44749 5.52708 4.60618
# Velocity P-wave (km/s) = 4.32223 7.65984 6.21912
#
# Compressibility (1/GPa) = 0.10051771
#
# Stress axis : x y z
#
# Youngs Moduli (GPa) = 25.28551 207.64705 81.66190
#
# Poissons Ratio (x) = -0.92642 -1.34070
# Poissons Ratio (y) = -0.11281 -0.08776
# Poissons Ratio (z) = -0.41513 -0.22316
#
# Static dielectric constant tensor:
#      x y z
#    x 2.799060 0.000000 0.234900 
#    y 0.000000 2.958910 0.000000 
#    z 0.234900 0.000000 3.167460 
# 
# From -- ./inp_files/141983.got.cif
#   From: 2010.05.17/outbox.cif.g08.bks.cpg/sg15_71_cif.got.tgz:141983.got - 2010.06.03 18:47:42.
