data_PCOD9308015
_publ_section_title
;
Structure prediction by ZEFSAII (Michael W. Deem and Ramdas Pophale) SiO2 
 PCOD9308015
Probable space group: C 2/C
;
_chemical_formula_sum "Si O2"
_cell_formula_units_Z 44
_cell_length_a 14.322102
_cell_length_b 5.051918
_cell_length_c 26.921955
_cell_angle_alpha 90.000000
_cell_angle_beta 75.535162
_cell_angle_gamma 90.000000
_cell_volume 1886.166733
_symmetry_space_group_name_H-M "C 2/C"
_symmetry_group_IT_number 15
_symmetry_cell_setting 'monoclinic'
loop_
_space_group_symop_operation_xyz
x,y,z
-x,y,1/2-z
-x,-y,-z
x,-y,1/2+z
1/2+x,1/2+y,z
1/2-x,1/2+y,1/2-z
1/2-x,1/2-y,-z
1/2+x,1/2-y,1/2+z
loop_
_atom_site_type_symbol
_atom_site_label
_atom_site_fract_x
_atom_site_fract_y
_atom_site_fract_z
Si Si1 0.214329 0.838850 0.224188
Si Si2 0.803129 0.150642 0.116647
Si Si3 0.070761 0.744682 0.994200
Si Si4 0.495953 0.558501 0.141828
Si Si5 0.609959 0.945167 0.595451
Si Si6 0.000000 0.996124 0.750000
O O1 0.250321 0.577380 0.246569
O O2 0.260808 0.852084 0.163169
O O3 0.099106 0.842022 0.236502
O O4 0.710477 0.992675 0.109232
O O5 0.889905 0.006732 0.134046
O O6 0.853768 0.261319 0.060700
O O7 0.122685 0.693662 0.040088
O O8 0.000000 0.500000 0.000000
O O9 0.000000 0.000000 0.000000
O O10 0.552237 0.282836 0.132354
O O11 0.495442 0.659675 0.198610
O O12 0.547673 0.786975 0.102984
#
# Coordination Sequence:
#
# PCOD9308015 Si02
#       6
#     8   8   8   8   8   4
#     4  12  30  47  75 111 146 195 248 302 368 441
#     4  12  27  48  80 106 152 194 249 300 372 442
#     4  12  25  48  76 108 150 193 244 308 368 436
#     4  12  28  46  76 108 150 188 250 305 358 443
#     4  12  27  49  73 113 144 197 242 305 372 430
#     4  12  28  50  76 108 152 194 246 308 370 432
#
# _framework density 23.327736999999999
#
# number of rings (size 3 to 8) (size 9 to 14) (size 15 to 20)
#    0.000    0.000    7.273    0.545    5.091    5.818 
#    0.000    3.636    0.000    0.000    0.000    0.000 
#    0.000    0.000    0.000    0.000    0.000    0.000 
#
# Total GULP energy -123093.559762 kJ/mol
# GULP energy per Si atom -5595.161807 kJ/mol
# Density = 2.327464 g / cm^3
# Si number density = 23.327737 Si / 1000 Ang^3
#
#
#
# Elastic Constant Matrix: (Units=GPa)
#
#
# Indices 1 2 3 4 5 6 
#
# 1 203.4376 48.2091 49.7365 0.0002 5.7324 0.0003
# 2 48.2091 126.8214 16.7405 0.0011 -7.1875 0.0020
# 3 49.7365 16.7405 161.0875 0.0008 -0.0739 0.0006
# 4 0.0002 0.0011 0.0008 21.7143 0.0000 5.9836
# 5 5.7324 -7.1875 -0.0739 0.0000 53.0271 0.0000
# 6 0.0003 0.0020 0.0006 5.9836 0.0000 14.7081
#
#
#
# Elastic Compliance Matrix: (Units=1/GPa)
#
#
# Indices 1 2 3 4 5 6 
#
# 1 0.005814 -0.002053 -0.001582 0.000000 -0.000909 0.000000
# 2 -0.002053 0.008782 -0.000278 0.000000 0.001412 -0.000001
# 3 -0.001582 -0.000278 0.006725 0.000000 0.000143 0.000000
# 4 0.000000 0.000000 0.000000 0.051867 0.000000 -0.021101
# 5 -0.000909 0.001412 0.000143 0.000000 0.019148 0.000000
# 6 0.000000 -0.000001 0.000000 -0.021101 0.000000 0.076574
#
#
# Mechanical properties :
#
#
# Convention : Reuss Voigt Hill
#
# Bulk Modulus (GPa) = 74.10040 80.07986 77.09013
# Shear Modulus (GPa) = 27.58821 43.00058 35.29440
#
# Velocity S-wave (km/s) = 3.44268 4.29805 3.89392
# Velocity P-wave (km/s) = 6.90193 7.68334 7.30309
#
# Compressibility (1/GPa) = 0.01349520
#
# Stress axis : x y z
#
# Youngs Moduli (GPa) = 171.98506 113.86625 148.69162
#
# Poissons Ratio (x) = 0.23376 0.23528
# Poissons Ratio (y) = 0.35307 0.04136
# Poissons Ratio (z) = 0.27213 0.03167
#
# Static dielectric constant tensor:
#      x y z
#    x 1.849220 0.000000 0.032080 
#    y 0.000000 1.796570 0.000000 
#    z 0.032080 0.000000 1.963490 
# 
# From -- ./inp_files/294215.got.cif
#   From: 2010.05.17/outbox.cif.g08.bks.cpg/sg15_148_cif.got.tgz:294215.got - 2010.06.03 18:47:42.
