data_PCOD9308305
_publ_section_title
;
Structure prediction by ZEFSAII (Michael W. Deem and Ramdas Pophale) SiO2 
 PCOD9308305
Probable space group: C 2/C
;
_chemical_formula_sum "Si O2"
_cell_formula_units_Z 24
_cell_length_a 9.220546
_cell_length_b 5.315814
_cell_length_c 19.792577
_cell_angle_alpha 90.000000
_cell_angle_beta 68.444213
_cell_angle_gamma 90.000000
_cell_volume 902.276933
_symmetry_space_group_name_H-M "C 2/C"
_symmetry_group_IT_number 15
_symmetry_cell_setting 'monoclinic'
loop_
_space_group_symop_operation_xyz
x,y,z
-x,y,1/2-z
-x,-y,-z
x,-y,1/2+z
1/2+x,1/2+y,z
1/2-x,1/2+y,1/2-z
1/2-x,1/2-y,-z
1/2+x,1/2-y,1/2+z
loop_
_atom_site_type_symbol
_atom_site_label
_atom_site_fract_x
_atom_site_fract_y
_atom_site_fract_z
Si Si1 0.259757 0.543316 0.160680
Si Si2 0.441869 0.066130 0.690114
Si Si3 0.396940 0.248717 0.025892
O O1 0.394026 0.749828 0.139583
O O2 0.202665 0.564427 0.248379
O O3 0.323479 0.292895 0.114000
O O4 0.096461 0.598752 0.150042
O O5 0.500000 0.211402 0.750000
O O6 0.500000 0.500000 0.000000
O O7 0.250000 0.250000 0.000000
O O8 0.500000 0.000000 0.000000
#
# Coordination Sequence:
#
# PCOD9308305 Si02
#       3
#     8   8   8
#     4   9  20  42  62  99 130 173 228 275 348 400
#     4   8  20  37  62  90 128 167 218 284 342 382
#     4  12  27  47  72 102 142 190 231 284 341 420
#
# _framework density 26.599374999999998
#
# number of rings (size 3 to 8) (size 9 to 14) (size 15 to 20)
#    2.000    0.000    0.000    3.000    0.000    8.000 
#   12.000    0.000    0.000    0.000    0.000    0.000 
#    0.000    0.000    0.000    0.000    0.000    0.000 
#
# Total GULP energy -66834.486108 kJ/mol
# GULP energy per Si atom -5569.540509 kJ/mol
# Density = 2.653883 g / cm^3
# Si number density = 26.599375 Si / 1000 Ang^3
#
#
#
# Elastic Constant Matrix: (Units=GPa)
#
#
# Indices 1 2 3 4 5 6 
#
# 1 198.1339 87.9293 22.9548 0.0000 -0.6222 0.0000
# 2 87.9293 112.3134 17.9281 0.0000 -5.1377 0.0000
# 3 22.9548 17.9281 125.0431 0.0000 -3.4069 0.0000
# 4 0.0000 0.0000 0.0000 49.4447 0.0000 0.7397
# 5 -0.6222 -5.1377 -3.4069 0.0000 23.6398 0.0000
# 6 0.0000 0.0000 0.0000 0.7397 0.0000 51.5906
#
#
#
# Elastic Compliance Matrix: (Units=1/GPa)
#
#
# Indices 1 2 3 4 5 6 
#
# 1 0.007807 -0.006072 -0.000595 0.000000 -0.001200 0.000000
# 2 -0.006072 0.013911 -0.000805 0.000000 0.002748 0.000000
# 3 -0.000595 -0.000805 0.008249 0.000000 0.000998 0.000000
# 4 0.000000 0.000000 0.000000 0.020229 0.000000 -0.000290
# 5 -0.001200 0.002748 0.000998 0.000000 0.043011 0.000000
# 6 0.000000 0.000000 0.000000 -0.000290 0.000000 0.019388
#
#
# Mechanical properties :
#
#
# Convention : Reuss Voigt Hill
#
# Bulk Modulus (GPa) = 66.56407 77.01276 71.78841
# Shear Modulus (GPa) = 37.72245 45.38023 41.55134
#
# Velocity S-wave (km/s) = 3.76995 4.13493 3.95665
# Velocity P-wave (km/s) = 6.63543 7.19810 6.92248
#
# Compressibility (1/GPa) = 0.01502312
#
# Stress axis : x y z
#
# Youngs Moduli (GPa) = 128.09198 71.88334 121.22460
#
# Poissons Ratio (x) = 0.43646 0.07216
# Poissons Ratio (y) = 0.77775 0.09759
# Poissons Ratio (z) = 0.07625 0.05787
#
# Static dielectric constant tensor:
#      x y z
#    x 2.275090 0.000000 -0.052040 
#    y 0.000000 2.148120 0.000000 
#    z -0.052040 0.000000 2.204920 
# 
# From -- ./inp_files/228963.got.cif
#   From: 2010.05.17/outbox.cif.g08.bks.cpg/sg15_115_cif.got.tgz:228963.got - 2010.06.03 18:47:42.
