data_PCOD9308057
_publ_section_title
;
Structure prediction by ZEFSAII (Michael W. Deem and Ramdas Pophale) SiO2 
 PCOD9308057
Probable space group: C 2/C
;
_chemical_formula_sum "Si O2"
_cell_formula_units_Z 40
_cell_length_a 17.226603
_cell_length_b 9.172375
_cell_length_c 10.231889
_cell_angle_alpha 90.000000
_cell_angle_beta 83.922372
_cell_angle_gamma 90.000000
_cell_volume 1607.642093
_symmetry_space_group_name_H-M "C 2/C"
_symmetry_group_IT_number 15
_symmetry_cell_setting 'monoclinic'
loop_
_space_group_symop_operation_xyz
x,y,z
-x,y,1/2-z
-x,-y,-z
x,-y,1/2+z
1/2+x,1/2+y,z
1/2-x,1/2+y,1/2-z
1/2-x,1/2-y,-z
1/2+x,1/2-y,1/2+z
loop_
_atom_site_type_symbol
_atom_site_label
_atom_site_fract_x
_atom_site_fract_y
_atom_site_fract_z
Si Si1 0.821206 0.109118 0.256280
Si Si2 0.588784 0.153847 0.893552
Si Si3 0.414524 0.896691 0.810743
Si Si4 0.812513 0.201450 0.664960
Si Si5 0.449044 0.627677 0.441951
O O1 0.845878 0.222382 0.139064
O O2 0.758555 0.192404 0.356706
O O3 0.900232 0.076835 0.323818
O O4 0.787116 0.961445 0.204849
O O5 0.597293 0.038775 0.776068
O O6 0.590055 0.078084 0.034205
O O7 0.507401 0.240781 0.900926
O O8 0.500000 0.841146 0.750000
O O9 0.350827 0.777286 0.784647
O O10 0.882859 0.185101 0.551505
O O11 0.500000 0.500000 0.500000
#
# Coordination Sequence:
#
# PCOD9308057 Si02
#       5
#     8   8   8   8   8
#     4  12  28  50  76 119 163 217 266 344 414 485
#     4  12  27  48  82 116 163 209 279 336 407 493
#     4  12  26  47  76 119 155 212 271 338 402 488
#     4  12  28  49  78 114 166 214 273 339 414 488
#     4  12  25  50  84 116 157 220 284 335 402 494
#
# _framework density 24.881159
#
# number of rings (size 3 to 8) (size 9 to 14) (size 15 to 20)
#    0.000    0.000    4.000    5.400    2.800    0.800 
#    7.200    0.000    0.000    0.000    0.000    0.000 
#    0.000    0.000    0.000    0.000    0.000    0.000 
#
# Total GULP energy -112189.770772 kJ/mol
# GULP energy per Si atom -5609.488539 kJ/mol
# Density = 2.482453 g / cm^3
# Si number density = 24.881159 Si / 1000 Ang^3
#
#
#
# Elastic Constant Matrix: (Units=GPa)
#
#
# Indices 1 2 3 4 5 6 
#
# 1 110.2147 42.0597 24.0730 0.0000 -18.3489 0.0000
# 2 42.0597 134.8353 58.3940 0.0000 -16.9432 0.0000
# 3 24.0730 58.3940 103.9315 0.0000 -0.5402 0.0000
# 4 0.0000 0.0000 0.0000 29.9222 0.0000 -3.7943
# 5 -18.3489 -16.9432 -0.5402 0.0000 42.6226 0.0000
# 6 0.0000 0.0000 0.0000 -3.7943 0.0000 45.4322
#
#
#
# Elastic Compliance Matrix: (Units=1/GPa)
#
#
# Indices 1 2 3 4 5 6 
#
# 1 0.010864 -0.002436 -0.001129 0.000000 0.003694 0.000000
# 2 -0.002436 0.011014 -0.005607 0.000000 0.003259 0.000000
# 3 -0.001129 -0.005607 0.013020 0.000000 -0.002550 0.000000
# 4 0.000000 0.000000 0.000000 0.033778 0.000000 0.002821
# 5 0.003694 0.003259 -0.002550 0.000000 0.026315 0.000000
# 6 0.000000 0.000000 0.000000 0.002821 0.000000 0.022246
#
#
# Mechanical properties :
#
#
# Convention : Reuss Voigt Hill
#
# Bulk Modulus (GPa) = 60.40342 66.44833 63.42588
# Shear Modulus (GPa) = 35.43593 38.55907 36.99750
#
# Velocity S-wave (km/s) = 3.77796 3.94093 3.86031
# Velocity P-wave (km/s) = 6.58484 6.89001 6.73915
#
# Compressibility (1/GPa) = 0.01655535
#
# Stress axis : x y z
#
# Youngs Moduli (GPa) = 92.04404 90.79278 76.80347
#
# Poissons Ratio (x) = 0.22117 0.08668
# Poissons Ratio (y) = 0.22422 0.43065
# Poissons Ratio (z) = 0.10388 0.50909
#
# Static dielectric constant tensor:
#      x y z
#    x 2.007380 0.000000 0.023680 
#    y 0.000000 1.942490 0.000000 
#    z 0.023680 0.000000 1.970840 
# 
# From -- ./inp_files/102713.got.cif
#   From: 2010.05.17/outbox.cif.g08.bks.cpg/sg15_52_cif.got.tgz:102713.got - 2010.06.03 18:47:42.
