data_PCOD9308929
_publ_section_title
;
Structure prediction by ZEFSAII (Michael W. Deem and Ramdas Pophale) SiO2 
 PCOD9308929
Probable space group: C 2/C
;
_chemical_formula_sum "Si O2"
_cell_formula_units_Z 26
_cell_length_a 15.000000
_cell_length_b 9.000000
_cell_length_c 21.000000
_cell_angle_alpha 90.000000
_cell_angle_beta 80.000000
_cell_angle_gamma 90.000000
_cell_volume 2791.929980
_symmetry_space_group_name_H-M "C 2/C"
_symmetry_group_IT_number 15
_symmetry_cell_setting 'monoclinic'
loop_
_space_group_symop_operation_xyz
x,y,z
-x,y,1/2-z
-x,-y,-z
x,-y,1/2+z
1/2+x,1/2+y,z
1/2-x,1/2+y,1/2-z
1/2-x,1/2-y,-z
1/2+x,1/2-y,1/2+z
loop_
_atom_site_type_symbol
_atom_site_label
_atom_site_fract_x
_atom_site_fract_y
_atom_site_fract_z
Si Si1 0.874839 0.860202 0.450584
Si Si2 0.168251 0.544812 0.827498
Si Si3 0.500000 0.587847 0.750000
Si Si4 0.643598 0.400589 0.651408
Si Si5 0.496699 0.832171 0.645425
Si Si6 0.656485 0.949546 0.175683
Si Si7 0.209974 0.824781 0.905442
O O1 0.960008 0.759155 0.418716
O O2 0.856601 0.868016 0.528220
O O3 0.790813 0.770311 0.428791
O O4 0.876847 0.019386 0.414169
O O5 0.258262 0.458141 0.838181
O O6 0.165082 0.556905 0.751199
O O7 0.168312 0.708437 0.859744
O O8 0.084712 0.442659 0.859769
O O9 0.574293 0.481008 0.708902
O O10 0.467517 0.703487 0.699273
O O11 0.640826 0.220604 0.653624
O O12 0.573997 0.938810 0.667239
O O13 0.744095 0.032329 0.134046
#
# Coordination Sequence:
#
# PCOD9308929 Si02
#       7
#     8   8   4   8   8   8   8
#     4   8  18  39  56  81 109 163 187 229 284 342
#     4  11  21  35  56  89 111 150 188 242 283 343
#     4  10  20  38  52  80 114 156 178 248 282 350
#     4  10  23  34  58  84 114 149 197 230 292 336
#     4  10  20  36  60  79 119 148 193 232 294 333
#     4  11  21  36  55  89 114 152 183 243 288 344
#     4   9  19  36  60  78 118 149 196 229 280 341
#
# _framework density 9.3125540000000004
#
# number of rings (size 3 to 8) (size 9 to 14) (size 15 to 20)
#    0.000    2.154    1.538    1.846    4.308    1.231 
#    0.000    0.000    0.000    1.846    0.000    0.000 
#    0.000    0.000    0.000    0.000    0.000    0.000 
#
# Total GULP energy -145097.682905 kJ/mol
# GULP energy per Si atom -5580.680112 kJ/mol
# Density = 0.929136 g / cm^3
# Si number density = 9.312554 Si / 1000 Ang^3
#
#
#
# Elastic Constant Matrix: (Units=GPa)
#
#
# Indices 1 2 3 4 5 6 
#
# 1 73.1619 37.9291 45.5587 0.0000 -14.4753 0.0000
# 2 37.9291 170.9433 64.3622 0.0000 -14.3324 0.0000
# 3 45.5587 64.3622 131.3367 0.0000 -23.7432 0.0000
# 4 0.0000 0.0000 0.0000 21.4328 0.0000 -3.3062
# 5 -14.4753 -14.3324 -23.7432 0.0000 23.2020 0.0000
# 6 0.0000 0.0000 0.0000 -3.3062 0.0000 36.8850
#
#
#
# Elastic Compliance Matrix: (Units=1/GPa)
#
#
# Indices 1 2 3 4 5 6 
#
# 1 0.018607 -0.001969 -0.004430 0.000000 0.005858 0.000000
# 2 -0.001969 0.007402 -0.002871 0.000000 0.000406 0.000000
# 3 -0.004430 -0.002871 0.011948 0.000000 0.007689 0.000000
# 4 0.000000 0.000000 0.000000 0.047312 0.000000 0.004241
# 5 0.005858 0.000406 0.007689 0.000000 0.054874 0.000000
# 6 0.000000 0.000000 0.000000 0.004241 0.000000 0.027491
#
#
# Mechanical properties :
#
#
# Convention : Reuss Voigt Hill
#
# Bulk Modulus (GPa) = 51.50455 74.57134 63.03794
# Shear Modulus (GPa) = 25.95429 31.47677 28.71553
#
# Velocity S-wave (km/s) = 3.73703 4.11544 3.93079
# Velocity P-wave (km/s) = 6.80689 7.91881 7.38381
#
# Compressibility (1/GPa) = 0.01941576
#
# Stress axis : x y z
#
# Youngs Moduli (GPa) = 53.74264 135.10312 83.69801
#
# Poissons Ratio (x) = 0.26606 0.37081
# Poissons Ratio (y) = 0.10584 0.24028
# Poissons Ratio (z) = 0.23810 0.38785
#
# Static dielectric constant tensor:
#      x y z
#    x 1.672090 0.000000 -0.014700 
#    y 0.000000 1.613590 0.000000 
#    z -0.014700 0.000000 1.650160 
# 
# From -- ./inp_files/209247.got.cif
#   From: 2010.05.17/outbox.ucp.g08.bks.cvg/sg15_105_cif.got.tgz:209247.got - 2010.06.11 12:40:34.
