data_PCOD9308313
_publ_section_title
;
Structure prediction by ZEFSAII (Michael W. Deem and Ramdas Pophale) SiO2 
 PCOD9308313
Probable space group: C 2/C
;
_chemical_formula_sum "Si O2"
_cell_formula_units_Z 24
_cell_length_a 5.496863
_cell_length_b 8.901068
_cell_length_c 19.287004
_cell_angle_alpha 90.000000
_cell_angle_beta 73.006736
_cell_angle_gamma 90.000000
_cell_volume 902.471976
_symmetry_space_group_name_H-M "C 2/C"
_symmetry_group_IT_number 15
_symmetry_cell_setting 'monoclinic'
loop_
_space_group_symop_operation_xyz
x,y,z
-x,y,1/2-z
-x,-y,-z
x,-y,1/2+z
1/2+x,1/2+y,z
1/2-x,1/2+y,1/2-z
1/2-x,1/2-y,-z
1/2+x,1/2-y,1/2+z
loop_
_atom_site_type_symbol
_atom_site_label
_atom_site_fract_x
_atom_site_fract_y
_atom_site_fract_z
Si Si1 0.274521 0.577646 0.974722
Si Si2 0.375449 0.910124 0.694776
Si Si3 0.683784 0.401551 0.334510
O O1 0.111795 0.503965 0.140612
O O2 0.250000 0.750000 0.000000
O O3 0.400934 0.576506 0.886824
O O4 0.000000 0.500000 0.000000
O O5 0.500000 0.817718 0.750000
O O6 0.246581 0.774732 0.664731
O O7 0.235392 0.031640 0.754148
O O8 0.500000 0.500000 0.500000
#
# Coordination Sequence:
#
# PCOD9308313 Si02
#       3
#     8   8   8
#     4  12  27  48  74 104 146 194 238 290 351 430
#     4   8  20  38  65  92 135 172 229 291 355 393
#     4   9  20  44  63 103 133 181 233 286 356 413
#
# _framework density 26.593622
#
# number of rings (size 3 to 8) (size 9 to 14) (size 15 to 20)
#    2.000    0.000    0.000    3.000    0.000    5.333 
#   24.000    0.000    0.000    0.000    0.000    0.000 
#    0.000    0.000    0.000    0.000    0.000    0.000 
#
# Total GULP energy -66926.501739 kJ/mol
# GULP energy per Si atom -5577.208478 kJ/mol
# Density = 2.653309 g / cm^3
# Si number density = 26.593622 Si / 1000 Ang^3
#
#
#
# Elastic Constant Matrix: (Units=GPa)
#
#
# Indices 1 2 3 4 5 6 
#
# 1 165.5753 92.8013 65.6826 0.0000 -41.2140 0.0000
# 2 92.8013 282.5530 54.9035 0.0000 -43.0009 0.0000
# 3 65.6826 54.9035 173.5814 0.0000 -66.6756 0.0000
# 4 0.0000 0.0000 0.0000 27.4565 0.0000 -14.9277
# 5 -41.2140 -43.0009 -66.6756 0.0000 55.0216 0.0000
# 6 0.0000 0.0000 0.0000 -14.9277 0.0000 49.4302
#
#
#
# Elastic Compliance Matrix: (Units=1/GPa)
#
#
# Indices 1 2 3 4 5 6 
#
# 1 0.008510 -0.002056 -0.001382 0.000000 0.003093 0.000000
# 2 -0.002056 0.004515 0.000213 0.000000 0.002246 0.000000
# 3 -0.001382 0.000213 0.011006 0.000000 0.012468 0.000000
# 4 0.000000 0.000000 0.000000 0.043576 0.000000 0.013160
# 5 0.003093 0.002246 0.012468 0.000000 0.037357 0.000000
# 6 0.000000 0.000000 0.000000 0.013160 0.000000 0.024205
#
#
# Mechanical properties :
#
#
# Convention : Reuss Voigt Hill
#
# Bulk Modulus (GPa) = 56.87874 116.49825 86.68850
# Shear Modulus (GPa) = 35.34132 53.60314 44.47223
#
# Velocity S-wave (km/s) = 3.64942 4.49446 4.09380
# Velocity P-wave (km/s) = 6.26037 8.41638 7.41713
#
# Compressibility (1/GPa) = 0.01758126
#
# Stress axis : x y z
#
# Youngs Moduli (GPa) = 117.51157 221.48997 90.86148
#
# Poissons Ratio (x) = 0.45532 0.12554
# Poissons Ratio (y) = 0.24157 -0.01933
# Poissons Ratio (z) = 0.16236 -0.04712
#
# Static dielectric constant tensor:
#      x y z
#    x 2.716660 0.000000 0.180010 
#    y 0.000000 2.219090 0.000000 
#    z 0.180010 0.000000 2.174600 
# 
# From -- ./inp_files/180417.got.cif
#   From: 2010.05.17/outbox.cif.g08.bks.cpg/sg15_91_cif.got.tgz:180417.got - 2010.06.03 18:47:42.
