data_PCOD9308325
_publ_section_title
;
Structure prediction by ZEFSAII (Michael W. Deem and Ramdas Pophale) SiO2 
 PCOD9308325
Probable space group: C 2/C
;
_chemical_formula_sum "Si O2"
_cell_formula_units_Z 40
_cell_length_a 12.647021
_cell_length_b 4.680072
_cell_length_c 25.648811
_cell_angle_alpha 90.000000
_cell_angle_beta 91.111789
_cell_angle_gamma 90.000000
_cell_volume 1517.840875
_symmetry_space_group_name_H-M "C 2/C"
_symmetry_group_IT_number 15
_symmetry_cell_setting 'monoclinic'
loop_
_space_group_symop_operation_xyz
x,y,z
-x,y,1/2-z
-x,-y,-z
x,-y,1/2+z
1/2+x,1/2+y,z
1/2-x,1/2+y,1/2-z
1/2-x,1/2-y,-z
1/2+x,1/2-y,1/2+z
loop_
_atom_site_type_symbol
_atom_site_label
_atom_site_fract_x
_atom_site_fract_y
_atom_site_fract_z
Si Si1 0.250000 0.250000 0.500000
Si Si2 0.000000 0.717322 0.250000
Si Si3 0.066404 0.532199 0.431265
Si Si4 0.672403 0.223718 0.173214
Si Si5 0.321439 0.783912 0.672412
Si Si6 0.579093 0.478062 0.570904
O O1 0.143160 0.392742 0.473501
O O2 0.322622 0.468574 0.465046
O O3 0.915788 0.584874 0.289711
O O4 0.913809 0.849780 0.209517
O O5 0.125337 0.566060 0.376678
O O6 0.024019 0.841371 0.446333
O O7 0.961480 0.341508 0.424020
O O8 0.749471 0.468872 0.198629
O O9 0.613678 0.393739 0.127079
O O10 0.746796 0.972346 0.153539
#
# Coordination Sequence:
#
# PCOD9308325 Si02
#       6
#     4   4   8   8   8   8
#     4  12  28  46  80 104 158 192 246 310 370 436
#     4  12  28  46  80 102 152 190 248 310 376 438
#     4  12  27  49  75 109 148 195 247 302 372 443
#     4  12  27  49  75 108 147 193 247 306 373 444
#     4  12  27  49  75 108 147 193 247 306 373 444
#     4  12  27  49  75 109 148 195 247 302 372 443
#
# _framework density 26.353224000000001
#
# number of rings (size 3 to 8) (size 9 to 14) (size 15 to 20)
#    0.000    0.000    4.000    4.800    0.000    3.200 
#    0.000    0.000    0.000    0.000    0.000    0.000 
#    0.000    0.000    0.000    0.000    0.000    0.000 
#
# Total GULP energy -111534.849448 kJ/mol
# GULP energy per Si atom -5576.742472 kJ/mol
# Density = 2.629324 g / cm^3
# Si number density = 26.353224 Si / 1000 Ang^3
#
#
#
# Elastic Constant Matrix: (Units=GPa)
#
#
# Indices 1 2 3 4 5 6 
#
# 1 140.5360 28.5599 53.8105 0.0000 -7.0920 0.0000
# 2 28.5599 97.6299 19.4229 0.0000 -4.9723 0.0000
# 3 53.8105 19.4229 97.3551 0.0000 -4.0074 0.0000
# 4 0.0000 0.0000 0.0000 16.0815 0.0000 -4.1451
# 5 -7.0920 -4.9723 -4.0074 0.0000 72.2319 0.0000
# 6 0.0000 0.0000 0.0000 -4.1451 0.0000 11.8279
#
#
#
# Elastic Compliance Matrix: (Units=1/GPa)
#
#
# Indices 1 2 3 4 5 6 
#
# 1 0.009331 -0.001750 -0.004786 0.000000 0.000530 0.000000
# 2 -0.001750 0.011022 -0.001210 0.000000 0.000520 0.000000
# 3 -0.004786 -0.001210 0.013166 0.000000 0.000177 0.000000
# 4 0.000000 0.000000 0.000000 0.068358 0.000000 0.023956
# 5 0.000530 0.000520 0.000177 0.000000 0.013942 0.000000
# 6 0.000000 0.000000 0.000000 0.023956 0.000000 0.092941
#
#
# Mechanical properties :
#
#
# Convention : Reuss Voigt Hill
#
# Bulk Modulus (GPa) = 55.47804 59.90086 57.68945
# Shear Modulus (GPa) = 21.71446 35.61011 28.66229
#
# Velocity S-wave (km/s) = 2.87361 3.67994 3.30149
# Velocity P-wave (km/s) = 5.66636 6.39025 6.03916
#
# Compressibility (1/GPa) = 0.01802515
#
# Stress axis : x y z
#
# Youngs Moduli (GPa) = 107.17290 90.72752 75.95380
#
# Poissons Ratio (x) = 0.15880 0.36354
# Poissons Ratio (y) = 0.18759 0.09191
# Poissons Ratio (z) = 0.51296 0.10979
#
# Static dielectric constant tensor:
#      x y z
#    x 2.019710 0.000000 0.032170 
#    y 0.000000 2.015420 0.000000 
#    z 0.032170 0.000000 2.144320 
# 
# From -- ./inp_files/290569.got.cif
#   From: 2010.05.17/outbox.cif.g08.bks.cpg/sg15_146_cif.got.tgz:290569.got - 2010.06.03 18:47:42.
