data_PCOD9308350
_publ_section_title
;
Structure prediction by ZEFSAII (Michael W. Deem and Ramdas Pophale) SiO2 
 PCOD9308350
Probable space group: C 2/C
;
_chemical_formula_sum "Si O2"
_cell_formula_units_Z 32
_cell_length_a 18.511770
_cell_length_b 5.512637
_cell_length_c 13.807595
_cell_angle_alpha 90.000000
_cell_angle_beta 69.395964
_cell_angle_gamma 90.000000
_cell_volume 1318.916657
_symmetry_space_group_name_H-M "C 2/C"
_symmetry_group_IT_number 15
_symmetry_cell_setting 'monoclinic'
loop_
_space_group_symop_operation_xyz
x,y,z
-x,y,1/2-z
-x,-y,-z
x,-y,1/2+z
1/2+x,1/2+y,z
1/2-x,1/2+y,1/2-z
1/2-x,1/2-y,-z
1/2+x,1/2-y,1/2+z
loop_
_atom_site_type_symbol
_atom_site_label
_atom_site_fract_x
_atom_site_fract_y
_atom_site_fract_z
Si Si1 0.357171 0.999421 0.197224
Si Si2 0.582042 0.626611 0.191006
Si Si3 0.452838 0.252286 0.009241
Si Si4 0.233032 0.209199 0.618966
O O1 0.295350 0.058261 0.308998
O O2 0.417025 0.831848 0.226090
O O3 0.311193 0.871313 0.133347
O O4 0.393051 0.230993 0.126473
O O5 0.500000 0.491823 0.250000
O O6 0.417551 0.733759 0.418192
O O7 0.660157 0.472217 0.162973
O O8 0.500000 0.500000 0.000000
O O9 0.500000 0.000000 0.000000
O O10 0.250000 0.250000 0.500000
#
# Coordination Sequence:
#
# PCOD9308350 Si02
#       4
#     8   8   8   8
#     4  12  27  50  78 119 164 220 280 347 422 505
#     4  12  27  50  84 117 162 220 282 349 421 504
#     4  12  29  51  83 121 167 216 278 349 420 497
#     4  12  29  49  82 116 168 222 280 347 430 503
#
# _framework density 24.262336000000001
#
# number of rings (size 3 to 8) (size 9 to 14) (size 15 to 20)
#    0.000    0.000    5.000    3.000   10.500    3.000 
#    0.000    0.000    0.000    0.000    0.000    0.000 
#    0.000    0.000    0.000    0.000    0.000    0.000 
#
# Total GULP energy -89590.592499 kJ/mol
# GULP energy per Si atom -5599.412031 kJ/mol
# Density = 2.420711 g / cm^3
# Si number density = 24.262336 Si / 1000 Ang^3
#
#
#
# Elastic Constant Matrix: (Units=GPa)
#
#
# Indices 1 2 3 4 5 6 
#
# 1 104.5563 32.1315 45.4019 0.0000 33.6889 0.0000
# 2 32.1315 75.5004 29.2925 0.0001 14.0028 0.0001
# 3 45.4019 29.2925 199.9663 0.0000 30.6166 0.0000
# 4 0.0000 0.0001 0.0000 50.3812 0.0000 -6.2333
# 5 33.6889 14.0028 30.6166 0.0000 58.5850 0.0000
# 6 0.0000 0.0001 0.0000 -6.2333 0.0000 48.2628
#
#
#
# Elastic Compliance Matrix: (Units=1/GPa)
#
#
# Indices 1 2 3 4 5 6 
#
# 1 0.013371 -0.003992 -0.001543 0.000000 -0.005928 0.000000
# 2 -0.003992 0.015575 -0.001257 0.000000 -0.000770 0.000000
# 3 -0.001543 -0.001257 0.005819 0.000000 -0.001853 0.000000
# 4 0.000000 0.000000 0.000000 0.020171 0.000000 0.002605
# 5 -0.005928 -0.000770 -0.001853 0.000000 0.021631 0.000000
# 6 0.000000 0.000000 0.000000 0.002605 0.000000 0.021056
#
#
# Mechanical properties :
#
#
# Convention : Reuss Voigt Hill
#
# Bulk Modulus (GPa) = 47.21583 65.96385 56.58984
# Shear Modulus (GPa) = 42.27655 49.65893 45.96774
#
# Velocity S-wave (km/s) = 4.17883 4.52901 4.35744
# Velocity P-wave (km/s) = 6.54112 7.38891 6.97790
#
# Compressibility (1/GPa) = 0.02117934
#
# Stress axis : x y z
#
# Youngs Moduli (GPa) = 74.78598 64.20731 171.84612
#
# Poissons Ratio (x) = 0.25634 0.26524
# Poissons Ratio (y) = 0.29857 0.21604
# Poissons Ratio (z) = 0.11543 0.08072
#
# Static dielectric constant tensor:
#      x y z
#    x 2.199350 0.000000 -0.232380 
#    y 0.000000 1.897790 0.000000 
#    z -0.232380 0.000000 2.048070 
# 
# From -- ./inp_files/158191.got.cif
#   From: 2010.05.17/outbox.cif.g08.bks.cpg/sg15_80_cif.got.tgz:158191.got - 2010.06.03 18:47:42.
