data_PCOD9308855
_publ_section_title
;
Structure prediction by ZEFSAII (Michael W. Deem and Ramdas Pophale) SiO2 
 PCOD9308855
Probable space group: C 2/C
;
_chemical_formula_sum "Si O2"
_cell_formula_units_Z 32
_cell_length_a 27.000000
_cell_length_b 18.000000
_cell_length_c 24.000000
_cell_angle_alpha 90.000000
_cell_angle_beta 160.000000
_cell_angle_gamma 90.000000
_cell_volume 3989.322952
_symmetry_space_group_name_H-M "C 2/C"
_symmetry_group_IT_number 15
_symmetry_cell_setting 'monoclinic'
loop_
_space_group_symop_operation_xyz
x,y,z
-x,y,1/2-z
-x,-y,-z
x,-y,1/2+z
1/2+x,1/2+y,z
1/2-x,1/2+y,1/2-z
1/2-x,1/2-y,-z
1/2+x,1/2-y,1/2+z
loop_
_atom_site_type_symbol
_atom_site_label
_atom_site_fract_x
_atom_site_fract_y
_atom_site_fract_z
Si Si1 0.700433 0.414563 0.186833
Si Si2 0.091513 0.157768 0.146412
Si Si3 0.645256 0.942102 0.600397
Si Si4 0.740906 0.651098 0.531252
Si Si5 0.071160 0.796372 0.752019
Si Si6 0.635558 0.139450 0.208233
Si Si7 0.341496 0.974439 0.223017
Si Si8 0.355519 0.232528 0.897245
O O1 0.766652 0.481976 0.293268
O O2 0.753560 0.436045 0.180902
O O3 0.757615 0.335923 0.271506
O O4 0.528571 0.402208 0.999946
O O5 0.245732 0.117494 0.309627
O O6 0.068357 0.188617 0.183467
O O7 0.088738 0.223843 0.098481
O O8 0.601527 0.903841 0.613551
O O9 0.508391 0.958323 0.416633
O O10 0.868413 0.712795 0.672639
O O11 0.593437 0.685451 0.402905
O O12 0.683836 0.651059 0.406441
O O13 0.789699 0.573706 0.613525
O O14 0.763891 0.201827 0.333119
O O15 0.672895 0.066335 0.287115
O O16 0.493011 0.189906 0.071330
#
# Coordination Sequence:
#
# PCOD9308855 Si02
#       8
#     8   8   8   8   8   8   8   8
#     4  11  18  33  47  69 104 138 170 209 248 312
#     4  11  22  30  49  72 103 138 169 210 255 304
#     4  10  21  31  48  71 102 139 174 204 255 312
#     4  10  22  37  55  71 103 138 175 225 258 299
#     4  10  22  37  51  77 100 133 183 216 255 302
#     4  10  20  32  47  72 104 140 174 208 250 313
#     4  11  19  35  52  70 101 145 178 210 265 307
#     4  11  19  30  47  73 102 138 174 206 246 310
#
# _framework density 8.0214110000000005
#
# number of rings (size 3 to 8) (size 9 to 14) (size 15 to 20)
#    0.000    1.500    5.000    1.875    1.750    0.000 
#    0.000    0.000    0.000    0.000    0.000    0.000 
#    0.000    9.000    0.000    0.000    0.000    0.000 
#
# Total GULP energy -178191.623027 kJ/mol
# GULP energy per Si atom -5568.488220 kJ/mol
# Density = 0.800315 g / cm^3
# Si number density = 8.021411 Si / 1000 Ang^3
#
#
#
# Elastic Constant Matrix: (Units=GPa)
#
#
# Indices 1 2 3 4 5 6 
#
# 1 24.6527 11.4448 11.8423 -0.0006 -3.4083 -0.0004
# 2 11.4448 116.7341 31.9548 -0.0001 -2.1778 -0.0002
# 3 11.8423 31.9548 77.6828 0.0044 4.6023 0.0029
# 4 -0.0006 -0.0001 0.0044 40.2353 0.0016 -0.8877
# 5 -3.4083 -2.1778 4.6023 0.0016 20.3182 0.0009
# 6 -0.0004 -0.0002 0.0029 -0.8877 0.0009 26.9052
#
#
#
# Elastic Compliance Matrix: (Units=1/GPa)
#
#
# Indices 1 2 3 4 5 6 
#
# 1 0.046116 -0.002575 -0.006500 0.000001 0.008932 0.000001
# 2 -0.002575 0.009875 -0.003757 0.000000 0.001477 0.000000
# 3 -0.006500 -0.003757 0.015708 -0.000002 -0.005051 -0.000002
# 4 0.000001 0.000000 -0.000002 0.024872 -0.000001 0.000821
# 5 0.008932 0.001477 -0.005051 -0.000001 0.052018 -0.000001
# 6 0.000001 0.000000 -0.000002 0.000821 -0.000001 0.037195
#
#
# Mechanical properties :
#
#
# Convention : Reuss Voigt Hill
#
# Bulk Modulus (GPa) = 21.72258 36.61706 29.16982
# Shear Modulus (GPa) = 22.04645 28.41357 25.23001
#
# Velocity S-wave (km/s) = 3.71108 4.21302 3.96999
# Velocity P-wave (km/s) = 5.65089 6.82203 6.26389
#
# Compressibility (1/GPa) = 0.04603504
#
# Stress axis : x y z
#
# Youngs Moduli (GPa) = 21.68428 101.26605 63.65998
#
# Poissons Ratio (x) = 0.26080 0.41379
# Poissons Ratio (y) = 0.05585 0.23917
# Poissons Ratio (z) = 0.14095 0.38046
#
# Static dielectric constant tensor:
#      x y z
#    x 1.567870 0.000000 0.031660 
#    y 0.000000 1.545380 0.000000 
#    z 0.031660 0.000000 1.564840 
# 
# From -- ./inp_files/62499.got.cif
#   From: 2010.05.17/outbox.ucp.g08.bks.cvg/sg15_32_cif.got.tgz:62499.got - 2010.06.11 12:40:34.
