data_PCOD9308270
_publ_section_title
;
Structure prediction by ZEFSAII (Michael W. Deem and Ramdas Pophale) SiO2 
 PCOD9308270
Probable space group: C 2/C
;
_chemical_formula_sum "Si O2"
_cell_formula_units_Z 20
_cell_length_a 8.141817
_cell_length_b 19.412332
_cell_length_c 5.049476
_cell_angle_alpha 90.000000
_cell_angle_beta 102.856141
_cell_angle_gamma 90.000000
_cell_volume 778.071660
_symmetry_space_group_name_H-M "C 2/C"
_symmetry_group_IT_number 15
_symmetry_cell_setting 'monoclinic'
loop_
_space_group_symop_operation_xyz
x,y,z
-x,y,1/2-z
-x,-y,-z
x,-y,1/2+z
1/2+x,1/2+y,z
1/2-x,1/2+y,1/2-z
1/2-x,1/2-y,-z
1/2+x,1/2-y,1/2+z
loop_
_atom_site_type_symbol
_atom_site_label
_atom_site_fract_x
_atom_site_fract_y
_atom_site_fract_z
Si Si1 0.187246 0.172396 0.433949
Si Si2 0.263049 0.546558 0.674909
Si Si3 0.500000 0.894266 0.750000
O O1 0.250000 0.250000 0.500000
O O2 0.179101 0.119601 0.680162
O O3 0.335201 0.144750 0.294693
O O4 0.000000 0.173694 0.250000
O O5 0.311773 0.509521 0.415609
O O6 0.071328 0.564036 0.523304
#
# Coordination Sequence:
#
# PCOD9308270 Si02
#       3
#     8   8   4
#     4  12  30  53  82 120 162 215 274 335 405 485
#     4  12  26  51  85 123 165 216 269 334 407 483
#     4  12  26  52  86 114 168 210 270 334 404 482
#
# _framework density 25.704574000000001
#
# number of rings (size 3 to 8) (size 9 to 14) (size 15 to 20)
#    0.000    0.000    4.000    4.800    0.000    9.600 
#    0.000    0.000    0.000    0.000    0.000    0.000 
#    0.000    0.000    0.000    0.000    0.000    0.000 
#
# Total GULP energy -55821.230551 kJ/mol
# GULP energy per Si atom -5582.123055 kJ/mol
# Density = 2.564607 g / cm^3
# Si number density = 25.704574 Si / 1000 Ang^3
#
#
#
# Elastic Constant Matrix: (Units=GPa)
#
#
# Indices 1 2 3 4 5 6 
#
# 1 209.0863 61.5934 93.5515 0.0000 41.1455 0.0000
# 2 61.5934 195.3839 93.9482 0.0000 46.4020 0.0000
# 3 93.5515 93.9482 242.0282 0.0000 35.3080 0.0000
# 4 0.0000 0.0000 0.0000 37.5383 0.0000 12.6992
# 5 41.1455 46.4020 35.3080 0.0000 62.1836 0.0000
# 6 0.0000 0.0000 0.0000 12.6992 0.0000 31.4481
#
#
#
# Elastic Compliance Matrix: (Units=1/GPa)
#
#
# Indices 1 2 3 4 5 6 
#
# 1 0.006288 -0.000427 -0.001858 0.000000 -0.002787 0.000000
# 2 -0.000427 0.007163 -0.002046 0.000000 -0.003901 0.000000
# 3 -0.001858 -0.002046 0.005716 0.000000 -0.000489 0.000000
# 4 0.000000 0.000000 0.000000 0.030854 0.000000 -0.012459
# 5 -0.002787 -0.003901 -0.000489 0.000000 0.021114 0.000000
# 6 0.000000 0.000000 0.000000 -0.012459 0.000000 0.036830
#
#
# Mechanical properties :
#
#
# Convention : Reuss Voigt Hill
#
# Bulk Modulus (GPa) = 95.20295 127.18718 111.19506
# Shear Modulus (GPa) = 41.62157 52.72769 47.17463
#
# Velocity S-wave (km/s) = 4.02833 4.53404 4.28864
# Velocity P-wave (km/s) = 7.66514 8.77484 8.23869
#
# Compressibility (1/GPa) = 0.01050388
#
# Stress axis : x y z
#
# Youngs Moduli (GPa) = 159.02200 139.60425 174.95571
#
# Poissons Ratio (x) = 0.05959 0.32513
# Poissons Ratio (y) = 0.06788 0.35804
# Poissons Ratio (z) = 0.29552 0.28569
#
# Static dielectric constant tensor:
#      x y z
#    x 2.121000 0.000000 -0.084070 
#    y 0.000000 2.079680 0.000000 
#    z -0.084070 0.000000 2.017600 
# 
# From -- ./inp_files/894.got.cif
#   From: 2010.05.17/outbox.cif.g08.bks.cpg/sg15_1_cif.got.tgz:894.got - 2010.06.03 18:47:42.
