data_PCOD9308086
_publ_section_title
;
Structure prediction by ZEFSAII (Michael W. Deem and Ramdas Pophale) SiO2 
 PCOD9308086
Probable space group: C 2/C
;
_chemical_formula_sum "Si O2"
_cell_formula_units_Z 48
_cell_length_a 20.873931
_cell_length_b 10.818534
_cell_length_c 8.788941
_cell_angle_alpha 90.000000
_cell_angle_beta 103.289407
_cell_angle_gamma 90.000000
_cell_volume 1931.616256
_symmetry_space_group_name_H-M "C 2/C"
_symmetry_group_IT_number 15
_symmetry_cell_setting 'monoclinic'
loop_
_space_group_symop_operation_xyz
x,y,z
-x,y,1/2-z
-x,-y,-z
x,-y,1/2+z
1/2+x,1/2+y,z
1/2-x,1/2+y,1/2-z
1/2-x,1/2-y,-z
1/2+x,1/2-y,1/2+z
loop_
_atom_site_type_symbol
_atom_site_label
_atom_site_fract_x
_atom_site_fract_y
_atom_site_fract_z
Si Si1 0.633247 0.007700 0.170168
Si Si2 0.442836 0.407160 0.026020
Si Si3 0.942168 0.378828 0.603606
Si Si4 0.256469 0.358277 0.133114
Si Si5 0.820255 0.251213 0.957971
Si Si6 0.862368 0.947489 0.693741
O O1 0.689506 0.901431 0.182674
O O2 0.620382 0.076929 0.323846
O O3 0.653223 0.115388 0.064926
O O4 0.569121 0.946568 0.061534
O O5 0.379969 0.415427 0.875863
O O6 0.500000 0.500000 0.000000
O O7 0.454660 0.263268 0.062383
O O8 0.418131 0.459221 0.171679
O O9 0.000000 0.410239 0.750000
O O10 0.306679 0.309294 0.287611
O O11 0.293217 0.487106 0.112232
O O12 0.250000 0.250000 0.000000
O O13 0.750000 0.250000 0.000000
O O14 0.867781 0.172771 0.090993
#
# Coordination Sequence:
#
# PCOD9308086 Si02
#       6
#     8   8   8   8   8   8
#     4  12  27  49  77 115 157 203 261 318 398 472
#     4  12  28  52  80 112 153 211 272 327 391 466
#     4  12  29  52  79 111 155 207 267 326 392 468
#     4  12  27  47  79 115 154 203 250 324 392 477
#     4  12  26  43  71 113 154 199 251 311 397 470
#     4  12  26  48  74 114 155 198 262 324 397 471
#
# _framework density 24.849654999999998
#
# number of rings (size 3 to 8) (size 9 to 14) (size 15 to 20)
#    0.000    0.000    3.333    6.000   11.667    0.000 
#    0.000    0.833    0.000    0.000    0.000    0.000 
#    0.000    0.000    0.000    0.000    0.000    0.000 
#
# Total GULP energy -134110.810699 kJ/mol
# GULP energy per Si atom -5587.950446 kJ/mol
# Density = 2.479310 g / cm^3
# Si number density = 24.849655 Si / 1000 Ang^3
#
#
#
# Elastic Constant Matrix: (Units=GPa)
#
#
# Indices 1 2 3 4 5 6 
#
# 1 67.4881 38.0259 14.4642 0.0000 -1.2049 0.0000
# 2 38.0259 150.2846 49.7472 0.0000 -1.9009 0.0000
# 3 14.4642 49.7472 121.9255 0.0000 6.2222 0.0000
# 4 0.0000 0.0000 0.0000 56.0124 0.0000 -6.6856
# 5 -1.2049 -1.9009 6.2222 0.0000 39.9526 0.0000
# 6 0.0000 0.0000 0.0000 -6.6856 0.0000 30.3229
#
#
#
# Elastic Compliance Matrix: (Units=1/GPa)
#
#
# Indices 1 2 3 4 5 6 
#
# 1 0.017297 -0.004262 -0.000332 0.000000 0.000371 0.000000
# 2 -0.004262 0.008773 -0.003113 0.000000 0.000774 0.000000
# 3 -0.000332 -0.003113 0.009596 0.000000 -0.001653 0.000000
# 4 0.000000 0.000000 0.000000 0.018336 0.000000 0.004043
# 5 0.000371 0.000774 -0.001653 0.000000 0.025335 0.000000
# 6 0.000000 0.000000 0.000000 0.004043 0.000000 0.033870
#
#
# Mechanical properties :
#
#
# Convention : Reuss Voigt Hill
#
# Bulk Modulus (GPa) = 49.38079 60.46364 54.92221
# Shear Modulus (GPa) = 36.93581 41.08830 39.01205
#
# Velocity S-wave (km/s) = 3.85953 4.07071 3.96652
# Velocity P-wave (km/s) = 6.30684 6.81754 6.56716
#
# Compressibility (1/GPa) = 0.02025079
#
# Stress axis : x y z
#
# Youngs Moduli (GPa) = 57.81500 113.98919 104.21338
#
# Poissons Ratio (x) = 0.48581 0.03459
# Poissons Ratio (y) = 0.24640 0.32445
# Poissons Ratio (z) = 0.01919 0.35488
#
# Static dielectric constant tensor:
#      x y z
#    x 2.115230 0.000000 0.019480 
#    y 0.000000 2.109300 0.000000 
#    z 0.019480 0.000000 2.013010 
# 
# From -- ./inp_files/60676.got.cif
#   From: 2010.05.17/outbox.cif.g08.bks.cpg/sg15_31_cif.got.tgz:60676.got - 2010.06.03 18:47:42.
