data_PCOD9308414
_publ_section_title
;
Structure prediction by ZEFSAII (Michael W. Deem and Ramdas Pophale) SiO2 
 PCOD9308414
Probable space group: C 2/C
;
_chemical_formula_sum "Si O2"
_cell_formula_units_Z 20
_cell_length_a 4.850679
_cell_length_b 25.938046
_cell_length_c 6.158906
_cell_angle_alpha 90.000000
_cell_angle_beta 94.791295
_cell_angle_gamma 90.000000
_cell_volume 772.188081
_symmetry_space_group_name_H-M "C 2/C"
_symmetry_group_IT_number 15
_symmetry_cell_setting 'monoclinic'
loop_
_space_group_symop_operation_xyz
x,y,z
-x,y,1/2-z
-x,-y,-z
x,-y,1/2+z
1/2+x,1/2+y,z
1/2-x,1/2+y,1/2-z
1/2-x,1/2-y,-z
1/2+x,1/2-y,1/2+z
loop_
_atom_site_type_symbol
_atom_site_label
_atom_site_fract_x
_atom_site_fract_y
_atom_site_fract_z
Si Si1 0.737702 0.808005 0.589404
Si Si2 0.212921 0.044673 0.099422
Si Si3 0.500000 0.887422 0.250000
O O1 0.500000 0.813247 0.750000
O O2 0.750000 0.750000 0.500000
O O3 0.694842 0.849180 0.398002
O O4 0.000000 0.816488 0.750000
O O5 0.500000 0.030242 0.250000
O O6 0.000000 0.072395 0.250000
O O7 0.324950 0.077963 0.906300
O O8 0.000000 0.000000 0.000000
#
# Coordination Sequence:
#
# PCOD9308414 Si02
#       3
#     8   8   4
#     4  12  28  55  87 127 176 231 291 364 439 524
#     4  12  32  59  89 127 177 237 303 375 447 527
#     4  12  32  56  92 128 184 232 300 362 446 534
#
# _framework density 25.900427000000001
#
# number of rings (size 3 to 8) (size 9 to 14) (size 15 to 20)
#    0.000    0.000    2.000    3.600    8.400    9.600 
#    7.200    0.000    0.000    0.000    0.000    0.000 
#    0.000    0.000    0.000    0.000    0.000    0.000 
#
# Total GULP energy -56129.895212 kJ/mol
# GULP energy per Si atom -5612.989521 kJ/mol
# Density = 2.584148 g / cm^3
# Si number density = 25.900427 Si / 1000 Ang^3
#
#
#
# Elastic Constant Matrix: (Units=GPa)
#
#
# Indices 1 2 3 4 5 6 
#
# 1 270.0363 100.2858 133.8658 0.0000 15.5469 0.0000
# 2 100.2858 228.3003 149.4490 0.0000 16.2110 0.0000
# 3 133.8658 149.4490 245.2713 0.0000 21.6585 0.0000
# 4 0.0000 0.0000 0.0000 59.5338 0.0000 -3.2530
# 5 15.5469 16.2110 21.6585 0.0000 86.3342 0.0000
# 6 0.0000 0.0000 0.0000 -3.2530 0.0000 44.8107
#
#
#
# Elastic Compliance Matrix: (Units=1/GPa)
#
#
# Indices 1 2 3 4 5 6 
#
# 1 0.005147 -0.000698 -0.002366 0.000000 -0.000202 0.000000
# 2 -0.000698 0.007387 -0.004100 0.000000 -0.000233 0.000000
# 3 -0.002366 -0.004100 0.007937 0.000000 -0.000795 0.000000
# 4 0.000000 0.000000 0.000000 0.016864 0.000000 0.001224
# 5 -0.000202 -0.000233 -0.000795 0.000000 0.011863 0.000000
# 6 0.000000 0.000000 0.000000 0.001224 0.000000 0.022405
#
#
# Mechanical properties :
#
#
# Convention : Reuss Voigt Hill
#
# Bulk Modulus (GPa) = 162.76933 167.86767 165.31850
# Shear Modulus (GPa) = 56.83300 62.13623 59.48461
#
# Velocity S-wave (km/s) = 4.68940 4.90332 4.79755
# Velocity P-wave (km/s) = 9.60736 9.84937 9.72912
#
# Compressibility (1/GPa) = 0.00614366
#
# Stress axis : x y z
#
# Youngs Moduli (GPa) = 194.29070 135.37508 125.99511
#
# Poissons Ratio (x) = 0.09443 0.29813
# Poissons Ratio (y) = 0.13553 0.51654
# Poissons Ratio (z) = 0.45973 0.55500
#
# Static dielectric constant tensor:
#      x y z
#    x 1.961990 0.000000 0.024360 
#    y 0.000000 2.112280 0.000000 
#    z 0.024360 0.000000 2.116080 
# 
# From -- ./inp_files/659.got.cif
#   From: 2010.05.17/outbox.cif.g08.bks.cpg/sg15_1_cif.got.tgz:659.got - 2010.06.03 18:47:42.
