data_PCOD9308410
_publ_section_title
;
Structure prediction by ZEFSAII (Michael W. Deem and Ramdas Pophale) SiO2 
 PCOD9308410
Probable space group: C 2/C
;
_chemical_formula_sum "Si O2"
_cell_formula_units_Z 28
_cell_length_a 24.396477
_cell_length_b 4.882225
_cell_length_c 14.771363
_cell_angle_alpha 90.000000
_cell_angle_beta 146.719274
_cell_angle_gamma 90.000000
_cell_volume 965.457994
_symmetry_space_group_name_H-M "C 2/C"
_symmetry_group_IT_number 15
_symmetry_cell_setting 'monoclinic'
loop_
_space_group_symop_operation_xyz
x,y,z
-x,y,1/2-z
-x,-y,-z
x,-y,1/2+z
1/2+x,1/2+y,z
1/2-x,1/2+y,1/2-z
1/2-x,1/2-y,-z
1/2+x,1/2-y,1/2+z
loop_
_atom_site_type_symbol
_atom_site_label
_atom_site_fract_x
_atom_site_fract_y
_atom_site_fract_z
Si Si1 0.208892 0.247477 0.324481
Si Si2 0.593762 0.554445 0.503598
Si Si3 0.500000 0.986415 0.250000
Si Si4 0.383358 0.269599 0.214205
O O1 0.314949 0.353442 0.436674
O O2 0.160586 0.060623 0.178462
O O3 0.147935 0.521932 0.264302
O O4 0.192753 0.023421 0.382656
O O5 0.522446 0.803113 0.368006
O O6 0.497394 0.358115 0.389547
O O7 0.402714 0.168996 0.137478
#
# Coordination Sequence:
#
# PCOD9308410 Si02
#       4
#     8   8   4   8
#     4  12  29  49  92 113 162 214 280 322 410 471
#     4  12  29  56  80 127 158 213 273 342 387 502
#     4  12  30  52  80 118 182 200 270 334 412 472
#     4  12  28  53  81 125 159 218 262 344 398 479
#
# _framework density 29.001781000000001
#
# number of rings (size 3 to 8) (size 9 to 14) (size 15 to 20)
#    0.000    0.000    2.857    4.286   12.000    2.286 
#    0.000    0.000    0.000    0.000    0.000    0.000 
#    0.000    0.000    0.000    0.000    0.000    0.000 
#
# Total GULP energy -78034.909852 kJ/mol
# GULP energy per Si atom -5573.922132 kJ/mol
# Density = 2.893577 g / cm^3
# Si number density = 29.001781 Si / 1000 Ang^3
#
#
#
# Elastic Constant Matrix: (Units=GPa)
#
#
# Indices 1 2 3 4 5 6 
#
# 1 147.4652 92.8850 73.2842 0.0011 56.9026 0.0138
# 2 92.8850 256.0316 61.2523 0.0049 19.8804 0.0556
# 3 73.2842 61.2523 125.1726 0.0004 27.2780 0.0050
# 4 0.0011 0.0049 0.0004 33.8207 0.0011 218.0220
# 5 56.9026 19.8804 27.2780 0.0011 64.5327 0.0133
# 6 0.0138 0.0556 0.0050 218.0220 0.0133 1819.5182
#
#
#
# Elastic Compliance Matrix: (Units=1/GPa)
#
#
# Indices 1 2 3 4 5 6 
#
# 1 0.015686 -0.003652 -0.005097 0.000000 -0.010552 0.000000
# 2 -0.003652 0.005288 -0.000877 0.000001 0.001962 0.000000
# 3 -0.005097 -0.000877 0.011416 0.000000 -0.000061 0.000000
# 4 0.000000 0.000001 0.000000 0.129931 0.000001 -0.015569
# 5 -0.010552 0.001962 -0.000061 0.000001 0.024222 0.000000
# 6 0.000000 0.000000 0.000000 -0.015569 0.000000 0.002415
#
#
# Mechanical properties :
#
#
# Convention : Reuss Voigt Hill
#
# Bulk Modulus (GPa) = 76.11816 109.27915 92.69865
# Shear Modulus (GPa) = 23.51949 403.65751 213.58850
#
# Velocity S-wave (km/s) = 2.85084 11.81041 8.59107
# Velocity P-wave (km/s) = 6.09421 14.95804 11.42109
#
# Compressibility (1/GPa) = 0.01313747
#
# Stress axis : x y z
#
# Youngs Moduli (GPa) = 63.74930 189.10059 87.59908
#
# Poissons Ratio (x) = 0.69060 0.44651
# Poissons Ratio (y) = 0.23282 0.07684
# Poissons Ratio (z) = 0.32494 0.16587
#
# Static dielectric constant tensor:
#      x y z
#    x 2.426180 0.000000 -0.230500 
#    y 0.000000 2.403360 0.000000 
#    z -0.230500 0.000000 2.351110 
# 
# From -- ./inp_files/221082.got.cif
#   From: 2010.05.17/outbox.cif.g08.bks.cpg/sg15_111_cif.got.tgz:221082.got - 2010.06.03 18:47:42.
