data_PCOD9308931
_publ_section_title
;
Structure prediction by ZEFSAII (Michael W. Deem and Ramdas Pophale) SiO2 
 PCOD9308931
Probable space group: C 2/C
;
_chemical_formula_sum "Si O2"
_cell_formula_units_Z 30
_cell_length_a 18.000000
_cell_length_b 18.000000
_cell_length_c 12.000000
_cell_angle_alpha 90.000000
_cell_angle_beta 60.000000
_cell_angle_gamma 90.000000
_cell_volume 3367.106770
_symmetry_space_group_name_H-M "C 2/C"
_symmetry_group_IT_number 15
_symmetry_cell_setting 'monoclinic'
loop_
_space_group_symop_operation_xyz
x,y,z
-x,y,1/2-z
-x,-y,-z
x,-y,1/2+z
1/2+x,1/2+y,z
1/2-x,1/2+y,1/2-z
1/2-x,1/2-y,-z
1/2+x,1/2-y,1/2+z
loop_
_atom_site_type_symbol
_atom_site_label
_atom_site_fract_x
_atom_site_fract_y
_atom_site_fract_z
Si Si1 0.899898 0.137794 0.793868
Si Si2 0.643046 0.112726 0.484456
Si Si3 0.901226 0.015854 0.601406
Si Si4 0.849623 0.512900 0.230925
Si Si5 0.266533 0.386979 0.094272
Si Si6 0.192533 0.254945 0.796642
Si Si7 0.000000 0.552681 0.750000
Si Si8 0.293759 0.381274 0.601246
O O1 0.892794 0.064199 0.720803
O O2 0.862958 0.207303 0.750273
O O3 0.000000 0.147689 0.750000
O O4 0.843977 0.129222 0.948161
O O5 0.647409 0.043983 0.395744
O O6 0.726753 0.114743 0.500971
O O7 0.639664 0.185196 0.409088
O O8 0.562969 0.101594 0.626391
O O9 0.855883 0.068464 0.541786
O O10 0.850654 0.937347 0.635040
O O11 0.000000 0.000000 0.500000
O O12 0.797855 0.436290 0.281844
O O13 0.795039 0.572505 0.344043
O O14 0.941602 0.498063 0.214525
O O15 0.272452 0.305948 0.143018
O O16 0.265772 0.304192 0.680263
#
# Coordination Sequence:
#
# PCOD9308931 Si02
#       8
#     8   8   8   8   8   8   4   8
#     4  11  22  41  62  90 127 157 199 257 309 359
#     4  10  20  40  57  85 119 155 202 243 292 362
#     4  10  20  37  60  89 116 153 204 255 299 351
#     4   9  20  37  61  89 115 151 202 249 297 356
#     4   9  20  36  62  83 116 160 196 250 299 352
#     4  10  22  39  59  86 122 163 199 241 300 373
#     4  10  20  36  60  86 120 152 196 254 294 344
#     4  10  21  39  62  89 119 158 204 245 303 368
#
# _framework density 8.9097259999999991
#
# number of rings (size 3 to 8) (size 9 to 14) (size 15 to 20)
#    0.000    2.133    1.333    1.200    0.000   12.800 
#    9.600    0.000    0.000    0.000    0.000    0.000 
#    0.000    0.000    0.000    0.000    0.000    0.000 
#
# Total GULP energy -167301.575543 kJ/mol
# GULP energy per Si atom -5576.719185 kJ/mol
# Density = 0.888945 g / cm^3
# Si number density = 8.909726 Si / 1000 Ang^3
#
#
#
# Elastic Constant Matrix: (Units=GPa)
#
#
# Indices 1 2 3 4 5 6 
#
# 1 132.2229 52.4090 52.9503 0.0000 2.3499 0.0000
# 2 52.4090 114.4683 51.3342 0.0000 8.6928 0.0000
# 3 52.9503 51.3342 134.9912 0.0000 3.7875 0.0000
# 4 0.0000 0.0000 0.0000 30.0944 0.0000 4.7420
# 5 2.3499 8.6928 3.7875 0.0000 25.6963 0.0000
# 6 0.0000 0.0000 0.0000 4.7420 0.0000 20.0210
#
#
#
# Elastic Compliance Matrix: (Units=1/GPa)
#
#
# Indices 1 2 3 4 5 6 
#
# 1 0.009962 -0.003435 -0.002619 0.000000 0.000637 0.000000
# 2 -0.003435 0.011950 -0.003105 0.000000 -0.003271 0.000000
# 3 -0.002619 -0.003105 0.009620 0.000000 -0.000128 0.000000
# 4 0.000000 0.000000 0.000000 0.034517 0.000000 -0.008175
# 5 0.000637 -0.003271 -0.000128 0.000000 0.039983 0.000000
# 6 0.000000 0.000000 0.000000 -0.008175 0.000000 0.051884
#
#
# Mechanical properties :
#
#
# Convention : Reuss Voigt Hill
#
# Bulk Modulus (GPa) = 75.68372 77.22994 76.45683
# Shear Modulus (GPa) = 27.67967 30.16161 28.92064
#
# Velocity S-wave (km/s) = 3.94552 4.11861 4.03299
# Velocity P-wave (km/s) = 7.95744 8.12722 8.04278
#
# Compressibility (1/GPa) = 0.01321288
#
# Stress axis : x y z
#
# Youngs Moduli (GPa) = 100.38090 83.68528 103.95345
#
# Poissons Ratio (x) = 0.28744 0.27229
# Poissons Ratio (y) = 0.34479 0.32278
# Poissons Ratio (z) = 0.26293 0.25985
#
# Static dielectric constant tensor:
#      x y z
#    x 1.631700 0.000000 -0.000740 
#    y 0.000000 1.607880 0.000000 
#    z -0.000740 0.000000 1.599330 
# 
# From -- ./inp_files/106690.got.cif
#   From: 2010.05.17/outbox.ucp.g08.bks.cvg/sg15_54_cif.got.tgz:106690.got - 2010.06.11 12:40:34.
