data_PCOD9308856
_publ_section_title
;
Structure prediction by ZEFSAII (Michael W. Deem and Ramdas Pophale) SiO2 
 PCOD9308856
Probable space group: C 2/C
;
_chemical_formula_sum "Si O2"
_cell_formula_units_Z 32
_cell_length_a 27.000000
_cell_length_b 18.000000
_cell_length_c 24.000000
_cell_angle_alpha 90.000000
_cell_angle_beta 20.000000
_cell_angle_gamma 90.000000
_cell_volume 3989.322952
_symmetry_space_group_name_H-M "C 2/C"
_symmetry_group_IT_number 15
_symmetry_cell_setting 'monoclinic'
loop_
_space_group_symop_operation_xyz
x,y,z
-x,y,1/2-z
-x,-y,-z
x,-y,1/2+z
1/2+x,1/2+y,z
1/2-x,1/2+y,1/2-z
1/2-x,1/2-y,-z
1/2+x,1/2-y,1/2+z
loop_
_atom_site_type_symbol
_atom_site_label
_atom_site_fract_x
_atom_site_fract_y
_atom_site_fract_z
Si Si1 0.381700 0.260023 0.131392
Si Si2 0.773819 0.591387 0.741943
Si Si3 0.742982 0.041272 0.316989
Si Si4 0.037525 0.006547 0.063246
Si Si5 0.292001 0.760639 0.390027
Si Si6 0.484782 0.357792 0.833149
Si Si7 0.500099 0.153548 0.908892
Si Si8 0.356213 0.644218 0.096431
O O1 0.276494 0.329321 0.228809
O O2 0.286558 0.195670 0.262596
O O3 0.440550 0.220698 0.011958
O O4 0.513841 0.298608 0.025394
O O5 0.826289 0.530113 0.641583
O O6 0.888887 0.609368 0.668222
O O7 0.633667 0.552092 0.916987
O O8 0.626921 0.094699 0.469368
O O9 0.816176 0.095697 0.193577
O O10 0.871309 0.008849 0.219096
O O11 0.045912 0.061361 0.108011
O O12 0.095955 0.920849 0.998149
O O13 0.250000 0.750000 0.500000
O O14 0.369594 0.680997 0.295586
O O15 0.415595 0.816470 0.234797
O O16 0.146816 0.798296 0.517992
O O17 0.500000 0.364030 0.750000
#
# Coordination Sequence:
#
# PCOD9308856 Si02
#       8
#     8   8   8   8   8   8   8   8
#     4  11  19  30  47  73 103 132 174 204 252 311
#     4  11  18  33  48  70 107 137 172 213 253 321
#     4  10  21  31  49  74 103 139 175 206 260 317
#     4  11  19  35  53  70 105 136 171 211 266 310
#     4  10  22  37  51  73 102 134 182 223 255 297
#     4  10  22  37  55  75  99 135 179 222 262 306
#     4  11  22  30  50  72 104 141 174 212 261 302
#     4  10  20  32  47  73 103 137 165 208 248 316
#
# _framework density 8.0214110000000005
#
# number of rings (size 3 to 8) (size 9 to 14) (size 15 to 20)
#    0.000    1.500    5.000    1.875    1.750    0.000 
#    0.000    0.000    0.000    0.000    0.000    0.875 
#    0.000    0.000    0.000    0.000    0.000    0.000 
#
# Total GULP energy -178184.597888 kJ/mol
# GULP energy per Si atom -5568.268684 kJ/mol
# Density = 0.800315 g / cm^3
# Si number density = 8.021411 Si / 1000 Ang^3
#
#
#
# Elastic Constant Matrix: (Units=GPa)
#
#
# Indices 1 2 3 4 5 6 
#
# 1 36.9005 27.3796 24.0350 0.0008 -1.3656 0.0002
# 2 27.3796 119.2219 47.1418 0.0090 1.3991 -0.0044
# 3 24.0350 47.1418 83.4270 0.0069 2.5069 -0.0031
# 4 0.0008 0.0090 0.0069 40.9141 -0.0021 1.0439
# 5 -1.3656 1.3991 2.5069 -0.0021 21.3797 0.0007
# 6 0.0002 -0.0044 -0.0031 1.0439 0.0007 32.0714
#
#
#
# Elastic Compliance Matrix: (Units=1/GPa)
#
#
# Indices 1 2 3 4 5 6 
#
# 1 0.036081 -0.005377 -0.007463 0.000002 0.003531 -0.000002
# 2 -0.005377 0.011602 -0.004992 -0.000002 -0.000517 0.000001
# 3 -0.007463 -0.004992 0.017022 -0.000002 -0.002146 0.000001
# 4 0.000002 -0.000002 -0.000002 0.024462 0.000003 -0.000796
# 5 0.003531 -0.000517 -0.002146 0.000003 0.047284 -0.000001
# 6 -0.000002 0.000001 0.000001 -0.000796 -0.000001 0.031206
#
#
# Mechanical properties :
#
#
# Convention : Reuss Voigt Hill
#
# Bulk Modulus (GPa) = 34.43188 48.51802 41.47495
# Shear Modulus (GPa) = 23.47423 28.27256 25.87339
#
# Velocity S-wave (km/s) = 3.82936 4.20255 4.02029
# Velocity P-wave (km/s) = 6.40789 7.33874 6.88905
#
# Compressibility (1/GPa) = 0.02904285
#
# Stress axis : x y z
#
# Youngs Moduli (GPa) = 27.71566 86.19022 58.74922
#
# Poissons Ratio (x) = 0.46341 0.43843
# Poissons Ratio (y) = 0.14902 0.29325
# Poissons Ratio (z) = 0.20683 0.43022
#
# Static dielectric constant tensor:
#      x y z
#    x 1.555190 0.000000 -0.027880 
#    y 0.000000 1.544880 0.000000 
#    z -0.027880 0.000000 1.587370 
# 
# From -- ./inp_files/283720.got.cif
#   From: 2010.05.17/outbox.ucp.g08.bks.cvg/sg15_142_cif.got.tgz:283720.got - 2010.06.11 12:40:34.
