data_PCOD9308658
_publ_section_title
;
Structure prediction by ZEFSAII (Michael W. Deem and Ramdas Pophale) SiO2 
 PCOD9308658
Probable space group: C 2/C
;
_chemical_formula_sum "Si O2"
_cell_formula_units_Z 30
_cell_length_a 15.000000
_cell_length_b 9.000000
_cell_length_c 24.000000
_cell_angle_alpha 90.000000
_cell_angle_beta 110.000000
_cell_angle_gamma 90.000000
_cell_volume 3044.604091
_symmetry_space_group_name_H-M "C 2/C"
_symmetry_group_IT_number 15
_symmetry_cell_setting 'monoclinic'
loop_
_space_group_symop_operation_xyz
x,y,z
-x,y,1/2-z
-x,-y,-z
x,-y,1/2+z
1/2+x,1/2+y,z
1/2-x,1/2+y,1/2-z
1/2-x,1/2-y,-z
1/2+x,1/2-y,1/2+z
loop_
_atom_site_type_symbol
_atom_site_label
_atom_site_fract_x
_atom_site_fract_y
_atom_site_fract_z
Si Si1 0.697230 0.350452 0.066502
Si Si2 0.856877 0.776244 0.260984
Si Si3 0.130354 0.860390 0.933308
Si Si4 0.368322 0.107592 0.367109
Si Si5 0.718224 0.457329 0.679189
Si Si6 0.353008 0.472402 0.678173
Si Si7 0.557443 0.798099 0.142429
Si Si8 0.000000 0.272550 0.250000
O O1 0.790955 0.261448 0.067734
O O2 0.632351 0.223891 0.082221
O O3 0.721072 0.473220 0.118048
O O4 0.650595 0.411398 0.000183
O O5 0.911191 0.694463 0.322873
O O6 0.805390 0.641284 0.218420
O O7 0.796028 0.899142 0.283813
O O8 0.890531 0.884415 0.218960
O O9 0.136052 0.983834 0.886053
O O10 0.031007 0.778453 0.905931
O O11 0.256371 0.069253 0.332494
O O12 0.411866 0.945253 0.383656
O O13 0.633600 0.335561 0.664371
O O14 0.414963 0.333644 0.711604
O O15 0.532717 0.850483 0.200383
#
# Coordination Sequence:
#
# PCOD9308658 Si02
#       8
#     8   8   8   8   8   8   8   4
#     4   9  21  41  59  81 109 154 192 236 278 340
#     4  11  18  32  54  87 115 143 181 236 278 345
#     4   9  21  39  61  77 114 153 193 227 291 336
#     4  10  20  33  60  85 111 145 192 231 284 337
#     4  11  20  33  61  87 112 146 195 228 280 339
#     4  10  18  33  56  80 111 151 182 227 277 345
#     4  11  20  35  59  86 110 152 189 233 282 347
#     4  10  20  34  52  84 118 148 180 228 298 340
#
# _framework density 9.8534980000000001
#
# number of rings (size 3 to 8) (size 9 to 14) (size 15 to 20)
#    0.000    1.867    4.000    0.000    0.000    3.200 
#    0.000    2.667    0.000    0.000    0.000    0.000 
#    0.000    0.000    0.000    0.000    0.000    0.000 
#
# Total GULP energy -167174.128308 kJ/mol
# GULP energy per Si atom -5572.470944 kJ/mol
# Density = 0.983107 g / cm^3
# Si number density = 9.853498 Si / 1000 Ang^3
#
#
#
# Elastic Constant Matrix: (Units=GPa)
#
#
# Indices 1 2 3 4 5 6 
#
# 1 19.5439 -2.8217 10.0134 0.0000 -6.7657 0.0000
# 2 -2.8217 68.8085 5.4210 0.0000 -18.7816 0.0000
# 3 10.0134 5.4210 115.2547 0.0000 -25.9631 0.0000
# 4 0.0000 0.0000 0.0000 27.7973 0.0000 -3.4647
# 5 -6.7657 -18.7816 -25.9631 0.0000 17.9325 0.0000
# 6 0.0000 0.0000 0.0000 -3.4647 0.0000 7.2710
#
#
#
# Elastic Compliance Matrix: (Units=1/GPa)
#
#
# Indices 1 2 3 4 5 6 
#
# 1 0.067853 0.015525 0.004162 0.000000 0.047887 0.000000
# 2 0.015525 0.026790 0.007466 0.000000 0.044725 0.000000
# 3 0.004162 0.007466 0.014957 0.000000 0.031045 0.000000
# 4 0.000000 0.000000 0.000000 0.038246 0.000000 0.018224
# 5 0.047887 0.044725 0.031045 0.000000 0.165623 0.000000
# 6 0.000000 0.000000 0.000000 0.018224 0.000000 0.146216
#
#
# Mechanical properties :
#
#
# Convention : Reuss Voigt Hill
#
# Bulk Modulus (GPa) = 6.10101 25.42584 15.76343
# Shear Modulus (GPa) = 10.86925 23.33315 17.10120
#
# Velocity S-wave (km/s) = 2.35104 3.44467 2.94899
# Velocity P-wave (km/s) = 3.23612 5.36199 4.42851
#
# Compressibility (1/GPa) = 0.16390729
#
# Stress axis : x y z
#
# Youngs Moduli (GPa) = 14.73768 37.32802 66.85757
#
# Poissons Ratio (x) = -0.57954 -0.27825
# Poissons Ratio (y) = -0.22881 -0.49918
# Poissons Ratio (z) = -0.06134 -0.27870
#
# Static dielectric constant tensor:
#      x y z
#    x 1.767810 0.000000 -0.020860 
#    y 0.000000 1.664510 0.000000 
#    z -0.020860 0.000000 1.724000 
# 
# From -- ./inp_files/273212.got.cif
#   From: 2010.05.17/outbox.ucp.g08.bks.cvg/sg15_137_cif.got.tgz:273212.got - 2010.06.11 12:40:34.
