data_PCOD9308551
_publ_section_title
;
Structure prediction by ZEFSAII (Michael W. Deem and Ramdas Pophale) SiO2 
 PCOD9308551
Probable space group: C 2/C
;
_chemical_formula_sum "Si O2"
_cell_formula_units_Z 20
_cell_length_a 13.208642
_cell_length_b 8.400458
_cell_length_c 9.902091
_cell_angle_alpha 90.000000
_cell_angle_beta 138.773810
_cell_angle_gamma 90.000000
_cell_volume 724.094787
_symmetry_space_group_name_H-M "C 2/C"
_symmetry_group_IT_number 15
_symmetry_cell_setting 'monoclinic'
loop_
_space_group_symop_operation_xyz
x,y,z
-x,y,1/2-z
-x,-y,-z
x,-y,1/2+z
1/2+x,1/2+y,z
1/2-x,1/2+y,1/2-z
1/2-x,1/2-y,-z
1/2+x,1/2-y,1/2+z
loop_
_atom_site_type_symbol
_atom_site_label
_atom_site_fract_x
_atom_site_fract_y
_atom_site_fract_z
Si Si1 0.208825 0.485796 0.083301
Si Si2 0.060778 0.256503 0.603646
Si Si3 0.000000 0.714135 0.750000
O O1 0.185462 0.606947 0.185853
O O2 0.361665 0.383998 0.236850
O O3 0.993507 0.200033 0.100721
O O4 0.076617 0.352524 0.967647
O O5 0.150660 0.400938 0.403993
#
# Coordination Sequence:
#
# PCOD9308551 Si02
#       3
#     8   8   4
#     4   9  19  36  53  76 105 132 171 211 248 304
#     4   9  19  36  53  76 105 132 171 211 248 304
#     4   8  18  36  52  74 106 132 164 218 248 290
#
# _framework density 27.620691999999998
#
# number of rings (size 3 to 8) (size 9 to 14) (size 15 to 20)
#    2.400    0.800    0.000    0.000    0.000    4.800 
#    0.000    2.000    0.000    0.000    0.000    0.000 
#    0.000    0.000    0.000    0.000    0.000    0.000 
#
# Total GULP energy -55864.472366 kJ/mol
# GULP energy per Si atom -5586.447237 kJ/mol
# Density = 2.755783 g / cm^3
# Si number density = 27.620692 Si / 1000 Ang^3
#
#
#
# Elastic Constant Matrix: (Units=GPa)
#
#
# Indices 1 2 3 4 5 6 
#
# 1 58.1049 33.2457 26.4222 0.0000 9.4340 0.0000
# 2 33.2457 150.1546 67.1111 0.0000 41.9815 0.0000
# 3 26.4222 67.1111 97.0857 0.0000 -0.4973 0.0000
# 4 0.0000 0.0000 0.0000 -61.8017 0.0000 53.4089
# 5 9.4340 41.9815 -0.4973 0.0000 22.5262 0.0000
# 6 0.0000 0.0000 0.0000 53.4089 0.0000 32.5841
#
#
#
# Elastic Compliance Matrix: (Units=1/GPa)
#
#
# Indices 1 2 3 4 5 6 
#
# 1 0.021516 0.002665 -0.007770 0.000000 -0.014149 0.000000
# 2 0.002665 0.041604 -0.029891 0.000000 -0.079313 0.000000
# 3 -0.007770 -0.029891 0.033383 0.000000 0.059698 0.000000
# 4 0.000000 0.000000 0.000000 -0.006696 0.000000 0.010975
# 5 -0.014149 -0.079313 0.059698 0.000000 0.199450 0.000000
# 6 0.000000 0.000000 0.000000 0.010975 0.000000 0.012700
#
#
# Mechanical properties :
#
#
# Convention : Reuss Voigt Hill
#
# Bulk Modulus (GPa) = 37.72007 62.10036 49.91021
# Shear Modulus (GPa) = 13.13069 10.56612 11.84840
#
# Velocity S-wave (km/s) = 2.18272 1.95799 2.07340
# Velocity P-wave (km/s) = 4.47643 5.25773 4.88273
#
# Compressibility (1/GPa) = 0.02651109
#
# Stress axis : x y z
#
# Youngs Moduli (GPa) = 46.47663 24.03594 29.95534
#
# Poissons Ratio (x) = -0.06406 0.23277
# Poissons Ratio (y) = -0.12387 0.89539
# Poissons Ratio (z) = 0.36115 0.71846
#
# Static dielectric constant tensor:
#      x y z
#    x 2.125340 0.000000 0.003410 
#    y 0.000000 2.125310 0.000000 
#    z 0.003410 0.000000 2.226500 
# 
# From -- ./inp_files/26519.got.cif
#   From: 2010.05.17/outbox.cif.g08.bks.cpg/sg15_14_cif.got.tgz:26519.got - 2010.06.03 18:47:42.
