data_PCOD9308407
_publ_section_title
;
Structure prediction by ZEFSAII (Michael W. Deem and Ramdas Pophale) SiO2 
 PCOD9308407
Probable space group: C 2/C
;
_chemical_formula_sum "Si O2"
_cell_formula_units_Z 24
_cell_length_a 19.135749
_cell_length_b 4.912259
_cell_length_c 23.750023
_cell_angle_alpha 90.000000
_cell_angle_beta 157.498017
_cell_angle_gamma 90.000000
_cell_volume 854.410750
_symmetry_space_group_name_H-M "C 2/C"
_symmetry_group_IT_number 15
_symmetry_cell_setting 'monoclinic'
loop_
_space_group_symop_operation_xyz
x,y,z
-x,y,1/2-z
-x,-y,-z
x,-y,1/2+z
1/2+x,1/2+y,z
1/2-x,1/2+y,1/2-z
1/2-x,1/2-y,-z
1/2+x,1/2-y,1/2+z
loop_
_atom_site_type_symbol
_atom_site_label
_atom_site_fract_x
_atom_site_fract_y
_atom_site_fract_z
Si Si1 0.319455 0.048419 0.770231
Si Si2 0.671060 0.766359 0.840820
Si Si3 0.585987 0.605454 0.410509
O O1 0.188655 0.293753 0.693429
O O2 0.510086 0.205481 0.903539
O O3 0.279170 0.921907 0.679281
O O4 0.500000 0.881155 0.750000
O O5 0.585454 0.481313 0.756033
O O6 0.837231 0.824829 0.006344
O O7 0.750000 0.750000 0.500000
#
# Coordination Sequence:
#
# PCOD9308407 Si02
#       3
#     8   8   8
#     4  12  28  54  80 130 173 223 279 361 429 503
#     4  12  28  52  87 121 169 221 289 347 424 508
#     4  12  29  53  88 125 171 224 289 351 426 513
#
# _framework density 28.089531999999998
#
# number of rings (size 3 to 8) (size 9 to 14) (size 15 to 20)
#    0.000    0.000    6.667    1.000    4.667    2.667 
#    0.000    0.000    0.000    0.000    0.000    0.000 
#    0.000    0.000    0.000    0.000    0.000    0.000 
#
# Total GULP energy -67220.026772 kJ/mol
# GULP energy per Si atom -5601.668898 kJ/mol
# Density = 2.802560 g / cm^3
# Si number density = 28.089532 Si / 1000 Ang^3
#
#
#
# Elastic Constant Matrix: (Units=GPa)
#
#
# Indices 1 2 3 4 5 6 
#
# 1 190.0674 75.1959 35.7268 -0.0033 39.7269 -0.0038
# 2 75.1959 198.8643 40.4611 0.0002 25.2605 -0.0027
# 3 35.7268 40.4611 88.9193 0.0061 17.6389 0.0006
# 4 -0.0033 0.0002 0.0061 50.9331 -0.0007 22.2736
# 5 39.7269 25.2605 17.6389 -0.0007 50.1706 0.0008
# 6 -0.0038 -0.0027 0.0006 22.2736 0.0008 59.3078
#
#
#
# Elastic Compliance Matrix: (Units=1/GPa)
#
#
# Indices 1 2 3 4 5 6 
#
# 1 0.007130 -0.001920 -0.001142 0.000000 -0.004277 0.000000
# 2 -0.001920 0.006261 -0.001885 0.000000 -0.000969 0.000000
# 3 -0.001142 -0.001885 0.013110 -0.000002 -0.002755 0.000000
# 4 0.000000 0.000000 -0.000002 0.023492 0.000001 -0.008823
# 5 -0.004277 -0.000969 -0.002755 0.000001 0.024775 -0.000001
# 6 0.000000 0.000000 0.000000 -0.008823 -0.000001 0.020175
#
#
# Mechanical properties :
#
#
# Convention : Reuss Voigt Hill
#
# Bulk Modulus (GPa) = 60.22391 86.73540 73.47965
# Shear Modulus (GPa) = 45.30083 53.84677 49.57380
#
# Velocity S-wave (km/s) = 4.02024 4.38307 4.20557
# Velocity P-wave (km/s) = 6.56020 7.52066 7.05679
#
# Compressibility (1/GPa) = 0.01660470
#
# Stress axis : x y z
#
# Youngs Moduli (GPa) = 140.25860 159.71028 76.27994
#
# Poissons Ratio (x) = 0.30667 0.08715
# Poissons Ratio (y) = 0.26932 0.14381
# Poissons Ratio (z) = 0.16024 0.30111
#
# Static dielectric constant tensor:
#      x y z
#    x 2.174980 -0.000010 -0.005490 
#    y -0.000010 2.194280 0.000000 
#    z -0.005490 0.000000 2.222950 
# 
# From -- ./inp_files/101940.got.cif
#   From: 2010.05.17/outbox.cif.g08.bks.cpg/sg15_51_cif.got.tgz:101940.got - 2010.06.03 18:47:42.
