data_PCOD9308113
_publ_section_title
;
Structure prediction by ZEFSAII (Michael W. Deem and Ramdas Pophale) SiO2 
 PCOD9308113
Probable space group: C 2/C
;
_chemical_formula_sum "Si O2"
_cell_formula_units_Z 40
_cell_length_a 13.364905
_cell_length_b 6.451313
_cell_length_c 29.196670
_cell_angle_alpha 90.000000
_cell_angle_beta 136.083380
_cell_angle_gamma 90.000000
_cell_volume 1746.076088
_symmetry_space_group_name_H-M "C 2/C"
_symmetry_group_IT_number 15
_symmetry_cell_setting 'monoclinic'
loop_
_space_group_symop_operation_xyz
x,y,z
-x,y,1/2-z
-x,-y,-z
x,-y,1/2+z
1/2+x,1/2+y,z
1/2-x,1/2+y,1/2-z
1/2-x,1/2-y,-z
1/2+x,1/2-y,1/2+z
loop_
_atom_site_type_symbol
_atom_site_label
_atom_site_fract_x
_atom_site_fract_y
_atom_site_fract_z
Si Si1 0.231816 0.563137 0.812120
Si Si2 0.937602 0.769535 0.302176
Si Si3 0.500000 0.622441 0.250000
Si Si4 0.750000 0.250000 0.000000
Si Si5 0.724373 0.352863 0.441583
Si Si6 0.551512 0.682395 0.050898
O O1 0.123509 0.413907 0.748830
O O2 0.328768 0.684042 0.807341
O O3 0.336385 0.422710 0.877031
O O4 0.135127 0.731017 0.806670
O O5 0.093897 0.728041 0.375252
O O6 0.955251 0.972847 0.276608
O O7 0.684079 0.414049 0.940582
O O8 0.587865 0.226581 0.970101
O O9 0.750000 0.250000 0.500000
O O10 0.857799 0.335438 0.451369
O O11 0.500000 0.500000 0.000000
#
# Coordination Sequence:
#
# PCOD9308113 Si02
#       6
#     8   8   4   4   8   8
#     4  12  26  49  77 106 154 192 248 312 366 447
#     4  12  26  49  74 111 144 196 249 301 377 441
#     4  12  26  46  76 102 146 198 238 312 368 440
#     4  12  26  46  76 106 140 202 234 308 372 428
#     4  12  26  49  75 108 151 191 247 305 368 446
#     4  12  26  49  74 111 147 196 248 305 369 441
#
# _framework density 22.908507
#
# number of rings (size 3 to 8) (size 9 to 14) (size 15 to 20)
#    0.000    0.000    6.000    3.600    2.800    3.200 
#    7.200    0.000    0.000    0.000    0.000    0.000 
#    0.000    0.000    0.000    0.000    0.000    0.000 
#
# Total GULP energy -111507.422745 kJ/mol
# GULP energy per Si atom -5575.371137 kJ/mol
# Density = 2.285637 g / cm^3
# Si number density = 22.908507 Si / 1000 Ang^3
#
#
#
# Elastic Constant Matrix: (Units=GPa)
#
#
# Indices 1 2 3 4 5 6 
#
# 1 164.9037 27.2624 16.0257 0.0001 33.1696 -0.0002
# 2 27.2624 29.0243 -5.8417 0.0002 4.2832 -0.0003
# 3 16.0257 -5.8417 117.8262 0.0001 7.1398 -0.0001
# 4 0.0001 0.0002 0.0001 37.2953 0.0000 0.3586
# 5 33.1696 4.2832 7.1398 0.0000 39.5840 0.0001
# 6 -0.0002 -0.0003 -0.0001 0.3586 0.0001 51.5422
#
#
#
# Elastic Compliance Matrix: (Units=1/GPa)
#
#
# Indices 1 2 3 4 5 6 
#
# 1 0.008666 -0.007454 -0.001170 0.000000 -0.006244 0.000000
# 2 -0.007454 0.041891 0.003020 0.000000 0.001169 0.000000
# 3 -0.001170 0.003020 0.008853 0.000000 -0.000943 0.000000
# 4 0.000000 0.000000 0.000000 0.026815 0.000000 -0.000187
# 5 -0.006244 0.001169 -0.000943 0.000000 0.030539 0.000000
# 6 0.000000 0.000000 0.000000 -0.000187 0.000000 0.019403
#
#
# Mechanical properties :
#
#
# Convention : Reuss Voigt Hill
#
# Bulk Modulus (GPa) = 20.74603 42.96079 31.85341
# Shear Modulus (GPa) = 30.59188 43.97149 37.28168
#
# Velocity S-wave (km/s) = 3.65827 4.38589 4.03850
# Velocity P-wave (km/s) = 5.18841 6.66648 5.97334
#
# Compressibility (1/GPa) = 0.04820200
#
# Stress axis : x y z
#
# Youngs Moduli (GPa) = 115.39102 23.87157 112.95500
#
# Poissons Ratio (x) = 0.17794 0.13215
# Poissons Ratio (y) = 0.86014 -0.34112
# Poissons Ratio (z) = 0.13500 -0.07209
#
# Static dielectric constant tensor:
#      x y z
#    x 1.850350 0.000000 0.018760 
#    y 0.000000 1.942030 0.000000 
#    z 0.018760 0.000000 1.842520 
# 
# From -- ./inp_files/310152.got.cif
#   From: 2010.05.17/outbox.cif.g08.bks.cpg/sg15_156_cif.got.tgz:310152.got - 2010.06.03 18:47:42.
