data_PCOD9308498
_publ_section_title
;
Structure prediction by ZEFSAII (Michael W. Deem and Ramdas Pophale) SiO2 
 PCOD9308498
Probable space group: C 2/C
;
_chemical_formula_sum "Si O2"
_cell_formula_units_Z 64
_cell_length_a 8.166865
_cell_length_b 23.507842
_cell_length_c 22.009734
_cell_angle_alpha 90.000000
_cell_angle_beta 140.832462
_cell_angle_gamma 90.000000
_cell_volume 2668.813811
_symmetry_space_group_name_H-M "C 2/C"
_symmetry_group_IT_number 15
_symmetry_cell_setting 'monoclinic'
loop_
_space_group_symop_operation_xyz
x,y,z
-x,y,1/2-z
-x,-y,-z
x,-y,1/2+z
1/2+x,1/2+y,z
1/2-x,1/2+y,1/2-z
1/2-x,1/2-y,-z
1/2+x,1/2-y,1/2+z
loop_
_atom_site_type_symbol
_atom_site_label
_atom_site_fract_x
_atom_site_fract_y
_atom_site_fract_z
Si Si1 0.098352 0.613714 0.641492
Si Si2 0.610207 0.185302 0.093629
Si Si3 0.279991 0.312078 0.771241
Si Si4 0.552046 0.235341 0.577803
Si Si5 0.154612 0.928398 0.662425
Si Si6 0.025511 0.068160 0.513947
Si Si7 0.450695 0.067554 0.478450
Si Si8 0.718397 0.561023 0.692851
O O1 0.105123 0.680593 0.635209
O O2 0.809495 0.592050 0.577938
O O3 0.128867 0.590432 0.583278
O O4 0.297413 0.588958 0.746636
O O5 0.615484 0.207563 0.164838
O O6 0.538221 0.117497 0.069635
O O7 0.913222 0.191115 0.159984
O O8 0.442703 0.217821 0.992656
O O9 0.281778 0.282962 0.838725
O O10 0.222049 0.378477 0.764071
O O11 0.250000 0.250000 0.500000
O O12 0.164860 0.912780 0.593853
O O13 0.851288 0.928214 0.590839
O O14 0.237957 0.992515 0.701347
O O15 0.009503 0.077377 0.581514
O O16 0.000000 0.000000 0.500000
O O17 0.500000 0.000000 0.500000
O O18 0.000000 0.581069 0.750000
#
# Coordination Sequence:
#
# PCOD9308498 Si02
#       8
#     8   8   8   8   8   8   8   8
#     4   9  17  28  41  66  90 120 154 190 234 277
#     4   8  16  28  40  62  92 118 151 189 227 276
#     4   9  16  28  43  64  88 122 151 190 231 273
#     4   9  16  29  42  60  94 122 150 192 232 278
#     4   9  17  29  46  65  94 124 154 185 231 282
#     4   8  14  27  41  57  87 119 144 181 228 272
#     4   9  17  28  44  64  93 127 154 186 228 277
#     4   9  17  29  44  67  94 118 150 192 232 280
#
# _framework density 23.980689999999999
#
# number of rings (size 3 to 8) (size 9 to 14) (size 15 to 20)
#    0.000    3.250    0.000    2.250    1.750    0.000 
#   15.750    0.000    0.000    0.000    0.000    3.500 
#    0.000    2.000    0.000    0.250    0.000    0.000 
#
# Total GULP energy -178136.390370 kJ/mol
# GULP energy per Si atom -5566.762199 kJ/mol
# Density = 2.392611 g / cm^3
# Si number density = 23.980690 Si / 1000 Ang^3
#
#
#
# Elastic Constant Matrix: (Units=GPa)
#
#
# Indices 1 2 3 4 5 6 
#
# 1 51.9647 12.4205 41.6617 0.0000 0.6324 0.0000
# 2 12.4205 90.1944 62.4415 0.0000 -11.5445 0.0000
# 3 41.6617 62.4415 175.5852 -0.0001 -32.9514 0.0000
# 4 0.0000 0.0000 -0.0001 42.4911 0.0000 0.1770
# 5 0.6324 -11.5445 -32.9514 0.0000 48.6151 0.0000
# 6 0.0000 0.0000 0.0000 0.1770 0.0000 15.5070
#
#
#
# Elastic Compliance Matrix: (Units=1/GPa)
#
#
# Indices 1 2 3 4 5 6 
#
# 1 0.024808 0.000887 -0.007130 0.000000 -0.004945 0.000000
# 2 0.000887 0.014740 -0.005497 0.000000 -0.000237 0.000000
# 3 -0.007130 -0.005497 0.010442 0.000000 0.005865 0.000000
# 4 0.000000 0.000000 0.000000 0.023535 0.000000 -0.000269
# 5 -0.004945 -0.000237 0.005865 0.000000 0.024553 0.000000
# 6 0.000000 0.000000 0.000000 -0.000269 0.000000 0.064490
#
#
# Mechanical properties :
#
#
# Convention : Reuss Voigt Hill
#
# Bulk Modulus (GPa) = 37.71979 61.19908 49.45943
# Shear Modulus (GPa) = 25.65607 34.73734 30.19670
#
# Velocity S-wave (km/s) = 3.27443 3.81012 3.55238
# Velocity P-wave (km/s) = 5.48263 6.70310 6.12335
#
# Compressibility (1/GPa) = 0.02651129
#
# Stress axis : x y z
#
# Youngs Moduli (GPa) = 40.30945 67.84219 95.76402
#
# Poissons Ratio (x) = -0.06015 0.68275
# Poissons Ratio (y) = -0.03574 0.52638
# Poissons Ratio (z) = 0.28739 0.37291
#
# Static dielectric constant tensor:
#      x y z
#    x 1.984680 0.000000 -0.026760 
#    y 0.000000 2.358420 0.000000 
#    z -0.026760 0.000000 1.986800 
# 
# From -- ./inp_files/271121.got.cif
#   From: 2010.05.17/outbox.cif.g08.bks.cpg/sg15_136_cif.got.tgz:271121.got - 2010.06.03 18:47:42.
