data_PCOD9308187
_publ_section_title
;
Structure prediction by ZEFSAII (Michael W. Deem and Ramdas Pophale) SiO2 
 PCOD9308187
Probable space group: C 2/C
;
_chemical_formula_sum "Si O2"
_cell_formula_units_Z 36
_cell_length_a 14.084803
_cell_length_b 13.574694
_cell_length_c 8.772374
_cell_angle_alpha 90.000000
_cell_angle_beta 117.213215
_cell_angle_gamma 90.000000
_cell_volume 1491.597308
_symmetry_space_group_name_H-M "C 2/C"
_symmetry_group_IT_number 15
_symmetry_cell_setting 'monoclinic'
loop_
_space_group_symop_operation_xyz
x,y,z
-x,y,1/2-z
-x,-y,-z
x,-y,1/2+z
1/2+x,1/2+y,z
1/2-x,1/2+y,1/2-z
1/2-x,1/2-y,-z
1/2+x,1/2-y,1/2+z
loop_
_atom_site_type_symbol
_atom_site_label
_atom_site_fract_x
_atom_site_fract_y
_atom_site_fract_z
Si Si1 0.000000 0.646647 0.750000
Si Si2 0.565852 0.819726 0.634983
Si Si3 0.420255 0.507483 0.078619
Si Si4 0.812656 0.526880 0.730093
Si Si5 0.202655 0.164520 0.860041
O O1 0.995613 0.689131 0.572861
O O2 0.895327 0.580053 0.682024
O O3 0.500000 0.815948 0.750000
O O4 0.645245 0.727208 0.688383
O O5 0.637681 0.919777 0.698088
O O6 0.500000 0.566715 0.250000
O O7 0.387256 0.403070 0.128896
O O8 0.500000 0.500000 0.000000
O O9 0.303988 0.535563 0.931714
O O10 0.794002 0.590434 0.869847
O O11 0.250000 0.250000 0.000000
#
# Coordination Sequence:
#
# PCOD9308187 Si02
#       5
#     4   8   8   8   8
#     4  12  28  48  80 124 160 212 276 344 406 490
#     4  12  27  50  85 117 165 217 275 339 413 490
#     4  12  26  48  79 117 161 212 267 334 415 488
#     4  12  26  50  81 121 161 214 276 343 411 488
#     4  12  26  50  84 118 162 223 274 334 419 497
#
# _framework density 24.135200999999999
#
# number of rings (size 3 to 8) (size 9 to 14) (size 15 to 20)
#    0.000    0.000    5.556    4.000    0.000    0.889 
#    2.000    0.000    0.000    0.000    0.000    0.000 
#    0.000    0.000    0.000    0.000    0.000    0.000 
#
# Total GULP energy -100383.143998 kJ/mol
# GULP energy per Si atom -5576.841333 kJ/mol
# Density = 2.408027 g / cm^3
# Si number density = 24.135201 Si / 1000 Ang^3
#
#
#
# Elastic Constant Matrix: (Units=GPa)
#
#
# Indices 1 2 3 4 5 6 
#
# 1 140.1049 11.5622 18.1960 0.0000 -7.3364 0.0000
# 2 11.5622 93.7573 8.2237 0.0000 -12.3840 0.0000
# 3 18.1960 8.2237 155.5022 0.0000 8.8050 0.0000
# 4 0.0000 0.0000 0.0000 28.0673 0.0000 -5.4284
# 5 -7.3364 -12.3840 8.8050 0.0000 52.1107 0.0000
# 6 0.0000 0.0000 0.0000 -5.4284 0.0000 38.9290
#
#
#
# Elastic Compliance Matrix: (Units=1/GPa)
#
#
# Indices 1 2 3 4 5 6 
#
# 1 0.007363 -0.000696 -0.000883 0.000000 0.001020 0.000000
# 2 -0.000696 0.011162 -0.000660 0.000000 0.002666 0.000000
# 3 -0.000883 -0.000660 0.006648 0.000000 -0.001404 0.000000
# 4 0.000000 0.000000 0.000000 0.036616 0.000000 0.005106
# 5 0.001020 0.002666 -0.001404 0.000000 0.020204 0.000000
# 6 0.000000 0.000000 0.000000 0.005106 0.000000 0.026400
#
#
# Mechanical properties :
#
#
# Convention : Reuss Voigt Hill
#
# Bulk Modulus (GPa) = 48.31682 51.70314 50.00998
# Shear Modulus (GPa) = 41.74707 47.24689 44.49698
#
# Velocity S-wave (km/s) = 4.16350 4.42927 4.29844
# Velocity P-wave (km/s) = 6.57082 6.90121 6.73804
#
# Compressibility (1/GPa) = 0.02069673
#
# Stress axis : x y z
#
# Youngs Moduli (GPa) = 135.81455 89.59229 150.41064
#
# Poissons Ratio (x) = 0.06234 0.13275
# Poissons Ratio (y) = 0.09450 0.09924
# Poissons Ratio (z) = 0.11986 0.05912
#
# Static dielectric constant tensor:
#      x y z
#    x 1.869740 0.000000 -0.001550 
#    y 0.000000 1.927700 0.000000 
#    z -0.001550 0.000000 2.009780 
# 
# From -- ./inp_files/37659.got.cif
#   From: 2010.05.17/outbox.cif.g08.bks.cpg/sg15_19_cif.got.tgz:37659.got - 2010.06.03 18:47:42.
