data_PCOD9308672
_publ_section_title
;
Structure prediction by ZEFSAII (Michael W. Deem and Ramdas Pophale) SiO2 
 PCOD9308672
Probable space group: C 2/C
;
_chemical_formula_sum "Si O2"
_cell_formula_units_Z 30
_cell_length_a 12.000000
_cell_length_b 18.000000
_cell_length_c 15.000000
_cell_angle_alpha 90.000000
_cell_angle_beta 110.000000
_cell_angle_gamma 90.000000
_cell_volume 3044.604091
_symmetry_space_group_name_H-M "C 2/C"
_symmetry_group_IT_number 15
_symmetry_cell_setting 'monoclinic'
loop_
_space_group_symop_operation_xyz
x,y,z
-x,y,1/2-z
-x,-y,-z
x,-y,1/2+z
1/2+x,1/2+y,z
1/2-x,1/2+y,1/2-z
1/2-x,1/2-y,-z
1/2+x,1/2-y,1/2+z
loop_
_atom_site_type_symbol
_atom_site_label
_atom_site_fract_x
_atom_site_fract_y
_atom_site_fract_z
Si Si1 0.935125 0.400129 0.372516
Si Si2 0.385246 0.307992 0.467437
Si Si3 0.930441 0.228453 0.322459
Si Si4 0.000000 0.527390 0.250000
Si Si5 0.210594 0.000078 0.341383
Si Si6 0.826395 0.356151 0.965905
Si Si7 0.562253 0.434668 0.461607
Si Si8 0.232191 0.090738 0.173990
O O1 0.907348 0.318174 0.321599
O O2 0.986699 0.467882 0.326728
O O3 0.812147 0.436419 0.371195
O O4 0.042095 0.382522 0.469905
O O5 0.474126 0.290735 0.574187
O O6 0.263185 0.342573 0.474334
O O7 0.345220 0.225013 0.424211
O O8 0.465827 0.366004 0.431735
O O9 0.819889 0.171056 0.305784
O O10 0.000000 0.212876 0.250000
O O11 0.876080 0.575141 0.210865
O O12 0.264850 0.077060 0.395587
O O13 0.184878 0.027072 0.231773
O O14 0.108961 0.967840 0.379848
O O15 0.500000 0.500000 0.500000
O O16 0.674010 0.415728 0.558764
#
# Coordination Sequence:
#
# PCOD9308672 Si02
#       8
#     8   8   8   4   8   8   8   8
#     4  10  21  36  61  87 122 161 213 255 316 376
#     4   9  20  34  57  90 119 157 210 253 318 376
#     4  10  19  37  61  87 120 165 209 267 308 378
#     4  10  20  40  56  92 124 164 200 270 316 376
#     4  11  22  39  61  94 124 167 212 262 319 381
#     4  10  18  35  56  87 121 156 205 256 305 384
#     4  11  22  40  62  90 128 171 206 270 322 371
#     4  10  24  39  63  92 127 165 217 258 321 386
#
# _framework density 9.8534980000000001
#
# number of rings (size 3 to 8) (size 9 to 14) (size 15 to 20)
#    0.000    1.867    2.000    2.000    1.867    1.067 
#    0.000    8.667    0.000    0.000    0.000    0.000 
#    0.000    0.000    0.000    0.000    0.000    0.000 
#
# Total GULP energy -167278.557174 kJ/mol
# GULP energy per Si atom -5575.951906 kJ/mol
# Density = 0.983107 g / cm^3
# Si number density = 9.853498 Si / 1000 Ang^3
#
#
#
# Elastic Constant Matrix: (Units=GPa)
#
#
# Indices 1 2 3 4 5 6 
#
# 1 120.7311 45.7548 4.0832 0.0000 -8.1716 0.0000
# 2 45.7548 123.9343 2.5737 0.0000 1.3333 0.0000
# 3 4.0832 2.5737 27.7689 0.0000 -4.6909 0.0000
# 4 0.0000 0.0000 0.0000 26.5932 0.0000 6.7794
# 5 -8.1716 1.3333 -4.6909 0.0000 30.2634 0.0000
# 6 0.0000 0.0000 0.0000 6.7794 0.0000 55.2600
#
#
#
# Elastic Compliance Matrix: (Units=1/GPa)
#
#
# Indices 1 2 3 4 5 6 
#
# 1 0.009878 -0.003662 -0.000652 0.000000 0.002727 0.000000
# 2 -0.003662 0.009449 -0.000590 0.000000 -0.001497 0.000000
# 3 -0.000652 -0.000590 0.037108 0.000000 0.005602 0.000000
# 4 0.000000 0.000000 0.000000 0.038818 0.000000 -0.004762
# 5 0.002727 -0.001497 0.005602 0.000000 0.034714 0.000000
# 6 0.000000 0.000000 0.000000 -0.004762 0.000000 0.018681
#
#
# Mechanical properties :
#
#
# Convention : Reuss Voigt Hill
#
# Bulk Modulus (GPa) = 21.44745 41.91754 31.68249
# Shear Modulus (GPa) = 28.73586 37.09147 32.91367
#
# Velocity S-wave (km/s) = 3.82272 4.34308 4.09118
# Velocity P-wave (km/s) = 5.51281 6.81662 6.19909
#
# Compressibility (1/GPa) = 0.04662560
#
# Stress axis : x y z
#
# Youngs Moduli (GPa) = 101.23992 105.82827 26.94812
#
# Poissons Ratio (x) = 0.38759 0.01758
# Poissons Ratio (y) = 0.37079 0.01590
# Poissons Ratio (z) = 0.06603 0.06245
#
# Static dielectric constant tensor:
#      x y z
#    x 1.704960 0.000000 -0.003430 
#    y 0.000000 1.707860 0.000000 
#    z -0.003430 0.000000 1.762750 
# 
# From -- ./inp_files/146122.got.cif
#   From: 2010.05.17/outbox.ucp.g08.bks.cvg/sg15_74_cif.got.tgz:146122.got - 2010.06.11 12:40:34.
