data_PCOD9308444
_publ_section_title
;
Structure prediction by ZEFSAII (Michael W. Deem and Ramdas Pophale) SiO2 
 PCOD9308444
Probable space group: C 2/C
;
_chemical_formula_sum "Si O2"
_cell_formula_units_Z 64
_cell_length_a 29.611414
_cell_length_b 6.914710
_cell_length_c 14.089493
_cell_angle_alpha 90.000000
_cell_angle_beta 52.303564
_cell_angle_gamma 90.000000
_cell_volume 2282.698515
_symmetry_space_group_name_H-M "C 2/C"
_symmetry_group_IT_number 15
_symmetry_cell_setting 'monoclinic'
loop_
_space_group_symop_operation_xyz
x,y,z
-x,y,1/2-z
-x,-y,-z
x,-y,1/2+z
1/2+x,1/2+y,z
1/2-x,1/2+y,1/2-z
1/2-x,1/2-y,-z
1/2+x,1/2-y,1/2+z
loop_
_atom_site_type_symbol
_atom_site_label
_atom_site_fract_x
_atom_site_fract_y
_atom_site_fract_z
Si Si1 0.774512 0.504778 0.874295
Si Si2 0.551851 0.419234 0.513980
Si Si3 0.349279 0.423527 0.987857
Si Si4 0.628338 0.878289 0.488378
Si Si5 0.133586 0.991996 0.747688
Si Si6 0.747101 0.065395 0.871403
Si Si7 0.892204 0.560842 0.270721
Si Si8 0.010948 0.695500 0.058723
O O1 0.718074 0.624076 0.914755
O O2 0.762435 0.292515 0.848025
O O3 0.841675 0.557026 0.782064
O O4 0.765392 0.479350 0.000902
O O5 0.602685 0.327554 0.508831
O O6 0.584278 0.533435 0.386697
O O7 0.512745 0.264522 0.512767
O O8 0.516598 0.594975 0.606923
O O9 0.359054 0.650791 0.002721
O O10 0.365871 0.397856 0.856467
O O11 0.690404 0.963495 0.383059
O O12 0.613209 0.966039 0.610296
O O13 0.573230 0.894189 0.493343
O O14 0.193649 0.959668 0.723608
O O15 0.126917 0.219287 0.729619
O O16 0.959211 0.564722 0.162927
#
# Coordination Sequence:
#
# PCOD9308444 Si02
#       8
#     8   8   8   8   8   8   8   8
#     4   7  10  17  29  43  56  74 104 135 161 189
#     4   9  16  22  28  42  66  93 116 126 144 195
#     4   8  13  21  31  42  60  84 108 136 160 180
#     4   8  12  18  29  43  60  84 107 126 156 194
#     4   8  13  21  31  42  60  84 108 136 160 180
#     4   7  10  17  29  43  56  74 104 135 161 189
#     4   8  12  18  29  43  60  84 107 126 156 194
#     4   9  15  20  25  40  68  91 106 123 142 185
#
# _framework density 28.036991
#
# number of rings (size 3 to 8) (size 9 to 14) (size 15 to 20)
#    0.000    4.000    0.000    3.375    0.000    1.000 
#    0.000    1.875    0.000    0.000    0.000    0.000 
#    0.000   28.000    0.000    0.125    0.000    0.000 
#
# Total GULP energy -178835.554844 kJ/mol
# GULP energy per Si atom -5588.611089 kJ/mol
# Density = 2.797318 g / cm^3
# Si number density = 28.036991 Si / 1000 Ang^3
#
#
#
# Elastic Constant Matrix: (Units=GPa)
#
#
# Indices 1 2 3 4 5 6 
#
# 1 321.5022 49.0918 87.1954 0.0000 -52.1094 -0.0001
# 2 49.0918 78.4079 28.3166 0.0000 -13.9054 0.0000
# 3 87.1954 28.3166 103.4834 0.0000 -26.0378 0.0000
# 4 0.0000 0.0000 0.0000 13.7846 0.0000 1.5019
# 5 -52.1094 -13.9054 -26.0378 0.0000 45.0677 0.0000
# 6 -0.0001 0.0000 0.0000 1.5019 0.0000 44.6254
#
#
#
# Elastic Compliance Matrix: (Units=1/GPa)
#
#
# Indices 1 2 3 4 5 6 
#
# 1 0.004573 -0.001311 -0.002651 0.000000 0.003351 0.000000
# 2 -0.001311 0.014772 -0.002541 0.000000 0.001573 0.000000
# 3 -0.002651 -0.002541 0.013601 0.000000 0.004009 0.000000
# 4 0.000000 0.000000 0.000000 0.072812 0.000000 -0.002451
# 5 0.003351 0.001573 0.004009 0.000000 0.028865 0.000000
# 6 0.000000 0.000000 0.000000 -0.002451 0.000000 0.022491
#
#
# Mechanical properties :
#
#
# Convention : Reuss Voigt Hill
#
# Bulk Modulus (GPa) = 50.15456 92.51123 71.33290
# Shear Modulus (GPa) = 28.28582 43.28151 35.78367
#
# Velocity S-wave (km/s) = 3.17973 3.93329 3.57641
# Velocity P-wave (km/s) = 5.60432 7.32772 6.52319
#
# Compressibility (1/GPa) = 0.01993836
#
# Stress axis : x y z
#
# Youngs Moduli (GPa) = 218.68616 67.69738 73.52304
#
# Poissons Ratio (x) = 0.08877 0.19491
# Poissons Ratio (y) = 0.28677 0.18684
# Poissons Ratio (z) = 0.57975 0.17203
#
# Static dielectric constant tensor:
#      x y z
#    x 2.164760 0.000000 -0.026950 
#    y 0.000000 2.228600 0.000000 
#    z -0.026950 0.000000 2.182700 
# 
# From -- ./inp_files/177948.got.cif
#   From: 2010.05.17/outbox.cif.g08.bks.cpg/sg15_89_cif.got.tgz:177948.got - 2010.06.03 18:47:42.
