data_PCOD9308260
_publ_section_title
;
Structure prediction by ZEFSAII (Michael W. Deem and Ramdas Pophale) SiO2 
 PCOD9308260
Probable space group: C 2/C
;
_chemical_formula_sum "Si O2"
_cell_formula_units_Z 40
_cell_length_a 23.648944
_cell_length_b 5.054263
_cell_length_c 19.600462
_cell_angle_alpha 90.000000
_cell_angle_beta 140.708087
_cell_angle_gamma 90.000000
_cell_volume 1483.631136
_symmetry_space_group_name_H-M "C 2/C"
_symmetry_group_IT_number 15
_symmetry_cell_setting 'monoclinic'
loop_
_space_group_symop_operation_xyz
x,y,z
-x,y,1/2-z
-x,-y,-z
x,-y,1/2+z
1/2+x,1/2+y,z
1/2-x,1/2+y,1/2-z
1/2-x,1/2-y,-z
1/2+x,1/2-y,1/2+z
loop_
_atom_site_type_symbol
_atom_site_label
_atom_site_fract_x
_atom_site_fract_y
_atom_site_fract_z
Si Si1 0.597480 0.737896 0.919531
Si Si2 0.646066 0.230498 0.884880
Si Si3 0.640276 0.844338 0.226049
Si Si4 0.035648 0.868763 0.964842
Si Si5 0.797346 0.496058 0.863741
O O1 0.616341 0.528123 0.876460
O O2 0.523884 0.581361 0.893870
O O3 0.591359 0.026398 0.881192
O O4 0.670301 0.790592 0.049513
O O5 0.645368 0.096005 0.810206
O O6 0.750000 0.250000 0.000000
O O7 0.536119 0.859466 0.112766
O O8 0.693406 0.562298 0.277329
O O9 0.686902 0.957366 0.201899
O O10 0.134889 0.749907 0.058840
O O11 0.000000 0.000000 0.000000
#
# Coordination Sequence:
#
# PCOD9308260 Si02
#       5
#     8   8   8   8   8
#     4  12  26  52  76 109 163 207 255 339 382 477
#     4  12  27  50  79 115 162 204 265 325 409 465
#     4  12  28  47  84 120 152 222 259 333 404 476
#     4  12  26  51  78 119 159 207 269 339 395 468
#     4  12  27  52  80 118 159 205 280 325 393 487
#
# _framework density 26.960877
#
# number of rings (size 3 to 8) (size 9 to 14) (size 15 to 20)
#    0.000    0.000    6.000    2.400    2.800    2.400 
#    3.600    0.000    0.000    0.000    0.000    0.000 
#    0.000    0.000    0.000    0.000    0.000    0.000 
#
# Total GULP energy -111683.322280 kJ/mol
# GULP energy per Si atom -5584.166114 kJ/mol
# Density = 2.689951 g / cm^3
# Si number density = 26.960877 Si / 1000 Ang^3
#
#
#
# Elastic Constant Matrix: (Units=GPa)
#
#
# Indices 1 2 3 4 5 6 
#
# 1 130.9693 26.8438 26.1352 0.0009 -38.5441 -0.0023
# 2 26.8438 126.2971 14.4292 0.0029 -8.4849 -0.0066
# 3 26.1352 14.4292 95.5756 -0.0004 -23.8636 -0.0006
# 4 0.0009 0.0029 -0.0004 0.1773 0.0005 -14.0225
# 5 -38.5441 -8.4849 -23.8636 0.0005 60.7309 -0.0014
# 6 -0.0023 -0.0066 -0.0006 -14.0225 -0.0014 57.8998
#
#
#
# Elastic Compliance Matrix: (Units=1/GPa)
#
#
# Indices 1 2 3 4 5 6 
#
# 1 0.009818 -0.001591 -0.001047 0.000001 0.005597 0.000001
# 2 -0.001591 0.008343 -0.000871 0.000003 -0.000186 0.000002
# 3 -0.001047 -0.000871 0.011847 -0.000002 0.003869 0.000000
# 4 0.000001 0.000003 -0.000002 -0.310678 0.000001 -0.075242
# 5 0.005597 -0.000186 0.003869 0.000001 0.021513 0.000001
# 6 0.000001 0.000002 0.000000 -0.075242 0.000001 -0.000951
#
#
# Mechanical properties :
#
#
# Convention : Reuss Voigt Hill
#
# Bulk Modulus (GPa) = 43.49820 54.18427 48.84124
# Shear Modulus (GPa) = -20.37260 42.79049 11.20894
#
# Velocity S-wave (km/s) = -2.75187 3.98821 2.04120
# Velocity P-wave (km/s) = 2.46411 6.43030 4.86932
#
# Compressibility (1/GPa) = 0.02298946
#
# Stress axis : x y z
#
# Youngs Moduli (GPa) = 101.85699 119.86102 84.41165
#
# Poissons Ratio (x) = 0.19071 0.08837
# Poissons Ratio (y) = 0.16206 0.07353
# Poissons Ratio (z) = 0.10663 0.10440
#
# Static dielectric constant tensor:
#      x y z
#    x 1.521320 -0.000100 -0.019500 
#    y -0.000100 2.199880 0.000000 
#    z -0.019500 0.000000 2.182680 
# 
# From -- ./inp_files/254527.got.cif
#   From: 2010.05.17/outbox.cif.g08.bks.cpg/sg15_128_cif.got.tgz:254527.got - 2010.06.03 18:47:42.
