data_PCOD9308482
_publ_section_title
;
Structure prediction by ZEFSAII (Michael W. Deem and Ramdas Pophale) SiO2 
 PCOD9308482
Probable space group: C 2/C
;
_chemical_formula_sum "Si O2"
_cell_formula_units_Z 40
_cell_length_a 8.803711
_cell_length_b 19.232519
_cell_length_c 9.273853
_cell_angle_alpha 90.000000
_cell_angle_beta 91.685365
_cell_angle_gamma 90.000000
_cell_volume 1569.546696
_symmetry_space_group_name_H-M "C 2/C"
_symmetry_group_IT_number 15
_symmetry_cell_setting 'monoclinic'
loop_
_space_group_symop_operation_xyz
x,y,z
-x,y,1/2-z
-x,-y,-z
x,-y,1/2+z
1/2+x,1/2+y,z
1/2-x,1/2+y,1/2-z
1/2-x,1/2-y,-z
1/2+x,1/2-y,1/2+z
loop_
_atom_site_type_symbol
_atom_site_label
_atom_site_fract_x
_atom_site_fract_y
_atom_site_fract_z
Si Si1 0.812971 0.590501 0.347118
Si Si2 0.213369 0.271540 0.760258
Si Si3 0.757836 0.850133 0.063618
Si Si4 0.000000 0.697931 0.750000
Si Si5 0.238069 0.509374 0.426705
Si Si6 0.500000 0.533253 0.250000
O O1 0.864440 0.669899 0.338018
O O2 0.605837 0.488611 0.147535
O O3 0.848800 0.550789 0.494254
O O4 0.626228 0.581943 0.332195
O O5 0.147781 0.200675 0.827771
O O6 0.365614 0.246022 0.684496
O O7 0.261571 0.314832 0.905939
O O8 0.591245 0.843801 0.131819
O O9 0.785650 0.931030 0.042252
O O10 0.147124 0.548726 0.298193
#
# Coordination Sequence:
#
# PCOD9308482 Si02
#       6
#     8   8   8   4   8   4
#     4   9  16  25  41  60  91 107 133 169 209 257
#     4   8  14  23  39  61  79 104 135 175 212 229
#     4   8  15  23  39  62  83 104 139 176 207 237
#     4   8  13  24  38  60  80 101 138 180 201 232
#     4   9  17  26  39  62  89 110 137 164 211 250
#     4   8  17  24  38  64  82 115 124 164 211 252
#
# _framework density 25.485066
#
# number of rings (size 3 to 8) (size 9 to 14) (size 15 to 20)
#    2.400    1.200    0.000    1.200    0.000    0.000 
#    0.000    0.000    0.000    6.000    0.000    0.000 
#    0.000    0.000    0.000    0.200    0.000    0.000 
#
# Total GULP energy -111335.406426 kJ/mol
# GULP energy per Si atom -5566.770321 kJ/mol
# Density = 2.542706 g / cm^3
# Si number density = 25.485066 Si / 1000 Ang^3
#
#
#
# Elastic Constant Matrix: (Units=GPa)
#
#
# Indices 1 2 3 4 5 6 
#
# 1 76.2236 16.5198 33.4699 0.0000 5.1591 0.0000
# 2 16.5198 123.9478 70.9328 0.0000 -7.0414 0.0000
# 3 33.4699 70.9328 122.6583 0.0000 -28.6779 0.0000
# 4 0.0000 0.0000 0.0000 34.5106 0.0000 -8.8160
# 5 5.1591 -7.0414 -28.6779 0.0000 28.2386 0.0000
# 6 0.0000 0.0000 0.0000 -8.8160 0.0000 7.1864
#
#
#
# Elastic Compliance Matrix: (Units=1/GPa)
#
#
# Indices 1 2 3 4 5 6 
#
# 1 0.017146 0.001871 -0.008372 0.000000 -0.011168 0.000000
# 2 0.001871 0.012911 -0.009579 0.000000 -0.006850 0.000000
# 3 -0.008372 -0.009579 0.020688 0.000000 0.020151 0.000000
# 4 0.000000 0.000000 0.000000 0.042202 0.000000 0.051772
# 5 -0.011168 -0.006850 0.020151 0.000000 0.056209 0.000000
# 6 0.000000 0.000000 0.000000 0.051772 0.000000 0.202664
#
#
# Mechanical properties :
#
#
# Convention : Reuss Voigt Hill
#
# Bulk Modulus (GPa) = 53.80320 62.74162 58.27241
# Shear Modulus (GPa) = 12.81482 27.44761 20.13121
#
# Velocity S-wave (km/s) = 2.24483 3.28534 2.81360
# Velocity P-wave (km/s) = 5.27982 6.25010 5.78534
#
# Compressibility (1/GPa) = 0.01858626
#
# Stress axis : x y z
#
# Youngs Moduli (GPa) = 58.32362 77.45342 48.33781
#
# Poissons Ratio (x) = -0.14495 0.40468
# Poissons Ratio (y) = -0.10915 0.46301
# Poissons Ratio (z) = 0.48828 0.74190
#
# Static dielectric constant tensor:
#      x y z
#    x 2.087570 0.000000 0.025440 
#    y 0.000000 2.015840 0.000000 
#    z 0.025440 0.000000 2.004800 
# 
# From -- ./inp_files/88108.got.cif
#   From: 2010.05.17/outbox.cif.g08.bks.cpg/sg15_45_cif.got.tgz:88108.got - 2010.06.03 18:47:42.
