data_PCOD9308781
_publ_section_title
;
Structure prediction by ZEFSAII (Michael W. Deem and Ramdas Pophale) SiO2 
 PCOD9308781
Probable space group: C 2/C
;
_chemical_formula_sum "Si O2"
_cell_formula_units_Z 24
_cell_length_a 27.000000
_cell_length_b 15.000000
_cell_length_c 9.000000
_cell_angle_alpha 90.000000
_cell_angle_beta 140.000000
_cell_angle_gamma 90.000000
_cell_volume 2342.960837
_symmetry_space_group_name_H-M "C 2/C"
_symmetry_group_IT_number 15
_symmetry_cell_setting 'monoclinic'
loop_
_space_group_symop_operation_xyz
x,y,z
-x,y,1/2-z
-x,-y,-z
x,-y,1/2+z
1/2+x,1/2+y,z
1/2-x,1/2+y,1/2-z
1/2-x,1/2-y,-z
1/2+x,1/2-y,1/2+z
loop_
_atom_site_type_symbol
_atom_site_label
_atom_site_fract_x
_atom_site_fract_y
_atom_site_fract_z
Si Si1 0.078972 0.910887 0.371802
Si Si2 0.052910 0.193552 0.517977
Si Si3 0.749176 0.938241 0.681401
Si Si4 0.692335 0.748094 0.633211
Si Si5 0.690952 0.102850 0.715764
Si Si6 0.919970 0.261945 0.407426
O O1 0.069552 0.884563 0.176487
O O2 0.160212 0.960053 0.584804
O O3 0.083068 0.820614 0.483785
O O4 0.000000 0.955745 0.250000
O O5 0.133384 0.228996 0.633321
O O6 0.001130 0.260360 0.503740
O O7 0.000000 0.172904 0.250000
O O8 0.730497 0.845772 0.723693
O O9 0.731674 0.921600 0.467135
O O10 0.694672 0.014640 0.624032
O O11 0.758818 0.675680 0.759103
O O12 0.642113 0.745468 0.365730
O O13 0.610103 0.150014 0.575893
#
# Coordination Sequence:
#
# PCOD9308781 Si02
#       6
#     8   8   8   8   8   8
#     4  10  19  36  59  84 119 157 197 242 299 360
#     4   9  20  33  61  91 112 154 206 244 306 353
#     4  11  23  38  58  92 118 162 205 243 302 356
#     4  10  19  39  62  84 121 158 197 256 297 355
#     4  11  22  38  62  86 127 158 201 248 295 360
#     4   9  17  39  60  83 115 164 196 240 300 356
#
# _framework density 10.243449
#
# number of rings (size 3 to 8) (size 9 to 14) (size 15 to 20)
#    0.000    2.000    3.333    1.000    2.333    2.000 
#    0.000    4.167    0.000    7.000    0.000    0.000 
#    0.000    0.000    0.000    0.000    0.000    0.000 
#
# Total GULP energy -134052.201334 kJ/mol
# GULP energy per Si atom -5585.508389 kJ/mol
# Density = 1.022013 g / cm^3
# Si number density = 10.243449 Si / 1000 Ang^3
#
#
#
# Elastic Constant Matrix: (Units=GPa)
#
#
# Indices 1 2 3 4 5 6 
#
# 1 149.6140 35.7538 7.8588 0.0000 0.0837 0.0000
# 2 35.7538 83.0089 -11.3101 0.0000 -4.4451 0.0000
# 3 7.8588 -11.3101 33.4843 0.0000 1.8939 0.0000
# 4 0.0000 0.0000 0.0000 13.4483 0.0000 -0.3603
# 5 0.0837 -4.4451 1.8939 0.0000 26.7349 0.0000
# 6 0.0000 0.0000 0.0000 -0.3603 0.0000 34.8836
#
#
#
# Elastic Compliance Matrix: (Units=1/GPa)
#
#
# Indices 1 2 3 4 5 6 
#
# 1 0.007748 -0.003779 -0.003070 0.000000 -0.000435 0.000000
# 2 -0.003779 0.014559 0.005690 0.000000 0.002029 0.000000
# 3 -0.003070 0.005690 0.032584 0.000000 -0.001353 0.000000
# 4 0.000000 0.000000 0.000000 0.074380 0.000000 0.000768
# 5 -0.000435 0.002029 -0.001353 0.000000 0.037839 0.000000
# 6 0.000000 0.000000 0.000000 0.000768 0.000000 0.028675
#
#
# Mechanical properties :
#
#
# Convention : Reuss Voigt Hill
#
# Bulk Modulus (GPa) = 19.02190 36.74579 27.88384
# Shear Modulus (GPa) = 23.18815 30.60034 26.89425
#
# Velocity S-wave (km/s) = 3.36795 3.86897 3.62712
# Velocity P-wave (km/s) = 4.94259 6.15904 5.58404
#
# Compressibility (1/GPa) = 0.05257100
#
# Stress axis : x y z
#
# Youngs Moduli (GPa) = 129.05727 68.68817 30.69016
#
# Poissons Ratio (x) = 0.25958 0.09423
# Poissons Ratio (y) = 0.48772 -0.17462
# Poissons Ratio (z) = 0.39626 -0.39081
#
# Static dielectric constant tensor:
#      x y z
#    x 1.727140 0.000000 0.023890 
#    y 0.000000 1.733170 0.000000 
#    z 0.023890 0.000000 1.756340 
# 
# From -- ./inp_files/66426.got.cif
#   From: 2010.05.17/outbox.ucp.g08.bks.cvg/sg15_34_cif.got.tgz:66426.got - 2010.06.11 12:40:34.
