data_PCOD9308460
_publ_section_title
;
Structure prediction by ZEFSAII (Michael W. Deem and Ramdas Pophale) SiO2 
 PCOD9308460
Probable space group: C 2/C
;
_chemical_formula_sum "Si O2"
_cell_formula_units_Z 64
_cell_length_a 15.610620
_cell_length_b 28.114926
_cell_length_c 6.906451
_cell_angle_alpha 90.000000
_cell_angle_beta 76.808307
_cell_angle_gamma 90.000000
_cell_volume 2951.195295
_symmetry_space_group_name_H-M "C 2/C"
_symmetry_group_IT_number 15
_symmetry_cell_setting 'monoclinic'
loop_
_space_group_symop_operation_xyz
x,y,z
-x,y,1/2-z
-x,-y,-z
x,-y,1/2+z
1/2+x,1/2+y,z
1/2-x,1/2+y,1/2-z
1/2-x,1/2-y,-z
1/2+x,1/2-y,1/2+z
loop_
_atom_site_type_symbol
_atom_site_label
_atom_site_fract_x
_atom_site_fract_y
_atom_site_fract_z
Si Si1 0.075602 0.778002 0.437856
Si Si2 0.074571 0.668421 0.437500
Si Si3 0.881060 0.781709 0.624623
Si Si4 0.881213 0.328646 0.124145
Si Si5 0.201226 0.140263 0.806101
Si Si6 0.422551 0.557503 0.576299
Si Si7 0.613830 0.550829 0.356613
Si Si8 0.243792 0.867737 0.746031
O O1 0.082896 0.723498 0.372195
O O2 0.097096 0.780273 0.656329
O O3 0.148631 0.810804 0.305374
O O4 0.974104 0.794143 0.475175
O O5 0.095754 0.669180 0.657659
O O6 0.151131 0.638191 0.298206
O O7 0.971537 0.656027 0.474387
O O8 0.860082 0.726726 0.588960
O O9 0.807453 0.821848 0.642219
O O10 0.793286 0.359189 0.147352
O O11 0.133161 0.098720 0.798303
O O12 0.224363 0.135435 0.023324
O O13 0.528563 0.558844 0.538001
O O14 0.410848 0.563725 0.350873
O O15 0.379986 0.506363 0.645851
O O16 0.698156 0.584125 0.348099
#
# Coordination Sequence:
#
# PCOD9308460 Si02
#       8
#     8   8   8   8   8   8   8   8
#     4   8  12  17  26  43  68  95 120 145 176 217
#     4   8  13  19  27  43  69  98 123 147 178 216
#     4   8  12  17  26  43  68  95 120 145 176 217
#     4   8  13  19  27  43  69  98 123 147 178 216
#     4   9  14  20  32  48  68  96 125 149 178 219
#     4   9  17  28  41  57  76  97 122 153 188 223
#     4   9  17  28  41  57  76  97 122 153 188 223
#     4   9  14  20  32  48  68  96 125 149 178 219
#
# _framework density 21.686126000000002
#
# number of rings (size 3 to 8) (size 9 to 14) (size 15 to 20)
#    0.000    3.500    0.000    3.000    0.000    6.000 
#    0.000    0.000    0.000    0.750    0.000    0.000 
#    0.000    4.000    0.000    6.000    0.000    5.000 
#
# Total GULP energy -178755.225284 kJ/mol
# GULP energy per Si atom -5586.100790 kJ/mol
# Density = 2.163677 g / cm^3
# Si number density = 21.686126 Si / 1000 Ang^3
#
#
#
# Elastic Constant Matrix: (Units=GPa)
#
#
# Indices 1 2 3 4 5 6 
#
# 1 87.1546 50.5927 32.0782 0.0000 -28.5196 0.0000
# 2 50.5927 82.2404 43.4189 0.0000 -49.1503 0.0000
# 3 32.0782 43.4189 129.8711 0.0000 -28.1668 0.0000
# 4 0.0000 0.0000 0.0000 36.4951 0.0000 -18.6848
# 5 -28.5196 -49.1503 -28.1668 0.0000 57.1856 0.0000
# 6 0.0000 0.0000 0.0000 -18.6848 0.0000 26.8820
#
#
#
# Elastic Compliance Matrix: (Units=1/GPa)
#
#
# Indices 1 2 3 4 5 6 
#
# 1 0.017972 -0.011274 -0.000927 0.000000 -0.001183 0.000000
# 2 -0.011274 0.034235 -0.003917 0.000000 0.021873 0.000000
# 3 -0.000927 -0.003917 0.009414 0.000000 0.000808 0.000000
# 4 0.000000 0.000000 0.000000 0.042539 0.000000 0.029567
# 5 -0.001183 0.021873 0.000808 0.000000 0.036094 0.000000
# 6 0.000000 0.000000 0.000000 0.029567 0.000000 0.057751
#
#
# Mechanical properties :
#
#
# Convention : Reuss Voigt Hill
#
# Bulk Modulus (GPa) = 34.03049 61.27174 47.65112
# Shear Modulus (GPa) = 20.83027 35.65764 28.24395
#
# Velocity S-wave (km/s) = 3.10261 4.05935 3.61279
# Velocity P-wave (km/s) = 5.34428 7.09128 6.27884
#
# Compressibility (1/GPa) = 0.02938541
#
# Stress axis : x y z
#
# Youngs Moduli (GPa) = 55.64128 29.20971 106.22936
#
# Poissons Ratio (x) = 0.32932 0.09843
# Poissons Ratio (y) = 0.62731 0.41611
# Poissons Ratio (z) = 0.05156 0.11442
#
# Static dielectric constant tensor:
#      x y z
#    x 1.855510 0.000000 0.079840 
#    y 0.000000 1.725790 0.000000 
#    z 0.079840 0.000000 1.861510 
# 
# From -- ./inp_files/107952.got.cif
#   From: 2010.05.17/outbox.cif.g08.bks.cpg/sg15_54_cif.got.tgz:107952.got - 2010.06.03 18:47:42.
