data_PCOD9308695
_publ_section_title
;
Structure prediction by ZEFSAII (Michael W. Deem and Ramdas Pophale) SiO2 
 PCOD9308695
Probable space group: C 2/C
;
_chemical_formula_sum "Si O2"
_cell_formula_units_Z 28
_cell_length_a 9.000000
_cell_length_b 18.000000
_cell_length_c 27.000000
_cell_angle_alpha 90.000000
_cell_angle_beta 40.000000
_cell_angle_gamma 90.000000
_cell_volume 2811.553005
_symmetry_space_group_name_H-M "C 2/C"
_symmetry_group_IT_number 15
_symmetry_cell_setting 'monoclinic'
loop_
_space_group_symop_operation_xyz
x,y,z
-x,y,1/2-z
-x,-y,-z
x,-y,1/2+z
1/2+x,1/2+y,z
1/2-x,1/2+y,1/2-z
1/2-x,1/2-y,-z
1/2+x,1/2-y,1/2+z
loop_
_atom_site_type_symbol
_atom_site_label
_atom_site_fract_x
_atom_site_fract_y
_atom_site_fract_z
Si Si1 0.581863 0.932357 0.896562
Si Si2 0.267718 0.773418 0.670015
Si Si3 0.270572 0.216797 0.277337
Si Si4 0.982789 0.063529 0.147365
Si Si5 0.703132 0.449085 0.233890
Si Si6 0.158218 0.042452 0.998202
Si Si7 0.098697 0.332522 0.127568
O O1 0.576360 0.845040 0.883369
O O2 0.758852 0.929954 0.897011
O O3 0.703310 0.980847 0.822226
O O4 0.354173 0.981818 0.964134
O O5 0.337494 0.748169 0.706908
O O6 0.243106 0.709622 0.634262
O O7 0.000000 0.797945 0.750000
O O8 0.500000 0.215299 0.250000
O O9 0.172447 0.133301 0.296693
O O10 0.061551 0.266124 0.352837
O O11 0.000941 0.063454 0.084403
O O12 0.891936 0.986254 0.192366
O O13 0.500000 0.416461 0.250000
O O14 0.908151 0.392821 0.193843
O O15 0.259192 0.117739 0.947648
O O16 0.000000 0.000000 0.000000
#
# Coordination Sequence:
#
# PCOD9308695 Si02
#       7
#     8   8   8   8   8   8   8
#     4  10  18  41  64  90 123 170 219 257 324 396
#     4  10  18  38  66  91 121 163 213 273 326 385
#     4  11  23  37  66 101 126 159 219 277 332 382
#     4  11  21  39  66  94 128 176 216 261 333 393
#     4   9  18  35  69  97 124 163 219 275 320 381
#     4  11  27  41  60  93 135 171 221 269 329 397
#     4  10  22  41  62  92 132 167 214 273 326 388
#
# _framework density 9.9589090000000002
#
# number of rings (size 3 to 8) (size 9 to 14) (size 15 to 20)
#    0.000    1.714    4.286    1.286    2.000    4.000 
#    0.000    2.143    0.000    0.000    0.000    0.000 
#    0.000    0.000    0.000    0.000    0.000    0.000 
#
# Total GULP energy -156034.788753 kJ/mol
# GULP energy per Si atom -5572.671027 kJ/mol
# Density = 0.993624 g / cm^3
# Si number density = 9.958909 Si / 1000 Ang^3
#
#
#
# Elastic Constant Matrix: (Units=GPa)
#
#
# Indices 1 2 3 4 5 6 
#
# 1 105.8673 25.8647 7.6818 -0.0001 6.9238 0.0002
# 2 25.8647 82.9342 3.8481 -0.0008 10.6732 -0.0003
# 3 7.6818 3.8481 33.9884 0.0000 20.2507 0.0006
# 4 -0.0001 -0.0008 0.0000 20.9602 0.0003 1.7678
# 5 6.9238 10.6732 20.2507 0.0003 25.1675 -0.0016
# 6 0.0002 -0.0003 0.0006 1.7678 -0.0016 28.7525
#
#
#
# Elastic Compliance Matrix: (Units=1/GPa)
#
#
# Indices 1 2 3 4 5 6 
#
# 1 0.010357 -0.003154 -0.002080 0.000000 0.000163 0.000000
# 2 -0.003154 0.013924 0.004106 0.000001 -0.008342 0.000000
# 3 -0.002080 0.004106 0.057865 0.000001 -0.047730 -0.000004
# 4 0.000000 0.000001 0.000001 0.047958 -0.000002 -0.002949
# 5 0.000163 -0.008342 -0.047730 -0.000002 0.081632 0.000005
# 6 0.000000 0.000000 -0.000004 -0.002949 0.000005 0.034961
#
#
# Mechanical properties :
#
#
# Convention : Reuss Voigt Hill
#
# Bulk Modulus (GPa) = 12.51728 33.06434 22.79081
# Shear Modulus (GPa) = 18.14333 27.33573 22.73953
#
# Velocity S-wave (km/s) = 3.02140 3.70865 3.38252
# Velocity P-wave (km/s) = 4.29767 5.91398 5.16939
#
# Compressibility (1/GPa) = 0.07988956
#
# Stress axis : x y z
#
# Youngs Moduli (GPa) = 96.55526 71.81601 17.28160
#
# Poissons Ratio (x) = 0.22653 0.03595
# Poissons Ratio (y) = 0.30457 -0.07097
# Poissons Ratio (z) = 0.20088 -0.29491
#
# Static dielectric constant tensor:
#      x y z
#    x 1.762980 0.000000 0.036280 
#    y 0.000000 1.720860 0.000010 
#    z 0.036280 0.000010 1.748640 
# 
# From -- ./inp_files/289716.got.cif
#   From: 2010.05.17/outbox.ucp.g08.bks.cvg/sg15_145_cif.got.tgz:289716.got - 2010.06.11 12:40:34.
