data_PCOD9308425
_publ_section_title
;
Structure prediction by ZEFSAII (Michael W. Deem and Ramdas Pophale) SiO2 
 PCOD9308425
Probable space group: C 2/C
;
_chemical_formula_sum "Si O2"
_cell_formula_units_Z 28
_cell_length_a 11.181003
_cell_length_b 10.154870
_cell_length_c 10.450735
_cell_angle_alpha 90.000000
_cell_angle_beta 89.845743
_cell_angle_gamma 90.000000
_cell_volume 1186.589206
_symmetry_space_group_name_H-M "C 2/C"
_symmetry_group_IT_number 15
_symmetry_cell_setting 'monoclinic'
loop_
_space_group_symop_operation_xyz
x,y,z
-x,y,1/2-z
-x,-y,-z
x,-y,1/2+z
1/2+x,1/2+y,z
1/2-x,1/2+y,1/2-z
1/2-x,1/2-y,-z
1/2+x,1/2-y,1/2+z
loop_
_atom_site_type_symbol
_atom_site_label
_atom_site_fract_x
_atom_site_fract_y
_atom_site_fract_z
Si Si1 0.340499 0.024547 0.879553
Si Si2 0.578344 0.471248 0.875535
Si Si3 0.954191 0.301051 0.030015
Si Si4 0.500000 0.164455 0.250000
O O1 0.201660 0.050360 0.870337
O O2 0.371102 0.927235 0.999371
O O3 0.387267 0.934959 0.761659
O O4 0.427914 0.147920 0.897409
O O5 0.500000 0.485298 0.750000
O O6 0.500000 0.500000 0.000000
O O7 0.609501 0.315658 0.895650
O O8 0.994639 0.261705 0.884662
#
# Coordination Sequence:
#
# PCOD9308425 Si02
#       4
#     8   8   8   4
#     4   9  21  43  70  98 134 173 237 273 338 412
#     4  12  29  43  62 104 143 179 221 285 345 406
#     4   9  21  42  71  95 124 185 221 281 336 393
#     4   8  18  38  74 100 122 170 232 288 328 398
#
# _framework density 23.597044
#
# number of rings (size 3 to 8) (size 9 to 14) (size 15 to 20)
#    1.714    0.571    0.000    0.857    8.000    1.143 
#    5.143    0.000    0.000    0.000    0.000    0.000 
#    0.000    0.000    0.000    0.000    0.000    0.000 
#
# Total GULP energy -78129.288275 kJ/mol
# GULP energy per Si atom -5580.663448 kJ/mol
# Density = 2.354334 g / cm^3
# Si number density = 23.597044 Si / 1000 Ang^3
#
#
#
# Elastic Constant Matrix: (Units=GPa)
#
#
# Indices 1 2 3 4 5 6 
#
# 1 120.6454 -15.9728 29.7431 0.0000 12.4935 0.0000
# 2 -15.9728 32.3532 10.5784 0.0000 2.6364 0.0000
# 3 29.7431 10.5784 130.4677 0.0000 4.2646 0.0000
# 4 0.0000 0.0000 0.0000 35.9620 0.0000 -6.4634
# 5 12.4935 2.6364 4.2646 0.0000 24.8256 0.0000
# 6 0.0000 0.0000 0.0000 -6.4634 0.0000 23.1909
#
#
#
# Elastic Compliance Matrix: (Units=1/GPa)
#
#
# Indices 1 2 3 4 5 6 
#
# 1 0.010374 0.006451 -0.002710 0.000000 -0.005440 0.000000
# 2 0.006451 0.035978 -0.004180 0.000000 -0.006349 0.000000
# 3 -0.002710 -0.004180 0.008611 0.000000 0.000329 0.000000
# 4 0.000000 0.000000 0.000000 0.029273 0.000000 0.008159
# 5 -0.005440 -0.006349 0.000329 0.000000 0.043637 0.000000
# 6 0.000000 0.000000 0.000000 0.008159 0.000000 0.045394
#
#
# Mechanical properties :
#
#
# Convention : Reuss Voigt Hill
#
# Bulk Modulus (GPa) = 18.48943 36.90707 27.69825
# Shear Modulus (GPa) = 26.01801 34.07023 30.04412
#
# Velocity S-wave (km/s) = 3.32414 3.80390 3.57209
# Velocity P-wave (km/s) = 4.75244 5.91333 5.36438
#
# Compressibility (1/GPa) = 0.05408496
#
# Stress axis : x y z
#
# Youngs Moduli (GPa) = 96.39047 27.79461 116.13304
#
# Poissons Ratio (x) = -0.17931 0.31476
# Poissons Ratio (y) = -0.62186 0.48547
# Poissons Ratio (z) = 0.26125 0.11619
#
# Static dielectric constant tensor:
#      x y z
#    x 1.910520 0.000000 -0.153610 
#    y 0.000000 2.022500 0.000000 
#    z -0.153610 0.000000 2.186250 
# 
# From -- ./inp_files/83622.got.cif
#   From: 2010.05.17/outbox.cif.g08.bks.cpg/sg15_42_cif.got.tgz:83622.got - 2010.06.03 18:47:42.
