data_PCOD9308265
_publ_section_title
;
Structure prediction by ZEFSAII (Michael W. Deem and Ramdas Pophale) SiO2 
 PCOD9308265
Probable space group: C 2/C
;
_chemical_formula_sum "Si O2"
_cell_formula_units_Z 36
_cell_length_a 18.849556
_cell_length_b 9.315243
_cell_length_c 10.942839
_cell_angle_alpha 90.000000
_cell_angle_beta 44.620704
_cell_angle_gamma 90.000000
_cell_volume 1349.634571
_symmetry_space_group_name_H-M "C 2/C"
_symmetry_group_IT_number 15
_symmetry_cell_setting 'monoclinic'
loop_
_space_group_symop_operation_xyz
x,y,z
-x,y,1/2-z
-x,-y,-z
x,-y,1/2+z
1/2+x,1/2+y,z
1/2-x,1/2+y,1/2-z
1/2-x,1/2-y,-z
1/2+x,1/2-y,1/2+z
loop_
_atom_site_type_symbol
_atom_site_label
_atom_site_fract_x
_atom_site_fract_y
_atom_site_fract_z
Si Si1 0.129796 0.084536 0.950971
Si Si2 0.350971 0.932767 0.240501
Si Si3 0.923330 0.242104 0.926365
Si Si4 0.500000 0.189870 0.750000
Si Si5 0.171579 0.249192 0.676097
O O1 0.234331 0.114529 0.895144
O O2 0.155630 0.107650 0.777867
O O3 0.089220 0.925946 0.022482
O O4 0.050886 0.203067 0.090861
O O5 0.402572 0.852024 0.064378
O O6 0.417016 0.904216 0.280520
O O7 0.338674 0.102475 0.235081
O O8 0.803088 0.260190 0.009116
O O9 0.051968 0.254816 0.761297
#
# Coordination Sequence:
#
# PCOD9308265 Si02
#       5
#     8   8   8   4   8
#     4  12  26  51  82 116 159 214 264 334 407 477
#     4  12  28  51  80 117 162 214 265 331 406 477
#     4  12  28  51  83 117 164 208 271 335 400 483
#     4  12  30  46  80 122 160 210 278 328 400 482
#     4  12  27  50  80 117 160 212 267 329 402 475
#
# _framework density 26.673886
#
# number of rings (size 3 to 8) (size 9 to 14) (size 15 to 20)
#    0.000    0.000    5.556    2.000    7.778    5.333 
#    0.000    0.000    0.000    0.000    0.000    0.000 
#    0.000    0.000    0.000    0.000    0.000    0.000 
#
# Total GULP energy -100899.504024 kJ/mol
# GULP energy per Si atom -5605.528001 kJ/mol
# Density = 2.661317 g / cm^3
# Si number density = 26.673886 Si / 1000 Ang^3
#
#
#
# Elastic Constant Matrix: (Units=GPa)
#
#
# Indices 1 2 3 4 5 6 
#
# 1 163.3456 15.4392 35.2287 0.0000 -32.6061 0.0000
# 2 15.4392 143.6758 91.3744 0.0000 22.7545 0.0000
# 3 35.2287 91.3744 212.4362 0.0000 -27.4323 0.0000
# 4 0.0000 0.0000 0.0000 38.6137 0.0000 -7.3116
# 5 -32.6061 22.7545 -27.4323 0.0000 64.7892 0.0000
# 6 0.0000 0.0000 0.0000 -7.3116 0.0000 39.8981
#
#
#
# Elastic Compliance Matrix: (Units=1/GPa)
#
#
# Indices 1 2 3 4 5 6 
#
# 1 0.007063 -0.001341 -0.000079 0.000000 0.003992 0.000000
# 2 -0.001341 0.012036 -0.005911 0.000000 -0.007405 0.000000
# 3 -0.000079 -0.005911 0.007961 0.000000 0.005407 0.000000
# 4 0.000000 0.000000 0.000000 0.026828 0.000000 0.004917
# 5 0.003992 -0.007405 0.005407 0.000000 0.022334 0.000000
# 6 0.000000 0.000000 0.000000 0.004917 0.000000 0.025965
#
#
# Mechanical properties :
#
#
# Convention : Reuss Voigt Hill
#
# Bulk Modulus (GPa) = 80.65678 89.28247 84.96963
# Shear Modulus (GPa) = 41.32883 53.82121 47.57502
#
# Velocity S-wave (km/s) = 3.94053 4.49681 4.22783
# Velocity P-wave (km/s) = 7.14195 7.77858 7.46705
#
# Compressibility (1/GPa) = 0.01239821
#
# Stress axis : x y z
#
# Youngs Moduli (GPa) = 141.59102 83.08339 125.61202
#
# Poissons Ratio (x) = 0.11141 0.00992
# Poissons Ratio (y) = 0.18986 0.74248
# Poissons Ratio (z) = 0.01118 0.49109
#
# Static dielectric constant tensor:
#      x y z
#    x 2.127800 0.000000 -0.079060 
#    y 0.000000 1.877030 0.000000 
#    z -0.079060 0.000000 2.095010 
# 
# From -- ./inp_files/38486.got.cif
#   From: 2010.05.17/outbox.cif.g08.bks.cpg/sg15_20_cif.got.tgz:38486.got - 2010.06.03 18:47:42.
