data_PCOD9308137
_publ_section_title
;
Structure prediction by ZEFSAII (Michael W. Deem and Ramdas Pophale) SiO2 
 PCOD9308137
Probable space group: C 2/C
;
_chemical_formula_sum "Si O2"
_cell_formula_units_Z 44
_cell_length_a 11.390677
_cell_length_b 25.267777
_cell_length_c 8.054444
_cell_angle_alpha 90.000000
_cell_angle_beta 54.146563
_cell_angle_gamma 90.000000
_cell_volume 1878.947959
_symmetry_space_group_name_H-M "C 2/C"
_symmetry_group_IT_number 15
_symmetry_cell_setting 'monoclinic'
loop_
_space_group_symop_operation_xyz
x,y,z
-x,y,1/2-z
-x,-y,-z
x,-y,1/2+z
1/2+x,1/2+y,z
1/2-x,1/2+y,1/2-z
1/2-x,1/2-y,-z
1/2+x,1/2-y,1/2+z
loop_
_atom_site_type_symbol
_atom_site_label
_atom_site_fract_x
_atom_site_fract_y
_atom_site_fract_z
Si Si1 0.286074 0.803008 0.868914
Si Si2 0.500000 0.120092 0.250000
Si Si3 0.146515 0.464430 0.859752
Si Si4 0.993918 0.863751 0.059175
Si Si5 0.136494 0.036836 0.033088
Si Si6 0.611565 0.260643 0.507798
O O1 0.629247 0.842795 0.581559
O O2 0.390244 0.783808 0.633504
O O3 0.250000 0.750000 0.000000
O O4 0.150471 0.835013 0.904313
O O5 0.418176 0.084210 0.186407
O O6 0.272865 0.496007 0.655682
O O7 0.233758 0.445930 0.950124
O O8 0.000000 0.500000 0.000000
O O9 0.000000 0.875365 0.250000
O O10 0.940110 0.915060 0.003077
O O11 0.890185 0.816126 0.088188
O O12 0.000000 0.013012 0.250000
O O13 0.500000 0.261242 0.750000
O O14 0.750000 0.250000 0.500000
#
# Coordination Sequence:
#
# PCOD9308137 Si02
#       6
#     8   4   8   8   8   8
#     4  12  26  50  78 117 163 217 272 328 409 500
#     4  12  28  48  82 110 164 214 266 330 422 480
#     4  12  27  55  80 118 159 211 276 344 410 491
#     4  12  27  49  79 118 159 214 273 330 414 490
#     4  12  28  51  82 116 159 209 276 340 410 499
#     4  12  26  47  75 115 163 203 267 337 400 486
#
# _framework density 23.417359999999999
#
# number of rings (size 3 to 8) (size 9 to 14) (size 15 to 20)
#    0.000    0.000    5.455    3.273    5.091    2.182 
#    0.000    0.000    0.000    0.000    0.000    0.000 
#    0.000    0.000    0.000    0.000    0.000    0.000 
#
# Total GULP energy -122827.062844 kJ/mol
# GULP energy per Si atom -5583.048311 kJ/mol
# Density = 2.336406 g / cm^3
# Si number density = 23.417360 Si / 1000 Ang^3
#
#
#
# Elastic Constant Matrix: (Units=GPa)
#
#
# Indices 1 2 3 4 5 6 
#
# 1 214.1515 95.4163 42.0508 0.0000 7.7423 0.0000
# 2 95.4163 152.3806 64.5153 0.0000 -6.9759 0.0000
# 3 42.0508 64.5153 122.1807 0.0000 2.5809 0.0000
# 4 0.0000 0.0000 0.0000 36.2797 0.0000 0.6055
# 5 7.7423 -6.9759 2.5809 0.0000 37.2100 0.0000
# 6 0.0000 0.0000 0.0000 0.6055 0.0000 59.3829
#
#
#
# Elastic Compliance Matrix: (Units=1/GPa)
#
#
# Indices 1 2 3 4 5 6 
#
# 1 0.006648 -0.004267 0.000012 0.000000 -0.002184 0.000000
# 2 -0.004267 0.011327 -0.004583 0.000000 0.003329 0.000000
# 3 0.000012 -0.004583 0.010634 0.000000 -0.001599 0.000000
# 4 0.000000 0.000000 0.000000 0.027568 0.000000 -0.000281
# 5 -0.002184 0.003329 -0.001599 0.000000 0.028064 0.000000
# 6 0.000000 0.000000 0.000000 -0.000281 0.000000 0.016843
#
#
# Mechanical properties :
#
#
# Convention : Reuss Voigt Hill
#
# Bulk Modulus (GPa) = 91.47543 99.18642 95.33093
# Shear Modulus (GPa) = 40.84778 45.68990 43.26884
#
# Velocity S-wave (km/s) = 4.18106 4.42193 4.30318
# Velocity P-wave (km/s) = 7.90292 8.27763 8.09245
#
# Compressibility (1/GPa) = 0.01093190
#
# Stress axis : x y z
#
# Youngs Moduli (GPa) = 150.42874 88.28178 94.03566
#
# Poissons Ratio (x) = 0.37674 -0.00109
# Poissons Ratio (y) = 0.64195 0.43095
# Poissons Ratio (z) = -0.00174 0.40458
#
# Static dielectric constant tensor:
#      x y z
#    x 1.831270 0.000000 0.123920 
#    y 0.000000 1.919070 0.000000 
#    z 0.123920 0.000000 1.694330 
# 
# From -- ./inp_files/34019.got.cif
#   From: 2010.05.17/outbox.cif.g08.bks.cpg/sg15_18_cif.got.tgz:34019.got - 2010.06.03 18:47:42.
