data_PCOD9308518
_publ_section_title
;
Structure prediction by ZEFSAII (Michael W. Deem and Ramdas Pophale) SiO2 
 PCOD9308518
Probable space group: C 2/C
;
_chemical_formula_sum "Si O2"
_cell_formula_units_Z 40
_cell_length_a 6.945164
_cell_length_b 16.028926
_cell_length_c 15.444849
_cell_angle_alpha 90.000000
_cell_angle_beta 84.722302
_cell_angle_gamma 90.000000
_cell_volume 1712.085797
_symmetry_space_group_name_H-M "C 2/C"
_symmetry_group_IT_number 15
_symmetry_cell_setting 'monoclinic'
loop_
_space_group_symop_operation_xyz
x,y,z
-x,y,1/2-z
-x,-y,-z
x,-y,1/2+z
1/2+x,1/2+y,z
1/2-x,1/2+y,1/2-z
1/2-x,1/2-y,-z
1/2+x,1/2-y,1/2+z
loop_
_atom_site_type_symbol
_atom_site_label
_atom_site_fract_x
_atom_site_fract_y
_atom_site_fract_z
Si Si1 0.200978 0.811900 0.131452
Si Si2 0.264853 0.177261 0.820325
Si Si3 0.198647 0.364335 0.563936
Si Si4 0.250587 0.676860 0.427059
Si Si5 0.686221 0.039079 0.543562
O O1 0.288911 0.841268 0.218427
O O2 0.273205 0.717170 0.110018
O O3 0.968654 0.820121 0.152527
O O4 0.251055 0.856582 0.039760
O O5 0.327262 0.271772 0.842292
O O6 0.351255 0.108608 0.881754
O O7 0.261875 0.456339 0.587946
O O8 0.969277 0.349587 0.583629
O O9 0.250000 0.750000 0.500000
O O10 0.319640 0.591321 0.470097
O O11 0.500000 0.000000 0.500000
#
# Coordination Sequence:
#
# PCOD9308518 Si02
#       5
#     8   8   8   8   8
#     4   9  18  32  50  73 101 142 178 217 272 325
#     4   9  17  32  52  72 102 142 178 217 271 329
#     4   9  17  31  50  74 102 133 180 217 265 319
#     4   8  15  30  50  69 100 138 172 209 266 324
#     4   9  17  31  50  76 102 133 176 221 266 322
#
# _framework density 23.363315
#
# number of rings (size 3 to 8) (size 9 to 14) (size 15 to 20)
#    0.000    3.200    0.000    0.000    0.000    0.800 
#    3.600    9.000    4.400    0.000    0.000    0.000 
#    0.000    0.000    0.000    0.000    0.000    0.000 
#
# Total GULP energy -111359.313498 kJ/mol
# GULP energy per Si atom -5567.965675 kJ/mol
# Density = 2.331014 g / cm^3
# Si number density = 23.363315 Si / 1000 Ang^3
#
#
#
# Elastic Constant Matrix: (Units=GPa)
#
#
# Indices 1 2 3 4 5 6 
#
# 1 91.8744 20.6102 31.3939 0.0000 3.9030 0.0000
# 2 20.6102 165.1630 36.5392 0.0000 -7.1512 0.0000
# 3 31.3939 36.5392 120.8555 0.0000 3.4457 0.0000
# 4 0.0000 0.0000 0.0000 16.6594 0.0000 6.7380
# 5 3.9030 -7.1512 3.4457 0.0000 30.6420 0.0000
# 6 0.0000 0.0000 0.0000 6.7380 0.0000 10.4830
#
#
#
# Elastic Compliance Matrix: (Units=1/GPa)
#
#
# Indices 1 2 3 4 5 6 
#
# 1 0.012123 -0.000952 -0.002820 0.000000 -0.001449 0.000000
# 2 -0.000952 0.006657 -0.001819 0.000000 0.001879 0.000000
# 3 -0.002820 -0.001819 0.009589 0.000000 -0.001144 0.000000
# 4 0.000000 0.000000 0.000000 0.081113 0.000000 -0.052136
# 5 -0.001449 0.001879 -0.001144 0.000000 0.033387 0.000000
# 6 0.000000 0.000000 0.000000 -0.052136 0.000000 0.128904
#
#
# Mechanical properties :
#
#
# Convention : Reuss Voigt Hill
#
# Bulk Modulus (GPa) = 58.17988 61.66439 59.92214
# Shear Modulus (GPa) = 17.31993 30.84685 24.08339
#
# Velocity S-wave (km/s) = 2.72569 3.63755 3.21412
# Velocity P-wave (km/s) = 5.90442 6.64028 6.28313
#
# Compressibility (1/GPa) = 0.01718807
#
# Stress axis : x y z
#
# Youngs Moduli (GPa) = 82.48708 150.21343 104.28078
#
# Poissons Ratio (x) = 0.14295 0.29408
# Poissons Ratio (y) = 0.07850 0.18970
# Poissons Ratio (z) = 0.23262 0.27325
#
# Static dielectric constant tensor:
#      x y z
#    x 2.058070 0.000000 0.025180 
#    y 0.000000 1.963020 0.000000 
#    z 0.025180 0.000000 1.889320 
# 
# From -- ./inp_files/133082.got.cif
#   From: 2010.05.17/outbox.cif.g08.bks.cpg/sg15_67_cif.got.tgz:133082.got - 2010.06.03 18:47:42.
