data_PCOD9308867
_publ_section_title
;
Structure prediction by ZEFSAII (Michael W. Deem and Ramdas Pophale) SiO2 
 PCOD9308867
Probable space group: C 2/C
;
_chemical_formula_sum "Si O2"
_cell_formula_units_Z 24
_cell_length_a 18.000000
_cell_length_b 18.000000
_cell_length_c 21.000000
_cell_angle_alpha 90.000000
_cell_angle_beta 20.000000
_cell_angle_gamma 90.000000
_cell_volume 2327.105055
_symmetry_space_group_name_H-M "C 2/C"
_symmetry_group_IT_number 15
_symmetry_cell_setting 'monoclinic'
loop_
_space_group_symop_operation_xyz
x,y,z
-x,y,1/2-z
-x,-y,-z
x,-y,1/2+z
1/2+x,1/2+y,z
1/2-x,1/2+y,1/2-z
1/2-x,1/2-y,-z
1/2+x,1/2-y,1/2+z
loop_
_atom_site_type_symbol
_atom_site_label
_atom_site_fract_x
_atom_site_fract_y
_atom_site_fract_z
Si Si1 0.061136 0.901679 0.062954
Si Si2 0.150876 0.220780 0.681505
Si Si3 0.504729 0.903543 0.628061
Si Si4 0.005420 0.800099 0.002637
Si Si5 0.279447 0.857262 0.681207
Si Si6 0.836286 0.972785 0.827322
O O1 0.015769 0.836820 0.150848
O O2 0.306985 0.910475 0.838097
O O3 0.924559 0.865820 0.114029
O O4 0.962451 0.975064 0.173948
O O5 0.338590 0.169301 0.498360
O O6 0.276999 0.269515 0.633752
O O7 0.000000 0.259137 0.750000
O O8 0.405749 0.899756 0.636212
O O9 0.661788 0.974159 0.502401
O O10 0.052170 0.839103 0.898410
O O11 0.877416 0.724900 0.095122
O O12 0.267529 0.905751 0.628294
O O13 0.000000 0.946956 0.750000
#
# Coordination Sequence:
#
# PCOD9308867 Si02
#       6
#     8   8   8   8   8   8
#     4  10  20  38  60  88 121 155 203 238 305 359
#     4  10  20  34  53  88 129 157 190 244 298 357
#     4   9  20  37  62  87 116 161 199 246 293 363
#     4  10  20  39  60  88 120 161 203 247 294 364
#     4  10  21  41  63  89 120 160 205 251 299 356
#     4  11  24  42  61  89 126 160 201 255 301 352
#
# _framework density 10.313243
#
# number of rings (size 3 to 8) (size 9 to 14) (size 15 to 20)
#    0.000    2.000    1.667    2.500    0.000    6.000 
#    9.000    0.833    0.000    0.000    0.000    0.000 
#    0.000    0.000    0.000    0.000    0.000    0.000 
#
# Total GULP energy -133884.684810 kJ/mol
# GULP energy per Si atom -5578.528534 kJ/mol
# Density = 1.028977 g / cm^3
# Si number density = 10.313243 Si / 1000 Ang^3
#
#
#
# Elastic Constant Matrix: (Units=GPa)
#
#
# Indices 1 2 3 4 5 6 
#
# 1 57.4378 28.3319 17.0861 -0.0069 -7.9861 -0.0185
# 2 28.3319 48.3144 10.7460 -0.0642 1.2470 0.0483
# 3 17.0861 10.7460 97.5720 -0.0130 17.4479 0.0437
# 4 -0.0069 -0.0642 -0.0130 17.1769 -0.0394 -0.1652
# 5 -7.9861 1.2470 17.4479 -0.0394 18.1641 -0.0105
# 6 -0.0185 0.0483 0.0437 -0.1652 -0.0105 17.1651
#
#
#
# Elastic Compliance Matrix: (Units=1/GPa)
#
#
# Indices 1 2 3 4 5 6 
#
# 1 0.031212 -0.017200 -0.007530 -0.000006 0.022136 0.000115
# 2 -0.017200 0.030709 0.001641 0.000082 -0.011246 -0.000115
# 3 -0.007530 0.001641 0.014487 -0.000026 -0.017339 -0.000060
# 4 -0.000006 0.000082 -0.000026 0.058224 0.000144 0.000560
# 5 0.022136 -0.011246 -0.017339 0.000144 0.082214 0.000151
# 6 0.000115 -0.000115 -0.000060 0.000560 0.000151 0.058264
#
#
# Mechanical properties :
#
#
# Convention : Reuss Voigt Hill
#
# Bulk Modulus (GPa) = 33.07823 35.07248 34.07536
# Shear Modulus (GPa) = 15.08912 20.31189 17.70051
#
# Velocity S-wave (km/s) = 2.70764 3.14147 2.93259
# Velocity P-wave (km/s) = 5.08396 5.49536 5.29366
#
# Compressibility (1/GPa) = 0.03023136
#
# Stress axis : x y z
#
# Youngs Moduli (GPa) = 32.03911 32.56352 69.02566
#
# Poissons Ratio (x) = 0.56008 0.51975
# Poissons Ratio (y) = 0.55106 -0.11326
# Poissons Ratio (z) = 0.24125 -0.05343
#
# Static dielectric constant tensor:
#      x y z
#    x 1.737460 -0.000020 0.019820 
#    y -0.000020 1.752340 0.000050 
#    z 0.019820 0.000050 1.867810 
# 
# From -- ./inp_files/249717.got.cif
#   From: 2010.05.17/outbox.ucp.g08.bks.cvg/sg15_125_cif.got.tgz:249717.got - 2010.06.11 12:40:34.
