data_PCOD9308484
_publ_section_title
;
Structure prediction by ZEFSAII (Michael W. Deem and Ramdas Pophale) SiO2 
 PCOD9308484
Probable space group: C 2/C
;
_chemical_formula_sum "Si O2"
_cell_formula_units_Z 40
_cell_length_a 6.683643
_cell_length_b 27.811552
_cell_length_c 9.719243
_cell_angle_alpha 90.000000
_cell_angle_beta 49.171549
_cell_angle_gamma 90.000000
_cell_volume 1367.028947
_symmetry_space_group_name_H-M "C 2/C"
_symmetry_group_IT_number 15
_symmetry_cell_setting 'monoclinic'
loop_
_space_group_symop_operation_xyz
x,y,z
-x,y,1/2-z
-x,-y,-z
x,-y,1/2+z
1/2+x,1/2+y,z
1/2-x,1/2+y,1/2-z
1/2-x,1/2-y,-z
1/2+x,1/2-y,1/2+z
loop_
_atom_site_type_symbol
_atom_site_label
_atom_site_fract_x
_atom_site_fract_y
_atom_site_fract_z
Si Si1 0.811078 0.089120 0.472088
Si Si2 0.236502 0.013693 0.533506
Si Si3 0.415574 0.309303 0.006627
Si Si4 0.420886 0.790693 0.593425
Si Si5 0.779965 0.384754 0.051111
O O1 0.891571 0.133378 0.533097
O O2 0.516745 0.101241 0.550792
O O3 0.000000 0.089810 0.250000
O O4 0.811136 0.034991 0.532191
O O5 0.278335 0.067295 0.456327
O O6 0.000000 0.016943 0.750000
O O7 0.500000 0.000000 0.500000
O O8 0.454512 0.266423 0.098230
O O9 0.661522 0.303347 0.794278
O O10 0.150898 0.296889 0.035931
O O11 0.629796 0.831916 0.538364
O O12 0.500000 0.380295 0.250000
#
# Coordination Sequence:
#
# PCOD9308484 Si02
#       5
#     8   8   8   8   8
#     4   9  13  24  39  56  79 108 138 172 205 249
#     4   8  14  20  34  54  79 104 129 164 211 247
#     4   9  15  26  42  60  79 111 144 175 205 239
#     4   9  16  26  41  58  84 111 140 175 205 247
#     4   9  15  24  35  57  85 109 131 169 215 251
#
# _framework density 29.260535000000001
#
# number of rings (size 3 to 8) (size 9 to 14) (size 15 to 20)
#    0.000    3.200    4.000    0.000    0.000    0.000 
#    0.000    1.000    0.000    0.000    0.000    0.000 
#    0.000   17.600    0.000    7.600    0.000    0.000 
#
# Total GULP energy -111977.929211 kJ/mol
# GULP energy per Si atom -5598.896461 kJ/mol
# Density = 2.919394 g / cm^3
# Si number density = 29.260535 Si / 1000 Ang^3
#
#
#
# Elastic Constant Matrix: (Units=GPa)
#
#
# Indices 1 2 3 4 5 6 
#
# 1 97.5391 90.1415 44.6629 0.0000 1.8478 0.0000
# 2 90.1415 379.7421 32.1461 0.0000 -20.7026 0.0000
# 3 44.6629 32.1461 171.5801 0.0000 -37.9846 0.0000
# 4 0.0000 0.0000 0.0000 28.3969 0.0000 -15.2797
# 5 1.8478 -20.7026 -37.9846 0.0000 43.8037 0.0000
# 6 0.0000 0.0000 0.0000 -15.2797 0.0000 65.7208
#
#
#
# Elastic Compliance Matrix: (Units=1/GPa)
#
#
# Indices 1 2 3 4 5 6 
#
# 1 0.016176 -0.003787 -0.005010 0.000000 -0.006817 0.000000
# 2 -0.003787 0.003600 0.000895 0.000000 0.002638 0.000000
# 3 -0.005010 0.000895 0.008793 0.000000 0.008259 0.000000
# 4 0.000000 0.000000 0.000000 0.040250 0.000000 0.009358
# 5 -0.006817 0.002638 0.008259 0.000000 0.031525 0.000000
# 6 0.000000 0.000000 0.000000 0.009358 0.000000 0.017392
#
#
# Mechanical properties :
#
#
# Convention : Reuss Voigt Hill
#
# Bulk Modulus (GPa) = 78.34055 109.19582 93.76819
# Shear Modulus (GPa) = 36.28562 59.71166 47.99864
#
# Velocity S-wave (km/s) = 3.52531 4.52230 4.05456
# Velocity P-wave (km/s) = 6.58802 8.04163 7.35084
#
# Compressibility (1/GPa) = 0.01276478
#
# Stress axis : x y z
#
# Youngs Moduli (GPa) = 61.82183 277.74925 113.72574
#
# Poissons Ratio (x) = 1.05189 0.56978
# Poissons Ratio (y) = 0.23413 -0.10181
# Poissons Ratio (z) = 0.30973 -0.24864
#
# Static dielectric constant tensor:
#      x y z
#    x 2.348890 0.000000 -0.069860 
#    y 0.000000 2.331520 0.000000 
#    z -0.069860 0.000000 2.112290 
# 
# From -- ./inp_files/139692.got.cif
#   From: 2010.05.17/outbox.cif.g08.bks.cpg/sg15_70_cif.got.tgz:139692.got - 2010.06.03 18:47:42.
