data_PCOD9308300
_publ_section_title
;
Structure prediction by ZEFSAII (Michael W. Deem and Ramdas Pophale) SiO2 
 PCOD9308300
Probable space group: C 2/C
;
_chemical_formula_sum "Si O2"
_cell_formula_units_Z 48
_cell_length_a 9.805783
_cell_length_b 20.898983
_cell_length_c 11.850453
_cell_angle_alpha 90.000000
_cell_angle_beta 108.366067
_cell_angle_gamma 90.000000
_cell_volume 2304.821665
_symmetry_space_group_name_H-M "C 2/C"
_symmetry_group_IT_number 15
_symmetry_cell_setting 'monoclinic'
loop_
_space_group_symop_operation_xyz
x,y,z
-x,y,1/2-z
-x,-y,-z
x,-y,1/2+z
1/2+x,1/2+y,z
1/2-x,1/2+y,1/2-z
1/2-x,1/2-y,-z
1/2+x,1/2-y,1/2+z
loop_
_atom_site_type_symbol
_atom_site_label
_atom_site_fract_x
_atom_site_fract_y
_atom_site_fract_z
Si Si1 0.344721 0.964015 0.967086
Si Si2 0.351863 0.862130 0.773369
Si Si3 0.164524 0.187285 0.019460
Si Si4 0.851803 0.764921 0.422270
Si Si5 0.336402 0.880910 0.191805
Si Si6 0.657159 0.571309 0.844179
O O1 0.319965 0.919025 0.851730
O O2 0.215924 0.014940 0.938243
O O3 0.336558 0.919321 0.074847
O O4 0.500000 0.000000 0.000000
O O5 0.500000 0.878186 0.750000
O O6 0.237374 0.845664 0.646574
O O7 0.372837 0.797399 0.851317
O O8 0.157921 0.136352 0.916261
O O9 0.004249 0.209979 0.004151
O O10 0.250000 0.250000 0.000000
O O11 0.750000 0.750000 0.500000
O O12 0.771487 0.821360 0.335654
O O13 0.500000 0.859056 0.250000
O O14 0.277147 0.924496 0.277194
O O15 0.500000 0.560885 0.750000
#
# Coordination Sequence:
#
# PCOD9308300 Si02
#       6
#     8   8   8   8   8   8
#     4  12  28  48  73 110 148 198 253 297 364 445
#     4  12  27  46  77 107 148 193 248 301 369 445
#     4  12  27  47  78 107 149 193 244 306 375 443
#     4  12  27  48  72 113 146 184 245 304 369 431
#     4  12  27  48  76 106 151 195 242 304 367 442
#     4  12  28  49  74 107 152 195 243 303 375 437
#
# _framework density 20.825906
#
# number of rings (size 3 to 8) (size 9 to 14) (size 15 to 20)
#    0.000    0.000    6.667    2.000    9.333    2.000 
#    0.000    0.000    0.000    0.000    0.000    0.000 
#    0.000    0.000    0.000    0.000    0.000    0.000 
#
# Total GULP energy -134363.747192 kJ/mol
# GULP energy per Si atom -5598.489466 kJ/mol
# Density = 2.077851 g / cm^3
# Si number density = 20.825906 Si / 1000 Ang^3
#
#
#
# Elastic Constant Matrix: (Units=GPa)
#
#
# Indices 1 2 3 4 5 6 
#
# 1 115.3550 19.0553 37.6940 0.0000 20.4470 0.0000
# 2 19.0553 102.1849 26.2751 0.0000 14.9091 0.0000
# 3 37.6940 26.2751 99.9574 0.0000 14.0592 0.0000
# 4 0.0000 0.0000 0.0000 17.2629 0.0000 10.6284
# 5 20.4470 14.9091 14.0592 0.0000 52.5313 0.0000
# 6 0.0000 0.0000 0.0000 10.6284 0.0000 24.8047
#
#
#
# Elastic Compliance Matrix: (Units=1/GPa)
#
#
# Indices 1 2 3 4 5 6 
#
# 1 0.010390 -0.000648 -0.003330 0.000000 -0.002969 0.000000
# 2 -0.000648 0.010817 -0.002289 0.000000 -0.002205 0.000000
# 3 -0.003330 -0.002289 0.012041 0.000000 -0.001277 0.000000
# 4 0.000000 0.000000 0.000000 0.078686 0.000000 -0.033715
# 5 -0.002969 -0.002205 -0.001277 0.000000 0.021160 0.000000
# 6 0.000000 0.000000 0.000000 -0.033715 0.000000 0.054761
#
#
# Mechanical properties :
#
#
# Convention : Reuss Voigt Hill
#
# Bulk Modulus (GPa) = 48.27509 53.72734 51.00121
# Shear Modulus (GPa) = 24.12019 34.55131 29.33575
#
# Velocity S-wave (km/s) = 3.40690 4.07757 3.75723
# Velocity P-wave (km/s) = 6.22146 6.92987 6.58520
#
# Compressibility (1/GPa) = 0.02071462
#
# Stress axis : x y z
#
# Youngs Moduli (GPa) = 96.24222 92.44419 83.04697
#
# Poissons Ratio (x) = 0.05991 0.27657
# Poissons Ratio (y) = 0.06237 0.19009
# Poissons Ratio (z) = 0.32051 0.21160
#
# Static dielectric constant tensor:
#      x y z
#    x 1.706020 0.000000 0.004160 
#    y 0.000000 2.079020 0.000000 
#    z 0.004160 0.000000 1.720960 
# 
# From -- ./inp_files/79881.got.cif
#   From: 2010.05.17/outbox.cif.g08.bks.cpg/sg15_40_cif.got.tgz:79881.got - 2010.06.03 18:47:42.
