data_PCOD9308846
_publ_section_title
;
Structure prediction by ZEFSAII (Michael W. Deem and Ramdas Pophale) SiO2 
 PCOD9308846
Probable space group: C 2/C
;
_chemical_formula_sum "Si O2"
_cell_formula_units_Z 22
_cell_length_a 15.000000
_cell_length_b 12.000000
_cell_length_c 12.000000
_cell_angle_alpha 90.000000
_cell_angle_beta 80.000000
_cell_angle_gamma 90.000000
_cell_volume 2127.184747
_symmetry_space_group_name_H-M "C 2/C"
_symmetry_group_IT_number 15
_symmetry_cell_setting 'monoclinic'
loop_
_space_group_symop_operation_xyz
x,y,z
-x,y,1/2-z
-x,-y,-z
x,-y,1/2+z
1/2+x,1/2+y,z
1/2-x,1/2+y,1/2-z
1/2-x,1/2-y,-z
1/2+x,1/2-y,1/2+z
loop_
_atom_site_type_symbol
_atom_site_label
_atom_site_fract_x
_atom_site_fract_y
_atom_site_fract_z
Si Si1 0.903053 0.448811 0.049215
Si Si2 0.961016 0.201914 0.002949
Si Si3 0.093396 0.218127 0.158964
Si Si4 0.162708 0.466007 0.178981
Si Si5 0.500000 0.639170 0.750000
Si Si6 0.139807 0.038198 0.313949
O O1 0.876673 0.489581 0.183223
O O2 0.913607 0.315384 0.054270
O O3 0.855132 0.473119 0.938406
O O4 0.000000 0.500000 0.000000
O O5 0.966978 0.203196 0.867850
O O6 0.905954 0.100075 0.070286
O O7 0.060148 0.195885 0.040226
O O8 0.133838 0.339788 0.160976
O O9 0.152837 0.126711 0.209716
O O10 0.000000 0.213577 0.250000
O O11 0.267596 0.483604 0.173158
O O12 0.423950 0.556873 0.720315
#
# Coordination Sequence:
#
# PCOD9308846 Si02
#       6
#     8   8   8   8   4   8
#     4  12  25  46  74 104 147 188 245 294 365 429
#     4  11  24  45  75  99 142 195 239 287 364 435
#     4  10  19  47  71  94 142 197 223 280 373 422
#     4  12  26  42  75 107 139 188 242 304 354 419
#     4  12  26  42  74 106 138 192 246 284 360 446
#     4  11  25  45  73 100 146 185 240 295 363 422
#
# _framework density 10.342307999999999
#
# number of rings (size 3 to 8) (size 9 to 14) (size 15 to 20)
#    0.000    0.727    8.182    1.091    5.091    2.182 
#    0.000    1.818    0.000    0.000    0.000    0.000 
#    0.000    0.000    0.000    0.000    0.000    0.000 
#
# Total GULP energy -122564.250335 kJ/mol
# GULP energy per Si atom -5571.102288 kJ/mol
# Density = 1.031877 g / cm^3
# Si number density = 10.342308 Si / 1000 Ang^3
#
#
#
# Elastic Constant Matrix: (Units=GPa)
#
#
# Indices 1 2 3 4 5 6 
#
# 1 95.6471 -7.4531 23.4668 0.0000 11.1200 0.0000
# 2 -7.4531 19.1200 1.4969 0.0000 -6.3836 0.0000
# 3 23.4668 1.4969 151.2571 0.0000 11.5344 0.0000
# 4 0.0000 0.0000 0.0000 44.0087 0.0000 9.6012
# 5 11.1200 -6.3836 11.5344 0.0000 18.1249 0.0000
# 6 0.0000 0.0000 0.0000 9.6012 0.0000 -8.3935
#
#
#
# Elastic Compliance Matrix: (Units=1/GPa)
#
#
# Indices 1 2 3 4 5 6 
#
# 1 0.011640 0.002914 -0.001438 0.000000 -0.005200 0.000000
# 2 0.002914 0.060765 -0.002679 0.000000 0.021319 0.000000
# 3 -0.001438 -0.002679 0.007216 0.000000 -0.004653 0.000000
# 4 0.000000 0.000000 0.000000 0.018185 0.000000 0.020801
# 5 -0.005200 0.021319 -0.004653 0.000000 0.068833 0.000000
# 6 0.000000 0.000000 0.000000 0.020801 0.000000 -0.095346
#
#
# Mechanical properties :
#
#
# Convention : Reuss Voigt Hill
#
# Bulk Modulus (GPa) = 12.95123 33.44951 23.20037
# Shear Modulus (GPa) = 50.28367 27.31560 38.79963
#
# Velocity S-wave (km/s) = 4.93584 3.63791 4.33572
# Velocity P-wave (km/s) = 6.22561 5.81826 6.02538
#
# Compressibility (1/GPa) = 0.07721274
#
# Stress axis : x y z
#
# Youngs Moduli (GPa) = 85.91433 16.45695 138.58608
#
# Poissons Ratio (x) = -0.04795 0.19931
# Poissons Ratio (y) = -0.25033 0.37129
# Poissons Ratio (z) = 0.12356 0.04409
#
# Static dielectric constant tensor:
#      x y z
#    x 1.752080 0.000000 0.034420 
#    y 0.000000 1.683570 0.000000 
#    z 0.034420 0.000000 1.839250 
# 
# From -- ./inp_files/94988.got.cif
#   From: 2010.05.17/outbox.ucp.g08.bks.cvg/sg15_48_cif.got.tgz:94988.got - 2010.06.11 12:40:34.
