data_PCOD9308663
_publ_section_title
;
Structure prediction by ZEFSAII (Michael W. Deem and Ramdas Pophale) SiO2 
 PCOD9308663
Probable space group: C 2/C
;
_chemical_formula_sum "Si O2"
_cell_formula_units_Z 30
_cell_length_a 9.000000
_cell_length_b 18.000000
_cell_length_c 21.000000
_cell_angle_alpha 90.000000
_cell_angle_beta 60.000000
_cell_angle_gamma 90.000000
_cell_volume 2946.218424
_symmetry_space_group_name_H-M "C 2/C"
_symmetry_group_IT_number 15
_symmetry_cell_setting 'monoclinic'
loop_
_space_group_symop_operation_xyz
x,y,z
-x,y,1/2-z
-x,-y,-z
x,-y,1/2+z
1/2+x,1/2+y,z
1/2-x,1/2+y,1/2-z
1/2-x,1/2-y,-z
1/2+x,1/2-y,1/2+z
loop_
_atom_site_type_symbol
_atom_site_label
_atom_site_fract_x
_atom_site_fract_y
_atom_site_fract_z
Si Si1 0.325466 0.978512 0.579003
Si Si2 0.876194 0.142396 0.455910
Si Si3 0.489418 0.127450 0.367838
Si Si4 0.837896 0.169102 0.994690
Si Si5 0.380853 0.206356 0.885341
Si Si6 0.098099 0.800830 0.334504
Si Si7 0.000000 0.482351 0.750000
Si Si8 0.698932 0.095069 0.799467
O O1 0.182499 0.937353 0.562973
O O2 0.365215 0.912263 0.621215
O O3 0.500000 0.000000 0.500000
O O4 0.279238 0.047518 0.638447
O O5 0.716427 0.170350 0.533074
O O6 0.910763 0.206948 0.396077
O O7 0.033706 0.152845 0.472963
O O8 0.328908 0.123894 0.450518
O O9 0.538103 0.213415 0.338197
O O10 0.442873 0.074886 0.317942
O O11 0.750000 0.250000 0.000000
O O12 0.948960 0.158470 0.907380
O O13 0.259679 0.202478 0.848994
O O14 0.547201 0.155441 0.841309
O O15 0.152430 0.852400 0.263244
O O16 0.864768 0.536374 0.742020
#
# Coordination Sequence:
#
# PCOD9308663 Si02
#       8
#     8   8   8   8   8   8   4   8
#     4  11  22  39  65  98 132 177 227 286 360 421
#     4  10  20  36  64  99 130 171 232 287 337 416
#     4  10  22  41  63  90 131 174 225 275 340 426
#     4   9  21  38  65  95 128 171 227 283 341 406
#     4  10  18  33  62  97 127 167 223 284 333 408
#     4  10  19  38  63  96 126 169 230 282 336 408
#     4  10  22  38  60  90 132 176 218 256 354 414
#     4  11  21  36  65  96 133 174 228 285 347 418
#
# _framework density 10.182544
#
# number of rings (size 3 to 8) (size 9 to 14) (size 15 to 20)
#    0.000    1.867    4.000    0.000    1.867    1.067 
#    0.000    4.000    0.000    8.000    0.000    0.000 
#    0.000    0.000    0.000    0.000    0.000    0.000 
#
# Total GULP energy -167092.696123 kJ/mol
# GULP energy per Si atom -5569.756537 kJ/mol
# Density = 1.015937 g / cm^3
# Si number density = 10.182544 Si / 1000 Ang^3
#
#
#
# Elastic Constant Matrix: (Units=GPa)
#
#
# Indices 1 2 3 4 5 6 
#
# 1 89.2122 45.0416 33.2393 0.0000 4.4467 0.0000
# 2 45.0416 132.7028 58.1939 0.0000 0.4252 0.0000
# 3 33.2393 58.1939 110.6355 0.0000 -4.9049 0.0000
# 4 0.0000 0.0000 0.0000 49.9543 0.0000 13.1925
# 5 4.4467 0.4252 -4.9049 0.0000 31.8647 0.0000
# 6 0.0000 0.0000 0.0000 13.1925 0.0000 33.6798
#
#
#
# Elastic Compliance Matrix: (Units=1/GPa)
#
#
# Indices 1 2 3 4 5 6 
#
# 1 0.014092 -0.003737 -0.002370 0.000000 -0.002281 0.000000
# 2 -0.003737 0.010813 -0.004580 0.000000 -0.000328 0.000000
# 3 -0.002370 -0.004580 0.012260 0.000000 0.002279 0.000000
# 4 0.000000 0.000000 0.000000 0.022328 0.000000 -0.008746
# 5 -0.002281 -0.000328 0.002279 0.000000 0.032056 0.000000
# 6 0.000000 0.000000 0.000000 -0.008746 0.000000 0.033117
#
#
# Mechanical properties :
#
#
# Convention : Reuss Voigt Hill
#
# Bulk Modulus (GPa) = 63.31375 67.27778 65.29576
# Shear Modulus (GPa) = 33.04595 36.17147 34.60871
#
# Velocity S-wave (km/s) = 4.03262 4.21901 4.12687
# Velocity P-wave (km/s) = 7.26908 7.53930 7.40542
#
# Compressibility (1/GPa) = 0.01579436
#
# Stress axis : x y z
#
# Youngs Moduli (GPa) = 70.96003 92.47862 81.56280
#
# Poissons Ratio (x) = 0.34557 0.19327
# Poissons Ratio (y) = 0.26516 0.37353
# Poissons Ratio (z) = 0.16814 0.42352
#
# Static dielectric constant tensor:
#      x y z
#    x 1.794190 0.000000 0.001420 
#    y 0.000000 1.738540 0.000000 
#    z 0.001420 0.000000 1.745090 
# 
# From -- ./inp_files/233064.got.cif
#   From: 2010.05.17/outbox.ucp.g08.bks.cvg/sg15_117_cif.got.tgz:233064.got - 2010.06.11 12:40:34.
