data_PCOD9308911
_publ_section_title
;
Structure prediction by ZEFSAII (Michael W. Deem and Ramdas Pophale) SiO2 
 PCOD9308911
Probable space group: C 2/C
;
_chemical_formula_sum "Si O2"
_cell_formula_units_Z 32
_cell_length_a 12.000000
_cell_length_b 15.000000
_cell_length_c 18.000000
_cell_angle_alpha 90.000000
_cell_angle_beta 90.000000
_cell_angle_gamma 90.000000
_cell_volume 3240.000000
_symmetry_space_group_name_H-M "C 2/C"
_symmetry_group_IT_number 15
_symmetry_cell_setting 'monoclinic'
loop_
_space_group_symop_operation_xyz
x,y,z
-x,y,1/2-z
-x,-y,-z
x,-y,1/2+z
1/2+x,1/2+y,z
1/2-x,1/2+y,1/2-z
1/2-x,1/2-y,-z
1/2+x,1/2-y,1/2+z
loop_
_atom_site_type_symbol
_atom_site_label
_atom_site_fract_x
_atom_site_fract_y
_atom_site_fract_z
Si Si1 0.820059 0.104337 0.334419
Si Si2 0.638218 0.275374 0.903411
Si Si3 0.407034 0.968561 0.395102
Si Si4 0.569424 0.209823 0.674675
Si Si5 0.681243 0.356291 0.065403
Si Si6 0.703418 0.549365 0.328603
Si Si7 0.649576 0.022213 0.436155
Si Si8 0.501197 0.517716 0.911000
O O1 0.849083 0.206673 0.320125
O O2 0.796397 0.047021 0.260095
O O3 0.716438 0.094371 0.389315
O O4 0.927360 0.059785 0.373479
O O5 0.521903 0.226945 0.890100
O O6 0.743739 0.212409 0.889947
O O7 0.647894 0.356486 0.847669
O O8 0.649796 0.313555 0.986354
O O9 0.377418 0.884233 0.344541
O O10 0.381948 0.948500 0.481143
O O11 0.324954 0.044766 0.365189
O O12 0.537231 0.993242 0.393761
O O13 0.500000 0.203273 0.750000
O O14 0.764273 0.440061 0.054356
O O15 0.569209 0.392764 0.101591
O O16 0.621780 0.482154 0.372994
O O17 0.500000 0.500000 0.000000
#
# Coordination Sequence:
#
# PCOD9308911 Si02
#       8
#     8   8   8   8   8   8   8   8
#     4  11  23  39  65  89 125 161 211 263 312 370
#     4  11  20  37  61  94 121 162 208 252 307 364
#     4  11  25  40  63  91 130 164 210 251 310 384
#     4  12  23  39  62  94 123 159 210 257 306 377
#     4  10  20  35  65  92 119 160 213 258 301 368
#     4  12  22  39  62  93 125 165 204 258 320 368
#     4  10  22  42  60  93 125 168 208 255 312 374
#     4  11  19  37  62  92 121 157 204 258 305 362
#
# _framework density 9.8765429999999999
#
# number of rings (size 3 to 8) (size 9 to 14) (size 15 to 20)
#    0.000    1.000    6.250    1.125    1.750    0.500 
#    0.000    1.250    0.000    0.000    0.000    0.000 
#    0.000    0.000    0.000    0.000    0.000    0.000 
#
# Total GULP energy -178555.158514 kJ/mol
# GULP energy per Si atom -5579.848704 kJ/mol
# Density = 0.985406 g / cm^3
# Si number density = 9.876543 Si / 1000 Ang^3
#
#
#
# Elastic Constant Matrix: (Units=GPa)
#
#
# Indices 1 2 3 4 5 6 
#
# 1 77.4924 8.6274 18.6159 0.0000 -0.6274 0.0000
# 2 8.6274 45.5367 4.4009 0.0000 -16.2061 0.0000
# 3 18.6159 4.4009 59.9494 0.0000 -1.0084 0.0000
# 4 0.0000 0.0000 0.0000 15.4459 0.0000 6.5537
# 5 -0.6274 -16.2061 -1.0084 0.0000 20.6649 0.0000
# 6 0.0000 0.0000 0.0000 6.5537 0.0000 29.6872
#
#
#
# Elastic Compliance Matrix: (Units=1/GPa)
#
#
# Indices 1 2 3 4 5 6 
#
# 1 0.014245 -0.003065 -0.004235 0.000000 -0.002177 0.000000
# 2 -0.003065 0.031325 -0.000937 0.000000 0.024427 0.000000
# 3 -0.004235 -0.000937 0.018065 0.000000 0.000018 0.000000
# 4 0.000000 0.000000 0.000000 0.071433 0.000000 -0.015769
# 5 -0.002177 0.024427 0.000018 0.000000 0.067483 0.000000
# 6 0.000000 0.000000 0.000000 -0.015769 0.000000 0.037166
#
#
# Mechanical properties :
#
#
# Convention : Reuss Voigt Hill
#
# Bulk Modulus (GPa) = 21.20369 27.36298 24.28334
# Shear Modulus (GPa) = 18.38838 23.24858 20.81848
#
# Velocity S-wave (km/s) = 3.05439 3.43441 3.24996
# Velocity P-wave (km/s) = 4.81630 5.44146 5.13840
#
# Compressibility (1/GPa) = 0.04716161
#
# Stress axis : x y z
#
# Youngs Moduli (GPa) = 70.19772 31.92347 55.35573
#
# Poissons Ratio (x) = 0.09783 0.23445
# Poissons Ratio (y) = 0.21513 0.05187
# Poissons Ratio (z) = 0.29730 0.02991
#
# Static dielectric constant tensor:
#      x y z
#    x 1.676260 0.000000 0.011550 
#    y 0.000000 1.713680 0.000000 
#    z 0.011550 0.000000 1.717450 
# 
# From -- ./inp_files/198353.got.cif
#   From: 2010.05.17/outbox.ucp.g08.bks.cvg/sg15_100_cif.got.tgz:198353.got - 2010.06.11 12:40:34.
