data_PCOD9308727
_publ_section_title
;
Structure prediction by ZEFSAII (Michael W. Deem and Ramdas Pophale) SiO2 
 PCOD9308727
Probable space group: C 2/C
;
_chemical_formula_sum "Si O2"
_cell_formula_units_Z 28
_cell_length_a 9.000000
_cell_length_b 18.000000
_cell_length_c 21.000000
_cell_angle_alpha 90.000000
_cell_angle_beta 120.000000
_cell_angle_gamma 90.000000
_cell_volume 2946.218424
_symmetry_space_group_name_H-M "C 2/C"
_symmetry_group_IT_number 15
_symmetry_cell_setting 'monoclinic'
loop_
_space_group_symop_operation_xyz
x,y,z
-x,y,1/2-z
-x,-y,-z
x,-y,1/2+z
1/2+x,1/2+y,z
1/2-x,1/2+y,1/2-z
1/2-x,1/2-y,-z
1/2+x,1/2-y,1/2+z
loop_
_atom_site_type_symbol
_atom_site_label
_atom_site_fract_x
_atom_site_fract_y
_atom_site_fract_z
Si Si1 0.230916 0.946354 0.021172
Si Si2 0.147502 0.105876 0.018218
Si Si3 0.970107 0.774437 0.818761
Si Si4 0.130859 0.376836 0.331085
Si Si5 0.359586 0.819606 0.675136
Si Si6 0.711703 0.813502 0.544933
Si Si7 0.473127 0.283364 0.390765
O O1 0.314856 0.939466 0.108606
O O2 0.215273 0.031364 0.999720
O O3 0.333126 0.890744 0.997460
O O4 0.038927 0.913439 0.991089
O O5 0.270213 0.132611 0.100879
O O6 0.113010 0.168530 0.958443
O O7 0.787070 0.790137 0.808860
O O8 0.000000 0.783113 0.750000
O O9 0.029465 0.689962 0.844697
O O10 0.107571 0.826569 0.881814
O O11 0.304538 0.335400 0.343726
O O12 0.000000 0.403413 0.250000
O O13 0.500000 0.858520 0.750000
O O14 0.454057 0.753351 0.656996
O O15 0.750000 0.750000 0.500000
O O16 0.587475 0.779450 0.571474
#
# Coordination Sequence:
#
# PCOD9308727 Si02
#       7
#     8   8   8   8   8   8   8
#     4  10  19  34  59  81 112 149 198 229 281 340
#     4  10  21  36  54  86 114 155 181 237 289 341
#     4  10  19  33  55  84 105 138 189 234 280 330
#     4   9  17  32  55  83 108 143 191 237 274 333
#     4  12  22  35  56  86 117 146 180 240 292 337
#     4  11  16  34  58  84 103 144 199 234 262 336
#     4  10  21  36  57  84 116 146 193 236 287 336
#
# _framework density 9.5037079999999996
#
# number of rings (size 3 to 8) (size 9 to 14) (size 15 to 20)
#    0.000    1.714    5.714    3.000    0.000    0.571 
#    0.000    0.714    0.000    0.857    3.714    0.000 
#    0.000    0.000    0.000    0.000    0.000    0.000 
#
# Total GULP energy -156078.143717 kJ/mol
# GULP energy per Si atom -5574.219418 kJ/mol
# Density = 0.948208 g / cm^3
# Si number density = 9.503708 Si / 1000 Ang^3
#
#
#
# Elastic Constant Matrix: (Units=GPa)
#
#
# Indices 1 2 3 4 5 6 
#
# 1 70.9632 24.6650 29.7313 0.0000 -14.4309 0.0000
# 2 24.6650 58.0261 34.0091 0.0000 -0.7358 0.0000
# 3 29.7313 34.0091 133.4066 0.0000 17.7791 0.0000
# 4 0.0000 0.0000 0.0000 10.0856 0.0000 2.7226
# 5 -14.4309 -0.7358 17.7791 0.0000 29.5864 0.0000
# 6 0.0000 0.0000 0.0000 2.7226 0.0000 11.9350
#
#
#
# Elastic Compliance Matrix: (Units=1/GPa)
#
#
# Indices 1 2 3 4 5 6 
#
# 1 0.020780 -0.005815 -0.004870 0.000000 0.012918 0.000000
# 2 -0.005815 0.022315 -0.004445 0.000000 0.000390 0.000000
# 3 -0.004870 -0.004445 0.010920 0.000000 -0.009048 0.000000
# 4 0.000000 0.000000 0.000000 0.105658 0.000000 -0.024102
# 5 0.012918 0.000390 -0.009048 0.000000 0.045547 0.000000
# 6 0.000000 0.000000 0.000000 -0.024102 0.000000 0.089285
#
#
# Mechanical properties :
#
#
# Convention : Reuss Voigt Hill
#
# Bulk Modulus (GPa) = 42.09454 48.80073 45.44763
# Shear Modulus (GPa) = 15.02926 21.92078 18.47502
#
# Velocity S-wave (km/s) = 2.81500 3.39967 3.12106
# Velocity P-wave (km/s) = 5.72364 6.41410 6.07868
#
# Compressibility (1/GPa) = 0.02375605
#
# Stress axis : x y z
#
# Youngs Moduli (GPa) = 48.12252 44.81225 91.57263
#
# Poissons Ratio (x) = 0.26057 0.44599
# Poissons Ratio (y) = 0.27982 0.40703
# Poissons Ratio (z) = 0.23437 0.19919
#
# Static dielectric constant tensor:
#      x y z
#    x 1.670070 0.000000 0.007980 
#    y 0.000000 1.649720 0.000000 
#    z 0.007980 0.000000 1.739070 
# 
# From -- ./inp_files/232779.got.cif
#   From: 2010.05.17/outbox.ucp.g08.bks.cvg/sg15_117_cif.got.tgz:232779.got - 2010.06.11 12:40:34.
