data_PCOD9308707
_publ_section_title
;
Structure prediction by ZEFSAII (Michael W. Deem and Ramdas Pophale) SiO2 
 PCOD9308707
Probable space group: C 2/C
;
_chemical_formula_sum "Si O2"
_cell_formula_units_Z 32
_cell_length_a 21.000000
_cell_length_b 12.000000
_cell_length_c 27.000000
_cell_angle_alpha 90.000000
_cell_angle_beta 150.000000
_cell_angle_gamma 90.000000
_cell_volume 3402.000000
_symmetry_space_group_name_H-M "C 2/C"
_symmetry_group_IT_number 15
_symmetry_cell_setting 'monoclinic'
loop_
_space_group_symop_operation_xyz
x,y,z
-x,y,1/2-z
-x,-y,-z
x,-y,1/2+z
1/2+x,1/2+y,z
1/2-x,1/2+y,1/2-z
1/2-x,1/2-y,-z
1/2+x,1/2-y,1/2+z
loop_
_atom_site_type_symbol
_atom_site_label
_atom_site_fract_x
_atom_site_fract_y
_atom_site_fract_z
Si Si1 0.606732 0.681658 0.958044
Si Si2 0.130802 0.396128 0.041389
Si Si3 0.151308 0.437476 0.837864
Si Si4 0.649087 0.737753 0.758045
Si Si5 0.060987 0.350291 0.501556
Si Si6 0.157493 0.781672 0.697478
Si Si7 0.256047 0.158371 0.656355
Si Si8 0.423827 0.478208 0.398468
O O1 0.500697 0.703582 0.843404
O O2 0.517755 0.603059 0.932249
O O3 0.629362 0.805795 0.995800
O O4 0.743749 0.614402 0.051532
O O5 0.257921 0.359052 0.157440
O O6 0.121922 0.530158 0.026710
O O7 0.003301 0.368990 0.987670
O O8 0.165671 0.348313 0.802679
O O9 0.190006 0.562814 0.844542
O O10 0.000000 0.438261 0.750000
O O11 0.711432 0.767370 0.746301
O O12 0.151099 0.241002 0.561826
O O13 0.940885 0.310427 0.388914
O O14 0.163217 0.751878 0.759388
O O15 0.109982 0.907283 0.652588
O O16 0.199151 0.086329 0.663912
O O17 0.500000 0.500000 0.500000
#
# Coordination Sequence:
#
# PCOD9308707 Si02
#       8
#     8   8   8   8   8   8   8   8
#     4  11  20  36  61  85 119 156 197 257 302 354
#     4   9  19  31  50  88 128 149 179 234 315 372
#     4  11  25  43  61  82 120 172 215 246 287 364
#     4  10  20  34  58  90 114 152 203 250 301 358
#     4  10  19  32  49  85 130 155 177 238 308 372
#     4  11  21  30  57  92 119 151 190 247 313 367
#     4  12  22  35  60  88 124 159 197 248 307 368
#     4  12  18  35  56  88 124 154 189 241 317 360
#
# _framework density 9.4062319999999993
#
# number of rings (size 3 to 8) (size 9 to 14) (size 15 to 20)
#    0.000    1.250    6.250    0.750    3.500    1.500 
#    0.000    0.000    0.000    6.000    0.000    0.000 
#    0.000    0.000    0.000    0.000    0.000    0.000 
#
# Total GULP energy -178137.511277 kJ/mol
# GULP energy per Si atom -5566.797227 kJ/mol
# Density = 0.938482 g / cm^3
# Si number density = 9.406232 Si / 1000 Ang^3
#
#
#
# Elastic Constant Matrix: (Units=GPa)
#
#
# Indices 1 2 3 4 5 6 
#
# 1 23.6719 20.5272 12.5063 0.0001 16.5173 0.0000
# 2 20.5272 136.2230 35.0983 0.0003 14.1827 0.0000
# 3 12.5063 35.0983 105.3867 0.0005 13.3649 0.0000
# 4 0.0001 0.0003 0.0005 37.7656 0.0000 2.6898
# 5 16.5173 14.1827 13.3649 0.0000 26.7345 0.0000
# 6 0.0000 0.0000 0.0000 2.6898 0.0000 19.4667
#
#
#
# Elastic Compliance Matrix: (Units=1/GPa)
#
#
# Indices 1 2 3 4 5 6 
#
# 1 0.080901 -0.007074 -0.001475 0.000000 -0.045492 0.000000
# 2 -0.007074 0.008900 -0.002221 0.000000 0.000759 0.000000
# 3 -0.001475 -0.002221 0.010825 0.000000 -0.003322 0.000000
# 4 0.000000 0.000000 0.000000 0.026742 0.000000 -0.003695
# 5 -0.045492 0.000759 -0.003322 0.000000 0.066769 0.000000
# 6 0.000000 0.000000 0.000000 -0.003695 0.000000 0.051880
#
#
# Mechanical properties :
#
#
# Convention : Reuss Voigt Hill
#
# Bulk Modulus (GPa) = 12.64470 44.61614 28.63042
# Shear Modulus (GPa) = 17.01145 29.93667 23.47406
#
# Velocity S-wave (km/s) = 3.01036 3.99346 3.53624
# Velocity P-wave (km/s) = 4.33810 6.71055 5.65024
#
# Compressibility (1/GPa) = 0.07908453
#
# Stress axis : x y z
#
# Youngs Moduli (GPa) = 12.36086 112.35872 92.38001
#
# Poissons Ratio (x) = 0.79486 0.13629
# Poissons Ratio (y) = 0.08744 0.20517
# Poissons Ratio (z) = 0.01824 0.24954
#
# Static dielectric constant tensor:
#      x y z
#    x 1.669390 0.000000 -0.033260 
#    y 0.000000 1.674470 0.000000 
#    z -0.033260 0.000000 1.789560 
# 
# From -- ./inp_files/300865.got.cif
#   From: 2010.05.17/outbox.ucp.g08.bks.cvg/sg15_151_cif.got.tgz:300865.got - 2010.06.11 12:40:34.
