data_PCOD9308719
_publ_section_title
;
Structure prediction by ZEFSAII (Michael W. Deem and Ramdas Pophale) SiO2 
 PCOD9308719
Probable space group: C 2/C
;
_chemical_formula_sum "Si O2"
_cell_formula_units_Z 28
_cell_length_a 9.000000
_cell_length_b 24.000000
_cell_length_c 15.000000
_cell_angle_alpha 90.000000
_cell_angle_beta 60.000000
_cell_angle_gamma 90.000000
_cell_volume 2805.922308
_symmetry_space_group_name_H-M "C 2/C"
_symmetry_group_IT_number 15
_symmetry_cell_setting 'monoclinic'
loop_
_space_group_symop_operation_xyz
x,y,z
-x,y,1/2-z
-x,-y,-z
x,-y,1/2+z
1/2+x,1/2+y,z
1/2-x,1/2+y,1/2-z
1/2-x,1/2-y,-z
1/2+x,1/2-y,1/2+z
loop_
_atom_site_type_symbol
_atom_site_label
_atom_site_fract_x
_atom_site_fract_y
_atom_site_fract_z
Si Si1 0.765524 0.928797 0.135005
Si Si2 0.138419 0.079622 0.541597
Si Si3 0.794363 0.313766 0.067636
Si Si4 0.495885 0.777213 0.849547
Si Si5 0.542504 0.024079 0.136410
Si Si6 0.179639 0.692472 0.735101
Si Si7 0.683505 0.500157 0.697060
O O1 0.719110 0.865193 0.170924
O O2 0.783099 0.964187 0.222289
O O3 0.961712 0.929799 0.042060
O O4 0.627378 0.961704 0.116656
O O5 0.159192 0.141639 0.570816
O O6 0.304707 0.063577 0.437503
O O7 0.152170 0.041941 0.625425
O O8 0.680156 0.258253 0.105968
O O9 0.845572 0.324938 0.153936
O O10 0.954478 0.311368 0.951693
O O11 0.500000 0.805629 0.750000
O O12 0.661126 0.736548 0.814510
O O13 0.500000 0.038752 0.250000
O O14 0.368662 0.028855 0.131326
O O15 0.000000 0.715454 0.750000
O O16 0.500000 0.467709 0.750000
#
# Coordination Sequence:
#
# PCOD9308719 Si02
#       7
#     8   8   8   8   8   8   8
#     4  10  19  33  52  80 106 135 183 233 273 322
#     4  11  19  32  55  77 105 143 180 223 279 331
#     4  10  20  35  58  84 108 144 191 226 279 336
#     4   9  20  37  57  83 112 141 184 236 276 335
#     4  10  21  34  48  76 112 140 180 225 275 329
#     4  11  20  34  59  83 114 147 182 235 286 329
#     4   9  18  31  52  73 101 137 178 221 263 319
#
# _framework density 9.9788940000000004
#
# number of rings (size 3 to 8) (size 9 to 14) (size 15 to 20)
#    0.000    2.000    2.857    2.143    0.000    1.143 
#    0.000    0.000    0.000    0.857    0.000    0.000 
#    0.000    0.000    0.000    0.000    0.000    0.000 
#
# Total GULP energy -155918.319337 kJ/mol
# GULP energy per Si atom -5568.511405 kJ/mol
# Density = 0.995618 g / cm^3
# Si number density = 9.978894 Si / 1000 Ang^3
#
#
#
# Elastic Constant Matrix: (Units=GPa)
#
#
# Indices 1 2 3 4 5 6 
#
# 1 121.8746 0.5239 26.5544 0.0000 -26.1717 0.0000
# 2 0.5239 1.8741 10.1148 0.0000 2.9068 0.0000
# 3 26.5544 10.1148 62.2002 0.0000 -20.5591 0.0000
# 4 0.0000 0.0000 0.0000 0.9241 0.0000 27.9145
# 5 -26.1717 2.9068 -20.5591 0.0000 25.3740 0.0000
# 6 0.0000 0.0000 0.0000 27.9145 0.0000 -69.4336
#
#
#
# Elastic Compliance Matrix: (Units=1/GPa)
#
#
# Indices 1 2 3 4 5 6 
#
# 1 0.010361 0.011380 -0.004333 0.000000 0.005873 0.000000
# 2 0.011380 -0.521310 0.141404 0.000000 0.186029 0.000000
# 3 -0.004333 0.141404 -0.016252 0.000000 -0.033836 0.000000
# 4 0.000000 0.000000 0.000000 0.082327 0.000000 0.033098
# 5 0.005873 0.186029 -0.033836 0.000000 -0.003258 0.000000
# 6 0.000000 0.000000 0.000000 0.033098 0.000000 -0.001096
#
#
# Mechanical properties :
#
#
# Convention : Reuss Voigt Hill
#
# Bulk Modulus (GPa) = -4.34220 28.92612 12.29196
# Shear Modulus (GPa) = -6.07611 1.28994 -2.39308
#
# Velocity S-wave (km/s) = -1.74674 0.80482 -1.09621
# Velocity P-wave (km/s) = 2.49971 3.92285 2.13778
#
# Compressibility (1/GPa) = -0.23029777
#
# Stress axis : x y z
#
# Youngs Moduli (GPa) = 96.51155 -1.91825 -61.53200
#
# Poissons Ratio (x) = 0.02183 -0.26661
# Poissons Ratio (y) = -1.09827 8.70089
# Poissons Ratio (z) = 0.41817 0.27125
#
# Static dielectric constant tensor:
#      x y z
#    x 1.729950 0.000000 -0.055340 
#    y 0.000000 1.729510 0.000000 
#    z -0.055340 0.000000 1.828940 
# 
# From -- ./inp_files/137469.got.cif
#   From: 2010.05.17/outbox.ucp.g08.bks.cvg/sg15_69_cif.got.tgz:137469.got - 2010.06.11 12:40:34.
