data_PCOD9308451
_publ_section_title
;
Structure prediction by ZEFSAII (Michael W. Deem and Ramdas Pophale) SiO2 
 PCOD9308451
Probable space group: C 2/C
;
_chemical_formula_sum "Si O2"
_cell_formula_units_Z 48
_cell_length_a 12.285820
_cell_length_b 9.490157
_cell_length_c 16.036612
_cell_angle_alpha 90.000000
_cell_angle_beta 56.385723
_cell_angle_gamma 90.000000
_cell_volume 1557.120367
_symmetry_space_group_name_H-M "C 2/C"
_symmetry_group_IT_number 15
_symmetry_cell_setting 'monoclinic'
loop_
_space_group_symop_operation_xyz
x,y,z
-x,y,1/2-z
-x,-y,-z
x,-y,1/2+z
1/2+x,1/2+y,z
1/2-x,1/2+y,1/2-z
1/2-x,1/2-y,-z
1/2+x,1/2-y,1/2+z
loop_
_atom_site_type_symbol
_atom_site_label
_atom_site_fract_x
_atom_site_fract_y
_atom_site_fract_z
Si Si1 0.357000 0.640186 0.053233
Si Si2 0.001255 0.787536 0.662083
Si Si3 0.030875 0.338976 0.891121
Si Si4 0.703135 0.964963 0.222895
Si Si5 0.850972 0.111292 0.830317
Si Si6 0.319450 0.909328 0.503920
O O1 0.455825 0.692203 0.939428
O O2 0.280269 0.494562 0.104130
O O3 0.440907 0.649882 0.103486
O O4 0.246069 0.760858 0.102149
O O5 0.898250 0.662446 0.730089
O O6 0.000000 0.870101 0.750000
O O7 0.136145 0.712713 0.578752
O O8 0.125936 0.352456 0.930304
O O9 0.121714 0.392667 0.777907
O O10 0.921452 0.461139 0.942654
O O11 0.795106 0.937627 0.263486
O O12 0.000000 0.153381 0.750000
O O13 0.813507 0.991214 0.915491
#
# Coordination Sequence:
#
# PCOD9308451 Si02
#       6
#     8   8   8   8   8   8
#     4   9  17  30  48  68  89 115 148 184 220 259
#     4   9  17  30  48  68  89 115 148 184 220 259
#     4   7  12  26  46  63  82 114 152 181 208 253
#     4   9  17  30  48  68  89 115 148 184 220 259
#     4   9  17  30  48  68  89 115 148 184 220 259
#     4   7  12  26  46  63  82 114 152 181 208 253
#
# _framework density 30.826132000000001
#
# number of rings (size 3 to 8) (size 9 to 14) (size 15 to 20)
#    0.000    3.667    0.000    4.000    0.000    1.333 
#    0.000    3.333    0.000   16.000    0.000    0.000 
#    0.000    0.000    0.000    0.000    0.000    0.000 
#
# Total GULP energy -134571.377274 kJ/mol
# GULP energy per Si atom -5607.140720 kJ/mol
# Density = 3.075597 g / cm^3
# Si number density = 30.826132 Si / 1000 Ang^3
#
#
#
# Elastic Constant Matrix: (Units=GPa)
#
#
# Indices 1 2 3 4 5 6 
#
# 1 129.1778 -1.0277 17.7130 0.0000 -28.4646 0.0000
# 2 -1.0277 87.2818 -7.9467 0.0000 -19.8260 0.0000
# 3 17.7130 -7.9467 195.8926 0.0000 -19.2991 0.0000
# 4 0.0000 0.0000 0.0000 50.9172 0.0000 -18.7818
# 5 -28.4646 -19.8260 -19.2991 0.0000 55.7345 0.0000
# 6 0.0000 0.0000 0.0000 -18.7818 0.0000 41.9136
#
#
#
# Elastic Compliance Matrix: (Units=1/GPa)
#
#
# Indices 1 2 3 4 5 6 
#
# 1 0.008857 0.001180 -0.000275 0.000000 0.004848 0.000000
# 2 0.001180 0.012804 0.000953 0.000000 0.005488 0.000000
# 3 -0.000275 0.000953 0.005371 0.000000 0.002058 0.000000
# 4 0.000000 0.000000 0.000000 0.023529 0.000000 0.010543
# 5 0.004848 0.005488 0.002058 0.000000 0.023083 0.000000
# 6 0.000000 0.000000 0.000000 0.010543 0.000000 0.028583
#
#
# Mechanical properties :
#
#
# Convention : Reuss Voigt Hill
#
# Bulk Modulus (GPa) = 32.52142 47.75881 40.14012
# Shear Modulus (GPa) = 45.97273 56.62065 51.29669
#
# Velocity S-wave (km/s) = 3.86600 4.29041 4.08372
# Velocity P-wave (km/s) = 5.52275 6.33009 5.94015
#
# Compressibility (1/GPa) = 0.03074897
#
# Stress axis : x y z
#
# Youngs Moduli (GPa) = 112.90967 78.09830 186.17824
#
# Poissons Ratio (x) = -0.09219 0.05126
# Poissons Ratio (y) = -0.13328 -0.17749
# Poissons Ratio (z) = 0.03109 -0.07445
#
# Static dielectric constant tensor:
#      x y z
#    x 2.409370 0.000000 -0.005580 
#    y 0.000000 2.465410 0.000000 
#    z -0.005580 0.000000 2.301290 
# 
# From -- ./inp_files/153026.got.cif
#   From: 2010.05.17/outbox.cif.g08.bks.cpg/sg15_77_cif.got.tgz:153026.got - 2010.06.03 18:47:42.
