data_PCOD9308973
_publ_section_title
;
Structure prediction by ZEFSAII (Michael W. Deem and Ramdas Pophale) SiO2 
 PCOD9308973
Probable space group: C 2/C
;
_chemical_formula_sum "Si O2"
_cell_formula_units_Z 28
_cell_length_a 21.000000
_cell_length_b 21.000000
_cell_length_c 18.000000
_cell_angle_alpha 90.000000
_cell_angle_beta 20.000000
_cell_angle_gamma 90.000000
_cell_volume 2714.955898
_symmetry_space_group_name_H-M "C 2/C"
_symmetry_group_IT_number 15
_symmetry_cell_setting 'monoclinic'
loop_
_space_group_symop_operation_xyz
x,y,z
-x,y,1/2-z
-x,-y,-z
x,-y,1/2+z
1/2+x,1/2+y,z
1/2-x,1/2+y,1/2-z
1/2-x,1/2-y,-z
1/2+x,1/2-y,1/2+z
loop_
_atom_site_type_symbol
_atom_site_label
_atom_site_fract_x
_atom_site_fract_y
_atom_site_fract_z
Si Si1 0.866126 0.185873 0.721623
Si Si2 0.341798 0.083606 0.858328
Si Si3 0.771455 0.333736 0.844056
Si Si4 0.932333 0.347793 0.513738
Si Si5 0.500000 0.489465 0.250000
Si Si6 0.000000 0.176974 0.250000
Si Si7 0.206498 0.601619 0.017496
Si Si8 0.957278 0.793259 0.623313
O O1 0.832925 0.260012 0.775488
O O2 0.060766 0.166852 0.545651
O O3 0.895417 0.179244 0.600196
O O4 0.715986 0.145565 0.933384
O O5 0.500000 0.074329 0.750000
O O6 0.456038 0.101949 0.658937
O O7 0.199871 0.140829 0.034951
O O8 0.177834 0.030274 0.025065
O O9 0.886330 0.366139 0.649826
O O10 0.775238 0.361166 0.923445
O O11 0.737576 0.327814 0.685328
O O12 0.047490 0.281737 0.389805
O O13 0.383207 0.445791 0.320992
O O14 0.996549 0.204665 0.338865
O O15 0.000000 0.571502 0.250000
#
# Coordination Sequence:
#
# PCOD9308973 Si02
#       8
#     8   8   8   8   4   4   8   8
#     4  10  20  37  61  98 140 167 202 256 318 399
#     4  11  23  42  65  88 126 172 224 269 321 364
#     4  10  20  37  62  99 135 168 205 255 323 395
#     4  10  21  37  61  94 138 174 206 261 319 389
#     4  11  26  46  64  94 120 168 231 288 308 364
#     4  11  22  36  64  94 134 172 205 262 316 392
#     4  12  23  41  70  91 124 168 215 267 329 381
#     4  10  21  35  60 100 139 170 206 250 324 399
#
# _framework density 10.313243
#
# number of rings (size 3 to 8) (size 9 to 14) (size 15 to 20)
#    0.000    1.429    2.857    2.571    1.000    4.571 
#    0.000    0.714    0.000    8.571    0.000    0.000 
#    0.000    0.000    0.000    0.000    0.000    0.000 
#
# Total GULP energy -156032.259124 kJ/mol
# GULP energy per Si atom -5572.580683 kJ/mol
# Density = 1.028977 g / cm^3
# Si number density = 10.313243 Si / 1000 Ang^3
#
#
#
# Elastic Constant Matrix: (Units=GPa)
#
#
# Indices 1 2 3 4 5 6 
#
# 1 115.5648 25.3109 49.1670 0.0141 16.3732 0.0014
# 2 25.3109 52.7037 44.1782 0.0018 11.2702 -0.0105
# 3 49.1670 44.1782 142.3752 0.0434 3.9731 -0.0043
# 4 0.0141 0.0018 0.0434 32.7466 -0.0036 -9.3056
# 5 16.3732 11.2702 3.9731 -0.0036 52.1036 0.0025
# 6 0.0014 -0.0105 -0.0043 -9.3056 0.0025 16.5706
#
#
#
# Elastic Compliance Matrix: (Units=1/GPa)
#
#
# Indices 1 2 3 4 5 6 
#
# 1 0.010767 -0.002080 -0.002997 -0.000002 -0.002705 -0.000004
# 2 -0.002080 0.027387 -0.007649 0.000016 -0.004687 0.000025
# 3 -0.002997 -0.007649 0.010382 -0.000015 0.001805 -0.000010
# 4 -0.000002 0.000016 -0.000015 0.036336 0.000000 0.020405
# 5 -0.002705 -0.004687 0.001805 0.000000 0.020919 -0.000006
# 6 -0.000004 0.000025 -0.000010 0.020405 -0.000006 0.071807
#
#
# Mechanical properties :
#
#
# Convention : Reuss Voigt Hill
#
# Bulk Modulus (GPa) = 43.32134 60.88398 52.10266
# Shear Modulus (GPa) = 23.72541 33.08335 28.40438
#
# Velocity S-wave (km/s) = 3.39520 4.00925 3.71493
# Velocity P-wave (km/s) = 6.03475 7.14238 6.61180
#
# Compressibility (1/GPa) = 0.02308331
#
# Stress axis : x y z
#
# Youngs Moduli (GPa) = 92.87468 36.51403 96.32203
#
# Poissons Ratio (x) = 0.07595 0.28872
# Poissons Ratio (y) = 0.19318 0.73675
# Poissons Ratio (z) = 0.27838 0.27929
#
# Static dielectric constant tensor:
#      x y z
#    x 1.745320 -0.000020 -0.003010 
#    y -0.000020 1.823170 0.000010 
#    z -0.003010 0.000010 1.789830 
# 
# From -- ./inp_files/216645.got.cif
#   From: 2010.05.17/outbox.ucp.g08.bks.cvg/sg15_109_cif.got.tgz:216645.got - 2010.06.11 12:40:34.
