data_PCOD9308530
_publ_section_title
;
Structure prediction by ZEFSAII (Michael W. Deem and Ramdas Pophale) SiO2 
 PCOD9308530
Probable space group: C 2/C
;
_chemical_formula_sum "Si O2"
_cell_formula_units_Z 40
_cell_length_a 7.325899
_cell_length_b 12.170538
_cell_length_c 17.883172
_cell_angle_alpha 90.000000
_cell_angle_beta 98.046754
_cell_angle_gamma 90.000000
_cell_volume 1578.767142
_symmetry_space_group_name_H-M "C 2/C"
_symmetry_group_IT_number 15
_symmetry_cell_setting 'monoclinic'
loop_
_space_group_symop_operation_xyz
x,y,z
-x,y,1/2-z
-x,-y,-z
x,-y,1/2+z
1/2+x,1/2+y,z
1/2-x,1/2+y,1/2-z
1/2-x,1/2-y,-z
1/2+x,1/2-y,1/2+z
loop_
_atom_site_type_symbol
_atom_site_label
_atom_site_fract_x
_atom_site_fract_y
_atom_site_fract_z
Si Si1 0.439967 0.131042 0.170265
Si Si2 0.609044 0.399441 0.037561
Si Si3 0.002419 0.650183 0.489721
Si Si4 0.136611 0.693393 0.651395
Si Si5 0.729010 0.332757 0.190990
O O1 0.500000 0.067212 0.250000
O O2 0.240786 0.189860 0.159908
O O3 0.593013 0.228927 0.181977
O O4 0.454038 0.089426 0.085657
O O5 0.650740 0.418068 0.127486
O O6 0.798625 0.383038 0.003620
O O7 0.500000 0.500000 0.000000
O O8 0.505915 0.282068 0.024324
O O9 0.134212 0.640582 0.569408
O O10 0.243181 0.628698 0.722910
O O11 0.925828 0.702784 0.667019
#
# Coordination Sequence:
#
# PCOD9308530 Si02
#       5
#     8   8   8   8   8
#     4   9  16  27  47  79 109 145 194 258 298 356
#     4   9  17  31  52  82 121 153 195 258 313 373
#     4   9  17  29  50  84 112 152 208 247 305 384
#     4   9  15  27  49  78 108 143 195 251 296 363
#     4   8  16  28  46  79 106 150 192 242 308 367
#
# _framework density 25.336226
#
# number of rings (size 3 to 8) (size 9 to 14) (size 15 to 20)
#    0.000    3.200    0.000    1.800    0.000    0.000 
#    0.000    0.000    0.000   30.000  239.200    0.000 
#    0.000    0.000    0.000    0.000    0.000    0.000 
#
# Total GULP energy -111798.499149 kJ/mol
# GULP energy per Si atom -5589.924957 kJ/mol
# Density = 2.527856 g / cm^3
# Si number density = 25.336226 Si / 1000 Ang^3
#
#
#
# Elastic Constant Matrix: (Units=GPa)
#
#
# Indices 1 2 3 4 5 6 
#
# 1 75.9235 25.0765 36.4658 0.0000 6.1849 0.0000
# 2 25.0765 103.6401 37.9842 0.0000 9.3517 0.0000
# 3 36.4658 37.9842 266.6900 0.0000 -1.9898 0.0000
# 4 0.0000 0.0000 0.0000 7.4738 0.0000 2.2180
# 5 6.1849 9.3517 -1.9898 0.0000 36.2682 0.0000
# 6 0.0000 0.0000 0.0000 2.2180 0.0000 30.1807
#
#
#
# Elastic Compliance Matrix: (Units=1/GPa)
#
#
# Indices 1 2 3 4 5 6 
#
# 1 0.015074 -0.002862 -0.001668 0.000000 -0.001924 0.000000
# 2 -0.002862 0.010996 -0.001193 0.000000 -0.002413 0.000000
# 3 -0.001668 -0.001193 0.004154 0.000000 0.000820 0.000000
# 4 0.000000 0.000000 0.000000 0.136784 0.000000 -0.010052
# 5 -0.001924 -0.002413 0.000820 0.000000 0.028568 0.000000
# 6 0.000000 0.000000 0.000000 -0.010052 0.000000 0.033872
#
#
# Mechanical properties :
#
#
# Convention : Reuss Voigt Hill
#
# Bulk Modulus (GPa) = 53.25339 71.70072 62.47705
# Shear Modulus (GPa) = 20.23034 37.89969 29.06501
#
# Velocity S-wave (km/s) = 2.82880 3.87184 3.39067
# Velocity P-wave (km/s) = 5.63327 6.95337 6.32784
#
# Compressibility (1/GPa) = 0.01877815
#
# Stress axis : x y z
#
# Youngs Moduli (GPa) = 66.33770 90.94032 240.74760
#
# Poissons Ratio (x) = 0.26031 0.40153
# Poissons Ratio (y) = 0.18989 0.28716
# Poissons Ratio (z) = 0.11064 0.10847
#
# Static dielectric constant tensor:
#      x y z
#    x 1.992230 0.000000 -0.018790 
#    y 0.000000 1.951910 0.000000 
#    z -0.018790 0.000000 2.125640 
# 
# From -- ./inp_files/187954.got.cif
#   From: 2010.05.17/outbox.cif.g08.bks.cpg/sg15_94_cif.got.tgz:187954.got - 2010.06.03 18:47:42.
