data_PCOD9308644
_publ_section_title
;
Structure prediction by ZEFSAII (Michael W. Deem and Ramdas Pophale) SiO2 
 PCOD9308644
Probable space group: C 2/C
;
_chemical_formula_sum "Si O2"
_cell_formula_units_Z 26
_cell_length_a 21.000000
_cell_length_b 12.000000
_cell_length_c 21.000000
_cell_angle_alpha 90.000000
_cell_angle_beta 30.000000
_cell_angle_gamma 90.000000
_cell_volume 2646.000000
_symmetry_space_group_name_H-M "C 2/C"
_symmetry_group_IT_number 15
_symmetry_cell_setting 'monoclinic'
loop_
_space_group_symop_operation_xyz
x,y,z
-x,y,1/2-z
-x,-y,-z
x,-y,1/2+z
1/2+x,1/2+y,z
1/2-x,1/2+y,1/2-z
1/2-x,1/2-y,-z
1/2+x,1/2-y,1/2+z
loop_
_atom_site_type_symbol
_atom_site_label
_atom_site_fract_x
_atom_site_fract_y
_atom_site_fract_z
Si Si1 0.550992 0.484884 0.776533
Si Si2 0.316357 0.359791 0.511900
Si Si3 0.795452 0.556402 0.834500
Si Si4 0.004372 0.555612 0.564779
Si Si5 0.189631 0.600362 0.983664
Si Si6 0.500000 0.847194 0.250000
Si Si7 0.931396 0.781448 0.932798
O O1 0.500000 0.453032 0.750000
O O2 0.688749 0.538682 0.651978
O O3 0.543571 0.373764 0.826154
O O4 0.452317 0.581377 0.882812
O O5 0.251343 0.430683 0.623084
O O6 0.229782 0.386719 0.523858
O O7 0.326307 0.230443 0.518953
O O8 0.900609 0.580208 0.797183
O O9 0.860471 0.577562 0.711635
O O10 0.685518 0.641229 0.947962
O O11 0.072834 0.472362 0.556912
O O12 0.062296 0.679125 0.523602
O O13 0.000000 0.500000 0.500000
O O14 0.573566 0.776068 0.132584
#
# Coordination Sequence:
#
# PCOD9308644 Si02
#       7
#     8   8   8   8   8   4   8
#     4   9  18  34  59  95 125 149 189 241 313 376
#     4   9  19  36  60  94 122 152 193 247 317 378
#     4  10  21  37  59  93 119 156 198 248 302 368
#     4  11  26  43  58  84 119 166 215 254 300 357
#     4  10  21  36  61  86 127 162 190 249 310 372
#     4  10  18  30  62 100 132 144 180 244 324 380
#     4  10  20  36  63  89 125 152 194 254 308 367
#
# _framework density 9.8261529999999997
#
# number of rings (size 3 to 8) (size 9 to 14) (size 15 to 20)
#    0.000    2.154    0.769    2.308    6.462    0.000 
#    4.154    0.000    0.000    3.692    0.000    0.000 
#    0.000    0.000    0.000    0.000    0.000    0.000 
#
# Total GULP energy -144757.789600 kJ/mol
# GULP energy per Si atom -5567.607292 kJ/mol
# Density = 0.980379 g / cm^3
# Si number density = 9.826153 Si / 1000 Ang^3
#
#
#
# Elastic Constant Matrix: (Units=GPa)
#
#
# Indices 1 2 3 4 5 6 
#
# 1 30.8357 32.7647 17.8951 -0.0002 4.3626 -0.0001
# 2 32.7647 166.8874 43.0083 0.0001 0.5159 0.0000
# 3 17.8951 43.0083 70.0491 0.0001 2.8195 0.0001
# 4 -0.0002 0.0001 0.0001 156.5303 -0.0002 69.1618
# 5 4.3626 0.5159 2.8195 -0.0002 5.2209 -0.0001
# 6 -0.0001 0.0000 0.0001 69.1618 -0.0001 40.9611
#
#
#
# Elastic Compliance Matrix: (Units=1/GPa)
#
#
# Indices 1 2 3 4 5 6 
#
# 1 0.049977 -0.008072 -0.006299 0.000000 -0.037562 0.000000
# 2 -0.008072 0.008437 -0.003430 0.000000 0.007764 0.000000
# 3 -0.006299 -0.003430 0.018160 0.000000 -0.004205 0.000000
# 4 0.000000 0.000000 0.000000 0.025156 0.000000 -0.042475
# 5 -0.037562 0.007764 -0.004205 0.000000 0.224429 0.000000
# 6 0.000000 0.000000 0.000000 -0.042475 0.000000 0.096131
#
#
# Mechanical properties :
#
#
# Convention : Reuss Voigt Hill
#
# Bulk Modulus (GPa) = 24.40789 50.56761 37.48775
# Shear Modulus (GPa) = 10.60329 52.14941 31.37635
#
# Velocity S-wave (km/s) = 2.32533 5.15690 4.00005
# Velocity P-wave (km/s) = 4.43355 7.82593 6.36009
#
# Compressibility (1/GPa) = 0.04097037
#
# Stress axis : x y z
#
# Youngs Moduli (GPa) = 20.00909 118.52649 55.06507
#
# Poissons Ratio (x) = 0.95680 0.34687
# Poissons Ratio (y) = 0.16152 0.18889
# Poissons Ratio (z) = 0.12604 0.40659
#
# Static dielectric constant tensor:
#      x y z
#    x 1.676090 0.000000 -0.006300 
#    y 0.000000 1.689060 0.000000 
#    z -0.006300 0.000000 1.737640 
# 
# From -- ./inp_files/252708.got.cif
#   From: 2010.05.17/outbox.ucp.g08.bks.cvg/sg15_127_cif.got.tgz:252708.got - 2010.06.11 12:40:34.
