data_PCOD9308928
_publ_section_title
;
Structure prediction by ZEFSAII (Michael W. Deem and Ramdas Pophale) SiO2 
 PCOD9308928
Probable space group: C 2/C
;
_chemical_formula_sum "Si O2"
_cell_formula_units_Z 26
_cell_length_a 12.000000
_cell_length_b 21.000000
_cell_length_c 12.000000
_cell_angle_alpha 90.000000
_cell_angle_beta 120.000000
_cell_angle_gamma 90.000000
_cell_volume 2618.860821
_symmetry_space_group_name_H-M "C 2/C"
_symmetry_group_IT_number 15
_symmetry_cell_setting 'monoclinic'
loop_
_space_group_symop_operation_xyz
x,y,z
-x,y,1/2-z
-x,-y,-z
x,-y,1/2+z
1/2+x,1/2+y,z
1/2-x,1/2+y,1/2-z
1/2-x,1/2-y,-z
1/2+x,1/2-y,1/2+z
loop_
_atom_site_type_symbol
_atom_site_label
_atom_site_fract_x
_atom_site_fract_y
_atom_site_fract_z
Si Si1 0.802355 0.560589 0.118876
Si Si2 0.787873 0.810482 0.444004
Si Si3 0.435771 0.354486 0.977523
Si Si4 0.033278 0.389354 0.608852
Si Si5 0.000000 0.186573 0.750000
Si Si6 0.102246 0.427192 0.400050
Si Si7 0.292382 0.770121 0.730556
O O1 0.657359 0.583279 0.071362
O O2 0.882431 0.561552 0.274405
O O3 0.819052 0.493271 0.067109
O O4 0.889105 0.610205 0.088114
O O5 0.750000 0.750000 0.500000
O O6 0.697216 0.868750 0.427595
O O7 0.762330 0.782544 0.308352
O O8 0.934408 0.837295 0.525986
O O9 0.332273 0.301960 0.884783
O O10 0.487693 0.351699 0.130025
O O11 0.035110 0.413742 0.484474
O O12 0.112369 0.323475 0.666101
O O13 0.122525 0.232720 0.815056
O O14 0.000000 0.428634 0.250000
#
# Coordination Sequence:
#
# PCOD9308928 Si02
#       7
#     8   8   8   8   4   8   8
#     4  10  22  42  68  94 124 165 220 263 325 369
#     4  11  25  42  60  95 131 164 214 252 320 388
#     4  10  23  40  63  91 131 170 206 267 317 374
#     4  10  20  41  63  98 126 163 213 267 319 382
#     4  10  20  36  60 102 122 164 212 252 316 380
#     4  12  25  40  68  95 126 170 213 269 315 386
#     4  10  20  38  66  88 133 163 203 260 319 382
#
# _framework density 9.9279810000000008
#
# number of rings (size 3 to 8) (size 9 to 14) (size 15 to 20)
#    0.000    1.538    3.077    2.769    2.154    4.308 
#    0.000    0.000    0.000    0.000    0.000    0.000 
#    0.000    0.000    0.000    0.000    0.000    0.000 
#
# Total GULP energy -144935.386143 kJ/mol
# GULP energy per Si atom -5574.437929 kJ/mol
# Density = 0.990538 g / cm^3
# Si number density = 9.927981 Si / 1000 Ang^3
#
#
#
# Elastic Constant Matrix: (Units=GPa)
#
#
# Indices 1 2 3 4 5 6 
#
# 1 115.6552 38.6159 35.2276 0.0000 6.9268 0.0000
# 2 38.6159 59.6042 9.6091 0.0000 5.5977 0.0000
# 3 35.2276 9.6091 73.4415 0.0000 -4.5757 0.0000
# 4 0.0000 0.0000 0.0000 17.9028 0.0000 1.1342
# 5 6.9268 5.5977 -4.5757 0.0000 33.1707 0.0000
# 6 0.0000 0.0000 0.0000 1.1342 0.0000 26.5922
#
#
#
# Elastic Compliance Matrix: (Units=1/GPa)
#
#
# Indices 1 2 3 4 5 6 
#
# 1 0.012821 -0.007240 -0.005339 0.000000 -0.002192 0.000000
# 2 -0.007240 0.021577 0.000521 0.000000 -0.002057 0.000000
# 3 -0.005339 0.000521 0.016313 0.000000 0.003277 0.000000
# 4 0.000000 0.000000 0.000000 0.056008 0.000000 -0.002389
# 5 -0.002192 -0.002057 0.003277 0.000000 0.031404 0.000000
# 6 0.000000 0.000000 0.000000 -0.002389 0.000000 0.037707
#
#
# Mechanical properties :
#
#
# Convention : Reuss Voigt Hill
#
# Bulk Modulus (GPa) = 37.59945 46.17847 41.88896
# Shear Modulus (GPa) = 23.94496 26.54968 25.24732
#
# Velocity S-wave (km/s) = 3.47642 3.66062 3.56971
# Velocity P-wave (km/s) = 5.92378 6.41670 6.17517
#
# Compressibility (1/GPa) = 0.02659613
#
# Stress axis : x y z
#
# Youngs Moduli (GPa) = 77.99507 46.34552 61.29953
#
# Poissons Ratio (x) = 0.33554 0.32730
# Poissons Ratio (y) = 0.56468 -0.03196
# Poissons Ratio (z) = 0.41644 -0.02417
#
# Static dielectric constant tensor:
#      x y z
#    x 1.747370 0.000000 -0.032090 
#    y 0.000000 1.721690 0.000000 
#    z -0.032090 0.000000 1.680700 
# 
# From -- ./inp_files/89700.got.cif
#   From: 2010.05.17/outbox.ucp.g08.bks.cvg/sg15_45_cif.got.tgz:89700.got - 2010.06.11 12:40:34.
