data_PCOD9308861
_publ_section_title
;
Structure prediction by ZEFSAII (Michael W. Deem and Ramdas Pophale) SiO2 
 PCOD9308861
Probable space group: C 2/C
;
_chemical_formula_sum "Si O2"
_cell_formula_units_Z 22
_cell_length_a 18.000000
_cell_length_b 15.000000
_cell_length_c 24.000000
_cell_angle_alpha 90.000000
_cell_angle_beta 160.000000
_cell_angle_gamma 90.000000
_cell_volume 2216.290529
_symmetry_space_group_name_H-M "C 2/C"
_symmetry_group_IT_number 15
_symmetry_cell_setting 'monoclinic'
loop_
_space_group_symop_operation_xyz
x,y,z
-x,y,1/2-z
-x,-y,-z
x,-y,1/2+z
1/2+x,1/2+y,z
1/2-x,1/2+y,1/2-z
1/2-x,1/2-y,-z
1/2+x,1/2-y,1/2+z
loop_
_atom_site_type_symbol
_atom_site_label
_atom_site_fract_x
_atom_site_fract_y
_atom_site_fract_z
Si Si1 0.621627 0.478483 0.430249
Si Si2 0.066558 0.879746 0.614980
Si Si3 0.773279 0.823276 0.157230
Si Si4 0.000000 0.117807 0.250000
Si Si5 0.676121 0.782942 0.603528
Si Si6 0.000692 0.361636 0.648267
O O1 0.548065 0.535984 0.433859
O O2 0.435937 0.403759 0.287340
O O3 0.606211 0.552978 0.370926
O O4 0.853685 0.425828 0.584993
O O5 0.173781 0.812496 0.737577
O O6 0.277560 0.902549 0.724295
O O7 0.889018 0.820050 0.455954
O O8 0.905526 0.729726 0.257475
O O9 0.563230 0.822996 0.050535
O O10 0.665172 0.835848 0.019639
O O11 0.188239 0.176055 0.352625
#
# Coordination Sequence:
#
# PCOD9308861 Si02
#       6
#     8   8   8   4   8   8
#     4  11  20  32  58  90 112 147 191 238 277 337
#     4   9  21  37  61  84 114 148 194 232 284 336
#     4  10  20  36  60  82 119 147 189 235 286 336
#     4  10  20  32  60  84 110 146 194 230 280 332
#     4   9  20  36  57  84 113 153 184 233 286 337
#     4  10  20  37  61  86 114 151 187 236 287 335
#
# _framework density 9.9264960000000002
#
# number of rings (size 3 to 8) (size 9 to 14) (size 15 to 20)
#    0.000    2.182    1.818    0.545    2.545    5.091 
#    0.000    0.000   12.000    4.364    0.000    0.000 
#    0.000    0.000    0.000    0.000    0.000    0.000 
#
# Total GULP energy -122756.740558 kJ/mol
# GULP energy per Si atom -5579.851844 kJ/mol
# Density = 0.990390 g / cm^3
# Si number density = 9.926496 Si / 1000 Ang^3
#
#
#
# Elastic Constant Matrix: (Units=GPa)
#
#
# Indices 1 2 3 4 5 6 
#
# 1 88.9128 36.7422 34.9532 0.0077 36.6570 -0.0028
# 2 36.7422 95.6496 42.4485 0.0262 23.3728 0.0121
# 3 34.9532 42.4485 75.8402 0.0724 27.6755 0.0059
# 4 0.0077 0.0262 0.0724 34.8804 0.0134 15.2002
# 5 36.6570 23.3728 27.6755 0.0134 40.1647 -0.0001
# 6 -0.0028 0.0121 0.0059 15.2002 -0.0001 41.6584
#
#
#
# Elastic Compliance Matrix: (Units=1/GPa)
#
#
# Indices 1 2 3 4 5 6 
#
# 1 0.019195 -0.003000 -0.001886 0.000008 -0.014474 0.000000
# 2 -0.003000 0.014791 -0.006351 0.000006 -0.001493 -0.000006
# 3 -0.001886 -0.006351 0.020884 -0.000041 -0.008973 0.000014
# 4 0.000008 0.000006 -0.000041 0.034090 0.000006 -0.012439
# 5 -0.014474 -0.001493 -0.008973 0.000006 0.045159 -0.000001
# 6 0.000000 -0.000006 0.000014 -0.012439 -0.000001 0.028543
#
#
# Mechanical properties :
#
#
# Convention : Reuss Voigt Hill
#
# Bulk Modulus (GPa) = 30.86786 54.29893 42.58340
# Shear Modulus (GPa) = 25.51875 33.09127 29.30501
#
# Velocity S-wave (km/s) = 3.58912 4.08709 3.84617
# Velocity P-wave (km/s) = 5.72343 7.04857 6.42028
#
# Compressibility (1/GPa) = 0.03239616
#
# Stress axis : x y z
#
# Youngs Moduli (GPa) = 52.09623 67.61093 47.88341
#
# Poissons Ratio (x) = 0.20282 0.09031
# Poissons Ratio (y) = 0.15628 0.30411
# Poissons Ratio (z) = 0.09825 0.42940
#
# Static dielectric constant tensor:
#      x y z
#    x 1.758680 0.000000 -0.010320 
#    y 0.000000 1.698070 -0.000020 
#    z -0.010320 -0.000020 1.691150 
# 
# From -- ./inp_files/47398.got.cif
#   From: 2010.05.17/outbox.ucp.g08.bks.cvg/sg15_24_cif.got.tgz:47398.got - 2010.06.11 12:40:34.
