data_PCOD9308009
_publ_section_title
;
Structure prediction by ZEFSAII (Michael W. Deem and Ramdas Pophale) SiO2 
 PCOD9308009
Probable space group: C 2/C
;
_chemical_formula_sum "Si O2"
_cell_formula_units_Z 52
_cell_length_a 9.716915
_cell_length_b 16.714126
_cell_length_c 20.936876
_cell_angle_alpha 90.000000
_cell_angle_beta 136.416447
_cell_angle_gamma 90.000000
_cell_volume 2344.242673
_symmetry_space_group_name_H-M "C 2/C"
_symmetry_group_IT_number 15
_symmetry_cell_setting 'monoclinic'
loop_
_space_group_symop_operation_xyz
x,y,z
-x,y,1/2-z
-x,-y,-z
x,-y,1/2+z
1/2+x,1/2+y,z
1/2-x,1/2+y,1/2-z
1/2-x,1/2-y,-z
1/2+x,1/2-y,1/2+z
loop_
_atom_site_type_symbol
_atom_site_label
_atom_site_fract_x
_atom_site_fract_y
_atom_site_fract_z
Si Si1 0.811108 0.932563 0.142061
Si Si2 0.825076 0.730496 0.955297
Si Si3 0.191698 0.605621 0.354257
Si Si4 0.226458 0.222329 0.417660
Si Si5 0.960863 0.541347 0.621957
Si Si6 0.500000 0.153969 0.750000
Si Si7 0.580998 0.565636 0.419446
O O1 0.800166 0.839876 0.119015
O O2 0.611674 0.955105 0.113740
O O3 0.000000 0.947354 0.250000
O O4 0.842742 0.987789 0.091478
O O5 0.806577 0.814937 0.913569
O O6 0.750000 0.750000 0.000000
O O7 0.052005 0.701114 0.030569
O O8 0.097758 0.547582 0.375782
O O9 0.359482 0.556144 0.372283
O O10 0.000000 0.631517 0.250000
O O11 0.250000 0.250000 0.500000
O O12 0.142164 0.286275 0.338382
O O13 0.091257 0.142896 0.376893
O O14 0.060386 0.592238 0.713374
O O15 0.747191 0.578858 0.530253
#
# Coordination Sequence:
#
# PCOD9308009 Si02
#       7
#     8   8   8   8   8   4   8
#     4  12  28  48  75 113 156 198 255 315 384 462
#     4  12  27  47  74 108 152 197 248 315 383 444
#     4  12  26  46  74 109 144 190 252 310 376 455
#     4  12  25  50  75 111 150 205 257 314 380 454
#     4  12  25  48  75 108 150 199 253 308 384 455
#     4  12  26  44  80 108 150 200 258 308 374 464
#     4  12  26  49  76 105 154 202 252 315 386 452
#
# _framework density 22.182005
#
# number of rings (size 3 to 8) (size 9 to 14) (size 15 to 20)
#    0.000    0.000    5.385    3.231    5.385    1.231 
#    0.000    0.000    0.000    0.000    0.000    0.000 
#    0.000    0.000    0.000    0.000    0.000    0.000 
#
# Total GULP energy -145364.882971 kJ/mol
# GULP energy per Si atom -5590.957037 kJ/mol
# Density = 2.213152 g / cm^3
# Si number density = 22.182005 Si / 1000 Ang^3
#
#
#
# Elastic Constant Matrix: (Units=GPa)
#
#
# Indices 1 2 3 4 5 6 
#
# 1 110.9695 4.6967 12.9516 0.0000 1.0636 0.0000
# 2 4.6967 108.2095 3.5657 0.0000 -13.8762 0.0000
# 3 12.9516 3.5657 92.4670 0.0000 0.5311 0.0000
# 4 0.0000 0.0000 0.0000 8.6670 0.0000 13.8874
# 5 1.0636 -13.8762 0.5311 0.0000 30.3562 0.0000
# 6 0.0000 0.0000 0.0000 13.8874 0.0000 15.1325
#
#
#
# Elastic Compliance Matrix: (Units=1/GPa)
#
#
# Indices 1 2 3 4 5 6 
#
# 1 0.009182 -0.000420 -0.001267 0.000000 -0.000491 0.000000
# 2 -0.000420 0.009851 -0.000347 0.000000 0.004524 0.000000
# 3 -0.001267 -0.000347 0.011007 0.000000 -0.000307 0.000000
# 4 0.000000 0.000000 0.000000 -0.245235 0.000000 0.225057
# 5 -0.000491 0.004524 -0.000307 0.000000 0.035033 0.000000
# 6 0.000000 0.000000 0.000000 0.225057 0.000000 -0.140456
#
#
# Mechanical properties :
#
#
# Convention : Reuss Voigt Hill
#
# Bulk Modulus (GPa) = 38.50242 39.34157 38.92199
# Shear Modulus (GPa) = -16.23939 30.19328 6.97694
#
# Velocity S-wave (km/s) = -2.70867 3.69339 1.77543
# Velocity P-wave (km/s) = 2.75911 5.99688 4.66772
#
# Compressibility (1/GPa) = 0.02597239
#
# Stress axis : x y z
#
# Youngs Moduli (GPa) = 108.91050 101.51141 90.84890
#
# Poissons Ratio (x) = 0.04261 0.11511
# Poissons Ratio (y) = 0.04572 0.03153
# Poissons Ratio (z) = 0.13800 0.03523
#
# Static dielectric constant tensor:
#      x y z
#    x 1.790440 0.000000 -0.046690 
#    y 0.000000 1.984260 0.000000 
#    z -0.046690 0.000000 1.802860 
# 
# From -- ./inp_files/233123.got.cif
#   From: 2010.05.17/outbox.cif.g08.bks.cpg/sg15_117_cif.got.tgz:233123.got - 2010.06.03 18:47:42.
