data_PCOD9308611
_publ_section_title
;
Structure prediction by ZEFSAII (Michael W. Deem and Ramdas Pophale) SiO2 
 PCOD9308611
Probable space group: C 2/C
;
_chemical_formula_sum "Si O2"
_cell_formula_units_Z 32
_cell_length_a 18.000000
_cell_length_b 9.000000
_cell_length_c 30.000000
_cell_angle_alpha 90.000000
_cell_angle_beta 140.000000
_cell_angle_gamma 90.000000
_cell_volume 3123.947783
_symmetry_space_group_name_H-M "C 2/C"
_symmetry_group_IT_number 15
_symmetry_cell_setting 'monoclinic'
loop_
_space_group_symop_operation_xyz
x,y,z
-x,y,1/2-z
-x,-y,-z
x,-y,1/2+z
1/2+x,1/2+y,z
1/2-x,1/2+y,1/2-z
1/2-x,1/2-y,-z
1/2+x,1/2-y,1/2+z
loop_
_atom_site_type_symbol
_atom_site_label
_atom_site_fract_x
_atom_site_fract_y
_atom_site_fract_z
Si Si1 0.965254 0.740927 0.532705
Si Si2 0.392830 0.835803 0.235339
Si Si3 0.718467 0.786015 0.133221
Si Si4 0.953305 0.205490 0.127029
Si Si5 0.689440 0.453783 0.087129
Si Si6 0.240494 0.498470 0.057875
Si Si7 0.556117 0.829752 0.726318
Si Si8 0.851099 0.542929 0.079694
O O1 0.965606 0.826017 0.580422
O O2 0.925480 0.862617 0.477764
O O3 0.863037 0.618177 0.482670
O O4 0.090001 0.660053 0.587909
O O5 0.500000 0.826050 0.250000
O O6 0.428537 0.717653 0.289716
O O7 0.275090 0.839349 0.152888
O O8 0.395880 0.002576 0.256329
O O9 0.686882 0.610994 0.111379
O O10 0.831265 0.778754 0.218061
O O11 0.749100 0.881302 0.102696
O O12 0.858459 0.094159 0.104572
O O13 0.907753 0.376834 0.104780
O O14 0.752855 0.511097 0.071218
O O15 0.203294 0.423657 0.993558
O O16 0.500000 0.819000 0.750000
O O17 0.447196 0.837625 0.641698
#
# Coordination Sequence:
#
# PCOD9308611 Si02
#       8
#     8   8   8   8   8   8   8   8
#     4  11  21  39  57  86 122 162 203 246 308 375
#     4   9  14  28  58  87 101 139 200 252 278 325
#     4  11  24  35  57  88 126 161 191 256 317 364
#     4  10  18  34  63  90 113 154 210 256 286 366
#     4  11  18  36  62  86 114 154 211 244 288 373
#     4  11  21  37  60  92 124 153 200 260 317 354
#     4   9  16  34  55  79 108 152 197 233 286 355
#     4  10  16  34  66  89 103 156 212 242 282 363
#
# _framework density 10.243449
#
# number of rings (size 3 to 8) (size 9 to 14) (size 15 to 20)
#    0.000    1.750    7.500    1.500    0.000    0.500 
#    0.000    3.125    0.000   13.500    0.000    0.000 
#    0.000    0.000    0.000    0.000    0.000    0.000 
#
# Total GULP energy -178200.925604 kJ/mol
# GULP energy per Si atom -5568.778925 kJ/mol
# Density = 1.022013 g / cm^3
# Si number density = 10.243449 Si / 1000 Ang^3
#
#
#
# Elastic Constant Matrix: (Units=GPa)
#
#
# Indices 1 2 3 4 5 6 
#
# 1 33.7090 7.1265 25.2957 0.0000 12.0717 0.0000
# 2 7.1265 42.3481 35.1729 0.0000 0.1008 0.0000
# 3 25.2957 35.1729 141.1708 0.0000 3.7876 0.0000
# 4 0.0000 0.0000 0.0000 29.6178 0.0000 -4.3274
# 5 12.0717 0.1008 3.7876 0.0000 26.4901 0.0000
# 6 0.0000 0.0000 0.0000 -4.3274 0.0000 22.4705
#
#
#
# Elastic Compliance Matrix: (Units=1/GPa)
#
#
# Indices 1 2 3 4 5 6 
#
# 1 0.041296 -0.001462 -0.006556 0.000000 -0.017876 0.000000
# 2 -0.001462 0.029851 -0.007218 0.000000 0.001585 0.000000
# 3 -0.006556 -0.007218 0.010014 0.000000 0.001583 0.000000
# 4 0.000000 0.000000 0.000000 0.034741 0.000000 0.006691
# 5 -0.017876 0.001585 0.001583 0.000000 0.045664 0.000000
# 6 0.000000 0.000000 0.000000 0.006691 0.000000 0.045791
#
#
# Mechanical properties :
#
#
# Convention : Reuss Voigt Hill
#
# Bulk Modulus (GPa) = 19.72781 39.15758 29.44270
# Shear Modulus (GPa) = 19.62900 25.69119 22.66010
#
# Velocity S-wave (km/s) = 3.09872 3.54507 3.32938
# Velocity P-wave (km/s) = 4.73847 5.99263 5.40207
#
# Compressibility (1/GPa) = 0.05068986
#
# Stress axis : x y z
#
# Youngs Moduli (GPa) = 24.21550 33.49967 99.85803
#
# Poissons Ratio (x) = 0.04897 0.65465
# Poissons Ratio (y) = 0.03540 0.72078
# Poissons Ratio (z) = 0.15875 0.24180
#
# Static dielectric constant tensor:
#      x y z
#    x 1.796750 0.000000 0.003280 
#    y 0.000000 1.746380 0.000000 
#    z 0.003280 0.000000 1.794310 
# 
# From -- ./inp_files/315712.got.cif
#   From: 2010.05.17/outbox.ucp.g08.bks.cvg/sg15_158_cif.got.tgz:315712.got - 2010.06.11 12:40:34.
