data_PCOD9308762
_publ_section_title
;
Structure prediction by ZEFSAII (Michael W. Deem and Ramdas Pophale) SiO2 
 PCOD9308762
Probable space group: C 2/C
;
_chemical_formula_sum "Si O2"
_cell_formula_units_Z 28
_cell_length_a 18.000000
_cell_length_b 12.000000
_cell_length_c 15.000000
_cell_angle_alpha 90.000000
_cell_angle_beta 110.000000
_cell_angle_gamma 90.000000
_cell_volume 3044.604091
_symmetry_space_group_name_H-M "C 2/C"
_symmetry_group_IT_number 15
_symmetry_cell_setting 'monoclinic'
loop_
_space_group_symop_operation_xyz
x,y,z
-x,y,1/2-z
-x,-y,-z
x,-y,1/2+z
1/2+x,1/2+y,z
1/2-x,1/2+y,1/2-z
1/2-x,1/2-y,-z
1/2+x,1/2-y,1/2+z
loop_
_atom_site_type_symbol
_atom_site_label
_atom_site_fract_x
_atom_site_fract_y
_atom_site_fract_z
Si Si1 0.593628 0.462841 0.307876
Si Si2 0.484576 0.366184 0.498547
Si Si3 0.194753 0.360024 0.864162
Si Si4 0.847962 0.796930 0.308951
Si Si5 0.363039 0.699260 0.514897
Si Si6 0.138713 0.171664 0.401122
Si Si7 0.273740 0.882113 0.095809
O O1 0.500000 0.450894 0.250000
O O2 0.645076 0.393622 0.260455
O O3 0.616111 0.406674 0.412270
O O4 0.621077 0.589891 0.312959
O O5 0.500000 0.500000 0.500000
O O6 0.428637 0.314176 0.398169
O O7 0.566437 0.301824 0.525915
O O8 0.436578 0.345356 0.567775
O O9 0.166860 0.313025 0.756705
O O10 0.140747 0.303834 0.919319
O O11 0.201264 0.492741 0.872550
O O12 0.281539 0.315343 0.928597
O O13 0.777865 0.824985 0.347581
O O14 0.216125 0.125770 0.485848
O O15 0.153565 0.299907 0.389183
#
# Coordination Sequence:
#
# PCOD9308762 Si02
#       7
#     8   8   8   8   8   8   8
#     4  11  18  33  58  89 112 139 195 256 286 330
#     4  11  18  37  61  90 111 148 197 253 291 335
#     4  10  21  36  56  86 120 151 188 237 287 361
#     4  10  22  33  60  88 113 151 196 241 295 337
#     4  10  19  35  59  85 112 150 191 234 296 342
#     4  10  21  35  60  83 114 150 194 238 300 338
#     4  10  21  40  54  81 119 156 187 239 290 357
#
# _framework density 9.1965979999999998
#
# number of rings (size 3 to 8) (size 9 to 14) (size 15 to 20)
#    0.000    1.714    4.286    0.857    2.000    0.000 
#    0.000    0.714    3.143    0.000    0.000    0.000 
#    0.000    0.000    0.000    0.000    0.000    0.000 
#
# Total GULP energy -156031.931407 kJ/mol
# GULP energy per Si atom -5572.568979 kJ/mol
# Density = 0.917567 g / cm^3
# Si number density = 9.196598 Si / 1000 Ang^3
#
#
#
# Elastic Constant Matrix: (Units=GPa)
#
#
# Indices 1 2 3 4 5 6 
#
# 1 77.1575 29.1558 -5.5968 0.0000 -0.2339 0.0000
# 2 29.1558 116.5901 16.3421 0.0000 -0.4684 0.0000
# 3 -5.5968 16.3421 36.7667 0.0000 9.2637 0.0000
# 4 0.0000 0.0000 0.0000 26.5726 0.0000 5.1716
# 5 -0.2339 -0.4684 9.2637 0.0000 13.2129 0.0000
# 6 0.0000 0.0000 0.0000 5.1716 0.0000 17.3681
#
#
#
# Elastic Compliance Matrix: (Units=1/GPa)
#
#
# Indices 1 2 3 4 5 6 
#
# 1 0.015024 -0.004496 0.005172 0.000000 -0.003520 0.000000
# 2 -0.004496 0.010657 -0.006676 0.000000 0.004979 0.000000
# 3 0.005172 -0.006676 0.037639 0.000000 -0.026534 0.000000
# 4 0.000000 0.000000 0.000000 0.039948 0.000000 -0.011895
# 5 -0.003520 0.004979 -0.026534 0.000000 0.094401 0.000000
# 6 0.000000 0.000000 0.000000 -0.011895 0.000000 0.061119
#
#
# Mechanical properties :
#
#
# Convention : Reuss Voigt Hill
#
# Bulk Modulus (GPa) = 19.48540 34.47962 26.98251
# Shear Modulus (GPa) = 17.36755 24.13827 20.75291
#
# Velocity S-wave (km/s) = 3.07618 3.62656 3.36265
# Velocity P-wave (km/s) = 4.82016 6.02682 5.45694
#
# Compressibility (1/GPa) = 0.05132049
#
# Stress axis : x y z
#
# Youngs Moduli (GPa) = 66.56014 93.83380 26.56851
#
# Poissons Ratio (x) = 0.42190 -0.13742
# Poissons Ratio (y) = 0.29927 0.17736
# Poissons Ratio (z) = -0.34427 0.62641
#
# Static dielectric constant tensor:
#      x y z
#    x 1.661830 0.000000 -0.026570 
#    y 0.000000 1.631970 0.000000 
#    z -0.026570 0.000000 1.694250 
# 
# From -- ./inp_files/160989.got.cif
#   From: 2010.05.17/outbox.ucp.g08.bks.cvg/sg15_81_cif.got.tgz:160989.got - 2010.06.11 12:40:34.
