data_PCOD9308175
_publ_section_title
;
Structure prediction by ZEFSAII (Michael W. Deem and Ramdas Pophale) SiO2 
 PCOD9308175
Probable space group: C 2/C
;
_chemical_formula_sum "Si O2"
_cell_formula_units_Z 20
_cell_length_a 7.175706
_cell_length_b 24.214336
_cell_length_c 7.900573
_cell_angle_alpha 90.000000
_cell_angle_beta 143.886442
_cell_angle_gamma 90.000000
_cell_volume 809.089825
_symmetry_space_group_name_H-M "C 2/C"
_symmetry_group_IT_number 15
_symmetry_cell_setting 'monoclinic'
loop_
_space_group_symop_operation_xyz
x,y,z
-x,y,1/2-z
-x,-y,-z
x,-y,1/2+z
1/2+x,1/2+y,z
1/2-x,1/2+y,1/2-z
1/2-x,1/2-y,-z
1/2+x,1/2-y,1/2+z
loop_
_atom_site_type_symbol
_atom_site_label
_atom_site_fract_x
_atom_site_fract_y
_atom_site_fract_z
Si Si1 0.817302 0.442671 0.368230
Si Si2 0.000000 0.793773 0.250000
Si Si3 0.930402 0.873201 0.880212
O O1 0.500000 0.445559 0.250000
O O2 0.000000 0.500000 0.500000
O O3 0.075681 0.397353 0.619713
O O4 0.670135 0.424555 0.080410
O O5 0.250000 0.750000 0.500000
O O6 0.978903 0.833640 0.398140
O O7 0.000000 0.846521 0.750000
#
# Coordination Sequence:
#
# PCOD9308175 Si02
#       3
#     8   4   8
#     4  12  26  48  77 115 166 213 259 317 390 475
#     4  12  28  52  84 112 154 208 266 338 402 450
#     4  12  27  50  78 116 160 203 266 329 388 473
#
# _framework density 24.719131000000001
#
# number of rings (size 3 to 8) (size 9 to 14) (size 15 to 20)
#    0.000    0.000    2.000    7.200    0.000    4.800 
#    3.600    0.000    0.000    0.000    0.000    0.000 
#    0.000    0.000    0.000    0.000    0.000    0.000 
#
# Total GULP energy -55948.072697 kJ/mol
# GULP energy per Si atom -5594.807270 kJ/mol
# Density = 2.466287 g / cm^3
# Si number density = 24.719131 Si / 1000 Ang^3
#
#
#
# Elastic Constant Matrix: (Units=GPa)
#
#
# Indices 1 2 3 4 5 6 
#
# 1 163.9668 64.2021 87.0913 0.0000 -11.7442 0.0000
# 2 64.2021 139.7407 86.6325 0.0000 1.9615 0.0000
# 3 87.0913 86.6325 250.4214 0.0000 10.8897 0.0000
# 4 0.0000 0.0000 0.0000 69.7443 0.0000 4.1031
# 5 -11.7442 1.9615 10.8897 0.0000 72.9845 0.0000
# 6 0.0000 0.0000 0.0000 4.1031 0.0000 19.9408
#
#
#
# Elastic Compliance Matrix: (Units=1/GPa)
#
#
# Indices 1 2 3 4 5 6 
#
# 1 0.008333 -0.002558 -0.002088 0.000000 0.001721 0.000000
# 2 -0.002558 0.009899 -0.002522 0.000000 -0.000301 0.000000
# 3 -0.002088 -0.002522 0.005640 0.000000 -0.001110 0.000000
# 4 0.000000 0.000000 0.000000 0.014514 0.000000 -0.002986
# 5 0.001721 -0.000301 -0.001110 0.000000 0.014152 0.000000
# 6 0.000000 0.000000 0.000000 -0.002986 0.000000 0.050763
#
#
# Mechanical properties :
#
#
# Convention : Reuss Voigt Hill
#
# Bulk Modulus (GPa) = 104.86258 114.44229 109.65244
# Shear Modulus (GPa) = 41.38567 53.61412 47.49989
#
# Velocity S-wave (km/s) = 4.09618 4.66223 4.38834
# Velocity P-wave (km/s) = 8.05514 8.68213 8.37451
#
# Compressibility (1/GPa) = 0.00953629
#
# Stress axis : x y z
#
# Youngs Moduli (GPa) = 120.00960 101.02010 177.30494
#
# Poissons Ratio (x) = 0.25843 0.37017
# Poissons Ratio (y) = 0.30701 0.44712
# Poissons Ratio (z) = 0.25055 0.25475
#
# Static dielectric constant tensor:
#      x y z
#    x 2.114890 0.000000 -0.006240 
#    y 0.000000 1.689560 0.000000 
#    z -0.006240 0.000000 1.927660 
# 
# From -- ./inp_files/22985.got.cif
#   From: 2010.05.17/outbox.cif.g08.bks.cpg/sg15_12_cif.got.tgz:22985.got - 2010.06.03 18:47:42.
