data_PCOD9308807
_publ_section_title
;
Structure prediction by ZEFSAII (Michael W. Deem and Ramdas Pophale) SiO2 
 PCOD9308807
Probable space group: C 2/C
;
_chemical_formula_sum "Si O2"
_cell_formula_units_Z 32
_cell_length_a 15.000000
_cell_length_b 15.000000
_cell_length_c 18.000000
_cell_angle_alpha 90.000000
_cell_angle_beta 130.000000
_cell_angle_gamma 90.000000
_cell_volume 3102.479995
_symmetry_space_group_name_H-M "C 2/C"
_symmetry_group_IT_number 15
_symmetry_cell_setting 'monoclinic'
loop_
_space_group_symop_operation_xyz
x,y,z
-x,y,1/2-z
-x,-y,-z
x,-y,1/2+z
1/2+x,1/2+y,z
1/2-x,1/2+y,1/2-z
1/2-x,1/2-y,-z
1/2+x,1/2-y,1/2+z
loop_
_atom_site_type_symbol
_atom_site_label
_atom_site_fract_x
_atom_site_fract_y
_atom_site_fract_z
Si Si1 0.984853 0.312282 0.074727
Si Si2 0.154969 0.672717 0.127842
Si Si3 0.632801 0.694100 0.850542
Si Si4 0.987788 0.481761 0.878074
Si Si5 0.299879 0.050597 0.669025
Si Si6 0.246079 0.171932 0.765881
Si Si7 0.718154 0.112122 0.444115
Si Si8 0.367922 0.247906 0.650283
O O1 0.894653 0.256843 0.076845
O O2 0.972597 0.420600 0.071540
O O3 0.118430 0.300362 0.167791
O O4 0.953840 0.286919 0.975200
O O5 0.109227 0.575743 0.128659
O O6 0.176998 0.739183 0.207222
O O7 0.270402 0.688086 0.136474
O O8 0.500000 0.688178 0.750000
O O9 0.712951 0.648537 0.830801
O O10 0.671854 0.797655 0.879659
O O11 0.673060 0.644099 0.947320
O O12 0.916636 0.507945 0.766137
O O13 0.103912 0.424375 0.927389
O O14 0.226794 0.089626 0.699542
O O15 0.332374 0.144400 0.647093
O O16 0.249358 0.971928 0.591287
O O17 0.500000 0.264747 0.750000
#
# Coordination Sequence:
#
# PCOD9308807 Si02
#       8
#     8   8   8   8   8   8   8   8
#     4  11  21  38  64  87 123 164 213 266 311 376
#     4  11  22  32  58  96 128 159 206 262 324 379
#     4  11  24  40  59  91 128 160 203 273 324 382
#     4  11  20  36  64  96 120 151 220 275 307 360
#     4  10  19  37  67  90 117 161 214 263 313 375
#     4  10  22  39  61  91 128 158 205 269 327 368
#     4  11  21  38  68  90 115 164 218 257 321 386
#     4  11  18  39  60  89 125 171 201 263 326 381
#
# _framework density 10.314329000000001
#
# number of rings (size 3 to 8) (size 9 to 14) (size 15 to 20)
#    0.000    1.250    5.000    4.125    0.000    2.000 
#    0.000    0.625    0.000   14.250    0.000    0.000 
#    0.000    0.000    0.000    0.000    0.000    0.000 
#
# Total GULP energy -178269.311746 kJ/mol
# GULP energy per Si atom -5570.915992 kJ/mol
# Density = 1.029085 g / cm^3
# Si number density = 10.314329 Si / 1000 Ang^3
#
#
#
# Elastic Constant Matrix: (Units=GPa)
#
#
# Indices 1 2 3 4 5 6 
#
# 1 75.2845 32.3969 15.3390 0.0000 -2.7886 0.0000
# 2 32.3969 19.6203 -11.1033 0.0000 12.0872 0.0000
# 3 15.3390 -11.1033 73.6076 0.0000 2.0996 0.0000
# 4 0.0000 0.0000 0.0000 21.0453 0.0000 -0.2391
# 5 -2.7886 12.0872 2.0996 0.0000 19.8753 0.0000
# 6 0.0000 0.0000 0.0000 -0.2391 0.0000 33.1816
#
#
#
# Elastic Compliance Matrix: (Units=1/GPa)
#
#
# Indices 1 2 3 4 5 6 
#
# 1 -0.016407 0.059192 0.013481 0.000000 -0.039724 0.000000
# 2 0.059192 -0.115325 -0.032065 0.000000 0.081828 0.000000
# 3 0.013481 -0.032065 0.005345 0.000000 0.020827 0.000000
# 4 0.000000 0.000000 0.000000 0.047520 0.000000 0.000342
# 5 -0.039724 0.081828 0.020827 0.000000 -0.007224 0.000000
# 6 0.000000 0.000000 0.000000 0.000342 0.000000 0.030140
#
#
# Mechanical properties :
#
#
# Convention : Reuss Voigt Hill
#
# Bulk Modulus (GPa) = -22.13746 26.86417 2.36336
# Shear Modulus (GPa) = -32.84663 23.61242 -4.61710
#
# Velocity S-wave (km/s) = -3.99467 3.38693 -1.49768
# Velocity P-wave (km/s) = 5.65961 5.32410 1.35742
#
# Compressibility (1/GPa) = -0.04517230
#
# Stress axis : x y z
#
# Youngs Moduli (GPa) = -60.95021 -8.67111 187.07810
#
# Poissons Ratio (x) = 0.51326 -2.52197
# Poissons Ratio (y) = 3.60774 5.99869
# Poissons Ratio (z) = 0.82166 -0.27804
#
# Static dielectric constant tensor:
#      x y z
#    x 1.797090 0.000000 -0.073480 
#    y 0.000000 1.704410 0.000000 
#    z -0.073480 0.000000 1.818900 
# 
# From -- ./inp_files/205744.got.cif
#   From: 2010.05.17/outbox.ucp.g08.bks.cvg/sg15_103_cif.got.tgz:205744.got - 2010.06.11 12:40:34.
