data_PCOD9308635
_publ_section_title
;
Structure prediction by ZEFSAII (Michael W. Deem and Ramdas Pophale) SiO2 
 PCOD9308635
Probable space group: C 2/C
;
_chemical_formula_sum "Si O2"
_cell_formula_units_Z 32
_cell_length_a 21.000000
_cell_length_b 24.000000
_cell_length_c 18.000000
_cell_angle_alpha 90.000000
_cell_angle_beta 20.000000
_cell_angle_gamma 90.000000
_cell_volume 3102.806740
_symmetry_space_group_name_H-M "C 2/C"
_symmetry_group_IT_number 15
_symmetry_cell_setting 'monoclinic'
loop_
_space_group_symop_operation_xyz
x,y,z
-x,y,1/2-z
-x,-y,-z
x,-y,1/2+z
1/2+x,1/2+y,z
1/2-x,1/2+y,1/2-z
1/2-x,1/2-y,-z
1/2+x,1/2-y,1/2+z
loop_
_atom_site_type_symbol
_atom_site_label
_atom_site_fract_x
_atom_site_fract_y
_atom_site_fract_z
Si Si1 0.168676 0.430420 0.937850
Si Si2 0.051392 0.668842 0.001932
Si Si3 0.714688 0.099205 0.682735
Si Si4 0.946852 0.797386 0.087093
Si Si5 0.684446 0.185314 0.500391
Si Si6 0.499719 0.502088 0.089761
Si Si7 0.572930 0.702074 0.066820
Si Si8 0.794511 0.106809 0.134828
O O1 0.287768 0.480940 0.839916
O O2 0.224079 0.418706 0.791179
O O3 0.215336 0.374182 0.930104
O O4 0.946927 0.434159 0.181662
O O5 0.978434 0.731102 0.061575
O O6 0.883213 0.630286 0.215472
O O7 0.122356 0.632028 0.853630
O O8 0.240608 0.682942 0.837764
O O9 0.798939 0.151544 0.546719
O O10 0.871810 0.054948 0.530966
O O11 0.964000 0.809935 0.980146
O O12 0.088652 0.838012 0.973282
O O13 0.500000 0.181965 0.750000
O O14 0.654256 0.236291 0.476898
O O15 0.878660 0.203158 0.322597
O O16 0.500000 0.500000 0.000000
O O17 0.581289 0.444297 0.031618
#
# Coordination Sequence:
#
# PCOD9308635 Si02
#       8
#     8   8   8   8   8   8   8   8
#     4  10  19  34  46  64  87 117 150 197 244 284
#     4  10  18  25  41  64  84 114 147 177 227 272
#     4  10  20  30  49  66  88 119 153 197 241 287
#     4  11  17  29  45  63  91 118 146 191 233 281
#     4  12  22  33  48  67  92 122 164 213 256 288
#     4  10  19  33  48  65  90 113 148 200 239 281
#     4  11  19  32  44  63  88 115 155 200 246 284
#     4  10  19  30  47  66  85 116 151 189 235 283
#
# _framework density 10.313243
#
# number of rings (size 3 to 8) (size 9 to 14) (size 15 to 20)
#    0.000    1.500    3.750    6.375    0.000    5.500 
#    0.000    0.000    0.000    0.000    0.000    0.000 
#    0.000    0.000    0.000    0.000    0.000    1.250 
#
# Total GULP energy -178297.870933 kJ/mol
# GULP energy per Si atom -5571.808467 kJ/mol
# Density = 1.028977 g / cm^3
# Si number density = 10.313243 Si / 1000 Ang^3
#
#
#
# Elastic Constant Matrix: (Units=GPa)
#
#
# Indices 1 2 3 4 5 6 
#
# 1 1.9565 -15.5733 -0.3966 0.0166 -4.1140 0.0183
# 2 -15.5733 28.6595 -8.3129 0.0651 14.7972 -0.0301
# 3 -0.3966 -8.3129 64.9989 0.1074 -19.3846 0.0013
# 4 0.0166 0.0651 0.1074 29.7591 -0.0176 4.5532
# 5 -4.1140 14.7972 -19.3846 -0.0176 12.2059 0.0184
# 6 0.0183 -0.0301 0.0013 4.5532 0.0184 -17.0763
#
#
#
# Elastic Compliance Matrix: (Units=1/GPa)
#
#
# Indices 1 2 3 4 5 6 
#
# 1 -0.066647 -0.125756 0.042321 0.000211 0.197200 0.000422
# 2 -0.125756 0.013962 -0.031670 0.000127 -0.109607 -0.000246
# 3 0.042321 -0.031670 0.051858 -0.000096 0.135014 0.000225
# 4 0.000211 0.000127 -0.000096 0.032286 -0.000202 0.008608
# 5 0.197200 -0.109607 0.135014 -0.000202 0.495685 0.000896
# 6 0.000422 -0.000246 0.000225 0.008608 0.000896 -0.056264
#
#
# Mechanical properties :
#
#
# Convention : Reuss Voigt Hill
#
# Bulk Modulus (GPa) = -4.32829 5.22769 0.44970
# Shear Modulus (GPa) = 8.01181 12.97093 10.49137
#
# Velocity S-wave (km/s) = 1.97298 2.51041 2.25774
# Velocity P-wave (km/s) = 1.75706 3.30799 2.64859
#
# Compressibility (1/GPa) = -0.23103830
#
# Stress axis : x y z
#
# Youngs Moduli (GPa) = -15.00444 71.62407 19.28344
#
# Poissons Ratio (x) = 9.00718 -0.81609
# Poissons Ratio (y) = -1.88690 0.61070
# Poissons Ratio (z) = 0.63500 2.26832
#
# Static dielectric constant tensor:
#      x y z
#    x 1.781710 -0.000050 -0.056910 
#    y -0.000050 1.585990 0.000140 
#    z -0.056910 0.000140 1.862860 
# 
# From -- ./inp_files/216968.got.cif
#   From: 2010.05.17/outbox.ucp.g08.bks.cvg/sg15_109_cif.got.tgz:216968.got - 2010.06.11 12:40:34.
