data_PCOD9308576
_publ_section_title
;
Structure prediction by ZEFSAII (Michael W. Deem and Ramdas Pophale) SiO2 
 PCOD9308576
Probable space group: C 2/C
;
_chemical_formula_sum "Si O2"
_cell_formula_units_Z 48
_cell_length_a 16.743519
_cell_length_b 13.161164
_cell_length_c 20.998252
_cell_angle_alpha 90.000000
_cell_angle_beta 38.948957
_cell_angle_gamma 90.000000
_cell_volume 2908.826186
_symmetry_space_group_name_H-M "C 2/C"
_symmetry_group_IT_number 15
_symmetry_cell_setting 'monoclinic'
loop_
_space_group_symop_operation_xyz
x,y,z
-x,y,1/2-z
-x,-y,-z
x,-y,1/2+z
1/2+x,1/2+y,z
1/2-x,1/2+y,1/2-z
1/2-x,1/2-y,-z
1/2+x,1/2-y,1/2+z
loop_
_atom_site_type_symbol
_atom_site_label
_atom_site_fract_x
_atom_site_fract_y
_atom_site_fract_z
Si Si1 0.146021 0.011578 0.680013
Si Si2 0.955341 0.953737 0.626712
Si Si3 0.703959 0.364407 0.534098
Si Si4 0.823663 0.320413 0.005933
Si Si5 0.625310 0.964333 0.633035
Si Si6 0.627637 0.625687 0.455296
O O1 0.229160 0.106543 0.604185
O O2 0.000000 0.031890 0.750000
O O3 0.139889 0.988582 0.758630
O O4 0.192066 0.912841 0.611967
O O5 0.892315 0.897203 0.606376
O O6 0.065511 0.883564 0.588943
O O7 0.029688 0.052820 0.553906
O O8 0.750000 0.250000 0.500000
O O9 0.804010 0.435380 0.435156
O O10 0.891676 0.241495 0.010535
O O11 0.750000 0.250000 0.000000
O O12 0.903906 0.394695 0.910681
O O13 0.500000 0.984917 0.750000
O O14 0.731159 0.906914 0.610185
#
# Coordination Sequence:
#
# PCOD9308576 Si02
#       6
#     8   8   8   8   8   8
#     4   9  17  31  51  73  97 126 163 206 244 288
#     4   9  18  34  51  70  98 130 163 202 242 289
#     4   9  18  33  51  70  93 128 171 203 234 285
#     4   9  17  29  48  75  99 123 160 200 244 295
#     4   9  18  31  49  73 100 125 157 203 247 291
#     4   9  18  32  50  73  99 126 159 198 245 296
#
# _framework density 16.501501000000001
#
# number of rings (size 3 to 8) (size 9 to 14) (size 15 to 20)
#    0.000    3.000    0.000    3.000    0.000    7.333 
#    0.000    8.333    0.000    4.000    0.000    0.000 
#    0.000    0.000    0.000    0.000    0.000    0.000 
#
# Total GULP energy -133630.786789 kJ/mol
# GULP energy per Si atom -5567.949450 kJ/mol
# Density = 1.646394 g / cm^3
# Si number density = 16.501501 Si / 1000 Ang^3
#
#
#
# Elastic Constant Matrix: (Units=GPa)
#
#
# Indices 1 2 3 4 5 6 
#
# 1 69.0027 38.4920 43.0425 0.0000 26.3016 0.0000
# 2 38.4920 101.9769 32.1350 0.0000 13.5602 0.0000
# 3 43.0425 32.1350 118.5171 0.0000 20.4778 0.0000
# 4 0.0000 0.0000 0.0000 12.2018 0.0000 3.6971
# 5 26.3016 13.5602 20.4778 0.0000 25.6274 0.0000
# 6 0.0000 0.0000 0.0000 3.6971 0.0000 24.2677
#
#
#
# Elastic Compliance Matrix: (Units=1/GPa)
#
#
# Indices 1 2 3 4 5 6 
#
# 1 0.030450 -0.006734 -0.005161 0.000000 -0.023564 0.000000
# 2 -0.006734 0.012556 -0.001166 0.000000 0.001199 0.000000
# 3 -0.005161 -0.001166 0.011145 0.000000 -0.002991 0.000000
# 4 0.000000 0.000000 0.000000 0.085921 0.000000 -0.013090
# 5 -0.023564 0.001199 -0.002991 0.000000 0.064960 0.000000
# 6 0.000000 0.000000 0.000000 -0.013090 0.000000 0.043201
#
#
# Mechanical properties :
#
#
# Convention : Reuss Voigt Hill
#
# Bulk Modulus (GPa) = 35.67818 57.42619 46.55218
# Shear Modulus (GPa) = 17.62436 24.14119 20.88277
#
# Velocity S-wave (km/s) = 3.27164 3.82903 3.56126
# Velocity P-wave (km/s) = 5.99497 7.37731 6.72177
#
# Compressibility (1/GPa) = 0.02802834
#
# Stress axis : x y z
#
# Youngs Moduli (GPa) = 32.84103 79.64406 89.72519
#
# Poissons Ratio (x) = 0.53630 0.46311
# Poissons Ratio (y) = 0.22114 0.10462
# Poissons Ratio (z) = 0.16951 0.09287
#
# Static dielectric constant tensor:
#      x y z
#    x 1.574010 0.000000 0.017810 
#    y 0.000000 1.551930 0.000000 
#    z 0.017810 0.000000 1.548890 
# 
# From -- ./inp_files/248293.got.cif
#   From: 2010.05.17/outbox.cif.g08.bks.cpg/sg15_125_cif.got.tgz:248293.got - 2010.06.03 18:47:42.
