data_PCOD9308248
_publ_section_title
;
Structure prediction by ZEFSAII (Michael W. Deem and Ramdas Pophale) SiO2 
 PCOD9308248
Probable space group: C 2/C
;
_chemical_formula_sum "Si O2"
_cell_formula_units_Z 40
_cell_length_a 16.918915
_cell_length_b 19.486607
_cell_length_c 4.815450
_cell_angle_alpha 90.000000
_cell_angle_beta 74.314623
_cell_angle_gamma 90.000000
_cell_volume 1528.494928
_symmetry_space_group_name_H-M "C 2/C"
_symmetry_group_IT_number 15
_symmetry_cell_setting 'monoclinic'
loop_
_space_group_symop_operation_xyz
x,y,z
-x,y,1/2-z
-x,-y,-z
x,-y,1/2+z
1/2+x,1/2+y,z
1/2-x,1/2+y,1/2-z
1/2-x,1/2-y,-z
1/2+x,1/2-y,1/2+z
loop_
_atom_site_type_symbol
_atom_site_label
_atom_site_fract_x
_atom_site_fract_y
_atom_site_fract_z
Si Si1 0.562435 0.563196 0.372657
Si Si2 0.585105 0.816240 0.325371
Si Si3 0.334275 0.750187 0.746498
Si Si4 0.149432 0.453380 0.504191
Si Si5 0.832441 0.096746 0.700195
O O1 0.500000 0.609949 0.250000
O O2 0.500000 0.500000 0.500000
O O3 0.336962 0.675554 0.606630
O O4 0.603418 0.592409 0.606547
O O5 0.500000 0.805466 0.250000
O O6 0.600603 0.766221 0.571697
O O7 0.593079 0.891801 0.449962
O O8 0.652836 0.803472 0.017287
O O9 0.250000 0.750000 0.000000
O O10 0.257817 0.925171 0.122079
O O11 0.137483 0.479196 0.826690
O O12 0.362148 0.448860 0.911469
#
# Coordination Sequence:
#
# PCOD9308248 Si02
#       5
#     8   8   8   8   8
#     4  12  27  43  64 101 152 204 246 306 375 438
#     4  12  28  51  82 115 155 199 254 341 397 449
#     4  12  26  50  82 115 152 201 267 320 391 470
#     4  12  28  46  77 112 147 200 258 307 389 471
#     4  12  27  45  76 105 151 206 258 308 380 467
#
# _framework density 26.169533000000001
#
# number of rings (size 3 to 8) (size 9 to 14) (size 15 to 20)
#    0.000    0.000    2.000    7.200   11.200    5.600 
#    0.000    0.000    0.000    0.000    0.000    0.000 
#    0.000    0.000    0.000    0.000    0.000    0.000 
#
# Total GULP energy -112011.940577 kJ/mol
# GULP energy per Si atom -5600.597029 kJ/mol
# Density = 2.610997 g / cm^3
# Si number density = 26.169533 Si / 1000 Ang^3
#
#
#
# Elastic Constant Matrix: (Units=GPa)
#
#
# Indices 1 2 3 4 5 6 
#
# 1 107.3584 16.0224 15.3567 0.0000 28.1787 0.0000
# 2 16.0224 105.2982 -4.8212 0.0000 6.6260 0.0000
# 3 15.3567 -4.8212 121.3735 0.0000 15.6908 0.0000
# 4 0.0000 0.0000 0.0000 42.1334 0.0000 12.4162
# 5 28.1787 6.6260 15.6908 0.0000 46.9259 0.0000
# 6 0.0000 0.0000 0.0000 12.4162 0.0000 33.6487
#
#
#
# Elastic Compliance Matrix: (Units=1/GPa)
#
#
# Indices 1 2 3 4 5 6 
#
# 1 0.011280 -0.001346 -0.000658 0.000000 -0.006363 0.000000
# 2 -0.001346 0.009782 0.000662 0.000000 -0.000794 0.000000
# 3 -0.000658 0.000662 0.008685 0.000000 -0.002602 0.000000
# 4 0.000000 0.000000 0.000000 0.026630 0.000000 -0.009826
# 5 -0.006363 -0.000794 -0.002602 0.000000 0.026114 0.000000
# 6 0.000000 0.000000 0.000000 -0.009826 0.000000 0.033345
#
#
# Mechanical properties :
#
#
# Convention : Reuss Voigt Hill
#
# Bulk Modulus (GPa) = 36.95266 43.01620 39.98443
# Shear Modulus (GPa) = 39.20326 45.03975 42.12150
#
# Velocity S-wave (km/s) = 3.87466 4.15309 4.01629
# Velocity P-wave (km/s) = 5.84538 6.28257 6.06792
#
# Compressibility (1/GPa) = 0.02706165
#
# Stress axis : x y z
#
# Youngs Moduli (GPa) = 88.65381 102.22945 115.14135
#
# Poissons Ratio (x) = 0.13761 0.07576
# Poissons Ratio (y) = 0.11933 -0.07617
# Poissons Ratio (z) = 0.05833 -0.06763
#
# Static dielectric constant tensor:
#      x y z
#    x 2.113240 0.000000 0.031800 
#    y 0.000000 2.098190 0.000000 
#    z 0.031800 0.000000 2.183520 
# 
# From -- ./inp_files/7826.got.cif
#   From: 2010.05.17/outbox.cif.g08.bks.cpg/sg15_4_cif.got.tgz:7826.got - 2010.06.03 18:47:42.
