data_PCOD9308830
_publ_section_title
;
Structure prediction by ZEFSAII (Michael W. Deem and Ramdas Pophale) SiO2 
 PCOD9308830
Probable space group: C 2/C
;
_chemical_formula_sum "Si O2"
_cell_formula_units_Z 28
_cell_length_a 21.000000
_cell_length_b 9.000000
_cell_length_c 18.000000
_cell_angle_alpha 90.000000
_cell_angle_beta 120.000000
_cell_angle_gamma 90.000000
_cell_volume 2946.218424
_symmetry_space_group_name_H-M "C 2/C"
_symmetry_group_IT_number 15
_symmetry_cell_setting 'monoclinic'
loop_
_space_group_symop_operation_xyz
x,y,z
-x,y,1/2-z
-x,-y,-z
x,-y,1/2+z
1/2+x,1/2+y,z
1/2-x,1/2+y,1/2-z
1/2-x,1/2-y,-z
1/2+x,1/2-y,1/2+z
loop_
_atom_site_type_symbol
_atom_site_label
_atom_site_fract_x
_atom_site_fract_y
_atom_site_fract_z
Si Si1 0.719730 0.392754 0.165221
Si Si2 0.157509 0.191058 0.203486
Si Si3 0.278361 0.050505 0.071985
Si Si4 0.374327 0.687646 0.567545
Si Si5 0.343474 0.825217 0.000260
Si Si6 0.426365 0.102499 0.970602
Si Si7 0.085230 0.876492 0.825350
O O1 0.764329 0.279369 0.244235
O O2 0.671791 0.525230 0.175894
O O3 0.782194 0.480616 0.155321
O O4 0.679066 0.293803 0.077020
O O5 0.129204 0.160572 0.272922
O O6 0.105688 0.300563 0.119902
O O7 0.340556 0.175010 0.095421
O O8 0.283471 0.915329 0.015197
O O9 0.198344 0.126172 0.017258
O O10 0.427186 0.770066 0.537268
O O11 0.402297 0.545416 0.632851
O O12 0.391437 0.737040 0.092637
O O13 0.375449 0.968583 0.973481
O O14 0.500000 0.000000 0.000000
O O15 0.000000 0.861839 0.750000
#
# Coordination Sequence:
#
# PCOD9308830 Si02
#       7
#     8   8   8   8   8   8   8
#     4  12  23  41  67  97 132 159 215 279 340 372
#     4  12  26  41  65 105 131 164 218 285 325 374
#     4  10  19  39  69  90 122 163 216 267 318 394
#     4  10  22  41  67  92 122 172 217 257 330 392
#     4  11  22  43  68  91 126 181 211 260 334 396
#     4  11  24  45  65  91 132 177 217 258 321 391
#     4  12  25  43  63  94 134 175 221 259 315 399
#
# _framework density 9.5037079999999996
#
# number of rings (size 3 to 8) (size 9 to 14) (size 15 to 20)
#    0.000    0.857    4.286    3.000    2.000    1.143 
#    2.571    4.286    0.000    0.000    0.000    0.000 
#    0.000    0.000    0.000    0.000    0.000    0.000 
#
# Total GULP energy -155892.161664 kJ/mol
# GULP energy per Si atom -5567.577202 kJ/mol
# Density = 0.948208 g / cm^3
# Si number density = 9.503708 Si / 1000 Ang^3
#
#
#
# Elastic Constant Matrix: (Units=GPa)
#
#
# Indices 1 2 3 4 5 6 
#
# 1 75.9899 34.9933 27.8835 0.0000 -8.8003 0.0000
# 2 34.9933 160.2766 53.8056 0.0000 -7.5450 0.0000
# 3 27.8835 53.8056 113.3457 0.0000 -6.6683 0.0000
# 4 0.0000 0.0000 0.0000 53.7754 0.0000 -9.5907
# 5 -8.8003 -7.5450 -6.6683 0.0000 32.2607 0.0000
# 6 0.0000 0.0000 0.0000 -9.5907 0.0000 47.1125
#
#
#
# Elastic Compliance Matrix: (Units=1/GPa)
#
#
# Indices 1 2 3 4 5 6 
#
# 1 0.015551 -0.002408 -0.002496 0.000000 0.003163 0.000000
# 2 -0.002408 0.007828 -0.003092 0.000000 0.000535 0.000000
# 3 -0.002496 -0.003092 0.010955 0.000000 0.000860 0.000000
# 4 0.000000 0.000000 0.000000 0.019296 0.000000 0.003928
# 5 0.003163 0.000535 0.000860 0.000000 0.032163 0.000000
# 6 0.000000 0.000000 0.000000 0.003928 0.000000 0.022025
#
#
# Mechanical properties :
#
#
# Convention : Reuss Voigt Hill
#
# Bulk Modulus (GPa) = 54.52337 64.77521 59.64929
# Shear Modulus (GPa) = 38.48329 42.15838 40.32083
#
# Velocity S-wave (km/s) = 4.50449 4.71467 4.61078
# Velocity P-wave (km/s) = 7.47004 7.98689 7.73278
#
# Compressibility (1/GPa) = 0.01834076
#
# Stress axis : x y z
#
# Youngs Moduli (GPa) = 64.30475 127.74231 91.28131
#
# Poissons Ratio (x) = 0.30765 0.22786
# Poissons Ratio (y) = 0.15487 0.28226
# Poissons Ratio (z) = 0.16052 0.39500
#
# Static dielectric constant tensor:
#      x y z
#    x 1.739280 0.000000 -0.012220 
#    y 0.000000 1.688250 0.000000 
#    z -0.012220 0.000000 1.677210 
# 
# From -- ./inp_files/214005.got.cif
#   From: 2010.05.17/outbox.ucp.g08.bks.cvg/sg15_108_cif.got.tgz:214005.got - 2010.06.11 12:40:34.
