data_PCOD9308170
_publ_section_title
;
Structure prediction by ZEFSAII (Michael W. Deem and Ramdas Pophale) SiO2 
 PCOD9308170
Probable space group: C 2/C
;
_chemical_formula_sum "Si O2"
_cell_formula_units_Z 48
_cell_length_a 14.645394
_cell_length_b 11.347461
_cell_length_c 14.334748
_cell_angle_alpha 90.000000
_cell_angle_beta 124.590875
_cell_angle_gamma 90.000000
_cell_volume 1961.143253
_symmetry_space_group_name_H-M "C 2/C"
_symmetry_group_IT_number 15
_symmetry_cell_setting 'monoclinic'
loop_
_space_group_symop_operation_xyz
x,y,z
-x,y,1/2-z
-x,-y,-z
x,-y,1/2+z
1/2+x,1/2+y,z
1/2-x,1/2+y,1/2-z
1/2-x,1/2-y,-z
1/2+x,1/2-y,1/2+z
loop_
_atom_site_type_symbol
_atom_site_label
_atom_site_fract_x
_atom_site_fract_y
_atom_site_fract_z
Si Si1 0.208786 0.485677 0.479681
Si Si2 0.113373 0.667123 0.278516
Si Si3 0.472704 0.526909 0.129202
Si Si4 0.441007 0.784453 0.061096
Si Si5 0.366189 0.968518 0.351434
Si Si6 0.656335 0.353641 0.165159
O O1 0.166305 0.593985 0.392992
O O2 0.340331 0.480217 0.539086
O O3 0.139399 0.364395 0.420549
O O4 0.182745 0.503916 0.574979
O O5 0.084269 0.577958 0.177246
O O6 0.178943 0.772680 0.269208
O O7 0.000000 0.720204 0.250000
O O8 0.500000 0.493530 0.250000
O O9 0.497355 0.666272 0.133601
O O10 0.550090 0.439759 0.114011
O O11 0.539389 0.870568 0.086831
O O12 0.367781 0.733317 0.933823
O O13 0.265508 0.931233 0.225489
#
# Coordination Sequence:
#
# PCOD9308170 Si02
#       6
#     8   8   8   8   8   8
#     4  12  26  51  76 112 147 197 252 310 372 448
#     4  12  26  48  77 108 149 194 252 305 375 445
#     4  12  28  48  74 112 152 194 251 305 379 442
#     4  12  27  48  78 109 147 200 253 308 371 445
#     4  12  27  48  76 112 149 193 250 314 371 443
#     4  12  28  49  75 111 156 198 248 308 376 446
#
# _framework density 24.475518999999998
#
# number of rings (size 3 to 8) (size 9 to 14) (size 15 to 20)
#    0.000    0.000    5.000    4.000    9.333    0.667 
#    0.000    0.000    0.000    0.000    0.000    0.000 
#    0.000    0.000    0.000    0.000    0.000    0.000 
#
# Total GULP energy -134399.737981 kJ/mol
# GULP energy per Si atom -5599.989083 kJ/mol
# Density = 2.441981 g / cm^3
# Si number density = 24.475519 Si / 1000 Ang^3
#
#
#
# Elastic Constant Matrix: (Units=GPa)
#
#
# Indices 1 2 3 4 5 6 
#
# 1 106.1612 31.5606 12.7116 0.0000 14.5314 0.0000
# 2 31.5606 119.0151 16.7586 0.0000 2.0022 0.0000
# 3 12.7116 16.7586 71.0211 0.0000 -3.3053 0.0000
# 4 0.0000 0.0000 0.0000 40.6181 0.0000 -13.9619
# 5 14.5314 2.0022 -3.3053 0.0000 36.3048 0.0000
# 6 0.0000 0.0000 0.0000 -13.9619 0.0000 28.8959
#
#
#
# Elastic Compliance Matrix: (Units=1/GPa)
#
#
# Indices 1 2 3 4 5 6 
#
# 1 0.010986 -0.002621 -0.001552 0.000000 -0.004394 0.000000
# 2 -0.002621 0.009332 -0.001715 0.000000 0.000378 0.000000
# 3 -0.001552 -0.001715 0.014859 0.000000 0.002069 0.000000
# 4 0.000000 0.000000 0.000000 0.029523 0.000000 0.014265
# 5 -0.004394 0.000378 0.002069 0.000000 0.029471 0.000000
# 6 0.000000 0.000000 0.000000 0.014265 0.000000 0.041499
#
#
# Mechanical properties :
#
#
# Convention : Reuss Voigt Hill
#
# Bulk Modulus (GPa) = 42.73417 46.47324 44.60371
# Shear Modulus (GPa) = 32.20640 36.84154 34.52397
#
# Velocity S-wave (km/s) = 3.63142 3.88395 3.75980
# Velocity P-wave (km/s) = 5.92290 6.25638 6.09192
#
# Compressibility (1/GPa) = 0.02340048
#
# Stress axis : x y z
#
# Youngs Moduli (GPa) = 91.02389 107.15266 67.29808
#
# Poissons Ratio (x) = 0.28083 0.10447
# Poissons Ratio (y) = 0.23856 0.11545
# Poissons Ratio (z) = 0.14131 0.18382
#
# Static dielectric constant tensor:
#      x y z
#    x 1.916340 0.000000 -0.036940 
#    y 0.000000 1.913100 0.000000 
#    z -0.036940 0.000000 1.960060 
# 
# From -- ./inp_files/152742.got.cif
#   From: 2010.05.17/outbox.cif.g08.bks.cpg/sg15_77_cif.got.tgz:152742.got - 2010.06.03 18:47:42.
