data_PCOD9308430
_publ_section_title
;
Structure prediction by ZEFSAII (Michael W. Deem and Ramdas Pophale) SiO2 
 PCOD9308430
Probable space group: C 2/C
;
_chemical_formula_sum "Si O2"
_cell_formula_units_Z 32
_cell_length_a 11.817065
_cell_length_b 9.721619
_cell_length_c 12.909720
_cell_angle_alpha 90.000000
_cell_angle_beta 48.743844
_cell_angle_gamma 90.000000
_cell_volume 1114.934707
_symmetry_space_group_name_H-M "C 2/C"
_symmetry_group_IT_number 15
_symmetry_cell_setting 'monoclinic'
loop_
_space_group_symop_operation_xyz
x,y,z
-x,y,1/2-z
-x,-y,-z
x,-y,1/2+z
1/2+x,1/2+y,z
1/2-x,1/2+y,1/2-z
1/2-x,1/2-y,-z
1/2+x,1/2-y,1/2+z
loop_
_atom_site_type_symbol
_atom_site_label
_atom_site_fract_x
_atom_site_fract_y
_atom_site_fract_z
Si Si1 0.340181 0.396563 0.964546
Si Si2 0.919723 0.799034 0.409256
Si Si3 0.350841 0.896679 0.632883
Si Si4 0.122736 0.693498 0.788398
O O1 0.467491 0.279370 0.870335
O O2 0.229829 0.355204 0.125284
O O3 0.422603 0.540142 0.934100
O O4 0.239871 0.419448 0.920502
O O5 0.750000 0.750000 0.500000
O O6 0.007958 0.705126 0.437521
O O7 0.000000 0.781667 0.250000
O O8 0.229054 0.810575 0.773839
O O9 0.396896 0.043713 0.649784
#
# Coordination Sequence:
#
# PCOD9308430 Si02
#       4
#     8   8   8   8
#     4  12  30  56  86 128 173 221 288 351 419 515
#     4  12  29  53  83 122 167 221 284 344 417 508
#     4  12  29  54  86 120 171 226 273 353 431 486
#     4  12  29  54  89 129 169 224 290 348 424 516
#
# _framework density 28.701231
#
# number of rings (size 3 to 8) (size 9 to 14) (size 15 to 20)
#    0.000    0.000    0.000    7.500    0.000   24.000 
#    0.000    5.000    0.000    0.000    0.000    0.000 
#    0.000    0.000    0.000    0.000    0.000    0.000 
#
# Total GULP energy -89695.637711 kJ/mol
# GULP energy per Si atom -5605.977357 kJ/mol
# Density = 2.863591 g / cm^3
# Si number density = 28.701231 Si / 1000 Ang^3
#
#
#
# Elastic Constant Matrix: (Units=GPa)
#
#
# Indices 1 2 3 4 5 6 
#
# 1 240.3612 137.3316 92.0347 0.0000 -24.2853 0.0000
# 2 137.3316 327.0284 101.7875 0.0000 -11.5443 0.0000
# 3 92.0347 101.7875 196.9343 0.0000 -12.7119 0.0000
# 4 0.0000 0.0000 0.0000 66.3248 0.0000 -21.8415
# 5 -24.2853 -11.5443 -12.7119 0.0000 53.1119 0.0000
# 6 0.0000 0.0000 0.0000 -21.8415 0.0000 63.5293
#
#
#
# Elastic Compliance Matrix: (Units=1/GPa)
#
#
# Indices 1 2 3 4 5 6 
#
# 1 0.006149 -0.001976 -0.001725 0.000000 0.001969 0.000000
# 2 -0.001976 0.004285 -0.001310 0.000000 -0.000285 0.000000
# 3 -0.001725 -0.001310 0.006594 0.000000 0.000505 0.000000
# 4 0.000000 0.000000 0.000000 0.017002 0.000000 0.005845
# 5 0.001969 -0.000285 0.000505 0.000000 0.019787 0.000000
# 6 0.000000 0.000000 0.000000 0.005845 0.000000 0.017750
#
#
# Mechanical properties :
#
#
# Convention : Reuss Voigt Hill
#
# Bulk Modulus (GPa) = 142.73707 158.51460 150.62583
# Shear Modulus (GPa) = 59.57725 65.47122 62.52423
#
# Velocity S-wave (km/s) = 4.56101 4.78130 4.67245
# Velocity P-wave (km/s) = 8.80778 9.26446 9.03901
#
# Compressibility (1/GPa) = 0.00700589
#
# Stress axis : x y z
#
# Youngs Moduli (GPa) = 162.63477 233.36645 151.65787
#
# Poissons Ratio (x) = 0.46103 0.26166
# Poissons Ratio (y) = 0.32130 0.19867
# Poissons Ratio (z) = 0.28060 0.30570
#
# Static dielectric constant tensor:
#      x y z
#    x 2.276740 0.000000 0.162830 
#    y 0.000000 2.185700 0.000000 
#    z 0.162830 0.000000 2.713170 
# 
# From -- ./inp_files/165989.got.cif
#   From: 2010.05.17/outbox.cif.g08.bks.cpg/sg15_83_cif.got.tgz:165989.got - 2010.06.03 18:47:42.
