data_PCOD9308659
_publ_section_title
;
Structure prediction by ZEFSAII (Michael W. Deem and Ramdas Pophale) SiO2 
 PCOD9308659
Probable space group: C 2/C
;
_chemical_formula_sum "Si O2"
_cell_formula_units_Z 24
_cell_length_a 9.000000
_cell_length_b 18.000000
_cell_length_c 18.000000
_cell_angle_alpha 90.000000
_cell_angle_beta 120.000000
_cell_angle_gamma 90.000000
_cell_volume 2525.330077
_symmetry_space_group_name_H-M "C 2/C"
_symmetry_group_IT_number 15
_symmetry_cell_setting 'monoclinic'
loop_
_space_group_symop_operation_xyz
x,y,z
-x,y,1/2-z
-x,-y,-z
x,-y,1/2+z
1/2+x,1/2+y,z
1/2-x,1/2+y,1/2-z
1/2-x,1/2-y,-z
1/2+x,1/2-y,1/2+z
loop_
_atom_site_type_symbol
_atom_site_label
_atom_site_fract_x
_atom_site_fract_y
_atom_site_fract_z
Si Si1 0.620285 0.355544 0.217582
Si Si2 0.377230 0.902531 0.646189
Si Si3 0.997316 0.167698 0.050881
Si Si4 0.254804 0.072442 0.599310
Si Si5 0.515777 0.206282 0.666880
Si Si6 0.553586 0.234838 0.427695
O O1 0.500000 0.392273 0.250000
O O2 0.680159 0.408345 0.163813
O O3 0.787985 0.318914 0.297117
O O4 0.511152 0.288033 0.154501
O O5 0.500000 0.901114 0.750000
O O6 0.193568 0.860661 0.609903
O O7 0.463630 0.850573 0.603198
O O8 0.329321 0.988624 0.615391
O O9 0.960172 0.218387 0.112643
O O10 0.963488 0.229085 0.977107
O O11 0.889264 0.095701 0.997414
O O12 0.401587 0.133927 0.621645
O O13 0.500000 0.219877 0.750000
O O14 0.750000 0.250000 0.500000
#
# Coordination Sequence:
#
# PCOD9308659 Si02
#       6
#     8   8   8   8   8   8
#     4  10  18  33  56  82 108 148 197 234 272 336
#     4  11  20  35  57  86 117 150 187 235 286 335
#     4  10  20  36  58  81 110 152 196 232 274 343
#     4  10  22  37  56  84 120 152 181 232 298 339
#     4  10  20  36  58  84 113 150 191 236 285 338
#     4   9  18  31  53  81 107 140 188 233 273 325
#
# _framework density 9.5037079999999996
#
# number of rings (size 3 to 8) (size 9 to 14) (size 15 to 20)
#    0.000    2.000    0.000    6.000    0.000    0.000 
#    0.000    1.667    0.000   10.000    0.000    0.000 
#    0.000    0.000    0.000    0.000    0.000    0.000 
#
# Total GULP energy -133720.585076 kJ/mol
# GULP energy per Si atom -5571.691045 kJ/mol
# Density = 0.948208 g / cm^3
# Si number density = 9.503708 Si / 1000 Ang^3
#
#
#
# Elastic Constant Matrix: (Units=GPa)
#
#
# Indices 1 2 3 4 5 6 
#
# 1 55.9500 16.3991 24.0591 0.0000 16.0108 0.0000
# 2 16.3991 145.8574 39.7359 0.0000 0.8074 0.0000
# 3 24.0591 39.7359 95.1158 0.0000 26.3664 0.0000
# 4 0.0000 0.0000 0.0000 32.1654 0.0000 6.1687
# 5 16.0108 0.8074 26.3664 0.0000 23.2842 0.0000
# 6 0.0000 0.0000 0.0000 6.1687 0.0000 27.0039
#
#
#
# Elastic Compliance Matrix: (Units=1/GPa)
#
#
# Indices 1 2 3 4 5 6 
#
# 1 0.023166 -0.002325 -0.000722 0.000000 -0.015032 0.000000
# 2 -0.002325 0.008381 -0.004774 0.000000 0.006714 0.000000
# 3 -0.000722 -0.004774 0.018229 0.000000 -0.019981 0.000000
# 4 0.000000 0.000000 0.000000 0.032514 0.000000 -0.007427
# 5 -0.015032 0.006714 -0.019981 0.000000 0.075677 0.000000
# 6 0.000000 0.000000 0.000000 -0.007427 0.000000 0.038728
#
#
# Mechanical properties :
#
#
# Convention : Reuss Voigt Hill
#
# Bulk Modulus (GPa) = 29.29574 50.81240 40.05407
# Shear Modulus (GPa) = 22.34981 30.93931 26.64456
#
# Velocity S-wave (km/s) = 3.43278 4.03891 3.74812
# Velocity P-wave (km/s) = 5.58196 6.96717 6.31267
#
# Compressibility (1/GPa) = 0.03413465
#
# Stress axis : x y z
#
# Youngs Moduli (GPa) = 43.16589 119.31846 54.85669
#
# Poissons Ratio (x) = 0.27739 0.03959
# Poissons Ratio (y) = 0.10035 0.26191
# Poissons Ratio (z) = 0.03115 0.56968
#
# Static dielectric constant tensor:
#      x y z
#    x 1.766950 0.000000 0.005370 
#    y 0.000000 1.642850 0.000000 
#    z 0.005370 0.000000 1.697370 
# 
# From -- ./inp_files/190610.got.cif
#   From: 2010.05.17/outbox.ucp.g08.bks.cvg/sg15_96_cif.got.tgz:190610.got - 2010.06.11 12:40:34.
