data_PCOD9308163
_publ_section_title
;
Structure prediction by ZEFSAII (Michael W. Deem and Ramdas Pophale) SiO2 
 PCOD9308163
Probable space group: C 2/C
;
_chemical_formula_sum "Si O2"
_cell_formula_units_Z 44
_cell_length_a 21.020851
_cell_length_b 4.963294
_cell_length_c 16.538378
_cell_angle_alpha 90.000000
_cell_angle_beta 91.807852
_cell_angle_gamma 90.000000
_cell_volume 1724.634159
_symmetry_space_group_name_H-M "C 2/C"
_symmetry_group_IT_number 15
_symmetry_cell_setting 'monoclinic'
loop_
_space_group_symop_operation_xyz
x,y,z
-x,y,1/2-z
-x,-y,-z
x,-y,1/2+z
1/2+x,1/2+y,z
1/2-x,1/2+y,1/2-z
1/2-x,1/2-y,-z
1/2+x,1/2-y,1/2+z
loop_
_atom_site_type_symbol
_atom_site_label
_atom_site_fract_x
_atom_site_fract_y
_atom_site_fract_z
Si Si1 0.206645 0.940254 0.738939
Si Si2 0.853888 0.927535 0.926958
Si Si3 0.500000 0.790530 0.750000
Si Si4 0.315403 0.087004 0.516644
Si Si5 0.007922 0.907622 0.592903
Si Si6 0.393977 0.876227 0.169695
O O1 0.245426 0.663856 0.726770
O O2 0.181902 0.039075 0.652130
O O3 0.145259 0.866664 0.790542
O O4 0.816038 0.685841 0.966513
O O5 0.920538 0.800089 0.903145
O O6 0.863170 0.182579 0.985354
O O7 0.504257 0.621202 0.666863
O O8 0.566866 0.952961 0.762541
O O9 0.250000 0.250000 0.500000
O O10 0.339967 0.007112 0.607244
O O11 0.952890 0.704521 0.615393
O O12 0.000000 0.000000 0.500000
#
# Coordination Sequence:
#
# PCOD9308163 Si02
#       6
#     8   8   4   8   8   8
#     4  12  28  48  76 111 155 208 263 332 401 484
#     4  12  26  48  76 108 155 200 265 320 407 474
#     4  12  28  48  82 114 164 216 278 342 416 490
#     4  12  27  49  77 113 153 211 264 331 398 493
#     4  12  27  50  79 117 163 212 272 345 416 493
#     4  12  28  48  78 114 159 206 279 333 420 487
#
# _framework density 25.512657000000001
#
# number of rings (size 3 to 8) (size 9 to 14) (size 15 to 20)
#    0.000    0.000    1.818    7.636   10.182    1.455 
#    0.000    0.000    0.000    0.000    0.000    0.000 
#    0.000    0.000    0.000    0.000    0.000    0.000 
#
# Total GULP energy -123117.491965 kJ/mol
# GULP energy per Si atom -5596.249635 kJ/mol
# Density = 2.545459 g / cm^3
# Si number density = 25.512657 Si / 1000 Ang^3
#
#
#
# Elastic Constant Matrix: (Units=GPa)
#
#
# Indices 1 2 3 4 5 6 
#
# 1 134.7926 7.4915 16.6014 0.0000 0.7821 0.0000
# 2 7.4915 57.0224 11.1757 0.0000 -12.1783 0.0000
# 3 16.6014 11.1757 132.9268 0.0000 15.1342 0.0000
# 4 0.0000 0.0000 0.0000 31.8404 0.0000 -10.6999
# 5 0.7821 -12.1783 15.1342 0.0000 51.9530 0.0000
# 6 0.0000 0.0000 0.0000 -10.6999 0.0000 40.5631
#
#
#
# Elastic Compliance Matrix: (Units=1/GPa)
#
#
# Indices 1 2 3 4 5 6 
#
# 1 0.007573 -0.000837 -0.000869 0.000000 -0.000057 0.000000
# 2 -0.000837 0.019147 -0.002087 0.000000 0.005109 0.000000
# 3 -0.000869 -0.002087 0.008131 0.000000 -0.002845 0.000000
# 4 0.000000 0.000000 0.000000 0.034461 0.000000 0.009090
# 5 -0.000057 0.005109 -0.002845 0.000000 0.021275 0.000000
# 6 0.000000 0.000000 0.000000 0.009090 0.000000 0.027051
#
#
# Mechanical properties :
#
#
# Convention : Reuss Voigt Hill
#
# Bulk Modulus (GPa) = 36.67670 43.91988 40.29829
# Shear Modulus (GPa) = 37.22686 44.16950 40.69818
#
# Velocity S-wave (km/s) = 3.82403 4.16538 3.99835
# Velocity P-wave (km/s) = 5.82277 6.35501 6.09470
#
# Compressibility (1/GPa) = 0.02726527
#
# Stress axis : x y z
#
# Youngs Moduli (GPa) = 132.05402 52.22749 122.98932
#
# Poissons Ratio (x) = 0.04370 0.10687
# Poissons Ratio (y) = 0.11050 0.25667
# Poissons Ratio (z) = 0.11474 0.10899
#
# Static dielectric constant tensor:
#      x y z
#    x 1.967350 0.000000 -0.161590 
#    y 0.000000 1.988770 0.000000 
#    z -0.161590 0.000000 1.902420 
# 
# From -- ./inp_files/212917.got.cif
#   From: 2010.05.17/outbox.cif.g08.bks.cpg/sg15_107_cif.got.tgz:212917.got - 2010.06.03 18:47:42.
