data_PCOD9308756
_publ_section_title
;
Structure prediction by ZEFSAII (Michael W. Deem and Ramdas Pophale) SiO2 
 PCOD9308756
Probable space group: C 2/C
;
_chemical_formula_sum "Si O2"
_cell_formula_units_Z 20
_cell_length_a 12.000000
_cell_length_b 27.000000
_cell_length_c 9.000000
_cell_angle_alpha 90.000000
_cell_angle_beta 130.000000
_cell_angle_gamma 90.000000
_cell_volume 2233.785596
_symmetry_space_group_name_H-M "C 2/C"
_symmetry_group_IT_number 15
_symmetry_cell_setting 'monoclinic'
loop_
_space_group_symop_operation_xyz
x,y,z
-x,y,1/2-z
-x,-y,-z
x,-y,1/2+z
1/2+x,1/2+y,z
1/2-x,1/2+y,1/2-z
1/2-x,1/2-y,-z
1/2+x,1/2-y,1/2+z
loop_
_atom_site_type_symbol
_atom_site_label
_atom_site_fract_x
_atom_site_fract_y
_atom_site_fract_z
Si Si1 0.777975 0.677109 0.924079
Si Si2 0.851192 0.414636 0.704905
Si Si3 0.288972 0.480466 0.326795
Si Si4 0.438896 0.106169 0.861172
Si Si5 0.000000 0.989790 0.750000
Si Si6 0.500000 0.257229 0.250000
O O1 0.829178 0.649319 0.818730
O O2 0.623480 0.705742 0.787514
O O3 0.783451 0.630704 0.049028
O O4 0.900552 0.718647 0.069148
O O5 0.755956 0.462967 0.666164
O O6 0.000000 0.432283 0.750000
O O7 0.920027 0.392091 0.912484
O O8 0.149031 0.445631 0.192550
O O9 0.392243 0.460994 0.547840
O O10 0.390117 0.481171 0.266648
O O11 0.500000 0.109810 0.750000
#
# Coordination Sequence:
#
# PCOD9308756 Si02
#       6
#     8   8   8   8   4   4
#     4  10  21  39  65  88 112 147 204 241 289 341
#     4  10  19  35  57  84 108 151 197 236 274 352
#     4  11  21  35  54  77 122 156 190 229 285 337
#     4  11  21  35  55  87 117 150 186 238 288 354
#     4  10  22  33  46  76 110 162 194 225 268 342
#     4  10  20  41  68  84 108 150 198 261 288 318
#
# _framework density 8.9534109999999991
#
# number of rings (size 3 to 8) (size 9 to 14) (size 15 to 20)
#    0.000    1.600    3.000    4.800    0.000    4.800 
#    0.000    1.000    0.000    0.000    0.000    0.000 
#    0.000    0.000    0.000    0.000    0.000    0.000 
#
# Total GULP energy -111408.434590 kJ/mol
# GULP energy per Si atom -5570.421730 kJ/mol
# Density = 0.893303 g / cm^3
# Si number density = 8.953411 Si / 1000 Ang^3
#
#
#
# Elastic Constant Matrix: (Units=GPa)
#
#
# Indices 1 2 3 4 5 6 
#
# 1 133.7724 55.2883 37.1963 0.0000 -10.6017 0.0000
# 2 55.2883 112.9314 9.1366 0.0000 6.3401 0.0000
# 3 37.1963 9.1366 65.8543 0.0000 -5.7145 0.0000
# 4 0.0000 0.0000 0.0000 14.2882 0.0000 8.1889
# 5 -10.6017 6.3401 -5.7145 0.0000 36.1937 0.0000
# 6 0.0000 0.0000 0.0000 8.1889 0.0000 33.2578
#
#
#
# Elastic Compliance Matrix: (Units=1/GPa)
#
#
# Indices 1 2 3 4 5 6 
#
# 1 0.011483 -0.005375 -0.005441 0.000000 0.003446 0.000000
# 2 -0.005375 0.011587 0.001131 0.000000 -0.003426 0.000000
# 3 -0.005441 0.001131 0.018195 0.000000 0.001081 0.000000
# 4 0.000000 0.000000 0.000000 0.081487 0.000000 -0.020064
# 5 0.003446 -0.003426 0.001081 0.000000 0.029409 0.000000
# 6 0.000000 0.000000 0.000000 -0.020064 0.000000 0.035008
#
#
# Mechanical properties :
#
#
# Convention : Reuss Voigt Hill
#
# Bulk Modulus (GPa) = 45.67197 57.31116 51.49156
# Shear Modulus (GPa) = 23.38214 30.81040 27.09627
#
# Velocity S-wave (km/s) = 3.61746 4.15251 3.89418
# Velocity P-wave (km/s) = 6.55811 7.42063 7.00266
#
# Compressibility (1/GPa) = 0.02189527
#
# Stress axis : x y z
#
# Youngs Moduli (GPa) = 87.08588 86.30204 54.95958
#
# Poissons Ratio (x) = 0.46387 0.29904
# Poissons Ratio (y) = 0.46809 -0.06216
# Poissons Ratio (z) = 0.47384 -0.09761
#
# Static dielectric constant tensor:
#      x y z
#    x 1.634770 0.000000 -0.020700 
#    y 0.000000 1.594110 0.000000 
#    z -0.020700 0.000000 1.672230 
# 
# From -- ./inp_files/33354.got.cif
#   From: 2010.05.17/outbox.ucp.g08.bks.cvg/sg15_17_cif.got.tgz:33354.got - 2010.06.11 12:40:34.
