data_PCOD9308065
_publ_section_title
;
Structure prediction by ZEFSAII (Michael W. Deem and Ramdas Pophale) SiO2 
 PCOD9308065
Probable space group: C 2/C
;
_chemical_formula_sum "Si O2"
_cell_formula_units_Z 36
_cell_length_a 17.533310
_cell_length_b 7.015456
_cell_length_c 23.727350
_cell_angle_alpha 90.000000
_cell_angle_beta 24.567223
_cell_angle_gamma 90.000000
_cell_volume 1213.423394
_symmetry_space_group_name_H-M "C 2/C"
_symmetry_group_IT_number 15
_symmetry_cell_setting 'monoclinic'
loop_
_space_group_symop_operation_xyz
x,y,z
-x,y,1/2-z
-x,-y,-z
x,-y,1/2+z
1/2+x,1/2+y,z
1/2-x,1/2+y,1/2-z
1/2-x,1/2-y,-z
1/2+x,1/2-y,1/2+z
loop_
_atom_site_type_symbol
_atom_site_label
_atom_site_fract_x
_atom_site_fract_y
_atom_site_fract_z
Si Si1 0.500000 0.508008 0.250000
Si Si2 0.124243 0.325063 0.303172
Si Si3 0.177353 0.642039 0.886356
Si Si4 0.800771 0.471575 0.967148
Si Si5 0.669472 0.561103 0.939641
O O1 0.362875 0.585644 0.390662
O O2 0.738407 0.803471 0.169439
O O3 0.984959 0.492948 0.378249
O O4 0.992610 0.166411 0.418433
O O5 0.248666 0.364362 0.273944
O O6 0.125037 0.857628 0.940733
O O7 0.343200 0.593030 0.817113
O O8 0.000000 0.500000 0.000000
O O9 0.810099 0.522913 0.895752
O O10 0.750000 0.250000 0.000000
#
# Coordination Sequence:
#
# PCOD9308065 Si02
#       5
#     4   8   8   8   8
#     4  12  26  48  92 130 180 236 322 392 484 560
#     4  12  29  53  84 132 188 247 314 393 485 581
#     4  12  27  57  92 136 185 249 321 403 484 579
#     4  12  25  51  85 128 182 246 317 396 477 564
#     4  12  29  53  91 134 190 252 318 397 489 583
#
# _framework density 29.668126000000001
#
# number of rings (size 3 to 8) (size 9 to 14) (size 15 to 20)
#    0.000    0.000    4.444    3.333    3.111    5.333 
#    0.000    0.000    0.000    0.000    0.000    0.000 
#    0.000    0.000    0.000    0.000    0.000    0.000 
#
# Total GULP energy -100926.224302 kJ/mol
# GULP energy per Si atom -5607.012461 kJ/mol
# Density = 2.960060 g / cm^3
# Si number density = 29.668126 Si / 1000 Ang^3
#
#
#
# Elastic Constant Matrix: (Units=GPa)
#
#
# Indices 1 2 3 4 5 6 
#
# 1 298.5007 89.6912 92.3282 -0.0007 41.0246 -0.0008
# 2 89.6912 203.2531 77.3007 0.0041 -8.0067 -0.0004
# 3 92.3282 77.3007 219.4633 0.0028 28.6394 0.0002
# 4 -0.0007 0.0041 0.0028 53.6705 0.0000 -1.2790
# 5 41.0246 -8.0067 28.6394 0.0000 81.8857 0.0004
# 6 -0.0008 -0.0004 0.0002 -1.2790 0.0004 56.4485
#
#
#
# Elastic Compliance Matrix: (Units=1/GPa)
#
#
# Indices 1 2 3 4 5 6 
#
# 1 0.004441 -0.001651 -0.001022 0.000000 -0.002029 0.000000
# 2 -0.001651 0.006433 -0.001846 0.000000 0.002102 0.000000
# 3 -0.001022 -0.001846 0.005861 0.000000 -0.001718 0.000000
# 4 0.000000 0.000000 0.000000 0.018642 0.000000 0.000422
# 5 -0.002029 0.002102 -0.001718 0.000000 0.014035 0.000000
# 6 0.000000 0.000000 0.000000 0.000422 0.000000 0.017725
#
#
# Mechanical properties :
#
#
# Convention : Reuss Voigt Hill
#
# Bulk Modulus (GPa) = 129.90726 137.76192 133.83459
# Shear Modulus (GPa) = 63.49944 69.19408 66.34676
#
# Velocity S-wave (km/s) = 4.63138 4.83460 4.73408
# Velocity P-wave (km/s) = 8.51361 8.81474 8.66548
#
# Compressibility (1/GPa) = 0.00769780
#
# Stress axis : x y z
#
# Youngs Moduli (GPa) = 225.16725 155.44264 170.62301
#
# Poissons Ratio (x) = 0.25663 0.17439
# Poissons Ratio (y) = 0.37175 0.31491
# Poissons Ratio (z) = 0.23014 0.28689
#
# Static dielectric constant tensor:
#      x y z
#    x 2.335980 0.000000 -0.009890 
#    y 0.000000 2.477200 0.000000 
#    z -0.009890 0.000000 2.369390 
# 
# From -- ./inp_files/275980.got.cif
#   From: 2010.05.17/outbox.cif.g08.bks.cpg/sg15_138_cif.got.tgz:275980.got - 2010.06.03 18:47:42.
