data_PCOD9308233
_publ_section_title
;
Structure prediction by ZEFSAII (Michael W. Deem and Ramdas Pophale) SiO2 
 PCOD9308233
Probable space group: C 2/C
;
_chemical_formula_sum "Si O2"
_cell_formula_units_Z 28
_cell_length_a 14.115641
_cell_length_b 7.324344
_cell_length_c 11.669169
_cell_angle_alpha 90.000000
_cell_angle_beta 116.679413
_cell_angle_gamma 90.000000
_cell_volume 1078.002468
_symmetry_space_group_name_H-M "C 2/C"
_symmetry_group_IT_number 15
_symmetry_cell_setting 'monoclinic'
loop_
_space_group_symop_operation_xyz
x,y,z
-x,y,1/2-z
-x,-y,-z
x,-y,1/2+z
1/2+x,1/2+y,z
1/2-x,1/2+y,1/2-z
1/2-x,1/2-y,-z
1/2+x,1/2-y,1/2+z
loop_
_atom_site_type_symbol
_atom_site_label
_atom_site_fract_x
_atom_site_fract_y
_atom_site_fract_z
Si Si1 0.877293 0.957243 0.958603
Si Si2 0.177296 0.091465 0.311826
Si Si3 0.886550 0.537516 0.993058
Si Si4 0.000000 0.376101 0.250000
O O1 0.849423 0.742128 0.954160
O O2 0.854971 0.025671 0.076413
O O3 0.823123 0.019577 0.808991
O O4 0.000000 0.000000 0.000000
O O5 0.085717 0.241058 0.238045
O O6 0.302547 0.110660 0.403969
O O7 0.916831 0.504374 0.140242
O O8 0.000000 0.500000 0.000000
#
# Coordination Sequence:
#
# PCOD9308233 Si02
#       4
#     8   8   8   4
#     4  12  26  52  80 115 156 203 258 326 381 465
#     4  12  27  51  77 113 160 202 258 321 386 457
#     4  12  28  48  80 113 155 207 261 315 395 456
#     4  12  26  50  76 116 158 206 254 330 374 474
#
# _framework density 25.973966000000001
#
# number of rings (size 3 to 8) (size 9 to 14) (size 15 to 20)
#    0.000    0.000    5.714    1.714    8.000    4.571 
#    0.000    0.000    0.000    0.000    0.000    0.000 
#    0.000    0.000    0.000    0.000    0.000    0.000 
#
# Total GULP energy -78000.734550 kJ/mol
# GULP energy per Si atom -5571.481039 kJ/mol
# Density = 2.591485 g / cm^3
# Si number density = 25.973966 Si / 1000 Ang^3
#
#
#
# Elastic Constant Matrix: (Units=GPa)
#
#
# Indices 1 2 3 4 5 6 
#
# 1 147.2046 22.4120 47.2703 0.0000 0.0331 0.0000
# 2 22.4120 72.3827 38.4624 0.0000 -20.4818 0.0000
# 3 47.2703 38.4624 235.4043 0.0000 -14.0253 0.0000
# 4 0.0000 0.0000 0.0000 31.1739 0.0000 -8.2343
# 5 0.0331 -20.4818 -14.0253 0.0000 67.2545 0.0000
# 6 0.0000 0.0000 0.0000 -8.2343 0.0000 11.3481
#
#
#
# Elastic Compliance Matrix: (Units=1/GPa)
#
#
# Indices 1 2 3 4 5 6 
#
# 1 0.007481 -0.001893 -0.001243 0.000000 -0.000839 0.000000
# 2 -0.001893 0.016841 -0.002092 0.000000 0.004694 0.000000
# 3 -0.001243 -0.002092 0.004862 0.000000 0.000377 0.000000
# 4 0.000000 0.000000 0.000000 0.039684 0.000000 0.028795
# 5 -0.000839 0.004694 0.000377 0.000000 0.016377 0.000000
# 6 0.000000 0.000000 0.000000 0.028795 0.000000 0.109015
#
#
# Mechanical properties :
#
#
# Convention : Reuss Voigt Hill
#
# Bulk Modulus (GPa) = 53.39640 74.58675 63.99158
# Shear Modulus (GPa) = 23.70123 45.07842 34.38982
#
# Velocity S-wave (km/s) = 3.02404 4.17048 3.64264
# Velocity P-wave (km/s) = 5.72672 7.20894 6.51015
#
# Compressibility (1/GPa) = 0.01872786
#
# Stress axis : x y z
#
# Youngs Moduli (GPa) = 133.67502 59.37749 205.68303
#
# Poissons Ratio (x) = 0.11243 0.25563
# Poissons Ratio (y) = 0.25311 0.43026
# Poissons Ratio (z) = 0.16614 0.12421
#
# Static dielectric constant tensor:
#      x y z
#    x 2.352680 0.000000 -0.569570 
#    y 0.000000 2.060190 0.000000 
#    z -0.569570 0.000000 2.822180 
# 
# From -- ./inp_files/93339.got.cif
#   From: 2010.05.17/outbox.cif.g08.bks.cpg/sg15_47_cif.got.tgz:93339.got - 2010.06.03 18:47:42.
