data_PCOD9308921
_publ_section_title
;
Structure prediction by ZEFSAII (Michael W. Deem and Ramdas Pophale) SiO2 
 PCOD9308921
Probable space group: C 2/C
;
_chemical_formula_sum "Si O2"
_cell_formula_units_Z 30
_cell_length_a 21.000000
_cell_length_b 12.000000
_cell_length_c 15.000000
_cell_angle_alpha 90.000000
_cell_angle_beta 120.000000
_cell_angle_gamma 90.000000
_cell_volume 3273.576026
_symmetry_space_group_name_H-M "C 2/C"
_symmetry_group_IT_number 15
_symmetry_cell_setting 'monoclinic'
loop_
_space_group_symop_operation_xyz
x,y,z
-x,y,1/2-z
-x,-y,-z
x,-y,1/2+z
1/2+x,1/2+y,z
1/2-x,1/2+y,1/2-z
1/2-x,1/2-y,-z
1/2+x,1/2-y,1/2+z
loop_
_atom_site_type_symbol
_atom_site_label
_atom_site_fract_x
_atom_site_fract_y
_atom_site_fract_z
Si Si1 0.800622 0.738249 0.857530
Si Si2 0.709853 0.991419 0.048646
Si Si3 0.159270 0.841867 0.911441
Si Si4 0.199525 0.426775 0.842338
Si Si5 0.748135 0.828397 0.361624
Si Si6 0.500000 0.716734 0.250000
Si Si7 0.595849 0.914477 0.610780
Si Si8 0.038738 0.333433 0.088865
O O1 0.778866 0.624556 0.892212
O O2 0.768814 0.842846 0.889317
O O3 0.758862 0.740112 0.733354
O O4 0.888228 0.730373 0.897257
O O5 0.784717 0.061686 0.083832
O O6 0.653920 0.062820 0.070704
O O7 0.678115 0.956405 0.929149
O O8 0.189119 0.727763 0.887346
O O9 0.074327 0.851887 0.825598
O O10 0.176928 0.831995 0.029237
O O11 0.224910 0.546262 0.821898
O O12 0.137127 0.381490 0.731442
O O13 0.517592 0.787839 0.172314
O O14 0.531267 0.835481 0.527203
O O15 0.561815 0.036489 0.609405
#
# Coordination Sequence:
#
# PCOD9308921 Si02
#       8
#     8   8   8   8   8   4   8   8
#     4  11  21  39  58  86 125 151 198 242 299 364
#     4  10  22  39  64  89 116 157 204 242 297 359
#     4  10  22  36  60  89 118 150 202 248 295 350
#     4  11  21  36  65  88 115 160 201 247 293 356
#     4  10  20  36  57  90 111 154 200 245 293 338
#     4  12  22  34  60  88 122 152 194 256 302 350
#     4  10  21  38  57  87 120 152 195 251 302 352
#     4  10  23  35  53  88 123 153 186 251 306 344
#
# _framework density 9.1642899999999994
#
# number of rings (size 3 to 8) (size 9 to 14) (size 15 to 20)
#    0.000    1.600    4.000    1.200    9.333    0.000 
#    0.000    0.000    5.867    4.000    0.000    0.000 
#    0.000    0.000    0.000    0.000    0.000    0.000 
#
# Total GULP energy -167348.685099 kJ/mol
# GULP energy per Si atom -5578.289503 kJ/mol
# Density = 0.914343 g / cm^3
# Si number density = 9.164290 Si / 1000 Ang^3
#
#
#
# Elastic Constant Matrix: (Units=GPa)
#
#
# Indices 1 2 3 4 5 6 
#
# 1 95.3948 29.4957 57.2299 0.0000 10.6552 0.0000
# 2 29.4957 58.2961 13.4007 0.0000 5.0528 0.0000
# 3 57.2299 13.4007 151.4685 0.0000 12.5858 0.0000
# 4 0.0000 0.0000 0.0000 25.1516 0.0000 -0.4876
# 5 10.6552 5.0528 12.5858 0.0000 38.4067 0.0000
# 6 0.0000 0.0000 0.0000 -0.4876 0.0000 32.4743
#
#
#
# Elastic Compliance Matrix: (Units=1/GPa)
#
#
# Indices 1 2 3 4 5 6 
#
# 1 0.015913 -0.006683 -0.005271 0.000000 -0.001808 0.000000
# 2 -0.006683 0.020445 0.000808 0.000000 -0.001100 0.000000
# 3 -0.005271 0.000808 0.008645 0.000000 -0.001477 0.000000
# 4 0.000000 0.000000 0.000000 0.039771 0.000000 0.000597
# 5 -0.001808 -0.001100 -0.001477 0.000000 0.027167 0.000000
# 6 0.000000 0.000000 0.000000 0.000597 0.000000 0.030803
#
#
# Mechanical properties :
#
#
# Convention : Reuss Voigt Hill
#
# Bulk Modulus (GPa) = 44.03313 56.15690 50.09501
# Shear Modulus (GPa) = 28.96756 32.87540 30.92148
#
# Velocity S-wave (km/s) = 3.97981 4.23977 4.11184
# Velocity P-wave (km/s) = 6.72272 7.39412 7.06640
#
# Compressibility (1/GPa) = 0.02271018
#
# Stress axis : x y z
#
# Youngs Moduli (GPa) = 62.84006 48.91188 115.67542
#
# Poissons Ratio (x) = 0.32689 0.60974
# Poissons Ratio (y) = 0.41997 -0.09344
# Poissons Ratio (z) = 0.33124 -0.03951
#
# Static dielectric constant tensor:
#      x y z
#    x 1.644510 0.000000 0.002940 
#    y 0.000000 1.631300 0.000000 
#    z 0.002940 0.000000 1.677350 
# 
# From -- ./inp_files/167693.got.cif
#   From: 2010.05.17/outbox.ucp.g08.bks.cvg/sg15_84_cif.got.tgz:167693.got - 2010.06.11 12:40:34.
