data_PCOD9308909
_publ_section_title
;
Structure prediction by ZEFSAII (Michael W. Deem and Ramdas Pophale) SiO2 
 PCOD9308909
Probable space group: C 2/C
;
_chemical_formula_sum "Si O2"
_cell_formula_units_Z 32
_cell_length_a 15.000000
_cell_length_b 18.000000
_cell_length_c 24.000000
_cell_angle_alpha 90.000000
_cell_angle_beta 30.000000
_cell_angle_gamma 90.000000
_cell_volume 3240.000000
_symmetry_space_group_name_H-M "C 2/C"
_symmetry_group_IT_number 15
_symmetry_cell_setting 'monoclinic'
loop_
_space_group_symop_operation_xyz
x,y,z
-x,y,1/2-z
-x,-y,-z
x,-y,1/2+z
1/2+x,1/2+y,z
1/2-x,1/2+y,1/2-z
1/2-x,1/2-y,-z
1/2+x,1/2-y,1/2+z
loop_
_atom_site_type_symbol
_atom_site_label
_atom_site_fract_x
_atom_site_fract_y
_atom_site_fract_z
Si Si1 0.142106 0.686928 0.528525
Si Si2 0.226230 0.493142 0.302274
Si Si3 0.811011 0.920624 0.370558
Si Si4 0.363795 0.770211 0.772682
Si Si5 0.504511 0.125974 0.101979
Si Si6 0.232952 0.842934 0.274028
Si Si7 0.537531 0.750447 0.966623
Si Si8 0.057981 0.921363 0.660092
O O1 0.250000 0.750000 0.500000
O O2 0.115735 0.716053 0.480401
O O3 0.280027 0.619481 0.456056
O O4 0.945599 0.672390 0.658814
O O5 0.203654 0.445061 0.372269
O O6 0.057206 0.541475 0.375943
O O7 0.286945 0.430141 0.226840
O O8 0.377207 0.556805 0.226615
O O9 0.712965 0.875121 0.471663
O O10 0.000000 0.887052 0.250000
O O11 0.864386 0.999064 0.366358
O O12 0.500000 0.763913 0.750000
O O13 0.432004 0.840840 0.698860
O O14 0.347835 0.704515 0.734520
O O15 0.166118 0.771687 0.907508
O O16 0.439144 0.182550 0.089930
O O17 0.140036 0.816327 0.380865
O O18 0.000000 0.883477 0.750000
#
# Coordination Sequence:
#
# PCOD9308909 Si02
#       8
#     8   8   8   8   8   8   8   8
#     4  11  23  36  64  89 125 162 212 258 306 381
#     4  10  20  35  63  91 123 154 204 259 314 368
#     4   9  18  32  55  92 118 147 195 256 312 356
#     4  10  24  41  61  90 124 164 212 249 313 380
#     4  11  21  37  66  84 122 161 200 260 310 363
#     4  10  23  41  60  91 127 167 203 265 312 371
#     4  10  23  41  60  89 124 161 210 256 317 372
#     4   9  20  33  57  91 121 150 198 259 314 354
#
# _framework density 9.8765429999999999
#
# number of rings (size 3 to 8) (size 9 to 14) (size 15 to 20)
#    0.000    2.250    0.000    4.125    7.000    8.500 
#    0.000    0.625    5.500    0.000    0.000    0.000 
#    0.000    0.000    0.000    0.000    0.000    0.000 
#
# Total GULP energy -178246.323166 kJ/mol
# GULP energy per Si atom -5570.197599 kJ/mol
# Density = 0.985406 g / cm^3
# Si number density = 9.876543 Si / 1000 Ang^3
#
#
#
# Elastic Constant Matrix: (Units=GPa)
#
#
# Indices 1 2 3 4 5 6 
#
# 1 2.3870 36.4914 -0.8019 -0.0031 6.4641 -0.0006
# 2 36.4914 44.1085 71.4697 -0.0057 -3.6636 -0.0036
# 3 -0.8019 71.4697 89.4165 0.0005 15.4289 -0.0077
# 4 -0.0031 -0.0057 0.0005 27.3202 0.0013 1.5957
# 5 6.4641 -3.6636 15.4289 0.0013 20.2209 0.0026
# 6 -0.0006 -0.0036 -0.0077 1.5957 0.0026 9.7572
#
#
#
# Elastic Compliance Matrix: (Units=1/GPa)
#
#
# Indices 1 2 3 4 5 6 
#
# 1 0.014842 0.023212 -0.021106 0.000007 0.015565 -0.000013
# 2 0.023212 0.000055 0.001661 0.000003 -0.008678 0.000005
# 3 -0.021106 0.001661 0.009732 -0.000003 -0.000377 0.000008
# 4 0.000007 0.000003 -0.000003 0.036956 -0.000001 -0.006044
# 5 0.015565 -0.008678 -0.000377 -0.000001 0.043194 -0.000014
# 6 -0.000013 0.000005 0.000008 -0.006044 -0.000014 0.103477
#
#
# Mechanical properties :
#
#
# Convention : Reuss Voigt Hill
#
# Bulk Modulus (GPa) = 31.09083 38.91447 35.00265
# Shear Modulus (GPa) = 23.64718 13.37652 18.51185
#
# Velocity S-wave (km/s) = 3.46372 2.60510 3.06463
# Velocity P-wave (km/s) = 5.63652 5.36581 5.50283
#
# Compressibility (1/GPa) = 0.03216383
#
# Stress axis : x y z
#
# Youngs Moduli (GPa) = 67.37715 18065.10546 102.75767
#
# Poissons Ratio (x) = -419.32600 2.16877
# Poissons Ratio (y) = -1.56395 -0.17071
# Poissons Ratio (z) = 1.42204 -30.01124
#
# Static dielectric constant tensor:
#      x y z
#    x 1.733840 -0.000010 -0.057210 
#    y -0.000010 1.673340 -0.000020 
#    z -0.057210 -0.000020 1.771010 
# 
# From -- ./inp_files/274810.got.cif
#   From: 2010.05.17/outbox.ucp.g08.bks.cvg/sg15_138_cif.got.tgz:274810.got - 2010.06.11 12:40:34.
