data_PCOD9308788
_publ_section_title
;
Structure prediction by ZEFSAII (Michael W. Deem and Ramdas Pophale) SiO2 
 PCOD9308788
Probable space group: C 2/C
;
_chemical_formula_sum "Si O2"
_cell_formula_units_Z 20
_cell_length_a 12.000000
_cell_length_b 9.000000
_cell_length_c 18.000000
_cell_angle_alpha 90.000000
_cell_angle_beta 90.000000
_cell_angle_gamma 90.000000
_cell_volume 1944.000000
_symmetry_space_group_name_H-M "C 2/C"
_symmetry_group_IT_number 15
_symmetry_cell_setting 'monoclinic'
loop_
_space_group_symop_operation_xyz
x,y,z
-x,y,1/2-z
-x,-y,-z
x,-y,1/2+z
1/2+x,1/2+y,z
1/2-x,1/2+y,1/2-z
1/2-x,1/2-y,-z
1/2+x,1/2-y,1/2+z
loop_
_atom_site_type_symbol
_atom_site_label
_atom_site_fract_x
_atom_site_fract_y
_atom_site_fract_z
Si Si1 0.230553 0.795205 0.684178
Si Si2 0.849472 0.547430 0.921976
Si Si3 0.896839 0.511694 0.094364
Si Si4 0.253444 0.749831 0.910487
Si Si5 0.880118 0.901817 0.288238
O O1 0.174754 0.700141 0.618699
O O2 0.336622 0.881969 0.651425
O O3 0.281994 0.684337 0.744353
O O4 0.147328 0.923058 0.711878
O O5 0.763044 0.423386 0.892563
O O6 0.971370 0.485527 0.902256
O O7 0.853529 0.555359 0.011592
O O8 0.854818 0.344542 0.110510
O O9 0.357319 0.662048 0.872049
O O10 0.250000 0.750000 0.000000
O O11 0.000000 0.873764 0.250000
#
# Coordination Sequence:
#
# PCOD9308788 Si02
#       5
#     8   8   8   8   8
#     4  11  23  37  57  84 117 153 197 244 292 354
#     4  10  19  36  61  86 116 153 192 241 297 351
#     4   9  20  37  59  87 116 151 194 240 295 354
#     4   9  19  38  61  85 116 153 196 244 293 351
#     4  11  24  40  59  87 120 159 201 246 302 357
#
# _framework density 10.288066000000001
#
# number of rings (size 3 to 8) (size 9 to 14) (size 15 to 20)
#    0.000    2.000    0.000    3.000    0.000    4.800 
#    0.000    1.000    0.000   21.600    0.000    0.000 
#    0.000    0.000    0.000    0.000    0.000    0.000 
#
# Total GULP energy -111550.801192 kJ/mol
# GULP energy per Si atom -5577.540060 kJ/mol
# Density = 1.026465 g / cm^3
# Si number density = 10.288066 Si / 1000 Ang^3
#
#
#
# Elastic Constant Matrix: (Units=GPa)
#
#
# Indices 1 2 3 4 5 6 
#
# 1 34.4247 8.1762 38.5491 0.0000 -15.5239 0.0000
# 2 8.1762 99.4105 18.1915 0.0000 5.6066 0.0000
# 3 38.5491 18.1915 40.7983 0.0000 -33.2994 0.0000
# 4 0.0000 0.0000 0.0000 38.5677 0.0000 -7.3251
# 5 -15.5239 5.6066 -33.2994 0.0000 20.3871 0.0000
# 6 0.0000 0.0000 0.0000 -7.3251 0.0000 18.6763
#
#
#
# Elastic Compliance Matrix: (Units=1/GPa)
#
#
# Indices 1 2 3 4 5 6 
#
# 1 0.039268 -0.010014 0.017966 0.000000 0.062000 0.000000
# 2 -0.010014 0.009094 0.008579 0.000000 0.003886 0.000000
# 3 0.017966 0.008579 -0.038874 0.000000 -0.052174 0.000000
# 4 0.000000 0.000000 0.000000 0.028015 0.000000 0.010988
# 5 0.062000 0.003886 -0.052174 0.000000 0.009974 0.000000
# 6 0.000000 0.000000 0.000000 0.010988 0.000000 0.057854
#
#
# Mechanical properties :
#
#
# Convention : Reuss Voigt Hill
#
# Bulk Modulus (GPa) = 23.50239 33.82969 28.66604
# Shear Modulus (GPa) = 57.83555 22.84066 40.33811
#
# Velocity S-wave (km/s) = 5.30746 3.33537 4.43248
# Velocity P-wave (km/s) = 7.00041 5.59552 6.33702
#
# Compressibility (1/GPa) = 0.04254886
#
# Stress axis : x y z
#
# Youngs Moduli (GPa) = 25.46625 109.96319 -25.72422
#
# Poissons Ratio (x) = 1.10117 0.46216
# Poissons Ratio (y) = 0.25502 0.22068
# Poissons Ratio (z) = -0.45753 -0.94332
#
# Static dielectric constant tensor:
#      x y z
#    x 1.679560 0.000000 -0.024160 
#    y 0.000000 1.748300 0.000000 
#    z -0.024160 0.000000 1.793680 
# 
# From -- ./inp_files/195076.got.cif
#   From: 2010.05.17/outbox.ucp.g08.bks.cvg/sg15_98_cif.got.tgz:195076.got - 2010.06.11 12:40:34.
