data_PCOD9308899
_publ_section_title
;
Structure prediction by ZEFSAII (Michael W. Deem and Ramdas Pophale) SiO2 
 PCOD9308899
Probable space group: C 2/C
;
_chemical_formula_sum "Si O2"
_cell_formula_units_Z 28
_cell_length_a 12.000000
_cell_length_b 9.000000
_cell_length_c 30.000000
_cell_angle_alpha 90.000000
_cell_angle_beta 120.000000
_cell_angle_gamma 90.000000
_cell_volume 2805.922308
_symmetry_space_group_name_H-M "C 2/C"
_symmetry_group_IT_number 15
_symmetry_cell_setting 'monoclinic'
loop_
_space_group_symop_operation_xyz
x,y,z
-x,y,1/2-z
-x,-y,-z
x,-y,1/2+z
1/2+x,1/2+y,z
1/2-x,1/2+y,1/2-z
1/2-x,1/2-y,-z
1/2+x,1/2-y,1/2+z
loop_
_atom_site_type_symbol
_atom_site_label
_atom_site_fract_x
_atom_site_fract_y
_atom_site_fract_z
Si Si1 0.029704 0.202039 0.143518
Si Si2 0.277830 0.321872 0.644302
Si Si3 0.694143 0.569794 0.254536
Si Si4 0.390219 0.187683 0.015936
Si Si5 0.926139 0.568872 0.924962
Si Si6 0.041087 0.866462 0.117755
Si Si7 0.067319 0.752563 0.215359
O O1 0.119548 0.173336 0.204325
O O2 0.074321 0.327677 0.118471
O O3 0.887274 0.232072 0.133200
O O4 0.027251 0.041629 0.119010
O O5 0.338878 0.394035 0.700894
O O6 0.187186 0.446690 0.603313
O O7 0.188118 0.188602 0.643609
O O8 0.843795 0.610519 0.277448
O O9 0.654179 0.401297 0.237192
O O10 0.478621 0.303748 0.060428
O O11 0.441576 0.027277 0.044500
O O12 0.250000 0.250000 0.000000
O O13 0.407575 0.165308 0.966261
O O14 0.988956 0.790451 0.153759
O O15 0.000000 0.734206 0.250000
#
# Coordination Sequence:
#
# PCOD9308899 Si02
#       7
#     8   8   8   8   8   8   8
#     4  11  21  36  60  87 114 150 189 233 285 339
#     4  10  20  39  57  81 122 152 182 237 286 335
#     4  10  20  35  58  86 116 152 191 225 280 352
#     4  10  21  41  61  81 114 152 190 243 292 328
#     4  10  23  39  61  87 109 149 202 232 278 351
#     4   9  21  37  55  84 116 147 191 238 287 344
#     4  10  20  37  57  81 117 154 187 233 285 338
#
# _framework density 9.9788940000000004
#
# number of rings (size 3 to 8) (size 9 to 14) (size 15 to 20)
#    0.000    2.000    0.000    3.857    0.000    2.857 
#    0.000   26.429    0.000    0.000    0.000    0.000 
#    0.000    0.000    0.000    0.000    0.000    0.000 
#
# Total GULP energy -156253.990805 kJ/mol
# GULP energy per Si atom -5580.499672 kJ/mol
# Density = 0.995618 g / cm^3
# Si number density = 9.978894 Si / 1000 Ang^3
#
#
#
# Elastic Constant Matrix: (Units=GPa)
#
#
# Indices 1 2 3 4 5 6 
#
# 1 66.8339 17.1383 9.2236 0.0000 -7.7764 0.0000
# 2 17.1383 14.4430 4.0226 0.0000 -5.0212 0.0000
# 3 9.2236 4.0226 80.0242 0.0000 -4.1876 0.0000
# 4 0.0000 0.0000 0.0000 36.4445 0.0000 -3.5976
# 5 -7.7764 -5.0212 -4.1876 0.0000 21.9902 0.0000
# 6 0.0000 0.0000 0.0000 -3.5976 0.0000 26.2305
#
#
#
# Elastic Compliance Matrix: (Units=1/GPa)
#
#
# Indices 1 2 3 4 5 6 
#
# 1 0.021687 -0.024790 -0.001160 0.000000 0.001788 0.000000
# 2 -0.024790 0.104222 -0.001611 0.000000 0.014725 0.000000
# 3 -0.001160 -0.001611 0.012798 0.000000 0.001659 0.000000
# 4 0.000000 0.000000 0.000000 0.027816 0.000000 0.003815
# 5 0.001788 0.014725 0.001659 0.000000 0.049785 0.000000
# 6 0.000000 0.000000 0.000000 0.003815 0.000000 0.038647
#
#
# Mechanical properties :
#
#
# Convention : Reuss Voigt Hill
#
# Bulk Modulus (GPa) = 11.96393 24.67445 18.31919
# Shear Modulus (GPa) = 14.79560 25.66082 20.22821
#
# Velocity S-wave (km/s) = 2.72572 3.58963 3.18708
# Velocity P-wave (km/s) = 3.98920 5.43790 4.76888
#
# Compressibility (1/GPa) = 0.08358460
#
# Stress axis : x y z
#
# Youngs Moduli (GPa) = 46.10951 9.59493 78.13887
#
# Poissons Ratio (x) = 0.23786 0.09064
# Poissons Ratio (y) = 1.14306 0.12589
# Poissons Ratio (z) = 0.05349 0.01546
#
# Static dielectric constant tensor:
#      x y z
#    x 1.728880 0.000000 0.043690 
#    y 0.000000 1.678770 0.000000 
#    z 0.043690 0.000000 1.767990 
# 
# From -- ./inp_files/309917.got.cif
#   From: 2010.05.17/outbox.ucp.g08.bks.cvg/sg15_155_cif.got.tgz:309917.got - 2010.06.11 12:40:34.
