data_PCOD9308207
_publ_section_title
;
Structure prediction by ZEFSAII (Michael W. Deem and Ramdas Pophale) SiO2 
 PCOD9308207
Probable space group: C 2/C
;
_chemical_formula_sum "Si O2"
_cell_formula_units_Z 28
_cell_length_a 7.539374
_cell_length_b 17.548755
_cell_length_c 12.490988
_cell_angle_alpha 90.000000
_cell_angle_beta 42.423787
_cell_angle_gamma 90.000000
_cell_volume 1114.885997
_symmetry_space_group_name_H-M "C 2/C"
_symmetry_group_IT_number 15
_symmetry_cell_setting 'monoclinic'
loop_
_space_group_symop_operation_xyz
x,y,z
-x,y,1/2-z
-x,-y,-z
x,-y,1/2+z
1/2+x,1/2+y,z
1/2-x,1/2+y,1/2-z
1/2-x,1/2-y,-z
1/2+x,1/2-y,1/2+z
loop_
_atom_site_type_symbol
_atom_site_label
_atom_site_fract_x
_atom_site_fract_y
_atom_site_fract_z
Si Si1 0.934895 0.335126 0.624034
Si Si2 0.669902 0.819927 0.283568
Si Si3 0.000000 0.059542 0.250000
Si Si4 0.099404 0.056525 0.546866
O O1 0.862145 0.252912 0.701440
O O2 0.675292 0.386699 0.745193
O O3 0.004009 0.324084 0.466751
O O4 0.172009 0.381920 0.571551
O O5 0.500000 0.813233 0.250000
O O6 0.848716 0.894515 0.194997
O O7 0.816408 0.003470 0.399575
O O8 0.000000 0.000000 0.500000
#
# Coordination Sequence:
#
# PCOD9308207 Si02
#       4
#     8   8   4   8
#     4  12  27  51  74 112 157 198 258 310 380 460
#     4  12  26  49  77 114 153 203 253 309 383 457
#     4  12  26  50  74 108 156 194 256 324 372 452
#     4  12  28  47  77 111 151 203 255 320 379 446
#
# _framework density 25.114675999999999
#
# number of rings (size 3 to 8) (size 9 to 14) (size 15 to 20)
#    0.000    0.000    4.286    4.286    8.000    0.000 
#    0.000    0.000    0.000    0.000    0.000    0.000 
#    0.000    0.000    0.000    0.000    0.000    0.000 
#
# Total GULP energy -78517.834687 kJ/mol
# GULP energy per Si atom -5608.416763 kJ/mol
# Density = 2.505751 g / cm^3
# Si number density = 25.114676 Si / 1000 Ang^3
#
#
#
# Elastic Constant Matrix: (Units=GPa)
#
#
# Indices 1 2 3 4 5 6 
#
# 1 140.2629 44.3053 29.3307 0.0009 7.4356 -0.0002
# 2 44.3053 178.1694 51.4222 0.0000 14.1922 0.0000
# 3 29.3307 51.4222 90.5100 0.0038 0.6584 -0.0009
# 4 0.0009 0.0000 0.0038 -38.6282 -0.0024 5.3063
# 5 7.4356 14.1922 0.6584 -0.0024 27.6616 0.0005
# 6 -0.0002 0.0000 -0.0009 5.3063 0.0005 45.4973
#
#
#
# Elastic Compliance Matrix: (Units=1/GPa)
#
#
# Indices 1 2 3 4 5 6 
#
# 1 0.008012 -0.001356 -0.001816 0.000000 -0.001415 0.000000
# 2 -0.001356 0.007269 -0.003667 0.000000 -0.003278 0.000000
# 3 -0.001816 -0.003667 0.013705 0.000001 0.002043 0.000000
# 4 0.000000 0.000000 0.000001 -0.025480 -0.000002 0.002972
# 5 -0.001415 -0.003278 0.002043 -0.000002 0.038165 0.000000
# 6 0.000000 0.000000 0.000000 0.002972 0.000000 0.021633
#
#
# Mechanical properties :
#
#
# Convention : Reuss Voigt Hill
#
# Bulk Modulus (GPa) = 65.31610 73.22875 69.27242
# Shear Modulus (GPa) = 60.91269 25.83177 43.37223
#
# Velocity S-wave (km/s) = 4.93016 3.21059 4.16019
# Velocity P-wave (km/s) = 7.64671 6.55476 7.12170
#
# Compressibility (1/GPa) = 0.01531016
#
# Stress axis : x y z
#
# Youngs Moduli (GPa) = 124.80590 137.56879 72.96419
#
# Poissons Ratio (x) = 0.18649 0.13251
# Poissons Ratio (y) = 0.16919 0.26754
# Poissons Ratio (z) = 0.22665 0.50442
#
# Static dielectric constant tensor:
#      x y z
#    x 2.059700 0.000000 0.127860 
#    y 0.000000 1.871310 0.000000 
#    z 0.127860 0.000000 2.045690 
# 
# From -- ./inp_files/21558.got.cif
#   From: 2010.05.17/outbox.cif.g08.bks.cpg/sg15_11_cif.got.tgz:21558.got - 2010.06.03 18:47:42.
