data_PCOD9308966
_publ_section_title
;
Structure prediction by ZEFSAII (Michael W. Deem and Ramdas Pophale) SiO2 
 PCOD9308966
Probable space group: C 2/C
;
_chemical_formula_sum "Si O2"
_cell_formula_units_Z 28
_cell_length_a 9.000000
_cell_length_b 27.000000
_cell_length_c 18.000000
_cell_angle_alpha 90.000000
_cell_angle_beta 40.000000
_cell_angle_gamma 90.000000
_cell_volume 2811.553005
_symmetry_space_group_name_H-M "C 2/C"
_symmetry_group_IT_number 15
_symmetry_cell_setting 'monoclinic'
loop_
_space_group_symop_operation_xyz
x,y,z
-x,y,1/2-z
-x,-y,-z
x,-y,1/2+z
1/2+x,1/2+y,z
1/2-x,1/2+y,1/2-z
1/2-x,1/2-y,-z
1/2+x,1/2-y,1/2+z
loop_
_atom_site_type_symbol
_atom_site_label
_atom_site_fract_x
_atom_site_fract_y
_atom_site_fract_z
Si Si1 0.584279 0.680803 0.572968
Si Si2 0.338908 0.577256 0.453503
Si Si3 0.223788 0.088107 0.849235
Si Si4 0.650326 0.113522 0.268381
Si Si5 0.581739 0.522865 0.640609
Si Si6 0.502905 0.781965 0.829959
Si Si7 0.426496 0.111091 0.513275
O O1 0.393856 0.638922 0.634393
O O2 0.476139 0.734714 0.626398
O O3 0.768366 0.660647 0.564761
O O4 0.759352 0.690055 0.437684
O O5 0.351254 0.582251 0.536992
O O6 0.599067 0.589150 0.327964
O O7 0.287861 0.520318 0.452862
O O8 0.140688 0.609869 0.488393
O O9 0.500000 0.088834 0.750000
O O10 0.118682 0.045688 0.835552
O O11 0.500000 0.104196 0.250000
O O12 0.681403 0.173128 0.264591
O O13 0.516820 0.099189 0.395060
O O14 0.500000 0.500795 0.750000
O O15 0.748660 0.567646 0.599863
O O16 0.500000 0.759954 0.750000
#
# Coordination Sequence:
#
# PCOD9308966 Si02
#       7
#     8   8   8   8   8   8   8
#     4   9  20  38  58  84 114 149 192 235 284 343
#     4  12  23  38  60  87 117 151 194 239 285 338
#     4  11  24  40  58  84 118 153 192 238 288 343
#     4  10  20  37  60  86 117 152 192 239 286 338
#     4  11  23  40  59  83 116 155 195 235 285 341
#     4   9  17  34  61  84 109 150 192 232 286 340
#     4  10  21  37  58  85 117 152 192 238 287 339
#
# _framework density 9.9589090000000002
#
# number of rings (size 3 to 8) (size 9 to 14) (size 15 to 20)
#    0.000    1.714    0.000    6.429    0.000    5.143 
#    0.000    4.286    0.000   12.857    0.000    0.000 
#    0.000    0.000    0.000    0.000    0.000    0.000 
#
# Total GULP energy -156086.110331 kJ/mol
# GULP energy per Si atom -5574.503940 kJ/mol
# Density = 0.993624 g / cm^3
# Si number density = 9.958909 Si / 1000 Ang^3
#
#
#
# Elastic Constant Matrix: (Units=GPa)
#
#
# Indices 1 2 3 4 5 6 
#
# 1 116.9005 10.5574 8.9692 0.0001 -7.0841 0.0000
# 2 10.5574 46.3569 8.2142 0.0000 -7.3660 0.0000
# 3 8.9692 8.2142 23.1277 0.0001 2.9797 0.0000
# 4 0.0001 0.0000 0.0001 37.4457 -0.0001 -0.0355
# 5 -7.0841 -7.3660 2.9797 -0.0001 30.4837 0.0000
# 6 0.0000 0.0000 0.0000 -0.0355 0.0000 18.0761
#
#
#
# Elastic Compliance Matrix: (Units=1/GPa)
#
#
# Indices 1 2 3 4 5 6 
#
# 1 0.009046 -0.001115 -0.003391 0.000000 0.002164 0.000000
# 2 -0.001115 0.024479 -0.009105 0.000000 0.006546 0.000000
# 3 -0.003391 -0.009105 0.048786 0.000000 -0.007757 0.000000
# 4 0.000000 0.000000 0.000000 0.026705 0.000000 0.000052
# 5 0.002164 0.006546 -0.007757 0.000000 0.035647 0.000000
# 6 0.000000 0.000000 0.000000 0.000052 0.000000 0.055322
#
#
# Mechanical properties :
#
#
# Convention : Reuss Voigt Hill
#
# Bulk Modulus (GPa) = 18.15239 26.87409 22.51324
# Shear Modulus (GPa) = 20.36061 27.77739 24.06900
#
# Velocity S-wave (km/s) = 3.20070 3.73849 3.48000
# Velocity P-wave (km/s) = 4.77418 5.67070 5.24164
#
# Compressibility (1/GPa) = 0.05508915
#
# Stress axis : x y z
#
# Youngs Moduli (GPa) = 110.54189 40.85088 20.49753
#
# Poissons Ratio (x) = 0.04557 0.06951
# Poissons Ratio (y) = 0.12331 0.18663
# Poissons Ratio (z) = 0.37484 0.37195
#
# Static dielectric constant tensor:
#      x y z
#    x 1.678730 0.000000 0.030490 
#    y 0.000000 1.704470 0.000000 
#    z 0.030490 0.000000 1.790640 
# 
# From -- ./inp_files/81397.got.cif
#   From: 2010.05.17/outbox.ucp.g08.bks.cvg/sg15_41_cif.got.tgz:81397.got - 2010.06.11 12:40:34.
