data_PCOD9308940
_publ_section_title
;
Structure prediction by ZEFSAII (Michael W. Deem and Ramdas Pophale) SiO2 
 PCOD9308940
Probable space group: C 2/C
;
_chemical_formula_sum "Si O2"
_cell_formula_units_Z 20
_cell_length_a 9.000000
_cell_length_b 24.000000
_cell_length_c 9.000000
_cell_angle_alpha 90.000000
_cell_angle_beta 80.000000
_cell_angle_gamma 90.000000
_cell_volume 1914.466272
_symmetry_space_group_name_H-M "C 2/C"
_symmetry_group_IT_number 15
_symmetry_cell_setting 'monoclinic'
loop_
_space_group_symop_operation_xyz
x,y,z
-x,y,1/2-z
-x,-y,-z
x,-y,1/2+z
1/2+x,1/2+y,z
1/2-x,1/2+y,1/2-z
1/2-x,1/2-y,-z
1/2+x,1/2-y,1/2+z
loop_
_atom_site_type_symbol
_atom_site_label
_atom_site_fract_x
_atom_site_fract_y
_atom_site_fract_z
Si Si1 0.834541 0.168944 0.405598
Si Si2 0.337588 0.152376 0.362719
Si Si3 0.321600 0.973069 0.813392
Si Si4 0.868277 0.041543 0.454924
Si Si5 0.480081 0.212487 0.926543
O O1 0.790272 0.170917 0.235743
O O2 0.899875 0.108091 0.439376
O O3 0.668369 0.177545 0.502702
O O4 0.932104 0.221878 0.444741
O O5 0.500000 0.152454 0.250000
O O6 0.303552 0.086983 0.400308
O O7 0.378623 0.191506 0.496873
O O8 0.500000 0.976997 0.750000
O O9 0.204397 0.971269 0.694707
O O10 0.271376 0.026345 0.915132
O O11 0.000000 0.000000 0.500000
O O12 0.500000 0.201907 0.750000
#
# Coordination Sequence:
#
# PCOD9308940 Si02
#       5
#     8   8   8   8   8
#     4   9  21  39  56  83 124 157 190 247 309 359
#     4   8  17  36  57  82 117 154 194 246 302 351
#     4  10  21  39  63  88 121 165 207 247 296 365
#     4  11  23  40  62  91 127 161 198 250 312 365
#     4  10  20  36  61  87 112 154 209 252 290 350
#
# _framework density 10.446776
#
# number of rings (size 3 to 8) (size 9 to 14) (size 15 to 20)
#    0.000    2.400    0.000    2.400    0.000    6.400 
#    0.000   10.000    0.000    0.000    0.000    0.000 
#    0.000    0.000    0.000    0.000    0.000    0.000 
#
# Total GULP energy -111469.762006 kJ/mol
# GULP energy per Si atom -5573.488100 kJ/mol
# Density = 1.042300 g / cm^3
# Si number density = 10.446776 Si / 1000 Ang^3
#
#
#
# Elastic Constant Matrix: (Units=GPa)
#
#
# Indices 1 2 3 4 5 6 
#
# 1 88.7432 67.1478 22.3390 0.0000 20.8765 0.0000
# 2 67.1478 130.8134 63.2237 0.0000 30.1882 0.0000
# 3 22.3390 63.2237 95.9635 0.0000 20.0518 0.0000
# 4 0.0000 0.0000 0.0000 29.1574 0.0000 9.0689
# 5 20.8765 30.1882 20.0518 0.0000 44.0832 0.0000
# 6 0.0000 0.0000 0.0000 9.0689 0.0000 44.0077
#
#
#
# Elastic Compliance Matrix: (Units=1/GPa)
#
#
# Indices 1 2 3 4 5 6 
#
# 1 0.019359 -0.010758 0.003268 0.000000 -0.003287 0.000000
# 2 -0.010758 0.018183 -0.008772 0.000000 -0.003367 0.000000
# 3 0.003268 -0.008772 0.016031 0.000000 -0.002833 0.000000
# 4 0.000000 0.000000 0.000000 0.036645 0.000000 -0.007552
# 5 -0.003287 -0.003367 -0.002833 0.000000 0.027836 0.000000
# 6 0.000000 0.000000 0.000000 -0.007552 0.000000 0.024280
#
#
# Mechanical properties :
#
#
# Convention : Reuss Voigt Hill
#
# Bulk Modulus (GPa) = 47.50631 68.99345 58.24988
# Shear Modulus (GPa) = 27.49144 34.30361 30.89753
#
# Velocity S-wave (km/s) = 3.63131 4.05634 3.84970
# Velocity P-wave (km/s) = 6.35363 7.41833 6.90653
#
# Compressibility (1/GPa) = 0.02104983
#
# Stress axis : x y z
#
# Youngs Moduli (GPa) = 51.65441 54.99511 62.37961
#
# Poissons Ratio (x) = 0.59166 -0.20387
# Poissons Ratio (y) = 0.55572 0.54718
# Poissons Ratio (z) = -0.16882 0.48241
#
# Static dielectric constant tensor:
#      x y z
#    x 1.773290 0.000000 -0.045890 
#    y 0.000000 1.754180 0.000000 
#    z -0.045890 0.000000 1.828430 
# 
# From -- ./inp_files/23507.got.cif
#   From: 2010.05.17/outbox.ucp.g08.bks.cvg/sg15_12_cif.got.tgz:23507.got - 2010.06.11 12:40:34.
