data_PCOD9308199
_publ_section_title
;
Structure prediction by ZEFSAII (Michael W. Deem and Ramdas Pophale) SiO2 
 PCOD9308199
Probable space group: C 2/C
;
_chemical_formula_sum "Si O2"
_cell_formula_units_Z 28
_cell_length_a 14.784458
_cell_length_b 8.385607
_cell_length_c 13.626910
_cell_angle_alpha 90.000000
_cell_angle_beta 41.357124
_cell_angle_gamma 90.000000
_cell_volume 1116.284009
_symmetry_space_group_name_H-M "C 2/C"
_symmetry_group_IT_number 15
_symmetry_cell_setting 'monoclinic'
loop_
_space_group_symop_operation_xyz
x,y,z
-x,y,1/2-z
-x,-y,-z
x,-y,1/2+z
1/2+x,1/2+y,z
1/2-x,1/2+y,1/2-z
1/2-x,1/2-y,-z
1/2+x,1/2-y,1/2+z
loop_
_atom_site_type_symbol
_atom_site_label
_atom_site_fract_x
_atom_site_fract_y
_atom_site_fract_z
Si Si1 0.500000 0.058429 0.250000
Si Si2 0.342150 0.393165 0.716168
Si Si3 0.226088 0.760725 0.137365
Si Si4 0.625389 0.777115 0.027576
O O1 0.585371 0.166014 0.253793
O O2 0.572147 0.942949 0.113604
O O3 0.336401 0.349011 0.605525
O O4 0.300737 0.564285 0.795175
O O5 0.491605 0.335640 0.632113
O O6 0.211798 0.286258 0.857760
O O7 0.250000 0.750000 0.000000
O O8 0.750000 0.750000 0.000000
#
# Coordination Sequence:
#
# PCOD9308199 Si02
#       4
#     4   8   8   8
#     4  12  26  48  82 118 166 210 272 344 396 476
#     4  12  29  52  84 119 163 221 270 336 418 480
#     4  12  30  52  85 123 167 213 279 337 407 491
#     4  12  26  52  84 120 166 214 277 341 405 487
#
# _framework density 25.083224000000001
#
# number of rings (size 3 to 8) (size 9 to 14) (size 15 to 20)
#    0.000    0.000    5.714    1.714    8.000    3.429 
#    0.000    0.000    0.000    0.000    0.000    0.000 
#    0.000    0.000    0.000    0.000    0.000    0.000 
#
# Total GULP energy -78116.252751 kJ/mol
# GULP energy per Si atom -5579.732339 kJ/mol
# Density = 2.502613 g / cm^3
# Si number density = 25.083224 Si / 1000 Ang^3
#
#
#
# Elastic Constant Matrix: (Units=GPa)
#
#
# Indices 1 2 3 4 5 6 
#
# 1 204.2677 92.0921 45.5210 0.0000 -4.5241 0.0000
# 2 92.0921 166.8473 65.0276 0.0000 -13.7772 0.0000
# 3 45.5210 65.0276 141.9587 0.0000 -2.2378 0.0000
# 4 0.0000 0.0000 0.0000 39.8500 0.0000 -3.1686
# 5 -4.5241 -13.7772 -2.2378 0.0000 48.4808 0.0000
# 6 0.0000 0.0000 0.0000 -3.1686 0.0000 35.0259
#
#
#
# Elastic Compliance Matrix: (Units=1/GPa)
#
#
# Indices 1 2 3 4 5 6 
#
# 1 0.006559 -0.003445 -0.000531 0.000000 -0.000392 0.000000
# 2 -0.003445 0.009289 -0.003116 0.000000 0.002174 0.000000
# 3 -0.000531 -0.003116 0.008634 0.000000 -0.000537 0.000000
# 4 0.000000 0.000000 0.000000 0.025276 0.000000 0.002287
# 5 -0.000392 0.002174 -0.000537 0.000000 0.021183 0.000000
# 6 0.000000 0.000000 0.000000 0.002287 0.000000 0.028757
#
#
# Mechanical properties :
#
#
# Convention : Reuss Voigt Hill
#
# Bulk Modulus (GPa) = 97.12198 102.03946 99.58072
# Shear Modulus (GPa) = 42.62041 45.36686 43.99364
#
# Velocity S-wave (km/s) = 4.12656 4.25744 4.19251
# Velocity P-wave (km/s) = 7.84274 8.05831 7.95126
#
# Compressibility (1/GPa) = 0.01029633
#
# Stress axis : x y z
#
# Youngs Moduli (GPa) = 152.47349 107.65174 115.82779
#
# Poissons Ratio (x) = 0.37090 0.06151
# Poissons Ratio (y) = 0.52533 0.36093
# Poissons Ratio (z) = 0.08097 0.33545
#
# Static dielectric constant tensor:
#      x y z
#    x 2.219570 0.000000 0.135100 
#    y 0.000000 1.749500 0.000000 
#    z 0.135100 0.000000 2.268130 
# 
# From -- ./inp_files/150519.got.cif
#   From: 2010.05.17/outbox.cif.g08.bks.cpg/sg15_76_cif.got.tgz:150519.got - 2010.06.03 18:47:42.
