data_PCOD9308133
_publ_section_title
;
Structure prediction by ZEFSAII (Michael W. Deem and Ramdas Pophale) SiO2 
 PCOD9308133
Probable space group: C 2/C
;
_chemical_formula_sum "Si O2"
_cell_formula_units_Z 32
_cell_length_a 13.282047
_cell_length_b 13.266572
_cell_length_c 9.497914
_cell_angle_alpha 90.000000
_cell_angle_beta 71.796086
_cell_angle_gamma 90.000000
_cell_volume 1589.838600
_symmetry_space_group_name_H-M "C 2/C"
_symmetry_group_IT_number 15
_symmetry_cell_setting 'monoclinic'
loop_
_space_group_symop_operation_xyz
x,y,z
-x,y,1/2-z
-x,-y,-z
x,-y,1/2+z
1/2+x,1/2+y,z
1/2-x,1/2+y,1/2-z
1/2-x,1/2-y,-z
1/2+x,1/2-y,1/2+z
loop_
_atom_site_type_symbol
_atom_site_label
_atom_site_fract_x
_atom_site_fract_y
_atom_site_fract_z
Si Si1 0.238578 0.160723 0.118653
Si Si2 0.420385 0.492889 0.406953
Si Si3 0.021718 0.396883 0.906716
Si Si4 0.854983 0.780059 0.537152
O O1 0.356043 0.131578 0.119133
O O2 0.173574 0.192260 0.288182
O O3 0.178843 0.067721 0.067036
O O4 0.250000 0.250000 0.000000
O O5 0.500000 0.518805 0.250000
O O6 0.500000 0.500000 0.500000
O O7 0.388084 0.377311 0.432074
O O8 0.000000 0.410837 0.750000
O O9 0.000000 0.500000 0.000000
O O10 0.943906 0.306918 0.991987
O O11 0.750000 0.750000 0.500000
#
# Coordination Sequence:
#
# PCOD9308133 Si02
#       4
#     8   8   8   8
#     4  12  29  46  76 111 148 200 250 311 375 445
#     4  12  26  47  75 107 148 195 253 305 372 447
#     4  12  28  49  75 112 151 197 249 310 382 453
#     4  12  26  49  76 108 152 197 249 310 376 449
#
# _framework density 20.127829999999999
#
# number of rings (size 3 to 8) (size 9 to 14) (size 15 to 20)
#    0.000    0.000    5.000    3.750    7.000    0.000 
#    0.000    0.000    0.000    0.000    0.000    0.000 
#    0.000    0.000    0.000    0.000    0.000    0.000 
#
# Total GULP energy -89373.065852 kJ/mol
# GULP energy per Si atom -5585.816616 kJ/mol
# Density = 2.008202 g / cm^3
# Si number density = 20.127830 Si / 1000 Ang^3
#
#
#
# Elastic Constant Matrix: (Units=GPa)
#
#
# Indices 1 2 3 4 5 6 
#
# 1 202.8958 95.9574 56.8320 0.0000 7.8892 0.0000
# 2 95.9574 159.1569 26.1256 0.0000 -9.9287 0.0000
# 3 56.8320 26.1256 92.5674 0.0000 12.6252 0.0000
# 4 0.0000 0.0000 0.0000 41.4601 0.0000 -7.3626
# 5 7.8892 -9.9287 12.6252 0.0000 41.5966 0.0000
# 6 0.0000 0.0000 0.0000 -7.3626 0.0000 63.3608
#
#
#
# Elastic Compliance Matrix: (Units=1/GPa)
#
#
# Indices 1 2 3 4 5 6 
#
# 1 0.008028 -0.004360 -0.003493 0.000000 -0.001503 0.000000
# 2 -0.004360 0.009161 -0.000333 0.000000 0.003115 0.000000
# 3 -0.003493 -0.000333 0.013522 0.000000 -0.003521 0.000000
# 4 0.000000 0.000000 0.000000 0.024628 0.000000 0.002862
# 5 -0.001503 0.003115 -0.003521 0.000000 0.026138 0.000000
# 6 0.000000 0.000000 0.000000 0.002862 0.000000 0.016115
#
#
# Mechanical properties :
#
#
# Convention : Reuss Voigt Hill
#
# Bulk Modulus (GPa) = 69.74863 90.27223 80.01043
# Shear Modulus (GPa) = 42.10759 47.66385 44.88572
#
# Velocity S-wave (km/s) = 4.57881 4.87155 4.72745
# Velocity P-wave (km/s) = 7.91720 8.75154 8.34480
#
# Compressibility (1/GPa) = 0.01433720
#
# Stress axis : x y z
#
# Youngs Moduli (GPa) = 124.56930 109.15787 73.95486
#
# Poissons Ratio (x) = 0.47597 0.25832
# Poissons Ratio (y) = 0.54317 0.02465
# Poissons Ratio (z) = 0.43511 0.03638
#
# Static dielectric constant tensor:
#      x y z
#    x 1.622550 0.000000 -0.005880 
#    y 0.000000 1.608480 0.000000 
#    z -0.005880 0.000000 1.702920 
# 
# From -- ./inp_files/27844.got.cif
#   From: 2010.05.17/outbox.cif.g08.bks.cpg/sg15_14_cif.got.tgz:27844.got - 2010.06.03 18:47:42.
