data_PCOD9308445
_publ_section_title
;
Structure prediction by ZEFSAII (Michael W. Deem and Ramdas Pophale) SiO2 
 PCOD9308445
Probable space group: C 2/C
;
_chemical_formula_sum "Si O2"
_cell_formula_units_Z 64
_cell_length_a 13.517926
_cell_length_b 23.466455
_cell_length_c 6.704196
_cell_angle_alpha 90.000000
_cell_angle_beta 86.865406
_cell_angle_gamma 90.000000
_cell_volume 2123.508444
_symmetry_space_group_name_H-M "C 2/C"
_symmetry_group_IT_number 15
_symmetry_cell_setting 'monoclinic'
loop_
_space_group_symop_operation_xyz
x,y,z
-x,y,1/2-z
-x,-y,-z
x,-y,1/2+z
1/2+x,1/2+y,z
1/2-x,1/2+y,1/2-z
1/2-x,1/2-y,-z
1/2+x,1/2-y,1/2+z
loop_
_atom_site_type_symbol
_atom_site_label
_atom_site_fract_x
_atom_site_fract_y
_atom_site_fract_z
Si Si1 0.373966 0.686979 0.643741
Si Si2 0.111184 0.910694 0.919723
Si Si3 0.087814 0.938959 0.450464
Si Si4 0.313696 0.047534 0.913771
Si Si5 0.834496 0.423371 0.870596
Si Si6 0.367306 0.195278 0.276673
Si Si7 0.360823 0.831998 0.315999
Si Si8 0.870834 0.213628 0.182301
O O1 0.407139 0.622544 0.657411
O O2 0.400789 0.738685 0.788934
O O3 0.255795 0.680910 0.670743
O O4 0.394128 0.704651 0.414249
O O5 0.101563 0.927922 0.687345
O O6 0.224388 0.916535 0.972298
O O7 0.087450 0.843345 0.925536
O O8 0.032519 0.950501 0.044116
O O9 0.196174 0.964949 0.378696
O O10 0.365230 0.099139 0.784031
O O11 0.369438 0.987023 0.916120
O O12 0.314910 0.072171 0.135422
O O13 0.893083 0.364190 0.882817
O O14 0.248193 0.202579 0.320118
O O15 0.391720 0.181599 0.040549
O O16 0.396830 0.781194 0.163373
#
# Coordination Sequence:
#
# PCOD9308445 Si02
#       8
#     8   8   8   8   8   8   8   8
#     4   7   9  15  28  44  60  77  99 129 164 195
#     4   8  13  20  30  46  67  87 106 131 162 191
#     4   8  13  20  30  46  67  87 106 131 162 191
#     4   9  16  24  33  46  66  90 113 134 154 181
#     4   9  16  24  33  46  66  90 113 134 154 181
#     4   7  10  17  29  44  59  76 101 132 162 188
#     4   7  10  17  29  44  59  76 101 132 162 188
#     4   7   9  15  28  44  60  77  99 129 164 195
#
# _framework density 30.1388
#
# number of rings (size 3 to 8) (size 9 to 14) (size 15 to 20)
#    0.000    4.250    0.000    4.500    0.000    0.500 
#    0.000    0.000    0.000    0.000    0.000   14.000 
#    0.000    1.000    0.000    0.750    0.000    1.500 
#
# Total GULP energy -178750.304922 kJ/mol
# GULP energy per Si atom -5585.947029 kJ/mol
# Density = 3.007020 g / cm^3
# Si number density = 30.138800 Si / 1000 Ang^3
#
#
#
# Elastic Constant Matrix: (Units=GPa)
#
#
# Indices 1 2 3 4 5 6 
#
# 1 68.0547 -1.7245 2.3660 0.0000 -26.3435 0.0000
# 2 -1.7245 279.3315 45.8891 0.0000 1.5582 0.0000
# 3 2.3660 45.8891 100.7253 0.0000 4.2773 0.0000
# 4 0.0000 0.0000 0.0000 7.9222 0.0000 45.9944
# 5 -26.3435 1.5582 4.2773 0.0000 22.6891 0.0000
# 6 0.0000 0.0000 0.0000 45.9944 0.0000 -3.0418
#
#
#
# Elastic Compliance Matrix: (Units=1/GPa)
#
#
# Indices 1 2 3 4 5 6 
#
# 1 0.027108 0.000342 -0.002145 0.000000 0.031856 0.000000
# 2 0.000342 0.003874 -0.001793 0.000000 0.000469 0.000000
# 3 -0.002145 -0.001793 0.010984 0.000000 -0.004438 0.000000
# 4 0.000000 0.000000 0.000000 0.001422 0.000000 0.021497
# 5 0.031856 0.000469 -0.004438 0.000000 0.081865 0.000000
# 6 0.000000 0.000000 0.000000 0.021497 0.000000 -0.003703
#
#
# Mechanical properties :
#
#
# Convention : Reuss Voigt Hill
#
# Bulk Modulus (GPa) = 28.75727 60.13030 44.44379
# Shear Modulus (GPa) = 35.62930 32.28594 33.95762
#
# Velocity S-wave (km/s) = 3.44201 3.27653 3.36029
# Velocity P-wave (km/s) = 5.03576 5.85736 5.46203
#
# Compressibility (1/GPa) = 0.03477381
#
# Stress axis : x y z
#
# Youngs Moduli (GPa) = 36.88884 258.13027 91.04412
#
# Poissons Ratio (x) = -0.08831 0.19532
# Poissons Ratio (y) = -0.01262 0.16323
# Poissons Ratio (z) = 0.07914 0.46280
#
# Static dielectric constant tensor:
#      x y z
#    x 2.296570 0.000000 0.048500 
#    y 0.000000 2.385610 0.000000 
#    z 0.048500 0.000000 2.448160 
# 
# From -- ./inp_files/113954.got.cif
#   From: 2010.05.17/outbox.cif.g08.bks.cpg/sg15_57_cif.got.tgz:113954.got - 2010.06.03 18:47:42.
