data_PCOD9308012
_publ_section_title
;
Structure prediction by ZEFSAII (Michael W. Deem and Ramdas Pophale) SiO2 
 PCOD9308012
Probable space group: C 2/C
;
_chemical_formula_sum "Si O2"
_cell_formula_units_Z 44
_cell_length_a 9.070844
_cell_length_b 28.383118
_cell_length_c 8.716705
_cell_angle_alpha 90.000000
_cell_angle_beta 55.692638
_cell_angle_gamma 90.000000
_cell_volume 1853.761265
_symmetry_space_group_name_H-M "C 2/C"
_symmetry_group_IT_number 15
_symmetry_cell_setting 'monoclinic'
loop_
_space_group_symop_operation_xyz
x,y,z
-x,y,1/2-z
-x,-y,-z
x,-y,1/2+z
1/2+x,1/2+y,z
1/2-x,1/2+y,1/2-z
1/2-x,1/2-y,-z
1/2+x,1/2-y,1/2+z
loop_
_atom_site_type_symbol
_atom_site_label
_atom_site_fract_x
_atom_site_fract_y
_atom_site_fract_z
Si Si1 0.000000 0.048395 0.750000
Si Si2 0.366351 0.998974 0.940250
Si Si3 0.716894 0.665089 0.648501
Si Si4 0.000000 0.317119 0.750000
Si Si5 0.758869 0.261143 0.677561
Si Si6 0.199450 0.093202 0.902084
Si Si7 0.500000 0.338266 0.750000
O O1 0.038050 0.073678 0.890564
O O2 0.180301 0.020874 0.608509
O O3 0.500000 0.970570 0.750000
O O4 0.310948 0.049448 0.900320
O O5 0.500000 0.000000 0.000000
O O6 0.500000 0.662363 0.750000
O O7 0.827664 0.658513 0.426820
O O8 0.752602 0.713878 0.716823
O O9 0.792725 0.625631 0.720177
O O10 0.068480 0.285884 0.852184
O O11 0.750000 0.250000 0.500000
O O12 0.608717 0.301255 0.790826
O O13 0.127286 0.127837 0.076477
#
# Coordination Sequence:
#
# PCOD9308012 Si02
#       7
#     4   8   8   4   8   8   4
#     4  12  27  55  82 118 164 206 262 348 426 496
#     4  12  28  54  84 119 158 207 264 333 429 504
#     4  12  26  52  78 116 165 212 280 336 397 475
#     4  12  28  45  78 110 157 227 268 326 411 466
#     4  12  25  48  75 113 170 222 270 335 398 469
#     4  12  27  49  82 117 163 210 273 344 399 496
#     4  12  27  48  76 122 167 221 276 332 411 464
#
# _framework density 23.735524999999999
#
# number of rings (size 3 to 8) (size 9 to 14) (size 15 to 20)
#    0.000    0.000    5.455    3.818    2.545    1.455 
#    3.273    1.818    0.000    0.000    0.000    0.000 
#    0.000    0.000    0.000    0.000    0.000    0.000 
#
# Total GULP energy -122744.652642 kJ/mol
# GULP energy per Si atom -5579.302393 kJ/mol
# Density = 2.368150 g / cm^3
# Si number density = 23.735525 Si / 1000 Ang^3
#
#
#
# Elastic Constant Matrix: (Units=GPa)
#
#
# Indices 1 2 3 4 5 6 
#
# 1 139.1482 44.0585 30.2218 0.0000 -4.0706 0.0000
# 2 44.0585 90.2449 18.1102 0.0000 -14.5105 0.0000
# 3 30.2218 18.1102 154.6035 0.0000 -20.2192 0.0000
# 4 0.0000 0.0000 0.0000 36.8519 0.0000 -11.4111
# 5 -4.0706 -14.5105 -20.2192 0.0000 41.4458 0.0000
# 6 0.0000 0.0000 0.0000 -11.4111 0.0000 55.0044
#
#
#
# Elastic Compliance Matrix: (Units=1/GPa)
#
#
# Indices 1 2 3 4 5 6 
#
# 1 0.008787 -0.004218 -0.001393 0.000000 -0.001293 0.000000
# 2 -0.004218 0.013884 -0.000235 0.000000 0.004332 0.000000
# 3 -0.001393 -0.000235 0.007199 0.000000 0.003293 0.000000
# 4 0.000000 0.000000 0.000000 0.028998 0.000000 0.006016
# 5 -0.001293 0.004332 0.003293 0.000000 0.027124 0.000000
# 6 0.000000 0.000000 0.000000 0.006016 0.000000 0.019428
#
#
# Mechanical properties :
#
#
# Convention : Reuss Voigt Hill
#
# Bulk Modulus (GPa) = 55.01425 63.19751 59.10588
# Shear Modulus (GPa) = 40.59375 46.10085 43.34730
#
# Velocity S-wave (km/s) = 4.14001 4.41190 4.27812
# Velocity P-wave (km/s) = 6.78831 7.25511 7.02559
#
# Compressibility (1/GPa) = 0.01817711
#
# Stress axis : x y z
#
# Youngs Moduli (GPa) = 113.80629 72.02474 138.91653
#
# Poissons Ratio (x) = 0.30382 0.19346
# Poissons Ratio (y) = 0.48007 0.03268
# Poissons Ratio (z) = 0.15849 0.01694
#
# Static dielectric constant tensor:
#      x y z
#    x 2.003390 0.000000 -0.021250 
#    y 0.000000 1.979860 0.000000 
#    z -0.021250 0.000000 1.944920 
# 
# From -- ./inp_files/26016.got.cif
#   From: 2010.05.17/outbox.cif.g08.bks.cpg/sg15_14_cif.got.tgz:26016.got - 2010.06.03 18:47:42.
