data_PCOD9308961
_publ_section_title
;
Structure prediction by ZEFSAII (Michael W. Deem and Ramdas Pophale) SiO2 
 PCOD9308961
Probable space group: C 2/C
;
_chemical_formula_sum "Si O2"
_cell_formula_units_Z 32
_cell_length_a 15.000000
_cell_length_b 24.000000
_cell_length_c 15.000000
_cell_angle_alpha 90.000000
_cell_angle_beta 40.000000
_cell_angle_gamma 90.000000
_cell_volume 3471.053092
_symmetry_space_group_name_H-M "C 2/C"
_symmetry_group_IT_number 15
_symmetry_cell_setting 'monoclinic'
loop_
_space_group_symop_operation_xyz
x,y,z
-x,y,1/2-z
-x,-y,-z
x,-y,1/2+z
1/2+x,1/2+y,z
1/2-x,1/2+y,1/2-z
1/2-x,1/2-y,-z
1/2+x,1/2-y,1/2+z
loop_
_atom_site_type_symbol
_atom_site_label
_atom_site_fract_x
_atom_site_fract_y
_atom_site_fract_z
Si Si1 0.870251 0.256726 0.106660
Si Si2 0.589127 0.592114 0.558253
Si Si3 0.339219 0.634526 0.188509
Si Si4 0.521516 0.132645 0.495906
Si Si5 0.573467 0.475913 0.787944
Si Si6 0.597862 0.978279 0.003903
Si Si7 0.448942 0.709519 0.691563
Si Si8 0.392096 0.087004 0.410226
O O1 0.885087 0.199309 0.151579
O O2 0.709722 0.273217 0.209057
O O3 0.949849 0.310751 0.083272
O O4 0.950211 0.240701 0.954650
O O5 0.658917 0.610367 0.412517
O O6 0.506221 0.532497 0.614841
O O7 0.481478 0.642740 0.660550
O O8 0.726232 0.592857 0.517362
O O9 0.431494 0.586242 0.164939
O O10 0.181102 0.637923 0.342754
O O11 0.539987 0.084408 0.556282
O O12 0.435353 0.114035 0.472578
O O13 0.500000 0.470278 0.750000
O O14 0.740443 0.483423 0.650194
O O15 0.583438 0.020812 0.095743
O O16 0.500000 0.000000 0.000000
O O17 0.500000 0.726963 0.750000
O O18 0.500000 0.106764 0.250000
#
# Coordination Sequence:
#
# PCOD9308961 Si02
#       8
#     8   8   8   8   8   8   8   8
#     4  11  22  39  57  79 116 157 201 245 281 342
#     4  11  22  36  56  91 119 150 191 237 298 350
#     4  10  22  40  55  86 114 156 192 236 296 343
#     4  10  20  37  59  79 116 159 195 232 287 345
#     4  11  21  38  64  85 116 148 192 248 297 350
#     4   9  21  36  57  85 114 155 192 232 293 354
#     4  11  23  35  54  85 118 156 196 236 286 354
#     4  11  20  35  57  85 123 152 185 235 291 355
#
# _framework density 9.2191039999999997
#
# number of rings (size 3 to 8) (size 9 to 14) (size 15 to 20)
#    0.000    1.500    3.750    1.875    3.500    1.500 
#    0.000    0.000    0.000    3.750    0.000    0.000 
#    0.000    0.000    0.000    0.000    0.000    0.000 
#
# Total GULP energy -178139.023564 kJ/mol
# GULP energy per Si atom -5566.844486 kJ/mol
# Density = 0.919812 g / cm^3
# Si number density = 9.219104 Si / 1000 Ang^3
#
#
#
# Elastic Constant Matrix: (Units=GPa)
#
#
# Indices 1 2 3 4 5 6 
#
# 1 51.5305 28.7746 18.3118 -0.0006 -25.2239 0.0004
# 2 28.7746 141.2547 22.6435 0.0001 -15.1377 0.0000
# 3 18.3118 22.6435 58.3116 -0.0012 -23.0527 0.0009
# 4 -0.0006 0.0001 -0.0012 24.5393 0.0010 -3.8649
# 5 -25.2239 -15.1377 -23.0527 0.0010 30.0910 -0.0005
# 6 0.0004 0.0000 0.0009 -3.8649 -0.0005 28.1503
#
#
#
# Elastic Compliance Matrix: (Units=1/GPa)
#
#
# Indices 1 2 3 4 5 6 
#
# 1 0.035320 -0.004423 0.002081 0.000000 0.028977 0.000000
# 2 -0.004423 0.008209 -0.002341 0.000000 -0.001372 0.000000
# 3 0.002081 -0.002341 0.025288 0.000000 0.019940 0.000000
# 4 0.000000 0.000000 0.000000 0.041652 -0.000001 0.005719
# 5 0.028977 -0.001372 0.019940 -0.000001 0.072108 0.000000
# 6 0.000000 0.000000 0.000000 0.005719 0.000000 0.036309
#
#
# Mechanical properties :
#
#
# Convention : Reuss Voigt Hill
#
# Bulk Modulus (GPa) = 16.82051 43.39518 30.10784
# Shear Modulus (GPa) = 20.15578 28.64724 24.40151
#
# Velocity S-wave (km/s) = 3.30987 3.94596 3.64183
# Velocity P-wave (km/s) = 4.87334 6.65938 5.83510
#
# Compressibility (1/GPa) = 0.05945125
#
# Stress axis : x y z
#
# Youngs Moduli (GPa) = 28.31230 121.82170 39.54513
#
# Poissons Ratio (x) = 0.53886 -0.08231
# Poissons Ratio (y) = 0.12524 0.09257
# Poissons Ratio (z) = -0.05893 0.28516
#
# Static dielectric constant tensor:
#      x y z
#    x 1.613700 0.000000 0.022650 
#    y 0.000000 1.724100 0.000000 
#    z 0.022650 0.000000 1.656070 
# 
# From -- ./inp_files/156796.got.cif
#   From: 2010.05.17/outbox.ucp.g08.bks.cvg/sg15_79_cif.got.tgz:156796.got - 2010.06.11 12:40:34.
