data_PCOD9308509
_publ_section_title
;
Structure prediction by ZEFSAII (Michael W. Deem and Ramdas Pophale) SiO2 
 PCOD9308509
Probable space group: C 2/C
;
_chemical_formula_sum "Si O2"
_cell_formula_units_Z 40
_cell_length_a 6.919633
_cell_length_b 26.334161
_cell_length_c 13.875781
_cell_angle_alpha 90.000000
_cell_angle_beta 137.254593
_cell_angle_gamma 90.000000
_cell_volume 1716.187088
_symmetry_space_group_name_H-M "C 2/C"
_symmetry_group_IT_number 15
_symmetry_cell_setting 'monoclinic'
loop_
_space_group_symop_operation_xyz
x,y,z
-x,y,1/2-z
-x,-y,-z
x,-y,1/2+z
1/2+x,1/2+y,z
1/2-x,1/2+y,1/2-z
1/2-x,1/2-y,-z
1/2+x,1/2-y,1/2+z
loop_
_atom_site_type_symbol
_atom_site_label
_atom_site_fract_x
_atom_site_fract_y
_atom_site_fract_z
Si Si1 0.354189 0.046743 0.091306
Si Si2 0.698739 0.755325 0.093753
Si Si3 0.793089 0.436986 0.083819
Si Si4 0.787036 0.132272 0.591871
Si Si5 0.722848 0.671026 0.585288
O O1 0.500000 0.053755 0.250000
O O2 0.399975 0.988690 0.072871
O O3 0.020455 0.051351 0.992319
O O4 0.410259 0.090576 0.033079
O O5 0.000000 0.740724 0.250000
O O6 0.658338 0.815935 0.091272
O O7 0.750000 0.750000 0.000000
O O8 0.446952 0.716713 0.027639
O O9 0.777744 0.379373 0.040639
O O10 0.000000 0.431172 0.250000
O O11 0.997178 0.151953 0.584029
O O12 0.000000 0.108582 0.750000
O O13 0.000000 0.687138 0.750000
#
# Coordination Sequence:
#
# PCOD9308509 Si02
#       5
#     8   8   8   8   8
#     4   9  16  28  51  76  95 128 177 215 240 296
#     4   9  18  32  49  73 103 134 170 210 254 306
#     4   8  15  27  46  73  98 120 162 215 253 283
#     4   9  18  32  49  74 109 137 163 208 268 313
#     4   9  17  31  53  75  99 134 177 216 249 301
#
# _framework density 23.307483000000001
#
# number of rings (size 3 to 8) (size 9 to 14) (size 15 to 20)
#    0.000    3.200    0.000    0.000    0.000    7.200 
#    0.000    9.000    0.000   48.000    0.000    0.000 
#    0.000    1.600    0.000    0.000    0.000    6.000 
#
# Total GULP energy -111407.606418 kJ/mol
# GULP energy per Si atom -5570.380321 kJ/mol
# Density = 2.325443 g / cm^3
# Si number density = 23.307483 Si / 1000 Ang^3
#
#
#
# Elastic Constant Matrix: (Units=GPa)
#
#
# Indices 1 2 3 4 5 6 
#
# 1 32.6991 38.2845 29.4461 0.0000 -9.9236 0.0000
# 2 38.2845 216.0812 97.0020 0.0000 8.9874 0.0000
# 3 29.4461 97.0020 132.2428 0.0000 5.7183 0.0000
# 4 0.0000 0.0000 0.0000 10.3436 0.0000 20.1692
# 5 -9.9236 8.9874 5.7183 0.0000 28.0147 0.0000
# 6 0.0000 0.0000 0.0000 20.1692 0.0000 28.0144
#
#
#
# Elastic Compliance Matrix: (Units=1/GPa)
#
#
# Indices 1 2 3 4 5 6 
#
# 1 0.052024 -0.006722 -0.007611 0.000000 0.022138 0.000000
# 2 -0.006722 0.007808 -0.004055 0.000000 -0.004058 0.000000
# 3 -0.007611 -0.004055 0.012401 0.000000 -0.003926 0.000000
# 4 0.000000 0.000000 0.000000 -0.239387 0.000000 0.172348
# 5 0.022138 -0.004058 -0.003926 0.000000 0.045641 0.000000
# 6 0.000000 0.000000 0.000000 0.172348 0.000000 -0.088387
#
#
# Mechanical properties :
#
#
# Convention : Reuss Voigt Hill
#
# Bulk Modulus (GPa) = 28.20273 78.94314 53.57294
# Shear Modulus (GPa) = -30.99694 27.69391 -1.65151
#
# Velocity S-wave (km/s) = -3.65075 3.45076 -0.84268
# Velocity P-wave (km/s) = 2.37574 7.05839 4.69983
#
# Compressibility (1/GPa) = 0.03545756
#
# Stress axis : x y z
#
# Youngs Moduli (GPa) = 19.22190 128.07400 80.63987
#
# Poissons Ratio (x) = 0.86086 0.61374
# Poissons Ratio (y) = 0.12920 0.32700
# Poissons Ratio (z) = 0.14630 0.51936
#
# Static dielectric constant tensor:
#      x y z
#    x 1.877570 0.000000 0.038460 
#    y 0.000000 2.062450 0.000000 
#    z 0.038460 0.000000 1.800210 
# 
# From -- ./inp_files/240979.got.cif
#   From: 2010.05.17/outbox.cif.g08.bks.cpg/sg15_121_cif.got.tgz:240979.got - 2010.06.03 18:47:42.
