data_PCOD9308701
_publ_section_title
;
Structure prediction by ZEFSAII (Michael W. Deem and Ramdas Pophale) SiO2 
 PCOD9308701
Probable space group: C 2/C
;
_chemical_formula_sum "Si O2"
_cell_formula_units_Z 28
_cell_length_a 21.000000
_cell_length_b 21.000000
_cell_length_c 18.000000
_cell_angle_alpha 90.000000
_cell_angle_beta 20.000000
_cell_angle_gamma 90.000000
_cell_volume 2714.955898
_symmetry_space_group_name_H-M "C 2/C"
_symmetry_group_IT_number 15
_symmetry_cell_setting 'monoclinic'
loop_
_space_group_symop_operation_xyz
x,y,z
-x,y,1/2-z
-x,-y,-z
x,-y,1/2+z
1/2+x,1/2+y,z
1/2-x,1/2+y,1/2-z
1/2-x,1/2-y,-z
1/2+x,1/2-y,1/2+z
loop_
_atom_site_type_symbol
_atom_site_label
_atom_site_fract_x
_atom_site_fract_y
_atom_site_fract_z
Si Si1 0.500000 0.933436 0.250000
Si Si2 0.866710 0.079229 0.827230
Si Si3 0.661572 0.907192 0.820415
Si Si4 0.486241 0.660427 0.558904
Si Si5 0.500000 0.842140 0.750000
Si Si6 0.321018 0.038237 0.787798
Si Si7 0.430615 0.803354 0.990736
Si Si8 0.090919 0.936223 0.732872
O O1 0.598054 0.966066 0.215653
O O2 0.299714 0.902553 0.501323
O O3 0.961269 0.126716 0.665854
O O4 0.000000 0.070252 0.750000
O O5 0.846130 0.008683 0.816059
O O6 0.677205 0.111714 0.061078
O O7 0.589013 0.848671 0.850299
O O8 0.849005 0.882823 0.656860
O O9 0.697389 0.968388 0.728884
O O10 0.488352 0.925777 0.062399
O O11 0.553828 0.732835 0.493797
O O12 0.271463 0.666446 0.768502
O O13 0.463582 0.802377 0.865231
O O14 0.115293 0.070778 0.001205
O O15 0.000000 0.930450 0.750000
#
# Coordination Sequence:
#
# PCOD9308701 Si02
#       8
#     4   8   8   8   4   8   8   8
#     4  10  21  36  60  86 112 146 194 237 296 348
#     4  10  19  29  48  71 112 150 192 239 267 314
#     4  11  23  41  54  85 120 156 196 240 293 337
#     4  11  22  36  54  79 113 160 201 241 277 339
#     4  10  23  30  48  80 106 162 198 237 264 314
#     4  10  23  38  62  83 118 153 194 245 288 354
#     4  11  24  36  55  79 118 158 207 240 282 332
#     4   9  18  32  52  84 112 146 185 234 288 333
#
# _framework density 10.313243
#
# number of rings (size 3 to 8) (size 9 to 14) (size 15 to 20)
#    0.000    1.714    2.857    1.286    9.000    2.286 
#    0.000    2.857    0.000    0.000    0.000    1.000 
#    0.000    0.000    0.000    0.000    0.000    0.000 
#
# Total GULP energy -155895.536286 kJ/mol
# GULP energy per Si atom -5567.697724 kJ/mol
# Density = 1.028977 g / cm^3
# Si number density = 10.313243 Si / 1000 Ang^3
#
#
#
# Elastic Constant Matrix: (Units=GPa)
#
#
# Indices 1 2 3 4 5 6 
#
# 1 38.3878 -3.7557 12.5967 -0.0399 -8.6493 0.0255
# 2 -3.7557 31.1496 9.2890 -0.0987 4.6406 0.1163
# 3 12.5967 9.2890 178.3860 -0.0146 -21.9991 0.0438
# 4 -0.0399 -0.0987 -0.0146 29.2890 0.0215 -6.4446
# 5 -8.6493 4.6406 -21.9991 0.0215 41.6680 -0.0250
# 6 0.0255 0.1163 0.0438 -6.4446 -0.0250 7.0649
#
#
#
# Elastic Compliance Matrix: (Units=1/GPa)
#
#
# Indices 1 2 3 4 5 6 
#
# 1 0.027912 0.003145 -0.001565 0.000021 0.004617 -0.000107
# 2 0.003145 0.033906 -0.002538 -0.000006 -0.004464 -0.000575
# 3 -0.001565 -0.002538 0.006250 -0.000007 0.003258 0.000014
# 4 0.000021 -0.000006 -0.000007 0.042717 0.000003 0.038966
# 5 0.004617 -0.004464 0.003258 0.000003 0.027175 0.000135
# 6 -0.000107 -0.000575 0.000014 0.038966 0.000135 0.177100
#
#
# Mechanical properties :
#
#
# Convention : Reuss Voigt Hill
#
# Bulk Modulus (GPa) = 15.11692 31.57594 23.34643
# Shear Modulus (GPa) = 14.74807 30.92393 22.83600
#
# Velocity S-wave (km/s) = 2.67686 3.87620 3.33095
# Velocity P-wave (km/s) = 4.11083 5.94768 5.11242
#
# Compressibility (1/GPa) = 0.06615102
#
# Stress axis : x y z
#
# Youngs Moduli (GPa) = 35.82732 29.49304 159.99354
#
# Poissons Ratio (x) = -0.09275 0.25044
# Poissons Ratio (y) = -0.11267 0.40606
# Poissons Ratio (z) = 0.05608 0.07485
#
# Static dielectric constant tensor:
#      x y z
#    x 1.773090 -0.000020 0.046540 
#    y -0.000020 1.721660 0.000000 
#    z 0.046540 0.000000 1.863930 
# 
# From -- ./inp_files/216651.got.cif
#   From: 2010.05.17/outbox.ucp.g08.bks.cvg/sg15_109_cif.got.tgz:216651.got - 2010.06.11 12:40:34.
