data_PCOD9308067
_publ_section_title
;
Structure prediction by ZEFSAII (Michael W. Deem and Ramdas Pophale) SiO2 
 PCOD9308067
Probable space group: C 2/C
;
_chemical_formula_sum "Si O2"
_cell_formula_units_Z 32
_cell_length_a 14.453724
_cell_length_b 8.837207
_cell_length_c 10.220318
_cell_angle_alpha 90.000000
_cell_angle_beta 45.000008
_cell_angle_gamma 90.000000
_cell_volume 923.090448
_symmetry_space_group_name_H-M "C 2/C"
_symmetry_group_IT_number 15
_symmetry_cell_setting 'monoclinic'
loop_
_space_group_symop_operation_xyz
x,y,z
-x,y,1/2-z
-x,-y,-z
x,-y,1/2+z
1/2+x,1/2+y,z
1/2-x,1/2+y,1/2-z
1/2-x,1/2-y,-z
1/2+x,1/2-y,1/2+z
loop_
_atom_site_type_symbol
_atom_site_label
_atom_site_fract_x
_atom_site_fract_y
_atom_site_fract_z
Si Si1 0.329387 0.375000 0.750000
Si Si2 0.500000 0.139187 0.901960
Si Si3 0.170613 0.875000 0.408774
Si Si4 0.348040 0.389186 0.401960
O O1 0.334796 0.175374 0.745816
O O2 0.500000 0.336750 0.581800
O O3 0.331799 0.413249 0.918201
O O4 0.330612 0.425374 0.584592
O O5 0.500000 0.089956 0.750000
O O6 0.334795 0.175374 0.084593
O O7 0.500000 0.000000 0.000000
O O8 0.169388 0.925374 0.245816
O O9 0.500000 0.339955 0.250000
O O10 0.250000 0.250000 0.500000
#
# Coordination Sequence:
#
# PCOD9308067 Si02
#       4
#     8   8   8   8
#     4  12  25  52  76 118 179 234 296 384 462 553
#     4  12  27  52  84 124 178 237 306 384 467 560
#     4  12  25  52  76 118 179 234 296 384 462 553
#     4  12  27  52  84 124 178 237 306 384 467 560
#
# _framework density 34.666156000000001
#
# number of rings (size 3 to 8) (size 9 to 14) (size 15 to 20)
#    0.000    0.000    5.000    4.500    0.000    0.000 
#    9.000    0.000    0.000    0.000    0.000    0.000 
#    0.000    0.000    0.000    0.000    0.000    0.000 
#
# Total GULP energy -90062.261977 kJ/mol
# GULP energy per Si atom -5628.891374 kJ/mol
# Density = 3.458725 g / cm^3
# Si number density = 34.666156 Si / 1000 Ang^3
#
#
#
# Elastic Constant Matrix: (Units=GPa)
#
#
# Indices 1 2 3 4 5 6 
#
# 1 481.3505 239.3834 192.8091 0.0000 -12.2581 0.0000
# 2 239.3834 376.4839 239.3844 0.0000 0.0007 0.0000
# 3 192.8091 239.3844 481.3501 0.0000 12.2585 0.0000
# 4 0.0000 0.0000 0.0000 141.4464 0.0000 0.0001
# 5 -12.2581 0.0007 12.2585 0.0000 157.3321 0.0000
# 6 0.0000 0.0000 0.0000 0.0001 0.0000 141.4466
#
#
#
# Elastic Compliance Matrix: (Units=1/GPa)
#
#
# Indices 1 2 3 4 5 6 
#
# 1 0.003097 -0.001720 -0.000392 0.000000 0.000272 0.000000
# 2 -0.001720 0.004843 -0.001720 0.000000 0.000000 0.000000
# 3 -0.000392 -0.001720 0.003097 0.000000 -0.000272 0.000000
# 4 0.000000 0.000000 0.000000 0.007070 0.000000 0.000000
# 5 0.000272 0.000000 -0.000272 0.000000 0.006398 0.000000
# 6 0.000000 0.000000 0.000000 0.000000 0.000000 0.007070
#
#
# Mechanical properties :
#
#
# Convention : Reuss Voigt Hill
#
# Bulk Modulus (GPa) = 296.42963 298.03760 297.23361
# Shear Modulus (GPa) = 123.87907 132.55220 128.21563
#
# Velocity S-wave (km/s) = 5.98435 6.19030 6.08819
# Velocity P-wave (km/s) = 11.55186 11.71552 11.63397
#
# Compressibility (1/GPa) = 0.00337348
#
# Stress axis : x y z
#
# Youngs Moduli (GPa) = 322.92441 206.48059 322.92281
#
# Poissons Ratio (x) = 0.35508 0.12662
# Poissons Ratio (y) = 0.55533 0.55533
# Poissons Ratio (z) = 0.12662 0.35509
#
# Static dielectric constant tensor:
#      x y z
#    x 2.511220 0.000000 0.000000 
#    y 0.000000 2.496720 0.000000 
#    z 0.000000 0.000000 2.511220 
# 
# From -- ./inp_files/37105.got.cif
#   From: 2010.05.17/outbox.cif.g08.bks.cpg/sg15_19_cif.got.tgz:37105.got - 2010.06.03 18:47:42.
