data_PCOD9308293
_publ_section_title
;
Structure prediction by ZEFSAII (Michael W. Deem and Ramdas Pophale) SiO2 
 PCOD9308293
Probable space group: C 2/C
;
_chemical_formula_sum "Si O2"
_cell_formula_units_Z 24
_cell_length_a 7.337399
_cell_length_b 15.932312
_cell_length_c 7.567587
_cell_angle_alpha 90.000000
_cell_angle_beta 70.450279
_cell_angle_gamma 90.000000
_cell_volume 833.664425
_symmetry_space_group_name_H-M "C 2/C"
_symmetry_group_IT_number 15
_symmetry_cell_setting 'monoclinic'
loop_
_space_group_symop_operation_xyz
x,y,z
-x,y,1/2-z
-x,-y,-z
x,-y,1/2+z
1/2+x,1/2+y,z
1/2-x,1/2+y,1/2-z
1/2-x,1/2-y,-z
1/2+x,1/2-y,1/2+z
loop_
_atom_site_type_symbol
_atom_site_label
_atom_site_fract_x
_atom_site_fract_y
_atom_site_fract_z
Si Si1 0.500000 0.143083 0.250000
Si Si2 0.836806 0.568640 0.649848
Si Si3 0.500000 0.569061 0.250000
Si Si4 0.408113 0.298886 0.066732
O O1 0.522667 0.219441 0.096913
O O2 0.424562 0.077486 0.425339
O O3 0.688696 0.488992 0.689048
O O4 0.697285 0.645810 0.751311
O O5 0.000000 0.574962 0.750000
O O6 0.514268 0.632774 0.409817
O O7 0.250000 0.250000 0.000000
#
# Coordination Sequence:
#
# PCOD9308293 Si02
#       4
#     4   8   4   8
#     4  12  27  58  97 128 178 244 310 374 447 548
#     4  12  28  58  92 133 185 236 303 379 460 540
#     4  12  31  58  91 138 184 238 298 380 463 540
#     4  12  26  55  91 129 181 238 306 369 451 544
#
# _framework density 28.788561000000001
#
# number of rings (size 3 to 8) (size 9 to 14) (size 15 to 20)
#    0.000    0.000    3.333    5.000    0.000    6.667 
#   12.000    0.000    3.667    0.000    0.000    0.000 
#    0.000    0.000    0.000    0.000    0.000    0.000 
#
# Total GULP energy -66946.959645 kJ/mol
# GULP energy per Si atom -5578.913304 kJ/mol
# Density = 2.872304 g / cm^3
# Si number density = 28.788561 Si / 1000 Ang^3
#
#
#
# Elastic Constant Matrix: (Units=GPa)
#
#
# Indices 1 2 3 4 5 6 
#
# 1 145.8048 81.1290 69.2051 0.0000 -0.4025 0.0000
# 2 81.1290 211.2540 116.8244 0.0000 -16.5393 0.0000
# 3 69.2051 116.8244 318.3500 0.0000 -30.6782 0.0000
# 4 0.0000 0.0000 0.0000 96.7720 0.0000 1.3253
# 5 -0.4025 -16.5393 -30.6782 0.0000 35.7107 0.0000
# 6 0.0000 0.0000 0.0000 1.3253 0.0000 39.5826
#
#
#
# Elastic Compliance Matrix: (Units=1/GPa)
#
#
# Indices 1 2 3 4 5 6 
#
# 1 0.009063 -0.003070 -0.001058 0.000000 -0.002229 0.000000
# 2 -0.003070 0.007009 -0.001739 0.000000 0.001717 0.000000
# 3 -0.001058 -0.001739 0.004286 0.000000 0.002864 0.000000
# 4 0.000000 0.000000 0.000000 0.010338 0.000000 -0.000346
# 5 -0.002229 0.001717 0.002864 0.000000 0.031234 0.000000
# 6 0.000000 0.000000 0.000000 -0.000346 0.000000 0.025275
#
#
# Mechanical properties :
#
#
# Convention : Reuss Voigt Hill
#
# Bulk Modulus (GPa) = 115.97573 134.41398 125.19485
# Shear Modulus (GPa) = 49.10983 61.62975 55.36979
#
# Velocity S-wave (km/s) = 4.13471 4.63187 4.39033
# Velocity P-wave (km/s) = 7.94778 8.68315 8.32359
#
# Compressibility (1/GPa) = 0.00862249
#
# Stress axis : x y z
#
# Youngs Moduli (GPa) = 110.34250 142.67998 233.34338
#
# Poissons Ratio (x) = 0.43796 0.24698
# Poissons Ratio (y) = 0.33870 0.40583
# Poissons Ratio (z) = 0.11679 0.24815
#
# Static dielectric constant tensor:
#      x y z
#    x 2.401090 0.000000 0.235690 
#    y 0.000000 2.121630 0.000000 
#    z 0.235690 0.000000 2.084840 
# 
# From -- ./inp_files/20981.got.cif
#   From: 2010.05.17/outbox.cif.g08.bks.cpg/sg15_11_cif.got.tgz:20981.got - 2010.06.03 18:47:42.
