data_PCOD9308036
_publ_section_title
;
Structure prediction by ZEFSAII (Michael W. Deem and Ramdas Pophale) SiO2 
 PCOD9308036
Probable space group: C 2/C
;
_chemical_formula_sum "Si O2"
_cell_formula_units_Z 32
_cell_length_a 17.850071
_cell_length_b 5.165280
_cell_length_c 14.685400
_cell_angle_alpha 90.000000
_cell_angle_beta 97.159970
_cell_angle_gamma 90.000000
_cell_volume 1343.444425
_symmetry_space_group_name_H-M "C 2/C"
_symmetry_group_IT_number 15
_symmetry_cell_setting 'monoclinic'
loop_
_space_group_symop_operation_xyz
x,y,z
-x,y,1/2-z
-x,-y,-z
x,-y,1/2+z
1/2+x,1/2+y,z
1/2-x,1/2+y,1/2-z
1/2-x,1/2-y,-z
1/2+x,1/2-y,1/2+z
loop_
_atom_site_type_symbol
_atom_site_label
_atom_site_fract_x
_atom_site_fract_y
_atom_site_fract_z
Si Si1 0.318502 0.124877 0.226933
Si Si2 0.284111 0.677282 0.907418
Si Si3 0.052259 0.753855 0.994138
Si Si4 0.914041 0.858934 0.707160
O O1 0.227555 0.654990 0.186118
O O2 0.370205 0.373290 0.214442
O O3 0.260687 0.076428 0.134222
O O4 0.374333 0.698371 0.932185
O O5 0.126158 0.619381 0.749829
O O6 0.250000 0.750000 0.000000
O O7 0.084056 0.766558 0.896978
O O8 0.000000 0.500000 0.000000
O O9 0.000000 0.000000 0.000000
O O10 0.000000 0.893242 0.750000
#
# Coordination Sequence:
#
# PCOD9308036 Si02
#       4
#     8   8   8   8
#     4  12  27  50  77 119 153 214 267 326 398 473
#     4  12  28  53  83 116 164 209 267 330 395 476
#     4  12  27  49  77 118 157 208 263 326 397 473
#     4  12  25  49  78 114 164 207 265 333 395 473
#
# _framework density 23.819368999999998
#
# number of rings (size 3 to 8) (size 9 to 14) (size 15 to 20)
#    0.000    0.000    2.500    6.750    0.000    5.000 
#    0.000    0.000    0.000    0.000    0.000    0.000 
#    0.000    0.000    0.000    0.000    0.000    0.000 
#
# Total GULP energy -89525.763466 kJ/mol
# GULP energy per Si atom -5595.360217 kJ/mol
# Density = 2.376515 g / cm^3
# Si number density = 23.819369 Si / 1000 Ang^3
#
#
#
# Elastic Constant Matrix: (Units=GPa)
#
#
# Indices 1 2 3 4 5 6 
#
# 1 172.7409 103.5699 60.3913 0.0000 31.6877 0.0000
# 2 103.5699 205.8916 35.6711 0.0000 8.7244 0.0000
# 3 60.3913 35.6711 149.4753 0.0000 3.2243 0.0000
# 4 0.0000 0.0000 0.0000 33.4446 0.0000 -4.7424
# 5 31.6877 8.7244 3.2243 0.0000 80.0442 0.0000
# 6 0.0000 0.0000 0.0000 -4.7424 0.0000 51.1428
#
#
#
# Elastic Compliance Matrix: (Units=1/GPa)
#
#
# Indices 1 2 3 4 5 6 
#
# 1 0.010095 -0.004423 -0.002950 0.000000 -0.003396 0.000000
# 2 -0.004423 0.007025 0.000089 0.000000 0.000982 0.000000
# 3 -0.002950 0.000089 0.007842 0.000000 0.000842 0.000000
# 4 0.000000 0.000000 0.000000 0.030299 0.000000 0.002810
# 5 -0.003396 0.000982 0.000842 0.000000 0.013696 0.000000
# 6 0.000000 0.000000 0.000000 0.002810 0.000000 0.019814
#
#
# Mechanical properties :
#
#
# Convention : Reuss Voigt Hill
#
# Bulk Modulus (GPa) = 96.19864 103.04138 99.62001
# Shear Modulus (GPa) = 46.81497 54.82469 50.81983
#
# Velocity S-wave (km/s) = 4.43811 4.80279 4.62405
# Velocity P-wave (km/s) = 8.16926 8.60867 8.39184
#
# Compressibility (1/GPa) = 0.01039516
#
# Stress axis : x y z
#
# Youngs Moduli (GPa) = 99.05649 142.35163 127.51260
#
# Poissons Ratio (x) = 0.62966 0.37615
# Poissons Ratio (y) = 0.43815 -0.01141
# Poissons Ratio (z) = 0.29220 -0.01274
#
# Static dielectric constant tensor:
#      x y z
#    x 1.946300 0.000000 0.029320 
#    y 0.000000 1.915630 0.000000 
#    z 0.029320 0.000000 1.975540 
# 
# From -- ./inp_files/201889.got.cif
#   From: 2010.05.17/outbox.cif.g08.bks.cpg/sg15_101_cif.got.tgz:201889.got - 2010.06.03 18:47:42.
