data_PCOD9308361
_publ_section_title
;
Structure prediction by ZEFSAII (Michael W. Deem and Ramdas Pophale) SiO2 
 PCOD9308361
Probable space group: C 2/C
;
_chemical_formula_sum "Si O2"
_cell_formula_units_Z 36
_cell_length_a 12.409498
_cell_length_b 15.669318
_cell_length_c 10.101642
_cell_angle_alpha 90.000000
_cell_angle_beta 48.038741
_cell_angle_gamma 90.000000
_cell_volume 1460.608974
_symmetry_space_group_name_H-M "C 2/C"
_symmetry_group_IT_number 15
_symmetry_cell_setting 'monoclinic'
loop_
_space_group_symop_operation_xyz
x,y,z
-x,y,1/2-z
-x,-y,-z
x,-y,1/2+z
1/2+x,1/2+y,z
1/2-x,1/2+y,1/2-z
1/2-x,1/2-y,-z
1/2+x,1/2-y,1/2+z
loop_
_atom_site_type_symbol
_atom_site_label
_atom_site_fract_x
_atom_site_fract_y
_atom_site_fract_z
Si Si1 0.944639 0.932243 0.149212
Si Si2 0.316158 0.806954 0.559902
Si Si3 0.587275 0.254249 0.950809
Si Si4 0.000000 0.377297 0.750000
Si Si5 0.350097 0.995370 0.036732
O O1 0.000000 0.954705 0.250000
O O2 0.012187 0.841782 0.056729
O O3 0.771025 0.938862 0.291500
O O4 0.000000 0.000000 0.000000
O O5 0.250000 0.750000 0.500000
O O6 0.486073 0.787515 0.422771
O O7 0.294917 0.908155 0.565148
O O8 0.241885 0.777532 0.760521
O O9 0.562561 0.187691 0.089401
O O10 0.125833 0.449185 0.625262
O O11 0.500000 0.000000 0.000000
#
# Coordination Sequence:
#
# PCOD9308361 Si02
#       5
#     8   8   8   4   8
#     4  12  29  51  83 116 161 214 273 341 415 498
#     4  12  29  51  78 115 162 214 269 339 415 498
#     4  12  27  51  81 113 156 212 275 331 415 500
#     4  12  28  48  84 118 160 206 274 342 414 494
#     4  12  29  51  79 118 165 209 276 339 422 501
#
# _framework density 24.647254
#
# number of rings (size 3 to 8) (size 9 to 14) (size 15 to 20)
#    0.000    0.000    5.556    2.000   12.444    1.778 
#    0.000    0.000    0.000    0.000    0.000    0.000 
#    0.000    0.000    0.000    0.000    0.000    0.000 
#
# Total GULP energy -100588.669034 kJ/mol
# GULP energy per Si atom -5588.259391 kJ/mol
# Density = 2.459116 g / cm^3
# Si number density = 24.647254 Si / 1000 Ang^3
#
#
#
# Elastic Constant Matrix: (Units=GPa)
#
#
# Indices 1 2 3 4 5 6 
#
# 1 27.8345 44.1221 6.7795 0.0000 -1.1916 0.0000
# 2 44.1221 159.0724 69.2623 0.0000 21.1133 0.0000
# 3 6.7795 69.2623 160.0489 0.0000 -8.0009 0.0000
# 4 0.0000 0.0000 0.0000 54.4905 0.0000 -2.5545
# 5 -1.1916 21.1133 -8.0009 0.0000 44.1478 0.0000
# 6 0.0000 0.0000 0.0000 -2.5545 0.0000 29.3110
#
#
#
# Elastic Compliance Matrix: (Units=1/GPa)
#
#
# Indices 1 2 3 4 5 6 
#
# 1 0.080179 -0.028977 0.010036 0.000000 0.017841 0.000000
# 2 -0.028977 0.019146 -0.007624 0.000000 -0.011320 0.000000
# 3 0.010036 -0.007624 0.009403 0.000000 0.005621 0.000000
# 4 0.000000 0.000000 0.000000 0.018427 0.000000 0.001606
# 5 0.017841 -0.011320 0.005621 0.000000 0.029565 0.000000
# 6 0.000000 0.000000 0.000000 0.001606 0.000000 0.034257
#
#
# Mechanical properties :
#
#
# Convention : Reuss Voigt Hill
#
# Bulk Modulus (GPa) = 17.98639 65.25373 41.62006
# Shear Modulus (GPa) = 19.03738 40.70931 29.87335
#
# Velocity S-wave (km/s) = 2.78221 4.06849 3.48521
# Velocity P-wave (km/s) = 4.19932 6.97156 5.75487
#
# Compressibility (1/GPa) = 0.05559759
#
# Stress axis : x y z
#
# Youngs Moduli (GPa) = 12.47206 52.23039 106.34520
#
# Poissons Ratio (x) = 1.51348 -1.06723
# Poissons Ratio (y) = 0.36140 0.81078
# Poissons Ratio (z) = -0.12516 0.39820
#
# Static dielectric constant tensor:
#      x y z
#    x 2.043460 0.000000 0.028730 
#    y 0.000000 1.841780 0.000000 
#    z 0.028730 0.000000 1.934250 
# 
# From -- ./inp_files/96774.got.cif
#   From: 2010.05.17/outbox.cif.g08.bks.cpg/sg15_49_cif.got.tgz:96774.got - 2010.06.03 18:47:42.
