data_PCOD9308817
_publ_section_title
;
Structure prediction by ZEFSAII (Michael W. Deem and Ramdas Pophale) SiO2 
 PCOD9308817
Probable space group: C 2/C
;
_chemical_formula_sum "Si O2"
_cell_formula_units_Z 32
_cell_length_a 9.000000
_cell_length_b 18.000000
_cell_length_c 30.000000
_cell_angle_alpha 90.000000
_cell_angle_beta 140.000000
_cell_angle_gamma 90.000000
_cell_volume 3123.947783
_symmetry_space_group_name_H-M "C 2/C"
_symmetry_group_IT_number 15
_symmetry_cell_setting 'monoclinic'
loop_
_space_group_symop_operation_xyz
x,y,z
-x,y,1/2-z
-x,-y,-z
x,-y,1/2+z
1/2+x,1/2+y,z
1/2-x,1/2+y,1/2-z
1/2-x,1/2-y,-z
1/2+x,1/2-y,1/2+z
loop_
_atom_site_type_symbol
_atom_site_label
_atom_site_fract_x
_atom_site_fract_y
_atom_site_fract_z
Si Si1 0.895194 0.063788 0.184280
Si Si2 0.056595 0.497359 0.401787
Si Si3 0.728280 0.250691 0.058482
Si Si4 0.001356 0.349498 0.439374
Si Si5 0.335767 0.636368 0.495383
Si Si6 0.346312 0.787273 0.863796
Si Si7 0.320021 0.996938 0.247894
Si Si8 0.495088 0.637134 0.862449
O O1 0.792656 0.139586 0.181488
O O2 0.000000 0.018010 0.250000
O O3 0.658305 0.025154 0.116322
O O4 0.113977 0.059106 0.202493
O O5 0.257980 0.558585 0.454648
O O6 0.104807 0.418162 0.435142
O O7 0.961643 0.492312 0.328311
O O8 0.524756 0.313247 0.013064
O O9 0.788044 0.240475 0.123512
O O10 0.941903 0.278877 0.078682
O O11 0.631266 0.174487 0.014793
O O12 0.733739 0.360639 0.389687
O O13 0.430929 0.623143 0.567987
O O14 0.099950 0.685637 0.439119
O O15 0.381938 0.719457 0.838569
O O16 0.500000 0.013352 0.250000
O O17 0.180213 0.922325 0.199934
#
# Coordination Sequence:
#
# PCOD9308817 Si02
#       8
#     8   8   8   8   8   8   8   8
#     4   9  20  41  63  83 120 168 205 256 317 379
#     4  10  23  41  64  89 128 168 211 262 325 375
#     4  10  21  37  58  94 136 157 203 269 318 368
#     4  11  21  37  59  93 129 164 204 262 320 371
#     4  10  20  40  64  93 124 167 210 262 320 385
#     4  10  19  38  63  91 125 161 206 254 316 386
#     4  11  25  44  62  92 126 168 219 272 318 388
#     4  11  21  39  66  92 125 170 215 259 319 395
#
# _framework density 10.243449
#
# number of rings (size 3 to 8) (size 9 to 14) (size 15 to 20)
#    0.000    1.750    3.750    0.750    3.500    2.500 
#    4.500    0.000    0.000    0.000    0.000    0.000 
#    0.000    0.000    0.000    0.000    0.000    0.000 
#
# Total GULP energy -178206.096995 kJ/mol
# GULP energy per Si atom -5568.940531 kJ/mol
# Density = 1.022013 g / cm^3
# Si number density = 10.243449 Si / 1000 Ang^3
#
#
#
# Elastic Constant Matrix: (Units=GPa)
#
#
# Indices 1 2 3 4 5 6 
#
# 1 88.9564 7.7211 17.1195 0.0000 -0.7934 0.0000
# 2 7.7211 95.1230 33.0050 0.0001 -2.6027 0.0000
# 3 17.1195 33.0050 63.3180 0.0002 -1.1850 0.0002
# 4 0.0000 0.0001 0.0002 37.5113 0.0001 1.4275
# 5 -0.7934 -2.6027 -1.1850 0.0001 22.6200 0.0000
# 6 0.0000 0.0000 0.0002 1.4275 0.0000 27.1204
#
#
#
# Elastic Compliance Matrix: (Units=1/GPa)
#
#
# Indices 1 2 3 4 5 6 
#
# 1 0.011863 0.000190 -0.003301 0.000000 0.000265 0.000000
# 2 0.000190 0.012866 -0.006736 0.000000 0.001134 0.000000
# 3 -0.003301 -0.006736 0.020200 0.000000 0.000167 0.000000
# 4 0.000000 0.000000 0.000000 0.026712 0.000000 -0.001406
# 5 0.000265 0.001134 0.000167 0.000000 0.044357 0.000000
# 6 0.000000 0.000000 0.000000 -0.001406 0.000000 0.036947
#
#
# Mechanical properties :
#
#
# Convention : Reuss Voigt Hill
#
# Bulk Modulus (GPa) = 39.63076 40.34316 39.98696
# Shear Modulus (GPa) = 27.61643 30.08713 28.85178
#
# Velocity S-wave (km/s) = 3.67550 3.83639 3.75681
# Velocity P-wave (km/s) = 6.11546 6.27366 6.19507
#
# Compressibility (1/GPa) = 0.02523292
#
# Stress axis : x y z
#
# Youngs Moduli (GPa) = 84.29794 77.72615 49.50384
#
# Poissons Ratio (x) = -0.01476 0.16343
# Poissons Ratio (y) = -0.01600 0.33348
# Poissons Ratio (z) = 0.27830 0.52360
#
# Static dielectric constant tensor:
#      x y z
#    x 1.780780 0.000000 -0.012930 
#    y 0.000000 1.797460 0.000000 
#    z -0.012930 0.000000 1.747410 
# 
# From -- ./inp_files/308784.got.cif
#   From: 2010.05.17/outbox.ucp.g08.bks.cvg/sg15_155_cif.got.tgz:308784.got - 2010.06.11 12:40:34.
