data_PCOD9308338
_publ_section_title
;
Structure prediction by ZEFSAII (Michael W. Deem and Ramdas Pophale) SiO2 
 PCOD9308338
Probable space group: C 2/C
;
_chemical_formula_sum "Si O2"
_cell_formula_units_Z 28
_cell_length_a 8.804662
_cell_length_b 11.843150
_cell_length_c 10.407445
_cell_angle_alpha 90.000000
_cell_angle_beta 112.557584
_cell_angle_gamma 90.000000
_cell_volume 1002.209087
_symmetry_space_group_name_H-M "C 2/C"
_symmetry_group_IT_number 15
_symmetry_cell_setting 'monoclinic'
loop_
_space_group_symop_operation_xyz
x,y,z
-x,y,1/2-z
-x,-y,-z
x,-y,1/2+z
1/2+x,1/2+y,z
1/2-x,1/2+y,1/2-z
1/2-x,1/2-y,-z
1/2+x,1/2-y,1/2+z
loop_
_atom_site_type_symbol
_atom_site_label
_atom_site_fract_x
_atom_site_fract_y
_atom_site_fract_z
Si Si1 0.163362 0.772791 0.106491
Si Si2 0.500000 0.863309 0.250000
Si Si3 0.181497 0.881379 0.502994
Si Si4 0.669764 0.030511 0.176102
O O1 0.333835 0.801009 0.232663
O O2 0.099423 0.653877 0.129573
O O3 0.015315 0.858845 0.056700
O O4 0.250000 0.750000 0.000000
O O5 0.508119 0.952498 0.138032
O O6 0.250000 0.750000 0.500000
O O7 0.220133 0.967406 0.396051
O O8 0.764918 0.059046 0.343525
#
# Coordination Sequence:
#
# PCOD9308338 Si02
#       4
#     8   4   8   8
#     4  12  27  49  80 119 165 216 280 347 420 510
#     4  12  28  48  76 116 160 212 276 340 416 502
#     4  12  29  54  87 126 169 224 291 354 428 517
#     4  12  28  53  82 117 167 221 276 355 433 498
#
# _framework density 27.938282999999998
#
# number of rings (size 3 to 8) (size 9 to 14) (size 15 to 20)
#    0.000    0.000    0.000    8.571    0.000   16.000 
#    0.000    5.714    0.000    0.000    0.000    0.000 
#    0.000    0.000    0.000    0.000    0.000    0.000 
#
# Total GULP energy -78069.025929 kJ/mol
# GULP energy per Si atom -5576.358995 kJ/mol
# Density = 2.787469 g / cm^3
# Si number density = 27.938283 Si / 1000 Ang^3
#
#
#
# Elastic Constant Matrix: (Units=GPa)
#
#
# Indices 1 2 3 4 5 6 
#
# 1 165.4205 61.2544 63.4067 0.0000 12.0206 0.0000
# 2 61.2544 153.5543 80.8357 0.0000 12.1330 0.0000
# 3 63.4067 80.8357 153.4207 0.0000 -12.6621 0.0000
# 4 0.0000 0.0000 0.0000 60.0120 0.0000 -4.6015
# 5 12.0206 12.1330 -12.6621 0.0000 55.5228 0.0000
# 6 0.0000 0.0000 0.0000 -4.6015 0.0000 76.3876
#
#
#
# Elastic Compliance Matrix: (Units=1/GPa)
#
#
# Indices 1 2 3 4 5 6 
#
# 1 0.007742 -0.001622 -0.002501 0.000000 -0.001892 0.000000
# 2 -0.001622 0.009912 -0.004792 0.000000 -0.002908 0.000000
# 3 -0.002501 -0.004792 0.010403 0.000000 0.003961 0.000000
# 4 0.000000 0.000000 0.000000 0.016741 0.000000 0.001008
# 5 -0.001892 -0.002908 0.003961 0.000000 0.019959 0.000000
# 6 0.000000 0.000000 0.000000 0.001008 0.000000 0.013152
#
#
# Mechanical properties :
#
#
# Convention : Reuss Voigt Hill
#
# Bulk Modulus (GPa) = 97.78262 98.15435 97.96849
# Shear Modulus (GPa) = 50.42940 56.17773 53.30356
#
# Velocity S-wave (km/s) = 4.25317 4.48904 4.37269
# Velocity P-wave (km/s) = 7.69381 7.87892 7.78692
#
# Compressibility (1/GPa) = 0.01022677
#
# Stress axis : x y z
#
# Youngs Moduli (GPa) = 129.16419 100.88913 96.12185
#
# Poissons Ratio (x) = 0.16367 0.24041
# Poissons Ratio (y) = 0.20954 0.46061
# Poissons Ratio (z) = 0.32305 0.48346
#
# Static dielectric constant tensor:
#      x y z
#    x 2.150130 0.000000 -0.408880 
#    y 0.000000 -1.669850 0.000000 
#    z -0.408880 0.000000 1.946160 
# 
# From -- ./inp_files/131877.got.cif
#   From: 2010.05.17/outbox.cif.g08.bks.cpg/sg15_66_cif.got.tgz:131877.got - 2010.06.03 18:47:42.
