data_PCOD9308382
_publ_section_title
;
Structure prediction by ZEFSAII (Michael W. Deem and Ramdas Pophale) SiO2 
 PCOD9308382
Probable space group: C 2/C
;
_chemical_formula_sum "Si O2"
_cell_formula_units_Z 32
_cell_length_a 7.753430
_cell_length_b 36.418187
_cell_length_c 5.676862
_cell_angle_alpha 90.000000
_cell_angle_beta 91.758090
_cell_angle_gamma 90.000000
_cell_volume 1602.197482
_symmetry_space_group_name_H-M "C 2/C"
_symmetry_group_IT_number 15
_symmetry_cell_setting 'monoclinic'
loop_
_space_group_symop_operation_xyz
x,y,z
-x,y,1/2-z
-x,-y,-z
x,-y,1/2+z
1/2+x,1/2+y,z
1/2-x,1/2+y,1/2-z
1/2-x,1/2-y,-z
1/2+x,1/2-y,1/2+z
loop_
_atom_site_type_symbol
_atom_site_label
_atom_site_fract_x
_atom_site_fract_y
_atom_site_fract_z
Si Si1 0.673147 0.349945 0.871632
Si Si2 0.000000 0.521538 0.250000
Si Si3 0.601356 0.219540 0.006194
Si Si4 0.191159 0.075268 0.148739
Si Si5 0.500000 0.401299 0.250000
O O1 0.500000 0.332215 0.750000
O O2 0.808853 0.320095 0.955806
O O3 0.741852 0.382169 0.702424
O O4 0.598712 0.374147 0.080066
O O5 0.168276 0.547446 0.258945
O O6 0.000000 0.500000 0.500000
O O7 0.500000 0.226098 0.250000
O O8 0.500000 0.220333 0.750000
O O9 0.750000 0.250000 0.000000
O O10 0.000000 0.069162 0.250000
O O11 0.147077 0.073809 0.872055
#
# Coordination Sequence:
#
# PCOD9308382 Si02
#       5
#     8   4   8   8   4
#     4   9  21  39  69  97 129 172 225 277 339 392
#     4  12  30  44  66 101 136 178 224 286 337 406
#     4  12  28  44  67  98 138 183 226 279 340 402
#     4   9  22  44  68  97 135 175 226 279 340 409
#     4   8  18  38  72  93 128 174 214 290 331 406
#
# _framework density 19.972570000000001
#
# number of rings (size 3 to 8) (size 9 to 14) (size 15 to 20)
#    0.000    2.500    0.000    1.500   17.500    1.000 
#    0.000    0.000    0.000    0.000    0.000    0.000 
#    0.000    0.000    0.000    0.000    0.000    0.000 
#
# Total GULP energy -89098.772362 kJ/mol
# GULP energy per Si atom -5568.673273 kJ/mol
# Density = 1.992711 g / cm^3
# Si number density = 19.972570 Si / 1000 Ang^3
#
#
#
# Elastic Constant Matrix: (Units=GPa)
#
#
# Indices 1 2 3 4 5 6 
#
# 1 130.6630 81.9423 73.2538 0.0000 28.8386 0.0000
# 2 81.9423 107.5481 52.5639 0.0000 29.1506 0.0000
# 3 73.2538 52.5639 141.4239 0.0000 31.5700 0.0000
# 4 0.0000 0.0000 0.0000 22.3428 0.0000 12.3985
# 5 28.8386 29.1506 31.5700 0.0000 38.9636 0.0000
# 6 0.0000 0.0000 0.0000 12.3985 0.0000 42.6322
#
#
#
# Elastic Compliance Matrix: (Units=1/GPa)
#
#
# Indices 1 2 3 4 5 6 
#
# 1 0.017063 -0.010411 -0.004747 0.000000 -0.000994 0.000000
# 2 -0.010411 0.019090 -0.000286 0.000000 -0.006345 0.000000
# 3 -0.004747 -0.000286 0.010748 0.000000 -0.004981 0.000000
# 4 0.000000 0.000000 0.000000 0.053370 0.000000 -0.015521
# 5 -0.000994 -0.006345 -0.004981 0.000000 0.035183 0.000000
# 6 0.000000 0.000000 0.000000 -0.015521 0.000000 0.027971
#
#
# Mechanical properties :
#
#
# Convention : Reuss Voigt Hill
#
# Bulk Modulus (GPa) = 62.45068 88.35056 75.40062
# Shear Modulus (GPa) = 25.04374 32.24605 28.64489
#
# Velocity S-wave (km/s) = 3.54490 4.02246 3.79121
# Velocity P-wave (km/s) = 6.93478 8.11823 7.54973
#
# Compressibility (1/GPa) = 0.01601263
#
# Stress axis : x y z
#
# Youngs Moduli (GPa) = 58.60687 52.38299 93.04103
#
# Poissons Ratio (x) = 0.54536 0.44164
# Poissons Ratio (y) = 0.61016 0.02665
# Poissons Ratio (z) = 0.27819 0.01500
#
# Static dielectric constant tensor:
#      x y z
#    x 1.699760 0.000000 0.012240 
#    y 0.000000 1.686670 0.000000 
#    z 0.012240 0.000000 1.901470 
# 
# From -- ./inp_files/2396.got.cif
#   From: 2010.05.17/outbox.cif.g08.bks.cpg/sg15_2_cif.got.tgz:2396.got - 2010.06.03 18:47:42.
