data_PCOD9309597
_publ_section_title
;
Structure prediction by ZEFSAII (Michael W. Deem and Ramdas Pophale) SiO2 
 PCOD9309597
Probable space group: C 2/C
;
_chemical_formula_sum "Si O2"
_cell_formula_units_Z 28
_cell_length_a 30.000000
_cell_length_b 6.000000
_cell_length_c 30.000000
_cell_angle_alpha 90.000000
_cell_angle_beta 30.000000
_cell_angle_gamma 90.000000
_cell_volume 2700.000000
_symmetry_space_group_name_H-M "C 2/C"
_symmetry_group_IT_number 15
_symmetry_cell_setting 'monoclinic'
loop_
_space_group_symop_operation_xyz
x,y,z
-x,y,1/2-z
-x,-y,-z
x,-y,1/2+z
1/2+x,1/2+y,z
1/2-x,1/2+y,1/2-z
1/2-x,1/2-y,-z
1/2+x,1/2-y,1/2+z
loop_
_atom_site_type_symbol
_atom_site_label
_atom_site_fract_x
_atom_site_fract_y
_atom_site_fract_z
Si Si1 0.884759 0.589786 0.781715
Si Si2 0.746311 0.484605 0.822428
Si Si3 0.928790 0.486448 0.915951
Si Si4 0.093072 0.766126 0.157407
Si Si5 0.736040 0.390532 0.556989
Si Si6 0.565315 0.208959 0.989801
Si Si7 0.631753 0.825140 0.865734
O O1 0.813034 0.505983 0.806882
O O2 0.902083 0.429684 0.809566
O O3 0.835837 0.797872 0.845937
O O4 0.981622 0.622129 0.675110
O O5 0.653772 0.362432 0.916011
O O6 0.702116 0.702029 0.837384
O O7 0.809489 0.376892 0.729192
O O8 0.917379 0.311900 0.884733
O O9 0.832139 0.602167 0.997459
O O10 0.943811 0.395546 0.952732
O O11 0.000000 0.892026 0.250000
O O12 0.185999 0.889765 0.083550
O O13 0.750000 0.250000 0.500000
O O14 0.596088 0.038114 0.924221
O O15 0.463933 0.292325 0.064874
#
# Coordination Sequence:
#
# PCOD9309597 Si02
#       7
#     8   8   8   8   8   8   8
#     4  11  25  45  66  97 135 175 222 271 327 397
#     4  12  23  44  71  95 133 176 222 274 339 394
#     4  11  23  45  68  98 134 176 219 274 332 391
#     4  10  24  43  64  94 136 175 217 267 329 394
#     4  12  25  39  68  96 134 175 219 269 326 391
#     4  11  24  44  70  95 136 170 227 275 333 399
#     4  11  24  44  66 101 130 176 218 280 335 397
#
# _framework density 10.370369999999999
#
# number of rings (size 3 to 8) (size 9 to 14) (size 15 to 20)
#    0.000    0.857    4.286    2.571    4.000    0.000 
#    0.000    0.000    0.000    0.000    0.000    0.000 
#    0.000    0.000    0.000    0.000    0.000    0.000 
#
# Total GULP energy -156025.094467 kJ/mol
# GULP energy per Si atom -5572.324802 kJ/mol
# Density = 1.034677 g / cm^3
# Si number density = 10.370370 Si / 1000 Ang^3
#
#
#
# Elastic Constant Matrix: (Units=GPa)
#
#
# Indices 1 2 3 4 5 6 
#
# 1 92.2694 -10.8556 7.2720 -0.1360 -12.8930 0.0312
# 2 -10.8556 7.5202 23.6639 -0.2848 -3.9209 0.4959
# 3 7.2720 23.6639 151.7433 0.1203 -19.1280 -0.1323
# 4 -0.1360 -0.2848 0.1203 34.1679 -0.0277 -1.7760
# 5 -12.8930 -3.9209 -19.1280 -0.0277 63.1645 -0.0484
# 6 0.0312 0.4959 -0.1323 -1.7760 -0.0484 23.2710
#
#
#
# Elastic Compliance Matrix: (Units=1/GPa)
#
#
# Indices 1 2 3 4 5 6 
#
# 1 0.019777 0.063337 -0.010212 0.000575 0.004875 -0.001380
# 2 0.063337 0.465867 -0.073218 0.003885 0.019668 -0.010091
# 3 -0.010212 -0.073218 0.018365 -0.000632 -0.001067 0.001628
# 4 0.000575 0.003885 -0.000632 0.029416 0.000182 0.002158
# 5 0.004875 0.019668 -0.001067 0.000182 0.017724 -0.000381
# 6 -0.001380 -0.010091 0.001628 0.002158 -0.000381 0.043362
#
#
# Mechanical properties :
#
#
# Convention : Reuss Voigt Hill
#
# Bulk Modulus (GPa) = 2.15600 32.41039 17.28319
# Shear Modulus (GPa) = 6.33469 39.55085 22.94277
#
# Velocity S-wave (km/s) = 1.74953 4.37156 3.32952
# Velocity P-wave (km/s) = 2.26338 6.41413 4.80957
#
# Compressibility (1/GPa) = 0.46382242
#
# Stress axis : x y z
#
# Youngs Moduli (GPa) = 50.56407 2.14654 54.45128
#
# Poissons Ratio (x) = -0.13596 0.55607
# Poissons Ratio (y) = -3.20260 3.98683
# Poissons Ratio (z) = 0.51637 0.15717
#
# Static dielectric constant tensor:
#      x y z
#    x 1.727420 -0.000240 -0.011310 
#    y -0.000240 1.838310 0.000320 
#    z -0.011310 0.000320 1.760750 
# 
# From -- ./inp_files/320039.got.cif
#   From: 2010.05.17/outbox.ucp.g08.bks.cvg/sg15_161_cif.got.tgz:320039.got - 2010.06.11 12:40:34.
