data_PCOD9309166
_publ_section_title
;
Structure prediction by ZEFSAII (Michael W. Deem and Ramdas Pophale) SiO2 
 PCOD9309166
Probable space group: C 2/C
;
_chemical_formula_sum "Si O2"
_cell_formula_units_Z 22
_cell_length_a 12.000000
_cell_length_b 30.000000
_cell_length_c 18.000000
_cell_angle_alpha 90.000000
_cell_angle_beta 160.000000
_cell_angle_gamma 90.000000
_cell_volume 2216.290529
_symmetry_space_group_name_H-M "C 2/C"
_symmetry_group_IT_number 15
_symmetry_cell_setting 'monoclinic'
loop_
_space_group_symop_operation_xyz
x,y,z
-x,y,1/2-z
-x,-y,-z
x,-y,1/2+z
1/2+x,1/2+y,z
1/2-x,1/2+y,1/2-z
1/2-x,1/2-y,-z
1/2+x,1/2-y,1/2+z
loop_
_atom_site_type_symbol
_atom_site_label
_atom_site_fract_x
_atom_site_fract_y
_atom_site_fract_z
Si Si1 0.000000 0.863652 0.750000
Si Si2 0.720675 0.857893 0.817045
Si Si3 0.419270 0.563820 0.859552
Si Si4 0.021401 0.410567 0.973402
Si Si5 0.811623 0.499672 0.499117
Si Si6 0.195302 0.200162 0.505361
O O1 0.768845 0.893673 0.655984
O O2 0.822113 0.832256 0.577387
O O3 0.500000 0.842096 0.750000
O O4 0.500707 0.880311 0.614389
O O5 0.936729 0.899207 0.991271
O O6 0.912335 0.819038 0.887875
O O7 0.318667 0.588358 0.718757
O O8 0.084999 0.538782 0.678925
O O9 0.668494 0.524976 0.984380
O O10 0.003696 0.460595 0.930985
O O11 0.500000 0.511135 0.250000
O O12 0.500000 0.194682 0.750000
O O13 0.250000 0.250000 0.500000
#
# Coordination Sequence:
#
# PCOD9309166 Si02
#       6
#     4   8   8   8   8   8
#     4  10  22  38  70  98 130 172 220 274 342 406
#     4  11  24  45  67 100 137 179 226 281 347 413
#     4  11  23  41  61  94 139 186 240 285 333 382
#     4  10  21  38  65  90 130 183 229 280 330 386
#     4  10  21  38  63  90 134 189 241 285 325 378
#     4  11  23  46  74 103 134 167 215 283 348 430
#
# _framework density 9.9264960000000002
#
# number of rings (size 3 to 8) (size 9 to 14) (size 15 to 20)
#    0.000    1.455    2.727    3.273    3.818    0.727 
#    0.000    0.909    0.000    0.000    0.000    0.000 
#    0.000    0.000    0.000    0.000    0.000    0.000 
#
# Total GULP energy -122475.340173 kJ/mol
# GULP energy per Si atom -5567.060917 kJ/mol
# Density = 0.990390 g / cm^3
# Si number density = 9.926496 Si / 1000 Ang^3
#
#
#
# Elastic Constant Matrix: (Units=GPa)
#
#
# Indices 1 2 3 4 5 6 
#
# 1 145.7093 37.9981 35.3724 0.0037 4.4158 -0.0049
# 2 37.9981 99.6334 39.0816 -0.0028 14.9521 -0.0022
# 3 35.3724 39.0816 93.8351 0.0308 -0.8246 -0.0174
# 4 0.0037 -0.0028 0.0308 28.6349 0.0079 4.4177
# 5 4.4158 14.9521 -0.8246 0.0079 45.4797 -0.0049
# 6 -0.0049 -0.0022 -0.0174 4.4177 -0.0049 43.2501
#
#
#
# Elastic Compliance Matrix: (Units=1/GPa)
#
#
# Indices 1 2 3 4 5 6 
#
# 1 0.007944 -0.002202 -0.002078 0.000001 -0.000085 0.000000
# 2 -0.002202 0.013396 -0.004787 0.000008 -0.004277 -0.000003
# 3 -0.002078 -0.004787 0.013452 -0.000016 0.002019 0.000007
# 4 0.000001 0.000008 -0.000016 0.035482 -0.000010 -0.003624
# 5 -0.000085 -0.004277 0.002019 -0.000010 0.023439 0.000004
# 6 0.000000 -0.000003 0.000007 -0.003624 0.000004 0.023492
#
#
# Mechanical properties :
#
#
# Convention : Reuss Voigt Hill
#
# Bulk Modulus (GPa) = 60.03110 62.67579 61.35344
# Shear Modulus (GPa) = 35.48831 38.58797 37.03814
#
# Velocity S-wave (km/s) = 4.23254 4.41351 4.32397
# Velocity P-wave (km/s) = 7.36134 7.59016 7.47662
#
# Compressibility (1/GPa) = 0.01665803
#
# Stress axis : x y z
#
# Youngs Moduli (GPa) = 125.87654 74.64863 74.33840
#
# Poissons Ratio (x) = 0.16436 0.15451
# Poissons Ratio (y) = 0.27715 0.35586
# Poissons Ratio (z) = 0.26163 0.35734
#
# Static dielectric constant tensor:
#      x y z
#    x 1.746350 0.000000 0.053010 
#    y 0.000000 1.743770 -0.000010 
#    z 0.053010 -0.000010 1.779410 
# 
# From -- ./inp_files/201512.got.cif
#   From: 2010.05.17/outbox.ucp.g08.bks.cvg/sg15_101_cif.got.tgz:201512.got - 2010.06.11 12:40:34.
