data_PCOD9309418
_publ_section_title
;
Structure prediction by ZEFSAII (Michael W. Deem and Ramdas Pophale) SiO2 
 PCOD9309418
Probable space group: C 2/C
;
_chemical_formula_sum "Si O2"
_cell_formula_units_Z 26
_cell_length_a 9.000000
_cell_length_b 15.000000
_cell_length_c 21.000000
_cell_angle_alpha 90.000000
_cell_angle_beta 100.000000
_cell_angle_gamma 90.000000
_cell_volume 2791.929980
_symmetry_space_group_name_H-M "C 2/C"
_symmetry_group_IT_number 15
_symmetry_cell_setting 'monoclinic'
loop_
_space_group_symop_operation_xyz
x,y,z
-x,y,1/2-z
-x,-y,-z
x,-y,1/2+z
1/2+x,1/2+y,z
1/2-x,1/2+y,1/2-z
1/2-x,1/2-y,-z
1/2+x,1/2-y,1/2+z
loop_
_atom_site_type_symbol
_atom_site_label
_atom_site_fract_x
_atom_site_fract_y
_atom_site_fract_z
Si Si1 0.798245 0.462098 0.092003
Si Si2 0.683663 0.137889 0.776244
Si Si3 0.974668 0.070719 0.371843
Si Si4 0.030646 0.620704 0.147348
Si Si5 0.721447 0.174315 0.275866
Si Si6 0.500000 0.455923 0.250000
Si Si7 0.266727 0.154552 0.463428
O O1 0.801246 0.387268 0.147995
O O2 0.638705 0.514505 0.090453
O O3 0.932350 0.533344 0.119583
O O4 0.810216 0.416554 0.023144
O O5 0.500000 0.119478 0.750000
O O6 0.720771 0.238505 0.757060
O O7 0.834041 0.089683 0.754733
O O8 0.863094 0.136275 0.324889
O O9 0.108565 0.120340 0.419922
O O10 0.033816 0.008773 0.318350
O O11 0.909065 0.682775 0.178362
O O12 0.153099 0.610550 0.214426
O O13 0.114307 0.654982 0.088442
O O14 0.250000 0.250000 0.500000
#
# Coordination Sequence:
#
# PCOD9309418 Si02
#       7
#     8   8   8   8   8   4   8
#     4  10  24  43  63  95 130 174 222 264 329 405
#     4  11  25  39  69 100 135 165 218 279 333 394
#     4  10  23  41  65  90 129 177 213 271 332 392
#     4  10  22  41  69  91 129 170 217 273 323 393
#     4  10  22  42  65  97 128 164 217 273 338 377
#     4  10  22  42  64 100 128 172 220 274 336 386
#     4  12  25  41  64  93 132 176 222 268 331 397
#
# _framework density 9.3125540000000004
#
# number of rings (size 3 to 8) (size 9 to 14) (size 15 to 20)
#    0.000    1.538    0.000    3.692   14.000    1.231 
#    0.000    3.077    0.000    0.000    0.000    0.000 
#    0.000    0.000    0.000    0.000    0.000    0.000 
#
# Total GULP energy -144770.355019 kJ/mol
# GULP energy per Si atom -5568.090578 kJ/mol
# Density = 0.929136 g / cm^3
# Si number density = 9.312554 Si / 1000 Ang^3
#
#
#
# Elastic Constant Matrix: (Units=GPa)
#
#
# Indices 1 2 3 4 5 6 
#
# 1 145.6072 47.5565 68.6607 0.0000 -4.4888 0.0000
# 2 47.5565 84.5255 52.8418 0.0000 -0.1008 0.0000
# 3 68.6607 52.8418 158.2790 0.0000 -8.7827 0.0000
# 4 0.0000 0.0000 0.0000 42.7773 0.0000 -4.5373
# 5 -4.4888 -0.1008 -8.7827 0.0000 53.8989 0.0000
# 6 0.0000 0.0000 0.0000 -4.5373 0.0000 30.7714
#
#
#
# Elastic Compliance Matrix: (Units=1/GPa)
#
#
# Indices 1 2 3 4 5 6 
#
# 1 0.009373 -0.003465 -0.002892 0.000000 0.000303 0.000000
# 2 -0.003465 0.016266 -0.003978 0.000000 -0.000906 0.000000
# 3 -0.002892 -0.003978 0.008968 0.000000 0.001213 0.000000
# 4 0.000000 0.000000 0.000000 0.023748 0.000000 0.003502
# 5 0.000303 -0.000906 0.001213 0.000000 0.018774 0.000000
# 6 0.000000 0.000000 0.000000 0.003502 0.000000 0.033014
#
#
# Mechanical properties :
#
#
# Convention : Reuss Voigt Hill
#
# Bulk Modulus (GPa) = 71.75254 80.72554 76.23904
# Shear Modulus (GPa) = 36.91183 40.11304 38.51243
#
# Velocity S-wave (km/s) = 4.45661 4.64584 4.55221
# Velocity P-wave (km/s) = 8.06784 8.49793 8.28568
#
# Compressibility (1/GPa) = 0.01393679
#
# Stress axis : x y z
#
# Youngs Moduli (GPa) = 106.69404 61.47897 111.50957
#
# Poissons Ratio (x) = 0.21301 0.32251
# Poissons Ratio (y) = 0.36968 0.44354
# Poissons Ratio (z) = 0.30858 0.24454
#
# Static dielectric constant tensor:
#      x y z
#    x 1.693180 0.000000 -0.000510 
#    y 0.000000 1.707860 0.000000 
#    z -0.000510 0.000000 1.618460 
# 
# From -- ./inp_files/231302.got.cif
#   From: 2010.05.17/outbox.ucp.g08.bks.cvg/sg15_116_cif.got.tgz:231302.got - 2010.06.11 12:40:34.
