data_PCOD9309692
_publ_section_title
;
Structure prediction by ZEFSAII (Michael W. Deem and Ramdas Pophale) SiO2 
 PCOD9309692
Probable space group: C 2/C
;
_chemical_formula_sum "Si O2"
_cell_formula_units_Z 30
_cell_length_a 27.000000
_cell_length_b 15.000000
_cell_length_c 21.000000
_cell_angle_alpha 90.000000
_cell_angle_beta 160.000000
_cell_angle_gamma 90.000000
_cell_volume 2908.881319
_symmetry_space_group_name_H-M "C 2/C"
_symmetry_group_IT_number 15
_symmetry_cell_setting 'monoclinic'
loop_
_space_group_symop_operation_xyz
x,y,z
-x,y,1/2-z
-x,-y,-z
x,-y,1/2+z
1/2+x,1/2+y,z
1/2-x,1/2+y,1/2-z
1/2-x,1/2-y,-z
1/2+x,1/2-y,1/2+z
loop_
_atom_site_type_symbol
_atom_site_label
_atom_site_fract_x
_atom_site_fract_y
_atom_site_fract_z
Si Si1 0.089988 0.207236 0.472510
Si Si2 0.000000 0.658508 0.750000
Si Si3 0.733987 0.017026 0.182135
Si Si4 0.841981 0.674182 0.077481
Si Si5 0.160060 0.007170 0.548206
Si Si6 0.420167 0.613943 0.823178
Si Si7 0.618093 0.292798 0.658050
Si Si8 0.096889 0.493292 0.270888
O O1 0.067781 0.273469 0.385018
O O2 0.255331 0.220580 0.696558
O O3 0.975160 0.225385 0.390695
O O4 0.079985 0.102474 0.444992
O O5 0.904367 0.589685 0.679022
O O6 0.748399 0.002361 0.275403
O O7 0.790342 0.115066 0.230477
O O8 0.857445 0.954372 0.300021
O O9 0.567616 0.006233 0.957231
O O10 0.876972 0.585077 0.159746
O O11 0.000000 0.710358 0.250000
O O12 0.750000 0.750000 0.000000
O O13 0.730429 0.646054 0.888135
O O14 0.030468 0.934040 0.405806
O O15 0.276062 0.006178 0.629711
O O16 0.508653 0.691248 0.966957
#
# Coordination Sequence:
#
# PCOD9309692 Si02
#       8
#     8   4   8   8   8   8   8   8
#     4  12  25  43  68 109 149 189 253 292 352 439
#     4  12  26  46  70 104 156 212 226 292 376 440
#     4  11  20  49  74  98 138 198 237 292 376 420
#     4  12  29  49  75 103 139 182 244 307 370 440
#     4  11  25  42  75 112 140 192 247 300 350 445
#     4  11  23  49  77  98 143 193 236 301 383 421
#     4  11  24  43  70 103 146 186 246 302 355 428
#     4  12  25  48  72 104 149 192 239 297 375 445
#
# _framework density 10.313243
#
# number of rings (size 3 to 8) (size 9 to 14) (size 15 to 20)
#    0.000    0.533    6.000    2.000    1.867    5.333 
#    2.400    0.000    0.000    0.000    0.000    0.000 
#    0.000    0.000    0.000    0.000    0.000    0.000 
#
# Total GULP energy -167481.493520 kJ/mol
# GULP energy per Si atom -5582.716451 kJ/mol
# Density = 1.028977 g / cm^3
# Si number density = 10.313243 Si / 1000 Ang^3
#
#
#
# Elastic Constant Matrix: (Units=GPa)
#
#
# Indices 1 2 3 4 5 6 
#
# 1 144.1246 29.1619 44.5472 -0.0010 26.6929 -0.0003
# 2 29.1619 62.7799 26.0641 -0.0022 -5.5140 -0.0014
# 3 44.5472 26.0641 145.7522 -0.0017 11.3747 -0.0015
# 4 -0.0010 -0.0022 -0.0017 27.2361 -0.0013 3.3469
# 5 26.6929 -5.5140 11.3747 -0.0013 44.2552 -0.0007
# 6 -0.0003 -0.0014 -0.0015 3.3469 -0.0007 37.0345
#
#
#
# Elastic Compliance Matrix: (Units=1/GPa)
#
#
# Indices 1 2 3 4 5 6 
#
# 1 0.009357 -0.004157 -0.001669 0.000000 -0.005733 0.000000
# 2 -0.004157 0.019451 -0.002646 0.000001 0.005611 0.000001
# 3 -0.001669 -0.002646 0.007951 0.000000 -0.001366 0.000000
# 4 0.000000 0.000001 0.000000 0.037128 0.000001 -0.003355
# 5 -0.005733 0.005611 -0.001366 0.000001 0.027104 0.000000
# 6 0.000000 0.000001 0.000000 -0.003355 0.000000 0.027305
#
#
# Mechanical properties :
#
#
# Convention : Reuss Voigt Hill
#
# Bulk Modulus (GPa) = 50.46613 61.35593 55.91103
# Shear Modulus (GPa) = 32.92822 38.56408 35.74615
#
# Velocity S-wave (km/s) = 3.99984 4.32862 4.16747
# Velocity P-wave (km/s) = 6.77137 7.40226 7.09383
#
# Compressibility (1/GPa) = 0.01981527
#
# Stress axis : x y z
#
# Youngs Moduli (GPa) = 106.86891 51.41160 125.77276
#
# Poissons Ratio (x) = 0.21372 0.20993
# Poissons Ratio (y) = 0.44426 0.33275
# Poissons Ratio (z) = 0.17838 0.13602
#
# Static dielectric constant tensor:
#      x y z
#    x 1.830680 0.000000 -0.070480 
#    y 0.000000 2.316540 0.000000 
#    z -0.070480 0.000000 1.791830 
# 
# From -- ./inp_files/257902.got.cif
#   From: 2010.05.17/outbox.ucp.g08.bks.cvg/sg15_129_cif.got.tgz:257902.got - 2010.06.11 12:40:34.
