data_PCOD9309515
_publ_section_title
;
Structure prediction by ZEFSAII (Michael W. Deem and Ramdas Pophale) SiO2 
 PCOD9309515
Probable space group: C 2/C
;
_chemical_formula_sum "Si O2"
_cell_formula_units_Z 28
_cell_length_a 24.000000
_cell_length_b 15.000000
_cell_length_c 9.000000
_cell_angle_alpha 90.000000
_cell_angle_beta 120.000000
_cell_angle_gamma 90.000000
_cell_volume 2805.922308
_symmetry_space_group_name_H-M "C 2/C"
_symmetry_group_IT_number 15
_symmetry_cell_setting 'monoclinic'
loop_
_space_group_symop_operation_xyz
x,y,z
-x,y,1/2-z
-x,-y,-z
x,-y,1/2+z
1/2+x,1/2+y,z
1/2-x,1/2+y,1/2-z
1/2-x,1/2-y,-z
1/2+x,1/2-y,1/2+z
loop_
_atom_site_type_symbol
_atom_site_label
_atom_site_fract_x
_atom_site_fract_y
_atom_site_fract_z
Si Si1 0.827231 0.603769 0.308074
Si Si2 0.321068 0.252535 0.519619
Si Si3 0.243076 0.469218 0.057620
Si Si4 0.547347 0.741106 0.168100
Si Si5 0.665217 0.556705 0.562568
Si Si6 0.978331 0.588970 0.549140
Si Si7 0.541545 0.432889 0.454756
O O1 0.810639 0.699134 0.354371
O O2 0.795508 0.533385 0.381716
O O3 0.902801 0.594526 0.424829
O O4 0.802665 0.589581 0.107879
O O5 0.250000 0.250000 0.500000
O O6 0.382031 0.217007 0.696257
O O7 0.352823 0.347812 0.524539
O O8 0.296734 0.425510 0.233996
O O9 0.283810 0.523018 0.990456
O O10 0.500000 0.722168 0.250000
O O11 0.510455 0.820313 0.033739
O O12 0.553802 0.654940 0.071050
O O13 0.607884 0.485809 0.505398
O O14 0.000000 0.584651 0.750000
O O15 0.000000 0.500000 0.500000
O O16 0.500000 0.414345 0.250000
O O17 0.500000 0.500000 0.500000
#
# Coordination Sequence:
#
# PCOD9309515 Si02
#       7
#     8   8   8   8   8   8   8
#     4  11  22  41  67  95 128 170 214 272 329 396
#     4  12  23  40  68  97 130 174 223 272 337 400
#     4  10  23  40  65  96 128 167 219 267 333 403
#     4  11  24  44  67  99 133 174 224 274 337 406
#     4  11  23  42  64  95 131 173 216 273 339 395
#     4  11  23  42  68  95 129 175 216 270 332 392
#     4  12  25  42  68  94 131 176 223 277 333 398
#
# _framework density 9.9788940000000004
#
# number of rings (size 3 to 8) (size 9 to 14) (size 15 to 20)
#    0.000    0.857    4.286    4.714    2.000    1.143 
#    0.000    1.429    0.000    0.000    0.000    0.000 
#    0.000    0.000    0.000    0.000    0.000    0.000 
#
# Total GULP energy -156150.429430 kJ/mol
# GULP energy per Si atom -5576.801051 kJ/mol
# Density = 0.995618 g / cm^3
# Si number density = 9.978894 Si / 1000 Ang^3
#
#
#
# Elastic Constant Matrix: (Units=GPa)
#
#
# Indices 1 2 3 4 5 6 
#
# 1 99.9952 32.2927 31.9950 0.0000 22.7877 0.0000
# 2 32.2927 97.9483 14.4740 0.0000 -1.7250 0.0000
# 3 31.9950 14.4740 127.3459 0.0000 10.2021 0.0000
# 4 0.0000 0.0000 0.0000 65.5124 0.0000 1.5896
# 5 22.7877 -1.7250 10.2021 0.0000 32.6134 0.0000
# 6 0.0000 0.0000 0.0000 1.5896 0.0000 36.2516
#
#
#
# Elastic Compliance Matrix: (Units=1/GPa)
#
#
# Indices 1 2 3 4 5 6 
#
# 1 0.014407 -0.004574 -0.002332 0.000000 -0.009579 0.000000
# 2 -0.004574 0.011864 -0.000519 0.000000 0.003986 0.000000
# 3 -0.002332 -0.000519 0.008584 0.000000 -0.001083 0.000000
# 4 0.000000 0.000000 0.000000 0.015281 0.000000 -0.000670
# 5 -0.009579 0.003986 -0.001083 0.000000 0.037905 0.000000
# 6 0.000000 0.000000 0.000000 -0.000670 0.000000 0.027614
#
#
# Mechanical properties :
#
#
# Convention : Reuss Voigt Hill
#
# Bulk Modulus (GPa) = 49.98592 53.64589 51.81590
# Shear Modulus (GPa) = 36.45033 43.31066 39.88049
#
# Velocity S-wave (km/s) = 4.27824 4.66350 4.47502
# Velocity P-wave (km/s) = 7.03596 7.47902 7.26087
#
# Compressibility (1/GPa) = 0.02000563
#
# Stress axis : x y z
#
# Youngs Moduli (GPa) = 69.41227 84.28683 116.49110
#
# Poissons Ratio (x) = 0.38551 0.27170
# Poissons Ratio (y) = 0.31748 0.06042
# Poissons Ratio (z) = 0.16190 0.04371
#
# Static dielectric constant tensor:
#      x y z
#    x 1.668620 0.000000 -0.022530 
#    y 0.000000 1.747800 0.000000 
#    z -0.022530 0.000000 1.631860 
# 
# From -- ./inp_files/61996.got.cif
#   From: 2010.05.17/outbox.ucp.g08.bks.cvg/sg15_31_cif.got.tgz:61996.got - 2010.06.11 12:40:34.
