data_PCOD9309381
_publ_section_title
;
Structure prediction by ZEFSAII (Michael W. Deem and Ramdas Pophale) SiO2 
 PCOD9309381
Probable space group: C 2/C
;
_chemical_formula_sum "Si O2"
_cell_formula_units_Z 32
_cell_length_a 18.000000
_cell_length_b 24.000000
_cell_length_c 21.000000
_cell_angle_alpha 90.000000
_cell_angle_beta 20.000000
_cell_angle_gamma 90.000000
_cell_volume 3102.806740
_symmetry_space_group_name_H-M "C 2/C"
_symmetry_group_IT_number 15
_symmetry_cell_setting 'monoclinic'
loop_
_space_group_symop_operation_xyz
x,y,z
-x,y,1/2-z
-x,-y,-z
x,-y,1/2+z
1/2+x,1/2+y,z
1/2-x,1/2+y,1/2-z
1/2-x,1/2-y,-z
1/2+x,1/2-y,1/2+z
loop_
_atom_site_type_symbol
_atom_site_label
_atom_site_fract_x
_atom_site_fract_y
_atom_site_fract_z
Si Si1 0.519027 0.308103 0.569250
Si Si2 0.239105 0.886972 0.077232
Si Si3 0.882640 0.499313 0.162407
Si Si4 0.944291 0.323060 0.146741
Si Si5 0.164812 0.103790 0.787291
Si Si6 0.297300 0.623827 0.459079
Si Si7 0.224532 0.373971 0.713178
Si Si8 0.247482 0.493307 0.973422
O O1 0.714163 0.321698 0.365765
O O2 0.504297 0.241243 0.585673
O O3 0.605254 0.336266 0.564957
O O4 0.309745 0.336879 0.704627
O O5 0.193547 0.905092 0.188074
O O6 0.000000 0.862141 0.250000
O O7 0.283246 0.939903 0.994033
O O8 0.478586 0.857444 0.887946
O O9 0.697269 0.453152 0.301435
O O10 0.802079 0.561143 0.244663
O O11 0.000000 0.500000 0.000000
O O12 0.064994 0.480771 0.066846
O O13 0.874448 0.358925 0.141002
O O14 0.111865 0.349043 0.063347
O O15 0.924494 0.127170 0.000316
O O16 0.500000 0.616270 0.250000
O O17 0.233048 0.560426 0.531955
O O18 0.500000 0.493875 0.750000
#
# Coordination Sequence:
#
# PCOD9309381 Si02
#       8
#     8   8   8   8   8   8   8   8
#     4  11  25  40  61  89 125 167 214 265 302 380
#     4  10  22  40  66  91 122 160 204 260 330 385
#     4  11  19  35  60  85 124 162 213 259 309 378
#     4  11  24  41  60  90 123 170 216 258 316 358
#     4  11  22  39  63  91 125 160 209 266 313 384
#     4  11  22  34  60  84 127 169 210 253 301 360
#     4  10  24  38  61  94 119 165 209 258 327 376
#     4   9  19  32  55  86 116 163 210 242 306 371
#
# _framework density 10.313243
#
# number of rings (size 3 to 8) (size 9 to 14) (size 15 to 20)
#    0.000    1.500    3.750    1.875    7.000    0.500 
#    0.000    0.000    8.250    0.750    0.000    0.000 
#    0.000    0.000    0.000    0.000    0.000    0.000 
#
# Total GULP energy -178135.105236 kJ/mol
# GULP energy per Si atom -5566.722039 kJ/mol
# Density = 1.028977 g / cm^3
# Si number density = 10.313243 Si / 1000 Ang^3
#
#
#
# Elastic Constant Matrix: (Units=GPa)
#
#
# Indices 1 2 3 4 5 6 
#
# 1 59.2949 21.2289 10.2051 0.0121 -31.5010 -0.0250
# 2 21.2289 85.1208 -5.4528 -0.0319 -14.2971 -0.0176
# 3 10.2051 -5.4528 106.5917 -0.1293 -29.7135 0.0394
# 4 0.0121 -0.0319 -0.1293 20.7583 -0.0573 -14.5563
# 5 -31.5010 -14.2971 -29.7135 -0.0573 46.5093 0.0341
# 6 -0.0250 -0.0176 0.0394 -14.5563 0.0341 25.5944
#
#
#
# Elastic Compliance Matrix: (Units=1/GPa)
#
#
# Indices 1 2 3 4 5 6 
#
# 1 0.028101 -0.003551 0.002591 0.000074 0.019597 0.000037
# 2 -0.003551 0.013221 0.001799 0.000068 0.002809 0.000038
# 3 0.002591 0.001799 0.012008 0.000140 0.009979 0.000051
# 4 0.000074 0.000068 0.000140 0.080132 0.000226 0.045573
# 5 0.019597 0.002809 0.009979 0.000226 0.042013 0.000078
# 6 0.000037 0.000038 0.000051 0.045573 0.000078 0.064990
#
#
# Mechanical properties :
#
#
# Convention : Reuss Voigt Hill
#
# Bulk Modulus (GPa) = 18.17919 33.66331 25.92125
# Shear Modulus (GPa) = 19.44600 33.57416 26.51008
#
# Velocity S-wave (km/s) = 3.07378 4.03888 3.58892
# Velocity P-wave (km/s) = 4.62927 6.17300 5.45601
#
# Compressibility (1/GPa) = 0.05500796
#
# Stress axis : x y z
#
# Youngs Moduli (GPa) = 35.58559 75.63953 83.28075
#
# Poissons Ratio (x) = 0.26858 -0.21577
# Poissons Ratio (y) = 0.12636 -0.14984
# Poissons Ratio (z) = -0.09220 -0.13610
#
# Static dielectric constant tensor:
#      x y z
#    x -11.123290 -0.038900 1.859560 
#    y -0.038900 1.645500 0.005690 
#    z 1.859560 0.005690 1.510090 
# 
# From -- ./inp_files/250271.got.cif
#   From: 2010.05.17/outbox.ucp.g08.bks.cvg/sg15_126_cif.got.tgz:250271.got - 2010.06.11 12:40:34.
