data_PCOD9309834
_publ_section_title
;
Structure prediction by ZEFSAII (Michael W. Deem and Ramdas Pophale) SiO2 
 PCOD9309834
Probable space group: C 2/C
;
_chemical_formula_sum "Si O2"
_cell_formula_units_Z 24
_cell_length_a 9.000000
_cell_length_b 15.000000
_cell_length_c 27.000000
_cell_angle_alpha 90.000000
_cell_angle_beta 40.000000
_cell_angle_gamma 90.000000
_cell_volume 2342.960837
_symmetry_space_group_name_H-M "C 2/C"
_symmetry_group_IT_number 15
_symmetry_cell_setting 'monoclinic'
loop_
_space_group_symop_operation_xyz
x,y,z
-x,y,1/2-z
-x,-y,-z
x,-y,1/2+z
1/2+x,1/2+y,z
1/2-x,1/2+y,1/2-z
1/2-x,1/2-y,-z
1/2+x,1/2-y,1/2+z
loop_
_atom_site_type_symbol
_atom_site_label
_atom_site_fract_x
_atom_site_fract_y
_atom_site_fract_z
Si Si1 0.546196 0.991194 0.913829
Si Si2 0.745631 0.130417 0.801359
Si Si3 0.766115 0.314762 0.842802
Si Si4 0.403670 0.527922 0.409566
Si Si5 0.570425 0.207371 0.084404
Si Si6 0.264094 0.362998 0.183584
O O1 0.777909 0.988731 0.888528
O O2 0.490857 0.890157 0.917389
O O3 0.582377 0.048384 0.855114
O O4 0.323419 0.032298 0.998094
O O5 0.677147 0.216557 0.850303
O O6 0.780359 0.159345 0.737002
O O7 0.000000 0.099348 0.750000
O O8 0.574456 0.388706 0.876562
O O9 0.831021 0.305446 0.884592
O O10 0.000000 0.330169 0.750000
O O11 0.561817 0.440442 0.377229
O O12 0.345969 0.271463 0.138107
O O13 0.750000 0.250000 0.000000
O O14 0.000000 0.393115 0.250000
#
# Coordination Sequence:
#
# PCOD9309834 Si02
#       6
#     8   8   8   8   8   8
#     4  11  26  43  72  98 139 183 233 285 348 413
#     4  11  23  46  68  98 139 182 230 285 345 412
#     4  11  25  45  71  99 143 178 232 290 344 412
#     4  11  25  46  67 102 138 186 230 285 350 413
#     4  12  26  47  70 102 142 181 228 291 347 415
#     4  12  26  45  71 102 143 182 233 286 347 415
#
# _framework density 10.243449
#
# number of rings (size 3 to 8) (size 9 to 14) (size 15 to 20)
#    0.000    0.667    6.667    0.500    9.333    3.333 
#    0.000    0.000    0.000    0.000    0.000    0.000 
#    0.000    0.000    0.000    0.000    0.000    0.000 
#
# Total GULP energy -133772.198148 kJ/mol
# GULP energy per Si atom -5573.841590 kJ/mol
# Density = 1.022013 g / cm^3
# Si number density = 10.243449 Si / 1000 Ang^3
#
#
#
# Elastic Constant Matrix: (Units=GPa)
#
#
# Indices 1 2 3 4 5 6 
#
# 1 34.2353 -6.4307 34.1827 -0.0011 -17.0912 0.0013
# 2 -6.4307 120.5125 50.9937 -0.0001 -20.8844 -0.0005
# 3 34.1827 50.9937 61.8236 0.0025 -0.3745 -0.0009
# 4 -0.0011 -0.0001 0.0025 44.0792 -0.0005 -7.5348
# 5 -17.0912 -20.8844 -0.3745 -0.0005 29.0978 -0.0017
# 6 0.0013 -0.0005 -0.0009 -7.5348 -0.0017 28.4583
#
#
#
# Elastic Compliance Matrix: (Units=1/GPa)
#
#
# Indices 1 2 3 4 5 6 
#
# 1 -0.035217 -0.025663 0.040406 -0.000004 -0.038585 -0.000001
# 2 -0.025663 -0.003052 0.016603 -0.000002 -0.017051 0.000000
# 3 0.040406 0.016603 -0.019646 0.000003 0.035397 0.000001
# 4 -0.000004 -0.000002 0.000003 0.023762 -0.000003 0.006291
# 5 -0.038585 -0.017051 0.035397 -0.000003 -0.000079 0.000002
# 6 -0.000001 0.000000 0.000001 0.006291 0.000002 0.036805
#
#
# Mechanical properties :
#
#
# Convention : Reuss Voigt Hill
#
# Bulk Modulus (GPa) = 209.35128 41.56255 125.45691
# Shear Modulus (GPa) = -85.42990 29.51543 -27.95723
#
# Velocity S-wave (km/s) = -6.46454 3.79977 -3.69811
# Velocity P-wave (km/s) = 6.83296 6.29146 6.56779
#
# Compressibility (1/GPa) = 0.00477666
#
# Stress axis : x y z
#
# Youngs Moduli (GPa) = -28.39505 -327.66628 -50.90067
#
# Poissons Ratio (x) = -8.40898 2.05669
# Poissons Ratio (y) = -0.72871 0.84512
# Poissons Ratio (z) = 1.14733 5.44036
#
# Static dielectric constant tensor:
#      x y z
#    x 1.831640 0.000000 0.010450 
#    y 0.000000 1.709420 0.000000 
#    z 0.010450 0.000000 1.717050 
# 
# From -- ./inp_files/289022.got.cif
#   From: 2010.05.17/outbox.ucp.g08.bks.cvg/sg15_145_cif.got.tgz:289022.got - 2010.06.11 12:40:34.
