data_PCOD9309902
_publ_section_title
;
Structure prediction by ZEFSAII (Michael W. Deem and Ramdas Pophale) SiO2 
 PCOD9309902
Probable space group: C 2/C
;
_chemical_formula_sum "Si O2"
_cell_formula_units_Z 32
_cell_length_a 15.000000
_cell_length_b 21.000000
_cell_length_c 30.000000
_cell_angle_alpha 90.000000
_cell_angle_beta 160.000000
_cell_angle_gamma 90.000000
_cell_volume 3232.090354
_symmetry_space_group_name_H-M "C 2/C"
_symmetry_group_IT_number 15
_symmetry_cell_setting 'monoclinic'
loop_
_space_group_symop_operation_xyz
x,y,z
-x,y,1/2-z
-x,-y,-z
x,-y,1/2+z
1/2+x,1/2+y,z
1/2-x,1/2+y,1/2-z
1/2-x,1/2-y,-z
1/2+x,1/2-y,1/2+z
loop_
_atom_site_type_symbol
_atom_site_label
_atom_site_fract_x
_atom_site_fract_y
_atom_site_fract_z
Si Si1 0.626837 0.834993 0.205032
Si Si2 0.810090 0.441420 0.900533
Si Si3 0.317778 0.821861 0.966379
Si Si4 0.495394 0.068045 0.393316
Si Si5 0.579163 0.682147 0.494016
Si Si6 0.771211 0.194615 0.256260
Si Si7 0.814092 0.950346 0.886484
Si Si8 0.599449 0.472688 0.163818
O O1 0.796810 0.769091 0.286263
O O2 0.780323 0.901294 0.283376
O O3 0.485385 0.830006 0.090357
O O4 0.380400 0.834316 0.123376
O O5 0.500000 0.456939 0.750000
O O6 0.841250 0.386896 0.951415
O O7 0.936029 0.412555 0.915532
O O8 0.000000 0.500000 0.000000
O O9 0.012975 0.816982 0.836214
O O10 0.402528 0.756160 0.981059
O O11 0.432894 0.135593 0.339358
O O12 0.787033 0.038917 0.523831
O O13 0.277105 0.012496 0.282393
O O14 0.412476 0.690347 0.370487
O O15 0.438703 0.620946 0.450811
O O16 0.500000 0.950814 0.750000
O O17 0.852172 0.979840 0.855119
O O18 0.000000 0.000000 0.000000
#
# Coordination Sequence:
#
# PCOD9309902 Si02
#       8
#     8   8   8   8   8   8   8   8
#     4   9  19  38  66  93 121 167 219 259 313 389
#     4  12  24  39  60  92 132 168 212 267 315 369
#     4   9  19  39  63  93 124 171 213 258 316 380
#     4  12  24  39  64  93 125 172 212 261 317 379
#     4   9  18  39  67  88 122 169 210 252 320 400
#     4   9  18  37  65  89 120 166 216 252 310 382
#     4  12  25  42  63  95 125 161 207 267 330 386
#     4  12  25  42  65  92 125 164 211 265 323 388
#
# _framework density 9.9007129999999997
#
# number of rings (size 3 to 8) (size 9 to 14) (size 15 to 20)
#    0.000    1.500    2.500    5.250    1.750    0.500 
#    2.250    3.750    0.000    0.000    0.000    0.000 
#    0.000    0.000    0.000    0.000    0.000    0.000 
#
# Total GULP energy -178220.258419 kJ/mol
# GULP energy per Si atom -5569.383076 kJ/mol
# Density = 0.987818 g / cm^3
# Si number density = 9.900713 Si / 1000 Ang^3
#
#
#
# Elastic Constant Matrix: (Units=GPa)
#
#
# Indices 1 2 3 4 5 6 
#
# 1 37.1435 11.9060 16.4889 0.0134 16.6493 -0.0022
# 2 11.9060 171.8360 51.8987 -0.0046 14.5807 -0.0107
# 3 16.4889 51.8987 105.5604 0.0081 31.0563 -0.0320
# 4 0.0134 -0.0046 0.0081 41.4620 -0.0247 5.8147
# 5 16.6493 14.5807 31.0563 -0.0247 26.5223 0.0095
# 6 -0.0022 -0.0107 -0.0320 5.8147 0.0095 35.7416
#
#
#
# Elastic Compliance Matrix: (Units=1/GPa)
#
#
# Indices 1 2 3 4 5 6 
#
# 1 0.037826 -0.001103 0.002199 -0.000030 -0.025713 0.000016
# 2 -0.001103 0.006868 -0.003504 0.000003 0.001020 -0.000002
# 3 0.002199 -0.003504 0.016311 -0.000018 -0.018553 0.000022
# 4 -0.000030 0.000003 -0.000018 0.024682 0.000063 -0.004015
# 5 -0.025713 0.001020 -0.018553 0.000063 0.075009 -0.000048
# 6 0.000016 -0.000002 0.000022 -0.004015 -0.000048 0.028632
#
#
# Mechanical properties :
#
#
# Convention : Reuss Voigt Hill
#
# Bulk Modulus (GPa) = 17.79761 52.79192 35.29476
# Shear Modulus (GPa) = 23.48801 36.36162 29.92481
#
# Velocity S-wave (km/s) = 3.44783 4.28987 3.89169
# Velocity P-wave (km/s) = 4.98574 7.15932 6.16901
#
# Compressibility (1/GPa) = 0.05618733
#
# Stress axis : x y z
#
# Youngs Moduli (GPa) = 26.43690 145.60761 61.30759
#
# Poissons Ratio (x) = 0.16062 -0.13480
# Poissons Ratio (y) = 0.02916 0.21485
# Poissons Ratio (z) = -0.05813 0.51027
#
# Static dielectric constant tensor:
#      x y z
#    x 1.821790 -0.000010 -0.081670 
#    y -0.000010 1.786550 -0.000060 
#    z -0.081670 -0.000060 1.753560 
# 
# From -- ./inp_files/314539.got.cif
#   From: 2010.05.17/outbox.ucp.g08.bks.cvg/sg15_158_cif.got.tgz:314539.got - 2010.06.11 12:40:34.
