data_PCOD9309962
_publ_section_title
;
Structure prediction by ZEFSAII (Michael W. Deem and Ramdas Pophale) SiO2 
 PCOD9309962
Probable space group: P 2 2 2
;
_chemical_formula_sum "Si O2"
_cell_formula_units_Z 32
_cell_length_a 17.151121
_cell_length_b 6.910623
_cell_length_c 12.843301
_cell_angle_alpha 90.000000
_cell_angle_beta 90.000000
_cell_angle_gamma 90.000000
_cell_volume 1522.251368
_symmetry_space_group_name_H-M "P 2 2 2"
_symmetry_group_IT_number 16
_symmetry_cell_setting 'orthorhombic'
loop_
_space_group_symop_operation_xyz
x,y,z
-x,-y,z
x,-y,-z
-x,y,-z
loop_
_atom_site_type_symbol
_atom_site_label
_atom_site_fract_x
_atom_site_fract_y
_atom_site_fract_z
Si Si1 0.583586 0.500003 0.296196
Si Si2 0.373190 0.778051 0.884702
Si Si3 0.800477 0.250919 0.802504
Si Si4 0.753990 0.499999 0.619643
Si Si5 0.907555 1.000000 0.875164
Si Si6 0.088577 0.500000 0.124648
Si Si7 0.626811 0.221954 0.115296
Si Si8 0.800477 0.749079 0.802505
O O1 0.500000 0.500000 0.349969
O O2 0.590441 0.675133 0.214279
O O3 0.660455 0.500004 0.366332
O O4 0.590445 0.324878 0.214277
O O5 0.279752 0.762462 0.867835
O O6 0.395165 0.000003 0.882266
O O7 0.392947 0.704714 0.999998
O O8 0.784892 0.309003 0.681480
O O9 0.821569 0.999999 0.801577
O O10 0.892433 0.247690 0.852700
O O11 0.776892 0.500000 0.500000
O O12 0.784890 0.690996 0.681481
O O13 0.892433 0.752309 0.852700
O O14 0.000000 0.000000 0.854143
O O15 0.890428 0.000000 0.000000
O O16 0.181385 0.499999 0.168244
O O17 0.000000 0.500000 0.168466
O O18 0.086300 0.500000 0.000000
O O19 0.720250 0.237540 0.132160
#
# Coordination Sequence:
#
# PCOD9309962 Si02
#       8
#     4   4   4   4   4   4   4   4
#     4  10  22  37  56  84 113 139 181 236 291 351
#     4  10  19  32  53  80 115 157 190 219 269 341
#     4  10  19  32  52  75 107 143 188 235 271 326
#     4   9  21  41  62  78  94 136 195 242 292 329
#     4  11  20  30  51  85 122 153 177 213 273 339
#     4  10  18  27  43  72 109 146 180 220 274 329
#     4  10  19  32  53  80 115 157 190 219 269 341
#     4  10  19  32  52  75 107 143 188 235 271 326
#
# _framework density 21.021495000000002
#
# number of rings (size 3 to 8) (size 9 to 14) (size 15 to 20)
#    0.000    2.000    1.250    4.125    0.000    3.750 
#    0.000    1.875    0.000   14.250    0.000    3.500 
#    0.000    0.000    0.000    0.000    0.000    0.000 
#
# Total GULP energy -178195.365324 kJ/mol
# GULP energy per Si atom -5568.605166 kJ/mol
# Density = 2.097365 g / cm^3
# Si number density = 21.021495 Si / 1000 Ang^3
#
#
#
# Elastic Constant Matrix: (Units=GPa)
#
#
# Indices 1 2 3 4 5 6 
#
# 1 117.1380 43.9533 21.9774 0.0000 0.0000 0.0000
# 2 43.9533 163.0926 10.5584 0.0000 0.0000 0.0000
# 3 21.9774 10.5584 79.0137 0.0000 0.0000 0.0000
# 4 0.0000 0.0000 0.0000 24.6145 0.0000 0.0000
# 5 0.0000 0.0000 0.0000 0.0000 -16.4543 0.0000
# 6 0.0000 0.0000 0.0000 0.0000 0.0000 -0.6362
#
#
#
# Elastic Compliance Matrix: (Units=1/GPa)
#
#
# Indices 1 2 3 4 5 6 
#
# 1 0.009938 -0.002521 -0.002427 0.000000 0.000000 0.000000
# 2 -0.002521 0.006825 -0.000211 0.000000 0.000000 0.000000
# 3 -0.002427 -0.000211 0.013359 0.000000 0.000000 0.000000
# 4 0.000000 0.000000 0.000000 0.040626 0.000000 0.000000
# 5 0.000000 0.000000 0.000000 0.000000 -0.060774 0.000000
# 6 0.000000 0.000000 0.000000 0.000000 0.000000 -1.571883
#
#
# Mechanical properties :
#
#
# Convention : Reuss Voigt Hill
#
# Bulk Modulus (GPa) = 50.49570 56.91362 53.70466
# Shear Modulus (GPa) = -3.23627 20.35515 8.55944
#
# Velocity S-wave (km/s) = -1.24211 3.11513 2.02005
# Velocity P-wave (km/s) = 4.69212 6.33021 5.57169
#
# Compressibility (1/GPa) = 0.01980367
#
# Stress axis : x y z
#
# Youngs Moduli (GPa) = 100.61972 146.52876 74.85389
#
# Poissons Ratio (x) = 0.36943 0.18170
# Poissons Ratio (y) = 0.25369 0.01577
# Poissons Ratio (z) = 0.24425 0.03087
#
# Static dielectric constant tensor:
#      x y z
#    x 1.762750 0.000000 0.000000 
#    y 0.000000 2.141540 0.000000 
#    z 0.000000 0.000000 1.634280 
# 
# From -- ./inp_files/7275.got.cif
#   From: 2010.05.17/outbox.cif.g08.bks.cpg/sg16_4_cif.got.tgz:7275.got - 2010.06.03 22:28:35.
