data_PCOD9309984
_publ_section_title
;
Structure prediction by ZEFSAII (Michael W. Deem and Ramdas Pophale) SiO2 
 PCOD9309984
Probable space group: P 2 2 2
;
_chemical_formula_sum "Si O2"
_cell_formula_units_Z 22
_cell_length_a 9.243856
_cell_length_b 8.043122
_cell_length_c 14.657154
_cell_angle_alpha 90.000000
_cell_angle_beta 90.000000
_cell_angle_gamma 90.000000
_cell_volume 1089.751508
_symmetry_space_group_name_H-M "P 2 2 2"
_symmetry_group_IT_number 16
_symmetry_cell_setting 'orthorhombic'
loop_
_space_group_symop_operation_xyz
x,y,z
-x,-y,z
x,-y,-z
-x,y,-z
loop_
_atom_site_type_symbol
_atom_site_label
_atom_site_fract_x
_atom_site_fract_y
_atom_site_fract_z
Si Si1 0.000000 0.000000 0.728484
Si Si2 0.000000 0.500000 0.000000
Si Si3 0.500000 0.500000 0.000000
Si Si4 0.500000 0.000000 0.731763
Si Si5 0.250308 0.404479 0.126410
Si Si6 0.335838 0.536491 0.392500
Si Si7 0.751904 0.784756 0.309645
Si Si8 0.747410 0.758710 0.766896
O O1 0.105382 0.134311 0.778420
O O2 0.886833 0.102415 0.669871
O O3 0.108068 0.396830 0.064208
O O4 0.392418 0.396012 0.064111
O O5 0.396055 0.881985 0.672259
O O6 0.611232 0.880429 0.785944
O O7 0.249794 0.263283 0.202627
O O8 0.252469 0.588591 0.174456
O O9 0.500000 0.500000 0.357403
O O10 0.340667 0.500000 0.500000
O O11 0.235851 0.388808 0.357909
O O12 0.278520 0.698879 0.339067
#
# Coordination Sequence:
#
# PCOD9309984 Si02
#       8
#     2   1   1   2   4   4   4   4
#     4  10  22  36  57  85 114 150 192 216 288 339
#     4  10  20  34  56  84 102 142 188 236 268 334
#     4  10  20  30  56  92 106 134 188 256 272 318
#     4  10  18  32  57  83 112 146 188 224 284 331
#     4  10  20  35  59  79 110 143 193 229 281 326
#     4  10  20  37  61  88 111 145 194 236 273 329
#     4  10  20  37  59  83 112 152 184 233 276 341
#     4  10  20  37  59  83 112 152 184 233 276 341
#
# _framework density 20.188089000000002
#
# number of rings (size 3 to 8) (size 9 to 14) (size 15 to 20)
#    0.000    2.000    1.818    2.182    2.545    2.182 
#    0.000    7.273    0.000   76.364    0.000    0.000 
#    0.000    0.000    0.000    0.000    0.000    0.000 
#
# Total GULP energy -122526.402086 kJ/mol
# GULP energy per Si atom -5569.381913 kJ/mol
# Density = 2.014214 g / cm^3
# Si number density = 20.188089 Si / 1000 Ang^3
#
#
#
# Elastic Constant Matrix: (Units=GPa)
#
#
# Indices 1 2 3 4 5 6 
#
# 1 130.2559 36.7392 21.0737 0.0000 0.0000 0.0000
# 2 36.7392 98.2697 11.6723 0.0000 0.0000 0.0000
# 3 21.0737 11.6723 68.0873 0.0000 0.0000 0.0000
# 4 0.0000 0.0000 0.0000 5.2032 0.0000 0.0000
# 5 0.0000 0.0000 0.0000 0.0000 12.9491 0.0000
# 6 0.0000 0.0000 0.0000 0.0000 0.0000 26.4714
#
#
#
# Elastic Compliance Matrix: (Units=1/GPa)
#
#
# Indices 1 2 3 4 5 6 
#
# 1 0.008902 -0.003063 -0.002230 0.000000 0.000000 0.000000
# 2 -0.003063 0.011442 -0.001013 0.000000 0.000000 0.000000
# 3 -0.002230 -0.001013 0.015551 0.000000 0.000000 0.000000
# 4 0.000000 0.000000 0.000000 0.192190 0.000000 0.000000
# 5 0.000000 0.000000 0.000000 0.000000 0.077225 0.000000
# 6 0.000000 0.000000 0.000000 0.000000 0.000000 0.037777
#
#
# Mechanical properties :
#
#
# Convention : Reuss Voigt Hill
#
# Bulk Modulus (GPa) = 42.95303 48.39814 45.67558
# Shear Modulus (GPa) = 13.75664 24.06659 18.91162
#
# Velocity S-wave (km/s) = 2.61324 3.45645 3.06399
# Velocity P-wave (km/s) = 5.51616 6.32100 5.93224
#
# Compressibility (1/GPa) = 0.02328125
#
# Stress axis : x y z
#
# Youngs Moduli (GPa) = 112.33438 87.39992 64.30454
#
# Poissons Ratio (x) = 0.26772 0.14341
# Poissons Ratio (y) = 0.34410 0.06516
# Poissons Ratio (z) = 0.25052 0.08857
#
# Static dielectric constant tensor:
#      x y z
#    x 1.734920 0.000000 0.000000 
#    y 0.000000 1.734980 0.000000 
#    z 0.000000 0.000000 1.765140 
# 
# From -- ./inp_files/7884.got.cif
#   From: 2010.05.17/outbox.cif.g08.bks.cpg/sg16_4_cif.got.tgz:7884.got - 2010.06.03 22:28:35.
