data_PCOD9309847
_publ_section_title
;
Structure prediction by ZEFSAII (Michael W. Deem and Ramdas Pophale) SiO2 
 PCOD9309847
Probable space group: C 2/C
;
_chemical_formula_sum "Si O2"
_cell_formula_units_Z 24
_cell_length_a 18.000000
_cell_length_b 18.000000
_cell_length_c 21.000000
_cell_angle_alpha 90.000000
_cell_angle_beta 160.000000
_cell_angle_gamma 90.000000
_cell_volume 2327.105055
_symmetry_space_group_name_H-M "C 2/C"
_symmetry_group_IT_number 15
_symmetry_cell_setting 'monoclinic'
loop_
_space_group_symop_operation_xyz
x,y,z
-x,y,1/2-z
-x,-y,-z
x,-y,1/2+z
1/2+x,1/2+y,z
1/2-x,1/2+y,1/2-z
1/2-x,1/2-y,-z
1/2+x,1/2-y,1/2+z
loop_
_atom_site_type_symbol
_atom_site_label
_atom_site_fract_x
_atom_site_fract_y
_atom_site_fract_z
Si Si1 0.053893 0.832212 0.468351
Si Si2 0.342295 0.911108 0.003420
Si Si3 0.800107 0.819460 0.137432
Si Si4 0.973892 0.149262 0.140364
Si Si5 0.774395 0.695663 0.682928
Si Si6 0.965454 0.429185 0.798648
O O1 0.205163 0.762989 0.569837
O O2 0.217140 0.901687 0.612342
O O3 0.892389 0.847839 0.279380
O O4 0.910526 0.801597 0.411958
O O5 0.533001 0.856098 0.136473
O O6 0.450032 0.988514 0.112364
O O7 0.157775 0.913702 0.799863
O O8 0.206765 0.868572 0.950778
O O9 0.000000 0.816821 0.250000
O O10 0.618435 0.871981 0.960158
O O11 0.111079 0.227572 0.249170
O O12 0.838142 0.153971 0.966693
O O13 0.000000 0.423255 0.750000
#
# Coordination Sequence:
#
# PCOD9309847 Si02
#       6
#     8   8   8   8   8   8
#     4  12  26  42  73 105 138 180 231 291 348 413
#     4  11  27  43  70 102 140 185 234 289 345 413
#     4  12  24  43  72 101 129 180 235 286 342 411
#     4  11  24  42  72 102 134 186 234 286 337 412
#     4  12  24  44  71 103 144 178 234 288 349 411
#     4  12  26  46  69 102 142 180 232 294 347 412
#
# _framework density 10.313243
#
# number of rings (size 3 to 8) (size 9 to 14) (size 15 to 20)
#    0.000    0.333    5.000    4.000    4.667    2.000 
#    0.000    1.667    0.000    0.000    0.000    0.000 
#    0.000    0.000    0.000    0.000    0.000    0.000 
#
# Total GULP energy -134111.521619 kJ/mol
# GULP energy per Si atom -5587.980067 kJ/mol
# Density = 1.028977 g / cm^3
# Si number density = 10.313243 Si / 1000 Ang^3
#
#
#
# Elastic Constant Matrix: (Units=GPa)
#
#
# Indices 1 2 3 4 5 6 
#
# 1 44.5949 10.2434 -0.9023 -0.0444 14.4761 -0.0019
# 2 10.2434 90.7831 14.6739 -0.0265 18.5708 -0.0039
# 3 -0.9023 14.6739 101.0022 -0.0851 4.7977 0.0005
# 4 -0.0444 -0.0265 -0.0851 42.3524 -0.0032 0.0975
# 5 14.4761 18.5708 4.7977 -0.0032 21.5240 0.0192
# 6 -0.0019 -0.0039 0.0005 0.0975 0.0192 15.1453
#
#
#
# Elastic Compliance Matrix: (Units=1/GPa)
#
#
# Indices 1 2 3 4 5 6 
#
# 1 0.028865 0.000710 0.001118 0.000031 -0.020275 0.000029
# 2 0.000710 0.013595 -0.001404 0.000005 -0.011895 0.000019
# 3 0.001118 -0.001404 0.010201 0.000021 -0.001814 0.000002
# 4 0.000031 0.000005 0.000021 0.023612 -0.000027 -0.000152
# 5 -0.020275 -0.011895 -0.001814 -0.000027 0.070763 -0.000095
# 6 0.000029 0.000019 0.000002 -0.000152 -0.000095 0.066028
#
#
# Mechanical properties :
#
#
# Convention : Reuss Voigt Hill
#
# Bulk Modulus (GPa) = 18.68832 31.60115 25.14474
# Shear Modulus (GPa) = 21.73408 29.96200 25.84804
#
# Velocity S-wave (km/s) = 3.24959 3.81543 3.54382
# Velocity P-wave (km/s) = 4.81247 5.89610 5.38163
#
# Compressibility (1/GPa) = 0.05350935
#
# Stress axis : x y z
#
# Youngs Moduli (GPa) = 34.64365 73.55512 98.03046
#
# Poissons Ratio (x) = -0.05222 -0.10958
# Poissons Ratio (y) = -0.02459 0.13762
# Poissons Ratio (z) = -0.03873 0.10326
#
# Static dielectric constant tensor:
#      x y z
#    x 1.754160 -0.000030 -0.020720 
#    y -0.000030 1.725530 -0.000040 
#    z -0.020720 -0.000040 1.751240 
# 
# From -- ./inp_files/249745.got.cif
#   From: 2010.05.17/outbox.ucp.g08.bks.cvg/sg15_125_cif.got.tgz:249745.got - 2010.06.11 12:40:34.
