data_PCOD9309012
_publ_section_title
;
Structure prediction by ZEFSAII (Michael W. Deem and Ramdas Pophale) SiO2 
 PCOD9309012
Probable space group: C 2/C
;
_chemical_formula_sum "Si O2"
_cell_formula_units_Z 22
_cell_length_a 18.000000
_cell_length_b 15.000000
_cell_length_c 9.000000
_cell_angle_alpha 90.000000
_cell_angle_beta 120.000000
_cell_angle_gamma 90.000000
_cell_volume 2104.441731
_symmetry_space_group_name_H-M "C 2/C"
_symmetry_group_IT_number 15
_symmetry_cell_setting 'monoclinic'
loop_
_space_group_symop_operation_xyz
x,y,z
-x,y,1/2-z
-x,-y,-z
x,-y,1/2+z
1/2+x,1/2+y,z
1/2-x,1/2+y,1/2-z
1/2-x,1/2-y,-z
1/2+x,1/2-y,1/2+z
loop_
_atom_site_type_symbol
_atom_site_label
_atom_site_fract_x
_atom_site_fract_y
_atom_site_fract_z
Si Si1 0.072520 0.427245 0.098019
Si Si2 0.000000 0.841925 0.250000
Si Si3 0.840074 0.577269 0.132831
Si Si4 0.404138 0.387508 0.576984
Si Si5 0.653918 0.455929 0.314068
Si Si6 0.562196 0.214517 0.050372
O O1 0.138899 0.479264 0.273035
O O2 0.106989 0.408326 0.966606
O O3 0.000000 0.500000 0.000000
O O4 0.016597 0.343018 0.094645
O O5 0.081403 0.906691 0.339751
O O6 0.017939 0.779613 0.127254
O O7 0.872174 0.649808 0.289673
O O8 0.743763 0.580432 0.969990
O O9 0.500000 0.396173 0.750000
O O10 0.375145 0.434683 0.387327
O O11 0.348474 0.439315 0.645588
O O12 0.395072 0.282840 0.524514
#
# Coordination Sequence:
#
# PCOD9309012 Si02
#       6
#     8   4   8   8   8   8
#     4  10  20  40  68  94 133 171 210 261 334 390
#     4  10  20  38  64  86 126 176 216 258 320 392
#     4  11  22  41  68 100 135 167 219 276 327 393
#     4  11  24  42  67  91 128 176 224 267 319 399
#     4  11  24  41  65  96 130 175 218 266 334 385
#     4  10  21  39  66  97 127 171 222 260 324 395
#
# _framework density 10.454079
#
# number of rings (size 3 to 8) (size 9 to 14) (size 15 to 20)
#    0.000    1.455    2.727    3.273    2.545    5.818 
#    3.273    0.000    0.000    9.818    0.000    0.000 
#    0.000    0.000    0.000    0.000    0.000    0.000 
#
# Total GULP energy -122528.570904 kJ/mol
# GULP energy per Si atom -5569.480496 kJ/mol
# Density = 1.043028 g / cm^3
# Si number density = 10.454079 Si / 1000 Ang^3
#
#
#
# Elastic Constant Matrix: (Units=GPa)
#
#
# Indices 1 2 3 4 5 6 
#
# 1 63.1601 28.2389 30.6282 0.0000 23.4240 0.0000
# 2 28.2389 122.5016 41.4310 0.0000 -1.0236 0.0000
# 3 30.6282 41.4310 162.6215 0.0000 21.8195 0.0000
# 4 0.0000 0.0000 0.0000 45.1703 0.0000 -7.2497
# 5 23.4240 -1.0236 21.8195 0.0000 37.0559 0.0000
# 6 0.0000 0.0000 0.0000 -7.2497 0.0000 16.8779
#
#
#
# Elastic Compliance Matrix: (Units=1/GPa)
#
#
# Indices 1 2 3 4 5 6 
#
# 1 0.024280 -0.005300 -0.001242 0.000000 -0.014763 0.000000
# 2 -0.005300 0.010192 -0.002265 0.000000 0.004966 0.000000
# 3 -0.001242 -0.002265 0.007452 0.000000 -0.003666 0.000000
# 4 0.000000 0.000000 0.000000 0.023778 0.000000 0.010213
# 5 -0.014763 0.004966 -0.003666 0.000000 0.038614 0.000000
# 6 0.000000 0.000000 0.000000 0.010213 0.000000 0.063636
#
#
# Mechanical properties :
#
#
# Convention : Reuss Voigt Hill
#
# Bulk Modulus (GPa) = 41.13410 60.98661 51.06036
# Shear Modulus (GPa) = 25.81724 36.35316 31.08520
#
# Velocity S-wave (km/s) = 3.51777 4.17430 3.86002
# Velocity P-wave (km/s) = 6.01798 7.24329 6.65888
#
# Compressibility (1/GPa) = 0.02431073
#
# Stress axis : x y z
#
# Youngs Moduli (GPa) = 41.18630 98.11203 134.19395
#
# Poissons Ratio (x) = 0.52003 0.16662
# Poissons Ratio (y) = 0.21830 0.30391
# Poissons Ratio (z) = 0.05114 0.22219
#
# Static dielectric constant tensor:
#      x y z
#    x 1.755960 0.000000 0.017280 
#    y 0.000000 1.853970 0.000000 
#    z 0.017280 0.000000 1.741390 
# 
# From -- ./inp_files/47532.got.cif
#   From: 2010.05.17/outbox.ucp.g08.bks.cvg/sg15_24_cif.got.tgz:47532.got - 2010.06.11 12:40:34.
