data_PCOD9309704
_publ_section_title
;
Structure prediction by ZEFSAII (Michael W. Deem and Ramdas Pophale) SiO2 
 PCOD9309704
Probable space group: C 2/C
;
_chemical_formula_sum "Si O2"
_cell_formula_units_Z 32
_cell_length_a 18.000000
_cell_length_b 21.000000
_cell_length_c 24.000000
_cell_angle_alpha 90.000000
_cell_angle_beta 20.000000
_cell_angle_gamma 90.000000
_cell_volume 3102.806740
_symmetry_space_group_name_H-M "C 2/C"
_symmetry_group_IT_number 15
_symmetry_cell_setting 'monoclinic'
loop_
_space_group_symop_operation_xyz
x,y,z
-x,y,1/2-z
-x,-y,-z
x,-y,1/2+z
1/2+x,1/2+y,z
1/2-x,1/2+y,1/2-z
1/2-x,1/2-y,-z
1/2+x,1/2-y,1/2+z
loop_
_atom_site_type_symbol
_atom_site_label
_atom_site_fract_x
_atom_site_fract_y
_atom_site_fract_z
Si Si1 0.769948 0.149304 0.203272
Si Si2 0.383686 0.241948 0.707007
Si Si3 0.016915 0.875731 0.160393
Si Si4 0.998211 0.547624 0.947008
Si Si5 0.348682 0.928623 0.012611
Si Si6 0.412273 0.377661 0.112830
Si Si7 0.999838 0.263724 0.810563
Si Si8 0.228889 0.170084 0.113059
O O1 0.883804 0.196630 0.166396
O O2 0.578951 0.104927 0.361720
O O3 0.639000 0.196236 0.254506
O O4 0.943506 0.111177 0.043453
O O5 0.201020 0.191350 0.816027
O O6 0.605129 0.201477 0.548216
O O7 0.324148 0.272423 0.807610
O O8 0.229712 0.894693 0.044656
O O9 0.826622 0.922418 0.314306
O O10 0.054465 0.874128 0.068588
O O11 0.911788 0.808271 0.252762
O O12 0.226898 0.571912 0.760649
O O13 0.891062 0.502898 0.975275
O O14 0.855512 0.611745 0.053407
O O15 0.000000 0.500000 0.000000
O O16 0.000000 0.293504 0.750000
O O17 0.750000 0.250000 0.000000
O O18 0.000000 0.147562 0.250000
#
# Coordination Sequence:
#
# PCOD9309704 Si02
#       8
#     8   8   8   8   8   8   8   8
#     4  12  24  36  63  93 138 174 209 270 337 379
#     4  11  23  42  64 102 131 161 214 273 334 398
#     4  11  21  38  61  91 131 170 219 267 316 386
#     4  11  24  44  69  94 126 173 233 266 320 395
#     4  11  24  39  61  90 130 177 222 269 312 390
#     4  11  24  39  64  95 129 171 213 274 329 393
#     4  12  21  33  53  91 132 172 209 252 319 391
#     4  11  25  44  73  97 127 169 211 278 335 391
#
# _framework density 10.313243
#
# number of rings (size 3 to 8) (size 9 to 14) (size 15 to 20)
#    0.000    0.750    6.250    1.875    5.250    0.500 
#    0.000    0.000    0.000    1.500    0.000    0.000 
#    0.000    0.000    0.000    0.000    0.000    0.000 
#
# Total GULP energy -178520.902739 kJ/mol
# GULP energy per Si atom -5578.778211 kJ/mol
# Density = 1.028977 g / cm^3
# Si number density = 10.313243 Si / 1000 Ang^3
#
#
#
# Elastic Constant Matrix: (Units=GPa)
#
#
# Indices 1 2 3 4 5 6 
#
# 1 30.3974 5.3773 15.1473 -0.0170 1.3515 0.0279
# 2 5.3773 88.1528 26.0318 0.0223 -8.0850 0.0501
# 3 15.1473 26.0318 109.2610 0.1084 -10.9755 0.0273
# 4 -0.0170 0.0223 0.1084 34.6840 0.0276 -3.1087
# 5 1.3515 -8.0850 -10.9755 0.0276 16.4726 -0.0350
# 6 0.0279 0.0501 0.0273 -3.1087 -0.0350 29.2809
#
#
#
# Elastic Compliance Matrix: (Units=1/GPa)
#
#
# Indices 1 2 3 4 5 6 
#
# 1 0.036149 -0.001261 -0.005435 0.000038 -0.007206 -0.000032
# 2 -0.001261 0.012543 -0.002342 -0.000006 0.004700 -0.000013
# 3 -0.005435 -0.002342 0.011139 -0.000041 0.006718 0.000002
# 4 0.000038 -0.000006 -0.000041 0.029109 -0.000076 0.003090
# 5 -0.007206 0.004700 0.006718 -0.000076 0.068082 0.000066
# 6 -0.000032 -0.000013 0.000002 0.003090 0.000066 0.034480
#
#
# Mechanical properties :
#
#
# Convention : Reuss Voigt Hill
#
# Bulk Modulus (GPa) = 23.94853 35.65822 29.80337
# Shear Modulus (GPa) = 22.37177 28.17116 25.27146
#
# Velocity S-wave (km/s) = 3.29692 3.69965 3.50408
# Velocity P-wave (km/s) = 5.11162 5.96448 5.55444
#
# Compressibility (1/GPa) = 0.04175622
#
# Stress axis : x y z
#
# Youngs Moduli (GPa) = 27.66301 79.72332 89.77737
#
# Poissons Ratio (x) = 0.10053 0.48794
# Poissons Ratio (y) = 0.03488 0.21022
# Poissons Ratio (z) = 0.15035 0.18668
#
# Static dielectric constant tensor:
#      x y z
#    x 1.773790 -0.000010 -0.014440 
#    y -0.000010 1.835800 0.000100 
#    z -0.014440 0.000100 1.765730 
# 
# From -- ./inp_files/278081.got.cif
#   From: 2010.05.17/outbox.ucp.g08.bks.cvg/sg15_140_cif.got.tgz:278081.got - 2010.06.11 12:40:34.
