data_PCOD9309814
_publ_section_title
;
Structure prediction by ZEFSAII (Michael W. Deem and Ramdas Pophale) SiO2 
 PCOD9309814
Probable space group: C 2/C
;
_chemical_formula_sum "Si O2"
_cell_formula_units_Z 30
_cell_length_a 12.000000
_cell_length_b 18.000000
_cell_length_c 21.000000
_cell_angle_alpha 90.000000
_cell_angle_beta 140.000000
_cell_angle_gamma 90.000000
_cell_volume 2915.684598
_symmetry_space_group_name_H-M "C 2/C"
_symmetry_group_IT_number 15
_symmetry_cell_setting 'monoclinic'
loop_
_space_group_symop_operation_xyz
x,y,z
-x,y,1/2-z
-x,-y,-z
x,-y,1/2+z
1/2+x,1/2+y,z
1/2-x,1/2+y,1/2-z
1/2-x,1/2-y,-z
1/2+x,1/2-y,1/2+z
loop_
_atom_site_type_symbol
_atom_site_label
_atom_site_fract_x
_atom_site_fract_y
_atom_site_fract_z
Si Si1 0.882793 0.743935 0.758108
Si Si2 0.000000 0.001219 0.750000
Si Si3 0.000897 0.625000 0.350954
Si Si4 0.410989 0.156531 0.547184
Si Si5 0.779553 0.137345 0.376352
Si Si6 0.989156 0.261043 0.952290
Si Si7 0.522299 0.389298 0.873407
Si Si8 0.390093 0.012587 0.887393
O O1 0.684589 0.725520 0.654814
O O2 0.000000 0.721126 0.750000
O O3 0.975544 0.711083 0.860353
O O4 0.908515 0.831642 0.781483
O O5 0.950572 0.955685 0.664217
O O6 0.810441 0.034610 0.685814
O O7 0.863571 0.659640 0.240173
O O8 0.909002 0.559403 0.350512
O O9 0.163668 0.597545 0.379703
O O10 0.062967 0.686908 0.428551
O O11 0.424482 0.184858 0.480593
O O12 0.207303 0.147578 0.471849
O O13 0.506853 0.079182 0.599645
O O14 0.880575 0.203281 0.457311
O O15 0.920191 0.094678 0.394237
O O16 0.500000 0.000000 0.000000
#
# Coordination Sequence:
#
# PCOD9309814 Si02
#       8
#     8   4   8   8   8   8   8   8
#     4  12  22  37  62 103 137 162 213 282 336 390
#     4  12  22  42  72  98 124 174 228 272 332 388
#     4  11  23  44  64  95 135 180 227 263 330 405
#     4  12  24  40  68 100 132 173 223 274 335 391
#     4  11  24  39  67  94 133 180 213 271 342 396
#     4  12  20  40  67  97 134 168 222 279 333 392
#     4  12  19  39  68  97 128 172 223 271 335 399
#     4  12  24  46  72  94 131 177 227 275 318 403
#
# _framework density 10.289179000000001
#
# number of rings (size 3 to 8) (size 9 to 14) (size 15 to 20)
#    0.000    0.267    8.667    1.600    0.000    0.000 
#    4.800    2.000    0.000    0.000    0.000    0.000 
#    0.000    0.000    0.000    0.000    0.000    0.000 
#
# Total GULP energy -167355.747649 kJ/mol
# GULP energy per Si atom -5578.524922 kJ/mol
# Density = 1.026576 g / cm^3
# Si number density = 10.289179 Si / 1000 Ang^3
#
#
#
# Elastic Constant Matrix: (Units=GPa)
#
#
# Indices 1 2 3 4 5 6 
#
# 1 131.8693 11.6302 34.6757 0.0000 -0.2409 0.0000
# 2 11.6302 36.9274 22.8133 0.0000 7.7232 0.0000
# 3 34.6757 22.8133 124.0519 0.0001 5.0992 0.0000
# 4 0.0000 0.0000 0.0001 21.0373 0.0000 5.9910
# 5 -0.2409 7.7232 5.0992 0.0000 37.9916 0.0000
# 6 0.0000 0.0000 0.0000 5.9910 0.0000 14.7835
#
#
#
# Elastic Compliance Matrix: (Units=1/GPa)
#
#
# Indices 1 2 3 4 5 6 
#
# 1 0.008256 -0.001455 -0.002066 0.000000 0.000625 0.000000
# 2 -0.001455 0.031989 -0.005237 0.000000 -0.005809 0.000000
# 3 -0.002066 -0.005237 0.009612 0.000000 -0.000238 0.000000
# 4 0.000000 0.000000 0.000000 0.053736 0.000000 -0.021777
# 5 0.000625 -0.005809 -0.000238 0.000000 0.027539 0.000000
# 6 0.000000 0.000000 0.000000 -0.021777 0.000000 0.076468
#
#
# Mechanical properties :
#
#
# Convention : Reuss Voigt Hill
#
# Bulk Modulus (GPa) = 30.92104 47.89857 39.40981
# Shear Modulus (GPa) = 21.19585 29.67776 25.43680
#
# Velocity S-wave (km/s) = 3.21285 3.80173 3.51963
# Velocity P-wave (km/s) = 5.36860 6.52668 5.97576
#
# Compressibility (1/GPa) = 0.03234044
#
# Stress axis : x y z
#
# Youngs Moduli (GPa) = 121.12476 31.26083 104.04103
#
# Poissons Ratio (x) = 0.04547 0.21494
# Poissons Ratio (y) = 0.17620 0.54490
# Poissons Ratio (z) = 0.25024 0.16373
#
# Static dielectric constant tensor:
#      x y z
#    x 1.787520 0.000000 0.012290 
#    y 0.000000 1.797450 0.000000 
#    z 0.012290 0.000000 1.722190 
# 
# From -- ./inp_files/240000.got.cif
#   From: 2010.05.17/outbox.ucp.g08.bks.cvg/sg15_120_cif.got.tgz:240000.got - 2010.06.11 12:40:34.
