data_PCOD9309475
_publ_section_title
;
Structure prediction by ZEFSAII (Michael W. Deem and Ramdas Pophale) SiO2 
 PCOD9309475
Probable space group: C 2/C
;
_chemical_formula_sum "Si O2"
_cell_formula_units_Z 26
_cell_length_a 12.000000
_cell_length_b 15.000000
_cell_length_c 24.000000
_cell_angle_alpha 90.000000
_cell_angle_beta 40.000000
_cell_angle_gamma 90.000000
_cell_volume 2776.842474
_symmetry_space_group_name_H-M "C 2/C"
_symmetry_group_IT_number 15
_symmetry_cell_setting 'monoclinic'
loop_
_space_group_symop_operation_xyz
x,y,z
-x,y,1/2-z
-x,-y,-z
x,-y,1/2+z
1/2+x,1/2+y,z
1/2-x,1/2+y,1/2-z
1/2-x,1/2-y,-z
1/2+x,1/2-y,1/2+z
loop_
_atom_site_type_symbol
_atom_site_label
_atom_site_fract_x
_atom_site_fract_y
_atom_site_fract_z
Si Si1 0.000000 0.812757 0.250000
Si Si2 0.861881 0.713698 0.191512
Si Si3 0.813522 0.702499 0.850685
Si Si4 0.429816 0.944064 0.942480
Si Si5 0.856387 0.951768 0.016648
Si Si6 0.617651 0.879015 0.413084
Si Si7 0.486966 0.711055 0.390301
O O1 0.033489 0.760388 0.296598
O O2 0.177442 0.867622 0.175671
O O3 0.818553 0.764320 0.148249
O O4 0.671631 0.695522 0.289678
O O5 0.964415 0.624788 0.135942
O O6 0.757606 0.607562 0.897052
O O7 0.000000 0.696103 0.750000
O O8 0.851694 0.762876 0.892144
O O9 0.258217 0.978680 0.975708
O O10 0.539436 0.033223 0.913971
O O11 0.402938 0.894523 0.012509
O O12 0.932571 0.877110 0.944905
O O13 0.000000 0.000000 0.000000
O O14 0.523685 0.793308 0.419761
#
# Coordination Sequence:
#
# PCOD9309475 Si02
#       7
#     4   8   8   8   8   8   8
#     4  10  24  44  66  90 124 176 206 258 320 378
#     4  10  24  42  67  91 125 166 212 262 315 371
#     4  10  22  44  68  90 123 173 216 252 314 383
#     4  11  25  41  63  99 127 165 209 267 313 368
#     4  12  27  39  65  98 130 164 209 269 315 367
#     4  10  23  43  67  91 129 169 209 256 318 378
#     4  10  22  46  65  90 127 175 210 252 315 385
#
# _framework density 9.3631530000000005
#
# number of rings (size 3 to 8) (size 9 to 14) (size 15 to 20)
#    0.000    1.538    1.538    1.385   10.769    3.077 
#    1.385    0.000    0.000    0.000    0.000    0.000 
#    0.000    0.000    0.000    0.000    0.000    0.000 
#
# Total GULP energy -145046.311094 kJ/mol
# GULP energy per Si atom -5578.704273 kJ/mol
# Density = 0.934184 g / cm^3
# Si number density = 9.363153 Si / 1000 Ang^3
#
#
#
# Elastic Constant Matrix: (Units=GPa)
#
#
# Indices 1 2 3 4 5 6 
#
# 1 188.0351 59.5146 54.0274 0.0000 15.3905 0.0000
# 2 59.5146 96.7514 62.0827 0.0000 14.4313 0.0000
# 3 54.0274 62.0827 102.9219 0.0002 5.7713 0.0001
# 4 0.0000 0.0000 0.0002 37.4344 0.0000 -4.6480
# 5 15.3905 14.4313 5.7713 0.0000 34.8099 0.0000
# 6 0.0000 0.0000 0.0001 -4.6480 0.0000 35.1731
#
#
#
# Elastic Compliance Matrix: (Units=1/GPa)
#
#
# Indices 1 2 3 4 5 6 
#
# 1 0.006860 -0.002826 -0.001809 0.000000 -0.001561 0.000000
# 2 -0.002826 0.019077 -0.009741 0.000000 -0.005044 0.000000
# 3 -0.001809 -0.009741 0.016423 0.000000 0.002115 0.000000
# 4 0.000000 0.000000 0.000000 0.027159 0.000000 0.003589
# 5 -0.001561 -0.005044 0.002115 0.000000 0.031158 0.000000
# 6 0.000000 0.000000 0.000000 0.003589 0.000000 0.028905
#
#
# Mechanical properties :
#
#
# Convention : Reuss Voigt Hill
#
# Bulk Modulus (GPa) = 73.48561 82.10641 77.79601
# Shear Modulus (GPa) = 30.69921 35.62240 33.16081
#
# Velocity S-wave (km/s) = 4.05330 4.36623 4.21267
# Velocity P-wave (km/s) = 7.82513 8.32822 8.08059
#
# Compressibility (1/GPa) = 0.01360811
#
# Stress axis : x y z
#
# Youngs Moduli (GPa) = 145.76757 52.41859 60.89152
#
# Poissons Ratio (x) = 0.14816 0.11014
# Poissons Ratio (y) = 0.41200 0.59314
# Poissons Ratio (z) = 0.26365 0.51060
#
# Static dielectric constant tensor:
#      x y z
#    x 1.654560 0.000000 0.006810 
#    y 0.000000 1.630440 0.000000 
#    z 0.006810 0.000000 1.666890 
# 
# From -- ./inp_files/269888.got.cif
#   From: 2010.05.17/outbox.ucp.g08.bks.cvg/sg15_135_cif.got.tgz:269888.got - 2010.06.11 12:40:34.
