data_PCOD9309550
_publ_section_title
;
Structure prediction by ZEFSAII (Michael W. Deem and Ramdas Pophale) SiO2 
 PCOD9309550
Probable space group: C 2/C
;
_chemical_formula_sum "Si O2"
_cell_formula_units_Z 18
_cell_length_a 15.000000
_cell_length_b 12.000000
_cell_length_c 15.000000
_cell_angle_alpha 90.000000
_cell_angle_beta 40.000000
_cell_angle_gamma 90.000000
_cell_volume 1735.526546
_symmetry_space_group_name_H-M "C 2/C"
_symmetry_group_IT_number 15
_symmetry_cell_setting 'monoclinic'
loop_
_space_group_symop_operation_xyz
x,y,z
-x,y,1/2-z
-x,-y,-z
x,-y,1/2+z
1/2+x,1/2+y,z
1/2-x,1/2+y,1/2-z
1/2-x,1/2-y,-z
1/2+x,1/2-y,1/2+z
loop_
_atom_site_type_symbol
_atom_site_label
_atom_site_fract_x
_atom_site_fract_y
_atom_site_fract_z
Si Si1 0.667590 0.655280 0.119627
Si Si2 0.067790 0.208220 0.519759
Si Si3 0.245776 0.288537 0.221881
Si Si4 0.248412 0.503772 0.096164
Si Si5 0.000000 0.668529 0.250000
O O1 0.500000 0.665190 0.250000
O O2 0.710702 0.680695 0.187802
O O3 0.750000 0.750000 0.000000
O O4 0.715625 0.545207 0.029858
O O5 0.159633 0.278750 0.379147
O O6 0.123821 0.082093 0.474231
O O7 0.908634 0.211658 0.613569
O O8 0.067736 0.257629 0.619785
O O9 0.217335 0.400183 0.185736
O O10 0.118934 0.587107 0.195370
#
# Coordination Sequence:
#
# PCOD9309550 Si02
#       5
#     8   8   8   8   4
#     4  10  23  43  72 107 141 174 226 286 345 408
#     4  12  26  49  65 104 141 181 228 288 344 415
#     4  11  25  44  75 103 137 173 242 285 330 415
#     4  11  26  44  73  99 141 187 225 282 363 396
#     4  12  28  46  68 100 144 186 228 284 348 424
#
# _framework density 10.371492
#
# number of rings (size 3 to 8) (size 9 to 14) (size 15 to 20)
#    0.000    0.889    2.222    4.000   10.889    2.667 
#    0.000    0.000    0.000    0.000    0.000    0.000 
#    0.000    0.000    0.000    0.000    0.000    0.000 
#
# Total GULP energy -100593.616980 kJ/mol
# GULP energy per Si atom -5588.534277 kJ/mol
# Density = 1.034789 g / cm^3
# Si number density = 10.371492 Si / 1000 Ang^3
#
#
#
# Elastic Constant Matrix: (Units=GPa)
#
#
# Indices 1 2 3 4 5 6 
#
# 1 45.4239 -13.4081 -1.4935 0.0000 34.8446 0.0000
# 2 -13.4081 32.9456 -10.4310 0.0000 66.9677 0.0000
# 3 -1.4935 -10.4310 118.6720 0.0000 58.6634 0.0000
# 4 0.0000 0.0000 0.0000 32.9103 0.0000 4.7656
# 5 34.8446 66.9677 58.6634 0.0000 8.3994 0.0000
# 6 0.0000 0.0000 0.0000 4.7656 0.0000 39.7520
#
#
#
# Elastic Compliance Matrix: (Units=1/GPa)
#
#
# Indices 1 2 3 4 5 6 
#
# 1 0.015739 -0.006142 -0.003151 0.000000 0.005682 0.000000
# 2 -0.006142 0.005911 -0.004544 0.000000 0.010087 0.000000
# 3 -0.003151 -0.004544 0.006680 0.000000 0.002645 0.000000
# 4 0.000000 0.000000 0.000000 0.030922 0.000000 -0.003707
# 5 0.005682 0.010087 0.002645 0.000000 -0.003413 0.000000
# 6 0.000000 0.000000 0.000000 -0.003707 0.000000 0.025600
#
#
# Mechanical properties :
#
#
# Convention : Reuss Voigt Hill
#
# Bulk Modulus (GPa) = 1522.52938 16.26403 769.39670
# Shear Modulus (GPa) = 45.73165 31.03728 38.38447
#
# Velocity S-wave (km/s) = 4.70050 3.87237 4.30639
# Velocity P-wave (km/s) = 27.65954 5.27745 19.91107
#
# Compressibility (1/GPa) = 0.00065680
#
# Stress axis : x y z
#
# Youngs Moduli (GPa) = 63.53493 169.16858 149.70159
#
# Poissons Ratio (x) = 1.03906 0.47167
# Poissons Ratio (y) = 0.39024 0.68024
# Poissons Ratio (z) = 0.20018 0.76870
#
# Static dielectric constant tensor:
#      x y z
#    x 1.822530 0.000000 0.008620 
#    y 0.000000 1.743060 0.000000 
#    z 0.008620 0.000000 1.709550 
# 
# From -- ./inp_files/46015.got.cif
#   From: 2010.05.17/outbox.ucp.g08.bks.cvg/sg15_24_cif.got.tgz:46015.got - 2010.06.11 12:40:34.
