data_PCOD9309014
_publ_section_title
;
Structure prediction by ZEFSAII (Michael W. Deem and Ramdas Pophale) SiO2 
 PCOD9309014
Probable space group: C 2/C
;
_chemical_formula_sum "Si O2"
_cell_formula_units_Z 26
_cell_length_a 21.000000
_cell_length_b 27.000000
_cell_length_c 6.000000
_cell_angle_alpha 90.000000
_cell_angle_beta 50.000000
_cell_angle_gamma 90.000000
_cell_volume 2606.083195
_symmetry_space_group_name_H-M "C 2/C"
_symmetry_group_IT_number 15
_symmetry_cell_setting 'monoclinic'
loop_
_space_group_symop_operation_xyz
x,y,z
-x,y,1/2-z
-x,-y,-z
x,-y,1/2+z
1/2+x,1/2+y,z
1/2-x,1/2+y,1/2-z
1/2-x,1/2-y,-z
1/2+x,1/2-y,1/2+z
loop_
_atom_site_type_symbol
_atom_site_label
_atom_site_fract_x
_atom_site_fract_y
_atom_site_fract_z
Si Si1 0.822789 0.218302 0.952568
Si Si2 0.903183 0.984072 0.995653
Si Si3 0.914627 0.308390 0.814613
Si Si4 0.500000 0.026450 0.750000
Si Si5 0.145595 0.396308 0.849814
Si Si6 0.264492 0.164684 0.974633
Si Si7 0.815441 0.886514 0.228617
O O1 0.903383 0.252746 0.749789
O O2 0.831956 0.164537 0.821239
O O3 0.750000 0.250000 0.000000
O O4 0.788221 0.205034 0.274052
O O5 0.000000 0.997824 0.750000
O O6 0.870180 0.993302 0.810952
O O7 0.887167 0.926338 0.078224
O O8 0.904710 0.352699 0.662542
O O9 0.000000 0.314152 0.750000
O O10 0.833630 0.313604 0.154118
O O11 0.583228 0.059923 0.549650
O O12 0.500000 0.000000 0.500000
O O13 0.227357 0.408892 0.517744
O O14 0.184080 0.370008 0.976597
O O15 0.201620 0.130415 0.982620
#
# Coordination Sequence:
#
# PCOD9309014 Si02
#       7
#     8   8   8   4   8   8   8
#     4  11  20  40  58  97 129 172 214 262 328 388
#     4  10  24  47  71  98 133 175 219 279 347 399
#     4  11  22  37  63  91 128 173 222 256 324 404
#     4  12  30  46  66  96 138 172 222 294 342 382
#     4  10  23  42  64  91 126 174 223 268 334 398
#     4  10  20  38  65  85 130 169 213 272 322 385
#     4  10  23  39  69  96 129 169 223 274 326 408
#
# _framework density 9.9766580000000005
#
# number of rings (size 3 to 8) (size 9 to 14) (size 15 to 20)
#    0.000    1.538    4.615    1.385    9.692    1.231 
#    2.769    0.000    0.000    0.000    0.000    0.000 
#    0.000    0.000    0.000    0.000    0.000    0.000 
#
# Total GULP energy -144781.349162 kJ/mol
# GULP energy per Si atom -5568.513429 kJ/mol
# Density = 0.995395 g / cm^3
# Si number density = 9.976658 Si / 1000 Ang^3
#
#
#
# Elastic Constant Matrix: (Units=GPa)
#
#
# Indices 1 2 3 4 5 6 
#
# 1 42.1408 12.8771 12.2064 0.0000 24.5317 0.0000
# 2 12.8771 90.7655 37.6565 0.0000 18.4420 0.0000
# 3 12.2064 37.6565 58.4789 0.0000 27.5414 0.0000
# 4 0.0000 0.0000 0.0000 33.8194 0.0000 -2.9829
# 5 24.5317 18.4420 27.5414 0.0000 24.8091 0.0000
# 6 0.0000 0.0000 0.0000 -2.9829 0.0000 18.5776
#
#
#
# Elastic Compliance Matrix: (Units=1/GPa)
#
#
# Indices 1 2 3 4 5 6 
#
# 1 0.104573 -0.006127 0.060088 0.000000 -0.165556 0.000000
# 2 -0.006127 0.015402 -0.012784 0.000000 0.008801 0.000000
# 3 0.060088 -0.012784 0.076068 0.000000 -0.134359 0.000000
# 4 0.000000 0.000000 0.000000 0.029994 0.000000 0.004816
# 5 -0.165556 0.008801 -0.134359 0.000000 0.346627 0.000000
# 6 0.000000 0.000000 0.000000 0.004816 0.000000 0.054601
#
#
# Mechanical properties :
#
#
# Convention : Reuss Voigt Hill
#
# Bulk Modulus (GPa) = 3.59199 35.20724 19.39961
# Shear Modulus (GPa) = 7.84054 24.01756 15.92905
#
# Velocity S-wave (km/s) = 1.98443 3.47318 2.82851
# Velocity P-wave (km/s) = 2.65608 5.81095 4.51785
#
# Compressibility (1/GPa) = 0.27839743
#
# Stress axis : x y z
#
# Youngs Moduli (GPa) = 9.56267 64.92563 13.14611
#
# Poissons Ratio (x) = 0.39780 -0.78993
# Poissons Ratio (y) = 0.05859 0.16806
# Poissons Ratio (z) = -0.57460 0.83002
#
# Static dielectric constant tensor:
#      x y z
#    x 1.736510 0.000000 0.056400 
#    y 0.000000 1.749110 0.000000 
#    z 0.056400 0.000000 1.744160 
# 
# From -- ./inp_files/11223.got.cif
#   From: 2010.05.17/outbox.ucp.g08.bks.cvg/sg15_6_cif.got.tgz:11223.got - 2010.06.11 12:40:34.
