data_PCOD9309527
_publ_section_title
;
Structure prediction by ZEFSAII (Michael W. Deem and Ramdas Pophale) SiO2 
 PCOD9309527
Probable space group: C 2/C
;
_chemical_formula_sum "Si O2"
_cell_formula_units_Z 32
_cell_length_a 24.000000
_cell_length_b 24.000000
_cell_length_c 12.000000
_cell_angle_alpha 90.000000
_cell_angle_beta 150.000000
_cell_angle_gamma 90.000000
_cell_volume 3456.000000
_symmetry_space_group_name_H-M "C 2/C"
_symmetry_group_IT_number 15
_symmetry_cell_setting 'monoclinic'
loop_
_space_group_symop_operation_xyz
x,y,z
-x,y,1/2-z
-x,-y,-z
x,-y,1/2+z
1/2+x,1/2+y,z
1/2-x,1/2+y,1/2-z
1/2-x,1/2-y,-z
1/2+x,1/2-y,1/2+z
loop_
_atom_site_type_symbol
_atom_site_label
_atom_site_fract_x
_atom_site_fract_y
_atom_site_fract_z
Si Si1 0.438887 0.837835 0.032712
Si Si2 0.538074 0.659980 0.687717
Si Si3 0.215817 0.378136 0.912597
Si Si4 0.383899 0.782416 0.602211
Si Si5 0.697998 0.745945 0.593501
Si Si6 0.180266 0.163821 0.354208
Si Si7 0.545014 0.031803 0.208766
Si Si8 0.112508 0.584611 0.745487
O O1 0.500000 0.858803 0.250000
O O2 0.534978 0.858947 0.113825
O O3 0.329340 0.867158 0.791886
O O4 0.398475 0.775507 0.997265
O O5 0.500000 0.646149 0.750000
O O6 0.582073 0.724324 0.777035
O O7 0.435994 0.654937 0.419548
O O8 0.649674 0.624606 0.851145
O O9 0.169113 0.325789 0.903297
O O10 0.151135 0.432364 0.847788
O O11 0.500000 0.803276 0.750000
O O12 0.294801 0.772222 0.347999
O O13 0.747696 0.795537 0.602114
O O14 0.664194 0.697691 0.444850
O O15 0.261954 0.110000 0.521839
O O16 0.500000 0.048945 0.250000
O O17 0.582466 0.966306 0.278677
O O18 0.437706 0.049735 0.946894
#
# Coordination Sequence:
#
# PCOD9309527 Si02
#       8
#     8   8   8   8   8   8   8   8
#     4  11  21  33  58  90 122 159 207 254 314 374
#     4  11  22  42  58  86 128 174 215 256 313 391
#     4  11  24  37  62  91 125 167 219 265 317 387
#     4  11  22  37  58  88 129 169 207 260 322 383
#     4  11  23  35  56  89 127 169 202 250 322 387
#     4  11  23  38  59  89 128 164 212 261 310 388
#     4  10  23  43  69  97 124 162 211 277 334 363
#     4  10  23  42  65  97 126 159 215 272 320 378
#
# _framework density 9.2592590000000001
#
# number of rings (size 3 to 8) (size 9 to 14) (size 15 to 20)
#    0.000    1.250    5.000    1.125    7.000    0.000 
#    0.000    0.625    0.000    0.000    0.000    0.000 
#    0.000    0.000    0.000    0.000    0.000    0.000 
#
# Total GULP energy -178150.998868 kJ/mol
# GULP energy per Si atom -5567.218715 kJ/mol
# Density = 0.923818 g / cm^3
# Si number density = 9.259259 Si / 1000 Ang^3
#
#
#
# Elastic Constant Matrix: (Units=GPa)
#
#
# Indices 1 2 3 4 5 6 
#
# 1 61.2200 32.9739 33.3572 0.0000 4.3360 0.0000
# 2 32.9739 83.3319 47.4646 0.0000 1.8445 0.0000
# 3 33.3572 47.4646 181.4336 0.0000 0.4411 0.0000
# 4 0.0000 0.0000 0.0000 26.3894 0.0000 6.4026
# 5 4.3360 1.8445 0.4411 0.0000 32.4284 0.0000
# 6 0.0000 0.0000 0.0000 6.4026 0.0000 30.6561
#
#
#
# Elastic Compliance Matrix: (Units=1/GPa)
#
#
# Indices 1 2 3 4 5 6 
#
# 1 0.021560 -0.007312 -0.002045 0.000000 -0.002439 0.000000
# 2 -0.007312 0.016600 -0.002998 0.000000 0.000074 0.000000
# 3 -0.002045 -0.002998 0.006671 0.000000 0.000353 0.000000
# 4 0.000000 0.000000 0.000000 0.039917 0.000000 -0.008337
# 5 -0.002439 0.000074 0.000353 0.000000 0.031154 0.000000
# 6 0.000000 0.000000 0.000000 -0.008337 0.000000 0.034361
#
#
# Mechanical properties :
#
#
# Convention : Reuss Voigt Hill
#
# Bulk Modulus (GPa) = 49.70296 61.50853 55.60575
# Shear Modulus (GPa) = 27.52073 32.04078 29.78075
#
# Velocity S-wave (km/s) = 3.85920 4.16408 4.01454
# Velocity P-wave (km/s) = 6.83782 7.51040 7.18199
#
# Compressibility (1/GPa) = 0.02011952
#
# Stress axis : x y z
#
# Youngs Moduli (GPa) = 46.38194 60.24137 149.89817
#
# Poissons Ratio (x) = 0.44051 0.30654
# Poissons Ratio (y) = 0.33916 0.44946
# Poissons Ratio (z) = 0.09485 0.18063
#
# Static dielectric constant tensor:
#      x y z
#    x 1.720500 0.000000 -0.017960 
#    y 0.000000 1.648920 0.000000 
#    z -0.017960 0.000000 1.677460 
# 
# From -- ./inp_files/120246.got.cif
#   From: 2010.05.17/outbox.ucp.g08.bks.cvg/sg15_61_cif.got.tgz:120246.got - 2010.06.11 12:40:34.
