data_PCOD9309901
_publ_section_title
;
Structure prediction by ZEFSAII (Michael W. Deem and Ramdas Pophale) SiO2 
 PCOD9309901
Probable space group: C 2/C
;
_chemical_formula_sum "Si O2"
_cell_formula_units_Z 26
_cell_length_a 6.000000
_cell_length_b 15.000000
_cell_length_c 30.000000
_cell_angle_alpha 90.000000
_cell_angle_beta 70.000000
_cell_angle_gamma 90.000000
_cell_volume 2537.170076
_symmetry_space_group_name_H-M "C 2/C"
_symmetry_group_IT_number 15
_symmetry_cell_setting 'monoclinic'
loop_
_space_group_symop_operation_xyz
x,y,z
-x,y,1/2-z
-x,-y,-z
x,-y,1/2+z
1/2+x,1/2+y,z
1/2-x,1/2+y,1/2-z
1/2-x,1/2-y,-z
1/2+x,1/2-y,1/2+z
loop_
_atom_site_type_symbol
_atom_site_label
_atom_site_fract_x
_atom_site_fract_y
_atom_site_fract_z
Si Si1 0.450488 0.750940 0.031291
Si Si2 0.690140 0.742917 0.851315
Si Si3 0.076405 0.885741 0.193437
Si Si4 0.963180 0.393099 0.394881
Si Si5 0.157464 0.398731 0.608182
Si Si6 0.000000 0.811162 0.750000
Si Si7 0.271663 0.948876 0.792024
O O1 0.442319 0.838449 0.066552
O O2 0.352658 0.664302 0.067580
O O3 0.250000 0.750000 0.000000
O O4 0.750000 0.750000 0.000000
O O5 0.493786 0.693991 0.834809
O O6 0.581017 0.836209 0.876982
O O7 0.775243 0.675940 0.884693
O O8 0.889471 0.759009 0.799558
O O9 0.000000 0.864241 0.250000
O O10 0.343482 0.904404 0.158582
O O11 0.924053 0.973701 0.192731
O O12 0.873999 0.497555 0.407883
O O13 0.201664 0.412004 0.659023
O O14 0.189640 0.873447 0.762379
O O15 0.500000 0.987686 0.750000
#
# Coordination Sequence:
#
# PCOD9309901 Si02
#       7
#     8   8   8   8   8   4   8
#     4  12  30  56  86 120 155 198 275 353 420 494
#     4  12  25  44  69 109 162 212 264 321 379 468
#     4  12  25  41  70 113 160 208 265 315 374 473
#     4  12  27  52  79 113 157 205 261 329 408 482
#     4  12  26  51  80 112 157 210 260 326 407 483
#     4  12  24  36  66 100 162 220 264 308 372 454
#     4  12  24  43  66 113 158 208 265 307 379 476
#
# _framework density 10.247638
#
# number of rings (size 3 to 8) (size 9 to 14) (size 15 to 20)
#    0.000    0.000    5.385    4.615    3.231    2.462 
#    0.000    0.000    0.000    0.000    0.000    0.000 
#    0.000    0.000    0.000    0.000    0.000    0.000 
#
# Total GULP energy -144821.265774 kJ/mol
# GULP energy per Si atom -5570.048684 kJ/mol
# Density = 1.022431 g / cm^3
# Si number density = 10.247638 Si / 1000 Ang^3
#
#
#
# Elastic Constant Matrix: (Units=GPa)
#
#
# Indices 1 2 3 4 5 6 
#
# 1 78.6792 32.2444 35.1828 0.0000 3.2279 0.0000
# 2 32.2444 155.4979 36.7534 0.0000 7.4034 0.0000
# 3 35.1828 36.7534 125.2797 0.0000 1.0625 0.0000
# 4 0.0000 0.0000 0.0000 47.7207 0.0000 -3.7575
# 5 3.2279 7.4034 1.0625 0.0000 57.3998 0.0000
# 6 0.0000 0.0000 0.0000 -3.7575 0.0000 50.0869
#
#
#
# Elastic Compliance Matrix: (Units=1/GPa)
#
#
# Indices 1 2 3 4 5 6 
#
# 1 0.015286 -0.002291 -0.003617 0.000000 -0.000497 0.000000
# 2 -0.002291 0.007296 -0.001490 0.000000 -0.000785 0.000000
# 3 -0.003617 -0.001490 0.009433 0.000000 0.000221 0.000000
# 4 0.000000 0.000000 0.000000 0.021080 0.000000 0.001581
# 5 -0.000497 -0.000785 0.000221 0.000000 0.017547 0.000000
# 6 0.000000 0.000000 0.000000 0.001581 0.000000 0.020084
#
#
# Mechanical properties :
#
#
# Convention : Reuss Voigt Hill
#
# Bulk Modulus (GPa) = 58.07515 63.09090 60.58303
# Shear Modulus (GPa) = 44.93915 48.05989 46.49952
#
# Velocity S-wave (km/s) = 4.68766 4.84770 4.76835
# Velocity P-wave (km/s) = 7.59581 7.88565 7.74209
#
# Compressibility (1/GPa) = 0.01721907
#
# Stress axis : x y z
#
# Youngs Moduli (GPa) = 65.41728 137.06756 106.00984
#
# Poissons Ratio (x) = 0.31407 0.38339
# Poissons Ratio (y) = 0.14990 0.15797
# Poissons Ratio (z) = 0.23658 0.20426
#
# Static dielectric constant tensor:
#      x y z
#    x 1.915330 0.000000 -0.037760 
#    y 0.000000 1.774000 0.000000 
#    z -0.037760 0.000000 1.775030 
# 
# From -- ./inp_files/305343.got.cif
#   From: 2010.05.17/outbox.ucp.g08.bks.cvg/sg15_153_cif.got.tgz:305343.got - 2010.06.11 12:40:34.
