data_PCOD9309040
_publ_section_title
;
Structure prediction by ZEFSAII (Michael W. Deem and Ramdas Pophale) SiO2 
 PCOD9309040
Probable space group: C 2/C
;
_chemical_formula_sum "Si O2"
_cell_formula_units_Z 30
_cell_length_a 9.000000
_cell_length_b 24.000000
_cell_length_c 15.000000
_cell_angle_alpha 90.000000
_cell_angle_beta 80.000000
_cell_angle_gamma 90.000000
_cell_volume 3190.777120
_symmetry_space_group_name_H-M "C 2/C"
_symmetry_group_IT_number 15
_symmetry_cell_setting 'monoclinic'
loop_
_space_group_symop_operation_xyz
x,y,z
-x,y,1/2-z
-x,-y,-z
x,-y,1/2+z
1/2+x,1/2+y,z
1/2-x,1/2+y,1/2-z
1/2-x,1/2-y,-z
1/2+x,1/2-y,1/2+z
loop_
_atom_site_type_symbol
_atom_site_label
_atom_site_fract_x
_atom_site_fract_y
_atom_site_fract_z
Si Si1 0.000000 0.545819 0.750000
Si Si2 0.609931 0.627861 0.319361
Si Si3 0.469399 0.840559 0.553761
Si Si4 0.553059 0.716299 0.850037
Si Si5 0.207500 0.629038 0.607472
Si Si6 0.592904 0.450290 0.535762
Si Si7 0.823221 0.445647 0.669384
Si Si8 0.801108 0.812542 0.514784
O O1 0.896987 0.588226 0.820449
O O2 0.905305 0.500677 0.699848
O O3 0.500000 0.647955 0.250000
O O4 0.519508 0.588253 0.396044
O O5 0.731880 0.588134 0.256749
O O6 0.661422 0.675848 0.384114
O O7 0.438941 0.780857 0.610156
O O8 0.381340 0.843603 0.468241
O O9 0.421427 0.894814 0.616562
O O10 0.647593 0.846617 0.515437
O O11 0.500000 0.718032 0.750000
O O12 0.705781 0.679061 0.848138
O O13 0.435604 0.683095 0.928331
O O14 0.325836 0.586972 0.547716
O O15 0.500000 0.500000 0.500000
O O16 0.715914 0.465969 0.599003
O O17 0.750000 0.750000 0.500000
#
# Coordination Sequence:
#
# PCOD9309040 Si02
#       8
#     4   8   8   8   8   8   8   8
#     4  12  26  40  66 100 140 174 226 278 344 400
#     4  10  20  39  66  95 131 169 223 271 327 399
#     4  10  24  44  71  96 137 176 226 281 339 400
#     4  11  25  44  70  99 131 183 230 275 342 403
#     4  11  25  45  64  96 141 179 217 282 342 406
#     4  10  21  39  65  95 126 175 217 275 334 392
#     4  10  23  40  67 100 131 174 227 275 332 401
#     4  10  22  40  64  99 128 167 221 276 329 391
#
# _framework density 9.4020980000000005
#
# number of rings (size 3 to 8) (size 9 to 14) (size 15 to 20)
#    0.000    1.600    1.333    2.000    6.533    4.267 
#    0.000    0.000    0.000    0.000    0.000    0.000 
#    0.000    0.000    0.000    0.000    0.000    0.000 
#
# Total GULP energy -167143.273863 kJ/mol
# GULP energy per Si atom -5571.442462 kJ/mol
# Density = 0.938070 g / cm^3
# Si number density = 9.402098 Si / 1000 Ang^3
#
#
#
# Elastic Constant Matrix: (Units=GPa)
#
#
# Indices 1 2 3 4 5 6 
#
# 1 102.3650 66.8732 63.7381 0.0000 9.8679 0.0000
# 2 66.8732 121.9005 73.0483 0.0000 16.5154 0.0000
# 3 63.7381 73.0483 149.8847 0.0000 9.2073 0.0000
# 4 0.0000 0.0000 0.0000 41.1068 0.0000 10.0400
# 5 9.8679 16.5154 9.2073 0.0000 51.8619 0.0000
# 6 0.0000 0.0000 0.0000 10.0400 0.0000 42.6070
#
#
#
# Elastic Compliance Matrix: (Units=1/GPa)
#
#
# Indices 1 2 3 4 5 6 
#
# 1 0.016561 -0.006827 -0.003695 0.000000 -0.000321 0.000000
# 2 -0.006827 0.014794 -0.004142 0.000000 -0.002677 0.000000
# 3 -0.003695 -0.004142 0.010250 0.000000 0.000203 0.000000
# 4 0.000000 0.000000 0.000000 0.025812 0.000000 -0.006082
# 5 -0.000321 -0.002677 0.000203 0.000000 0.020159 0.000000
# 6 0.000000 0.000000 0.000000 -0.006082 0.000000 0.024904
#
#
# Mechanical properties :
#
#
# Convention : Reuss Voigt Hill
#
# Bulk Modulus (GPa) = 81.47014 86.82995 84.15004
# Shear Modulus (GPa) = 34.26987 38.48117 36.37552
#
# Velocity S-wave (km/s) = 4.27366 4.52864 4.40299
# Velocity P-wave (km/s) = 8.23236 8.58026 8.40811
#
# Compressibility (1/GPa) = 0.01227444
#
# Stress axis : x y z
#
# Youngs Moduli (GPa) = 60.38288 67.59709 97.56497
#
# Poissons Ratio (x) = 0.46150 0.36055
# Poissons Ratio (y) = 0.41225 0.40413
# Poissons Ratio (z) = 0.22314 0.28000
#
# Static dielectric constant tensor:
#      x y z
#    x 1.750260 0.000000 -0.011170 
#    y 0.000000 1.646700 0.000000 
#    z -0.011170 0.000000 1.657380 
# 
# From -- ./inp_files/137342.got.cif
#   From: 2010.05.17/outbox.ucp.g08.bks.cvg/sg15_69_cif.got.tgz:137342.got - 2010.06.11 12:40:34.
