data_PCOD9309541
_publ_section_title
;
Structure prediction by ZEFSAII (Michael W. Deem and Ramdas Pophale) SiO2 
 PCOD9309541
Probable space group: C 2/C
;
_chemical_formula_sum "Si O2"
_cell_formula_units_Z 24
_cell_length_a 18.000000
_cell_length_b 18.000000
_cell_length_c 21.000000
_cell_angle_alpha 90.000000
_cell_angle_beta 20.000000
_cell_angle_gamma 90.000000
_cell_volume 2327.105055
_symmetry_space_group_name_H-M "C 2/C"
_symmetry_group_IT_number 15
_symmetry_cell_setting 'monoclinic'
loop_
_space_group_symop_operation_xyz
x,y,z
-x,y,1/2-z
-x,-y,-z
x,-y,1/2+z
1/2+x,1/2+y,z
1/2-x,1/2+y,1/2-z
1/2-x,1/2-y,-z
1/2+x,1/2-y,1/2+z
loop_
_atom_site_type_symbol
_atom_site_label
_atom_site_fract_x
_atom_site_fract_y
_atom_site_fract_z
Si Si1 0.106448 0.154557 0.986219
Si Si2 0.170674 0.153306 0.417447
Si Si3 0.969108 0.576748 0.445316
Si Si4 0.405809 0.203842 0.925573
Si Si5 0.907970 0.805010 0.252881
Si Si6 0.241721 0.417514 0.855186
O O1 0.018979 0.231637 0.086540
O O2 0.019482 0.149208 0.983444
O O3 0.982956 0.092073 0.129017
O O4 0.369753 0.163929 0.778895
O O5 0.069761 0.158183 0.569928
O O6 0.309874 0.229727 0.301239
O O7 0.339927 0.087818 0.261188
O O8 0.786414 0.637548 0.580359
O O9 0.846377 0.497215 0.548576
O O10 0.083331 0.595469 0.421545
O O11 0.250000 0.250000 0.000000
O O12 0.281390 0.142636 0.069056
O O13 0.000000 0.788933 0.250000
#
# Coordination Sequence:
#
# PCOD9309541 Si02
#       6
#     8   8   8   8   8   8
#     4  11  22  39  67  98 127 182 236 283 338 419
#     4  11  22  39  70  96 131 178 233 285 341 422
#     4  10  23  43  66  98 135 180 231 293 350 415
#     4  12  24  39  65 100 137 179 231 292 352 417
#     4  12  24  39  64 100 134 172 223 285 353 415
#     4  10  23  43  67  96 137 178 233 292 348 413
#
# _framework density 10.313243
#
# number of rings (size 3 to 8) (size 9 to 14) (size 15 to 20)
#    0.000    1.000    3.333    4.000    0.000    1.333 
#    3.000    5.000    3.667    0.000    0.000    0.000 
#    0.000    0.000    0.000    0.000    0.000    0.000 
#
# Total GULP energy -133993.641791 kJ/mol
# GULP energy per Si atom -5583.068408 kJ/mol
# Density = 1.028977 g / cm^3
# Si number density = 10.313243 Si / 1000 Ang^3
#
#
#
# Elastic Constant Matrix: (Units=GPa)
#
#
# Indices 1 2 3 4 5 6 
#
# 1 103.1748 28.4054 47.2533 -0.0297 8.6840 0.0044
# 2 28.4054 54.0054 24.4142 -0.1192 -5.7195 0.0172
# 3 47.2533 24.4142 160.4309 -0.1483 12.4318 0.0171
# 4 -0.0297 -0.1192 -0.1483 36.9735 0.0126 2.7775
# 5 8.6840 -5.7195 12.4318 0.0126 37.9115 -0.0010
# 6 0.0044 0.0172 0.0171 2.7775 -0.0010 29.0194
#
#
#
# Elastic Compliance Matrix: (Units=1/GPa)
#
#
# Indices 1 2 3 4 5 6 
#
# 1 0.012753 -0.005824 -0.002643 -0.000018 -0.002933 0.000005
# 2 -0.005824 0.023184 -0.002244 0.000060 0.005568 -0.000017
# 3 -0.002643 -0.002244 0.007524 0.000022 -0.002200 -0.000005
# 4 -0.000018 0.000060 0.000022 0.027243 -0.000003 -0.002607
# 5 -0.002933 0.005568 -0.002200 -0.000003 0.028611 0.000000
# 6 0.000005 -0.000017 -0.000005 -0.002607 0.000000 0.034709
#
#
# Mechanical properties :
#
#
# Convention : Reuss Voigt Hill
#
# Bulk Modulus (GPa) = 45.37321 57.52855 51.45088
# Shear Modulus (GPa) = 30.71429 35.28341 32.99885
#
# Velocity S-wave (km/s) = 3.86303 4.14041 4.00413
# Velocity P-wave (km/s) = 6.47632 7.12801 6.80996
#
# Compressibility (1/GPa) = 0.02203943
#
# Stress axis : x y z
#
# Youngs Moduli (GPa) = 78.41391 43.13302 132.91431
#
# Poissons Ratio (x) = 0.25119 0.35125
# Poissons Ratio (y) = 0.45666 0.29829
# Poissons Ratio (z) = 0.20722 0.09680
#
# Static dielectric constant tensor:
#      x y z
#    x 1.740200 0.000000 0.017980 
#    y 0.000000 1.739090 0.000040 
#    z 0.017980 0.000040 1.807210 
# 
# From -- ./inp_files/249710.got.cif
#   From: 2010.05.17/outbox.ucp.g08.bks.cvg/sg15_125_cif.got.tgz:249710.got - 2010.06.11 12:40:34.
