data_PCOD9309801
_publ_section_title
;
Structure prediction by ZEFSAII (Michael W. Deem and Ramdas Pophale) SiO2 
 PCOD9309801
Probable space group: C 2/C
;
_chemical_formula_sum "Si O2"
_cell_formula_units_Z 24
_cell_length_a 15.000000
_cell_length_b 15.000000
_cell_length_c 30.000000
_cell_angle_alpha 90.000000
_cell_angle_beta 160.000000
_cell_angle_gamma 90.000000
_cell_volume 2308.635967
_symmetry_space_group_name_H-M "C 2/C"
_symmetry_group_IT_number 15
_symmetry_cell_setting 'monoclinic'
loop_
_space_group_symop_operation_xyz
x,y,z
-x,y,1/2-z
-x,-y,-z
x,-y,1/2+z
1/2+x,1/2+y,z
1/2-x,1/2+y,1/2-z
1/2-x,1/2-y,-z
1/2+x,1/2-y,1/2+z
loop_
_atom_site_type_symbol
_atom_site_label
_atom_site_fract_x
_atom_site_fract_y
_atom_site_fract_z
Si Si1 0.933858 0.109892 0.271267
Si Si2 0.580469 0.204874 0.960104
Si Si3 0.366077 0.017495 0.644011
Si Si4 0.007272 0.230562 0.589822
Si Si5 0.253677 0.942361 0.256326
Si Si6 0.918601 0.151928 0.450392
O O1 0.701817 0.181729 0.177144
O O2 0.000000 0.084284 0.250000
O O3 0.193565 0.166110 0.403032
O O4 0.890409 0.020952 0.282546
O O5 0.419864 0.120153 0.867368
O O6 0.750000 0.250000 0.000000
O O7 0.394572 0.274091 0.899816
O O8 0.500000 0.061980 0.750000
O O9 0.554393 0.012855 0.690230
O O10 0.124720 0.083806 0.523706
O O11 0.277313 0.921278 0.620310
O O12 0.106580 0.136222 0.658713
O O13 0.750000 0.250000 0.500000
O O14 0.976625 0.206897 0.522895
#
# Coordination Sequence:
#
# PCOD9309801 Si02
#       6
#     8   8   8   8   8   8
#     4  12  28  49  76 103 146 197 237 295 367 431
#     4  12  25  45  75 104 141 188 245 293 361 426
#     4  11  23  40  72 106 141 175 237 299 357 411
#     4  12  26  47  72 107 149 192 240 295 363 428
#     4  12  28  45  74 109 145 186 246 300 350 433
#     4  11  24  42  70 104 138 185 232 297 354 420
#
# _framework density 10.395749
#
# number of rings (size 3 to 8) (size 9 to 14) (size 15 to 20)
#    0.000    0.333    6.667    1.000    7.000    3.333 
#    0.000    0.000    0.000    0.000    0.000    0.000 
#    0.000    0.000    0.000    0.000    0.000    0.000 
#
# Total GULP energy -133605.200093 kJ/mol
# GULP energy per Si atom -5566.883337 kJ/mol
# Density = 1.037209 g / cm^3
# Si number density = 10.395749 Si / 1000 Ang^3
#
#
#
# Elastic Constant Matrix: (Units=GPa)
#
#
# Indices 1 2 3 4 5 6 
#
# 1 174.9912 44.3940 14.7858 0.0004 19.1533 -0.0033
# 2 44.3940 110.1892 9.7857 0.0018 15.7130 -0.0056
# 3 14.7858 9.7857 23.1890 0.0012 12.3102 0.0024
# 4 0.0004 0.0018 0.0012 17.8601 -0.0092 -15.3392
# 5 19.1533 15.7130 12.3102 -0.0092 29.3337 0.0027
# 6 -0.0033 -0.0056 0.0024 -15.3392 0.0027 35.2683
#
#
#
# Elastic Compliance Matrix: (Units=1/GPa)
#
#
# Indices 1 2 3 4 5 6 
#
# 1 0.006701 -0.002181 -0.002123 -0.000001 -0.002316 0.000000
# 2 -0.002181 0.010591 -0.001059 -0.000002 -0.003805 0.000001
# 3 -0.002123 -0.001059 0.056467 -0.000027 -0.021744 -0.000014
# 4 -0.000001 -0.000002 -0.000027 0.089376 0.000037 0.038872
# 5 -0.002316 -0.003805 -0.021744 0.000037 0.046766 0.000013
# 6 0.000000 0.000001 -0.000014 0.038872 0.000013 0.045261
#
#
# Mechanical properties :
#
#
# Convention : Reuss Voigt Hill
#
# Bulk Modulus (GPa) = 15.86455 49.58895 32.72675
# Shear Modulus (GPa) = 17.42784 32.45268 24.94026
#
# Velocity S-wave (km/s) = 2.89834 3.95506 3.46720
# Velocity P-wave (km/s) = 4.34136 6.69022 5.63943
#
# Compressibility (1/GPa) = 0.06303363
#
# Stress axis : x y z
#
# Youngs Moduli (GPa) = 149.23813 94.42424 17.70941
#
# Poissons Ratio (x) = 0.20592 0.03759
# Poissons Ratio (y) = 0.32546 0.01875
# Poissons Ratio (z) = 0.31678 0.09999
#
# Static dielectric constant tensor:
#      x y z
#    x 1.734060 0.000000 -0.050990 
#    y 0.000000 1.739250 0.000000 
#    z -0.050990 0.000000 1.926650 
# 
# From -- ./inp_files/314127.got.cif
#   From: 2010.05.17/outbox.ucp.g08.bks.cvg/sg15_158_cif.got.tgz:314127.got - 2010.06.11 12:40:34.
