data_PCOD9309862
_publ_section_title
;
Structure prediction by ZEFSAII (Michael W. Deem and Ramdas Pophale) SiO2 
 PCOD9309862
Probable space group: C 2/C
;
_chemical_formula_sum "Si O2"
_cell_formula_units_Z 30
_cell_length_a 12.000000
_cell_length_b 18.000000
_cell_length_c 27.000000
_cell_angle_alpha 90.000000
_cell_angle_beta 150.000000
_cell_angle_gamma 90.000000
_cell_volume 2916.000000
_symmetry_space_group_name_H-M "C 2/C"
_symmetry_group_IT_number 15
_symmetry_cell_setting 'monoclinic'
loop_
_space_group_symop_operation_xyz
x,y,z
-x,y,1/2-z
-x,-y,-z
x,-y,1/2+z
1/2+x,1/2+y,z
1/2-x,1/2+y,1/2-z
1/2-x,1/2-y,-z
1/2+x,1/2-y,1/2+z
loop_
_atom_site_type_symbol
_atom_site_label
_atom_site_fract_x
_atom_site_fract_y
_atom_site_fract_z
Si Si1 0.556208 0.393936 0.549888
Si Si2 0.449372 0.725256 0.540962
Si Si3 0.000000 0.520838 0.250000
Si Si4 0.429086 0.878609 0.968303
Si Si5 0.398867 0.686841 0.082912
Si Si6 0.452877 0.064286 0.636709
Si Si7 0.234889 0.479329 0.147953
Si Si8 0.109876 0.286461 0.238320
O O1 0.571273 0.341968 0.506770
O O2 0.787485 0.435880 0.647197
O O3 0.539135 0.344378 0.592216
O O4 0.319949 0.440314 0.462831
O O5 0.250000 0.750000 0.500000
O O6 0.525064 0.798597 0.538834
O O7 0.636126 0.700685 0.651917
O O8 0.933394 0.471378 0.271179
O O9 0.270716 0.868090 0.955007
O O10 0.315708 0.936083 0.887272
O O11 0.643956 0.921696 0.071648
O O12 0.559791 0.712873 0.188752
O O13 0.250000 0.750000 0.000000
O O14 0.586923 0.035692 0.640451
O O15 0.499895 0.151019 0.662233
O O16 0.500000 0.469390 0.250000
O O17 0.000000 0.284657 0.250000
#
# Coordination Sequence:
#
# PCOD9309862 Si02
#       8
#     8   8   4   8   8   8   8   8
#     4  12  26  49  70 104 141 185 243 287 359 417
#     4  12  28  45  70 105 145 178 234 309 345 413
#     4  12  30  42  72 104 138 188 238 290 342 414
#     4  11  24  47  66 102 135 182 226 286 355 415
#     4  12  21  44  76 100 134 179 234 289 343 433
#     4  12  24  49  71  96 142 189 234 288 349 431
#     4  11  28  43  70 101 140 182 230 286 356 424
#     4  12  22  43  74 102 127 187 241 276 356 421
#
# _framework density 10.288066000000001
#
# number of rings (size 3 to 8) (size 9 to 14) (size 15 to 20)
#    0.000    0.267    7.333    0.400    9.333    0.000 
#    1.200    0.000    0.000    0.000    0.000    0.000 
#    0.000    0.000    0.000    0.000    0.000    0.000 
#
# Total GULP energy -167347.480722 kJ/mol
# GULP energy per Si atom -5578.249357 kJ/mol
# Density = 1.026465 g / cm^3
# Si number density = 10.288066 Si / 1000 Ang^3
#
#
#
# Elastic Constant Matrix: (Units=GPa)
#
#
# Indices 1 2 3 4 5 6 
#
# 1 121.8400 23.2822 36.1527 -0.0004 6.8432 -0.0001
# 2 23.2822 62.2167 45.4252 -0.0003 -11.8739 -0.0001
# 3 36.1527 45.4252 131.1396 0.0000 16.4430 0.0002
# 4 -0.0004 -0.0003 0.0000 18.5302 -0.0001 -31.1942
# 5 6.8432 -11.8739 16.4430 -0.0001 18.9596 0.0001
# 6 -0.0001 -0.0001 0.0002 -31.1942 0.0001 20.6104
#
#
#
# Elastic Compliance Matrix: (Units=1/GPa)
#
#
# Indices 1 2 3 4 5 6 
#
# 1 0.009486 -0.004425 -0.000343 0.000000 -0.005898 0.000000
# 2 -0.004425 0.037508 -0.016738 -0.000001 0.039604 -0.000001
# 3 -0.000343 -0.016738 0.016624 0.000000 -0.024777 0.000001
# 4 0.000000 -0.000001 0.000000 -0.034864 -0.000001 -0.052768
# 5 -0.005898 0.039604 -0.024777 -0.000001 0.101163 -0.000001
# 6 0.000000 -0.000001 0.000001 -0.052768 -0.000001 -0.031346
#
#
# Mechanical properties :
#
#
# Convention : Reuss Voigt Hill
#
# Bulk Modulus (GPa) = 48.52876 58.32405 53.42641
# Shear Modulus (GPa) = 33.68091 25.64246 29.66169
#
# Velocity S-wave (km/s) = 4.05024 3.53402 3.80090
# Velocity P-wave (km/s) = 6.74602 6.71263 6.72935
#
# Compressibility (1/GPa) = 0.02060634
#
# Stress axis : x y z
#
# Youngs Moduli (GPa) = 105.41803 26.66123 60.15231
#
# Poissons Ratio (x) = 0.11798 0.02062
# Poissons Ratio (y) = 0.46648 1.00683
# Poissons Ratio (z) = 0.03614 0.44626
#
# Static dielectric constant tensor:
#      x y z
#    x 1.673560 0.000000 -0.006830 
#    y 0.000000 1.590090 0.000000 
#    z -0.006830 0.000000 1.720810 
# 
# From -- ./inp_files/293565.got.cif
#   From: 2010.05.17/outbox.ucp.g08.bks.cvg/sg15_147_cif.got.tgz:293565.got - 2010.06.11 12:40:34.
