data_PCOD9309248
_publ_section_title
;
Structure prediction by ZEFSAII (Michael W. Deem and Ramdas Pophale) SiO2 
 PCOD9309248
Probable space group: C 2/C
;
_chemical_formula_sum "Si O2"
_cell_formula_units_Z 24
_cell_length_a 12.000000
_cell_length_b 15.000000
_cell_length_c 21.000000
_cell_angle_alpha 90.000000
_cell_angle_beta 40.000000
_cell_angle_gamma 90.000000
_cell_volume 2429.737165
_symmetry_space_group_name_H-M "C 2/C"
_symmetry_group_IT_number 15
_symmetry_cell_setting 'monoclinic'
loop_
_space_group_symop_operation_xyz
x,y,z
-x,y,1/2-z
-x,-y,-z
x,-y,1/2+z
1/2+x,1/2+y,z
1/2-x,1/2+y,1/2-z
1/2-x,1/2-y,-z
1/2+x,1/2-y,1/2+z
loop_
_atom_site_type_symbol
_atom_site_label
_atom_site_fract_x
_atom_site_fract_y
_atom_site_fract_z
Si Si1 0.834743 0.822788 0.884779
Si Si2 0.804719 0.141619 0.782938
Si Si3 0.020962 0.551844 0.170210
Si Si4 0.145751 0.751733 0.110900
Si Si5 0.672249 0.430207 0.741597
Si Si6 0.569482 0.860106 0.108828
O O1 0.793689 0.870976 0.836247
O O2 0.880120 0.717318 0.862818
O O3 0.996664 0.881072 0.842681
O O4 0.670556 0.831315 0.001547
O O5 0.775003 0.191231 0.864454
O O6 0.634466 0.147021 0.814910
O O7 0.961950 0.197740 0.684017
O O8 0.850155 0.035496 0.766626
O O9 0.116378 0.646658 0.136908
O O10 0.109292 0.465812 0.098893
O O11 0.000000 0.515433 0.250000
O O12 0.837722 0.571908 0.215737
O O13 0.250000 0.750000 0.000000
#
# Coordination Sequence:
#
# PCOD9309248 Si02
#       6
#     8   8   8   8   8   8
#     4  10  21  41  65  96 116 168 211 255 303 378
#     4  10  22  44  60  95 125 166 211 262 298 382
#     4  11  24  42  59  94 125 165 199 265 312 370
#     4  11  23  38  65  90 128 165 211 254 315 363
#     4  10  23  40  70  84 130 163 214 251 307 373
#     4  10  24  40  66  88 132 156 213 256 316 367
#
# _framework density 9.8776119999999992
#
# number of rings (size 3 to 8) (size 9 to 14) (size 15 to 20)
#    0.000    1.667    1.667    3.000    9.333    1.333 
#    0.000    0.833    0.000    0.000    0.000    0.000 
#    0.000    0.000    0.000    0.000    0.000    0.000 
#
# Total GULP energy -133720.785058 kJ/mol
# GULP energy per Si atom -5571.699377 kJ/mol
# Density = 0.985513 g / cm^3
# Si number density = 9.877612 Si / 1000 Ang^3
#
#
#
# Elastic Constant Matrix: (Units=GPa)
#
#
# Indices 1 2 3 4 5 6 
#
# 1 47.7664 10.4234 -6.7333 0.0000 5.5554 0.0000
# 2 10.4234 130.2005 -7.5684 0.0000 -3.9905 0.0000
# 3 -6.7333 -7.5684 66.9446 -0.0001 18.1208 0.0001
# 4 0.0000 0.0000 -0.0001 34.2868 0.0001 -1.6408
# 5 5.5554 -3.9905 18.1208 0.0001 5.4878 0.0000
# 6 0.0000 0.0000 0.0001 -1.6408 0.0000 27.9659
#
#
#
# Elastic Compliance Matrix: (Units=1/GPa)
#
#
# Indices 1 2 3 4 5 6 
#
# 1 -0.017902 0.004989 -0.067084 -0.000001 0.243264 0.000001
# 2 0.004989 0.006748 0.012277 0.000000 -0.040681 0.000000
# 3 -0.067084 0.012277 -0.105656 -0.000001 0.425714 0.000001
# 4 -0.000001 0.000000 -0.000001 0.029248 0.000004 0.001716
# 5 0.243264 -0.040681 0.425714 0.000004 -1.499334 -0.000004
# 6 0.000001 0.000000 0.000001 0.001716 -0.000004 0.035859
#
#
# Mechanical properties :
#
#
# Convention : Reuss Voigt Hill
#
# Bulk Modulus (GPa) = -4.62007 26.35057 10.86525
# Shear Modulus (GPa) = -3.28181 30.13407 13.42613
#
# Velocity S-wave (km/s) = -1.29029 3.90984 2.60979
# Velocity P-wave (km/s) = 2.13624 5.80947 3.82011
#
# Compressibility (1/GPa) = -0.21644679
#
# Stress axis : x y z
#
# Youngs Moduli (GPa) = -55.85897 148.19631 -9.46470
#
# Poissons Ratio (x) = -0.73941 -0.63493
# Poissons Ratio (y) = 0.27870 0.11619
# Poissons Ratio (z) = -3.74726 -1.81934
#
# Static dielectric constant tensor:
#      x y z
#    x 1.718720 0.000000 0.028000 
#    y 0.000000 1.715650 0.000000 
#    z 0.028000 0.000000 1.757200 
# 
# From -- ./inp_files/238936.got.cif
#   From: 2010.05.17/outbox.ucp.g08.bks.cvg/sg15_120_cif.got.tgz:238936.got - 2010.06.11 12:40:34.
