data_PCOD9309038
_publ_section_title
;
Structure prediction by ZEFSAII (Michael W. Deem and Ramdas Pophale) SiO2 
 PCOD9309038
Probable space group: C 2/C
;
_chemical_formula_sum "Si O2"
_cell_formula_units_Z 32
_cell_length_a 27.000000
_cell_length_b 12.000000
_cell_length_c 15.000000
_cell_angle_alpha 90.000000
_cell_angle_beta 140.000000
_cell_angle_gamma 90.000000
_cell_volume 3123.947783
_symmetry_space_group_name_H-M "C 2/C"
_symmetry_group_IT_number 15
_symmetry_cell_setting 'monoclinic'
loop_
_space_group_symop_operation_xyz
x,y,z
-x,y,1/2-z
-x,-y,-z
x,-y,1/2+z
1/2+x,1/2+y,z
1/2-x,1/2+y,1/2-z
1/2-x,1/2-y,-z
1/2+x,1/2-y,1/2+z
loop_
_atom_site_type_symbol
_atom_site_label
_atom_site_fract_x
_atom_site_fract_y
_atom_site_fract_z
Si Si1 0.821749 0.502364 0.078299
Si Si2 0.652450 0.443555 0.598773
Si Si3 0.755604 0.616137 0.648733
Si Si4 0.130898 0.505345 0.064403
Si Si5 0.512258 0.635267 0.660361
Si Si6 0.282477 0.218275 0.272970
Si Si7 0.826011 0.915645 0.201227
Si Si8 0.479634 0.889639 0.827815
O O1 0.794935 0.403582 0.107792
O O2 0.893628 0.566069 0.220603
O O3 0.848379 0.484586 0.012319
O O4 0.745174 0.576202 0.963878
O O5 0.684528 0.532824 0.571805
O O6 0.561674 0.430083 0.476698
O O7 0.698395 0.332081 0.636118
O O8 0.676974 0.482829 0.731684
O O9 0.817084 0.585094 0.811801
O O10 0.724513 0.734961 0.635978
O O11 0.156794 0.619438 0.143950
O O12 0.042915 0.472055 0.954702
O O13 0.500000 0.634012 0.750000
O O14 0.593518 0.588176 0.739265
O O15 0.510060 0.763667 0.625879
O O16 0.311119 0.310012 0.243843
O O17 0.500000 0.886521 0.750000
#
# Coordination Sequence:
#
# PCOD9309038 Si02
#       8
#     8   8   8   8   8   8   8   8
#     4  11  21  40  62  92 127 159 204 260 310 366
#     4  10  21  41  59  87 129 163 202 263 305 367
#     4  10  21  36  65  92 117 168 207 251 315 372
#     4  10  20  42  57  88 134 157 201 266 302 370
#     4  11  23  37  61  95 122 161 210 256 312 379
#     4  10  20  39  66  86 122 169 208 249 314 382
#     4  11  23  40  64  91 125 166 206 259 314 372
#     4   9  22  37  60  90 127 157 194 260 312 359
#
# _framework density 10.243449
#
# number of rings (size 3 to 8) (size 9 to 14) (size 15 to 20)
#    0.000    1.750    3.750    1.875    7.000    1.500 
#    2.250    0.000    0.000    6.000    0.000    0.000 
#    0.000    0.000    0.000    0.000    0.000    0.000 
#
# Total GULP energy -178490.432612 kJ/mol
# GULP energy per Si atom -5577.826019 kJ/mol
# Density = 1.022013 g / cm^3
# Si number density = 10.243449 Si / 1000 Ang^3
#
#
#
# Elastic Constant Matrix: (Units=GPa)
#
#
# Indices 1 2 3 4 5 6 
#
# 1 104.2851 2.0544 45.4887 0.0000 14.0301 0.0000
# 2 2.0544 37.4642 26.4502 0.0000 7.3940 0.0000
# 3 45.4887 26.4502 90.5342 0.0000 41.4560 0.0000
# 4 0.0000 0.0000 0.0000 -16.1341 0.0000 -7.6622
# 5 14.0301 7.3940 41.4560 0.0000 40.4513 0.0000
# 6 0.0000 0.0000 0.0000 -7.6622 0.0000 16.3229
#
#
#
# Elastic Compliance Matrix: (Units=1/GPa)
#
#
# Indices 1 2 3 4 5 6 
#
# 1 0.013581 0.006024 -0.011160 0.000000 0.005625 0.000000
# 2 0.006024 0.037515 -0.018636 0.000000 0.010152 0.000000
# 3 -0.011160 -0.018636 0.035358 0.000000 -0.028959 0.000000
# 4 0.000000 0.000000 0.000000 -0.050682 0.000000 -0.023791
# 5 0.005625 0.010152 -0.028959 0.000000 0.050593 0.000000
# 6 0.000000 0.000000 0.000000 -0.023791 0.000000 0.050096
#
#
# Mechanical properties :
#
#
# Convention : Reuss Voigt Hill
#
# Bulk Modulus (GPa) = 25.69932 42.25223 33.97578
# Shear Modulus (GPa) = 25.38403 18.68069 22.03236
#
# Velocity S-wave (km/s) = 3.52382 3.02294 3.28294
# Velocity P-wave (km/s) = 5.39702 5.73175 5.56691
#
# Compressibility (1/GPa) = 0.03891153
#
# Stress axis : x y z
#
# Youngs Moduli (GPa) = 73.62975 26.65581 28.28240
#
# Poissons Ratio (x) = -0.16057 0.31562
# Poissons Ratio (y) = -0.44354 0.52706
# Poissons Ratio (z) = 0.82169 0.49675
#
# Static dielectric constant tensor:
#      x y z
#    x 1.721890 0.000000 -0.011310 
#    y 0.000000 1.758060 0.000000 
#    z -0.011310 0.000000 1.782550 
# 
# From -- ./inp_files/177839.got.cif
#   From: 2010.05.17/outbox.ucp.g08.bks.cvg/sg15_89_cif.got.tgz:177839.got - 2010.06.11 12:40:34.
