data_PCOD9309082
_publ_section_title
;
Structure prediction by ZEFSAII (Michael W. Deem and Ramdas Pophale) SiO2 
 PCOD9309082
Probable space group: C 2/C
;
_chemical_formula_sum "Si O2"
_cell_formula_units_Z 28
_cell_length_a 18.000000
_cell_length_b 12.000000
_cell_length_c 15.000000
_cell_angle_alpha 90.000000
_cell_angle_beta 60.000000
_cell_angle_gamma 90.000000
_cell_volume 2805.922308
_symmetry_space_group_name_H-M "C 2/C"
_symmetry_group_IT_number 15
_symmetry_cell_setting 'monoclinic'
loop_
_space_group_symop_operation_xyz
x,y,z
-x,y,1/2-z
-x,-y,-z
x,-y,1/2+z
1/2+x,1/2+y,z
1/2-x,1/2+y,1/2-z
1/2-x,1/2-y,-z
1/2+x,1/2-y,1/2+z
loop_
_atom_site_type_symbol
_atom_site_label
_atom_site_fract_x
_atom_site_fract_y
_atom_site_fract_z
Si Si1 0.688607 0.143483 0.539974
Si Si2 0.228806 0.556558 0.879002
Si Si3 0.503363 0.789975 0.398760
Si Si4 0.409199 0.760813 0.974590
Si Si5 0.000000 0.872870 0.750000
Si Si6 0.135916 0.467784 0.254444
Si Si7 0.500000 0.870130 0.750000
Si Si8 0.593340 0.418612 0.156681
O O1 0.750000 0.250000 0.500000
O O2 0.594608 0.182136 0.563021
O O3 0.679081 0.098925 0.646944
O O4 0.717322 0.042734 0.457760
O O5 0.200650 0.514079 0.797913
O O6 0.327526 0.595986 0.824117
O O7 0.167886 0.659661 0.945976
O O8 0.524915 0.748481 0.483824
O O9 0.536197 0.702113 0.306356
O O10 0.558880 0.898924 0.346531
O O11 0.458079 0.815942 0.862611
O O12 0.382203 0.642162 0.949393
O O13 0.927580 0.950696 0.837082
O O14 0.083285 0.566432 0.239976
O O15 0.500000 0.378662 0.250000
#
# Coordination Sequence:
#
# PCOD9309082 Si02
#       8
#     8   8   8   8   4   8   4   8
#     4  12  23  40  64  99 133 170 221 270 319 398
#     4  11  24  43  64 100 126 171 218 274 325 381
#     4  11  21  41  66  94 125 174 212 266 333 390
#     4  11  23  40  71  94 126 168 223 270 328 391
#     4  10  20  42  66  84 140 170 210 268 324 402
#     4  11  22  40  67  94 131 164 212 271 330 380
#     4  12  18  42  66  94 130 164 202 280 326 372
#     4  10  24  44  62  87 132 170 213 265 322 395
#
# _framework density 9.9788940000000004
#
# number of rings (size 3 to 8) (size 9 to 14) (size 15 to 20)
#    0.429    0.571    5.000    2.143    0.000    4.000 
#    5.143    0.000    0.000    0.000    0.000    0.000 
#    0.000    0.000    0.000    0.000    0.000    0.000 
#
# Total GULP energy -156090.605927 kJ/mol
# GULP energy per Si atom -5574.664497 kJ/mol
# Density = 0.995618 g / cm^3
# Si number density = 9.978894 Si / 1000 Ang^3
#
#
#
# Elastic Constant Matrix: (Units=GPa)
#
#
# Indices 1 2 3 4 5 6 
#
# 1 128.6011 26.8548 65.6631 0.0000 19.6295 0.0000
# 2 26.8548 40.4011 15.6540 0.0000 7.8553 0.0000
# 3 65.6631 15.6540 63.0135 0.0000 19.7963 0.0000
# 4 0.0000 0.0000 0.0000 23.4378 0.0000 3.6121
# 5 19.6295 7.8553 19.7963 0.0000 42.4584 0.0000
# 6 0.0000 0.0000 0.0000 3.6121 0.0000 4.5274
#
#
#
# Elastic Compliance Matrix: (Units=1/GPa)
#
#
# Indices 1 2 3 4 5 6 
#
# 1 0.017532 -0.005135 -0.017276 0.000000 0.000900 0.000000
# 2 -0.005135 0.029072 -0.001087 0.000000 -0.002498 0.000000
# 3 -0.017276 -0.001087 0.036988 0.000000 -0.009057 0.000000
# 4 0.000000 0.000000 0.000000 0.048648 0.000000 -0.038813
# 5 0.000900 -0.002498 -0.009057 0.000000 0.027822 0.000000
# 6 0.000000 0.000000 0.000000 -0.038813 0.000000 0.251845
#
#
# Mechanical properties :
#
#
# Convention : Reuss Voigt Hill
#
# Bulk Modulus (GPa) = 27.32533 49.81773 38.57153
# Shear Modulus (GPa) = 10.61345 22.34096 16.47721
#
# Velocity S-wave (km/s) = 2.30857 3.34939 2.87645
# Velocity P-wave (km/s) = 4.56369 6.32247 5.51366
#
# Compressibility (1/GPa) = 0.03659609
#
# Stress axis : x y z
#
# Youngs Moduli (GPa) = 57.03802 34.39784 27.03592
#
# Poissons Ratio (x) = 0.17662 0.46708
# Poissons Ratio (y) = 0.29287 0.02938
# Poissons Ratio (z) = 0.98541 0.03738
#
# Static dielectric constant tensor:
#      x y z
#    x 1.732220 0.000000 -0.016960 
#    y 0.000000 1.816350 0.000000 
#    z -0.016960 0.000000 1.674630 
# 
# From -- ./inp_files/161264.got.cif
#   From: 2010.05.17/outbox.ucp.g08.bks.cvg/sg15_81_cif.got.tgz:161264.got - 2010.06.11 12:40:34.
