data_PCOD9309956
_publ_section_title
;
Structure prediction by ZEFSAII (Michael W. Deem and Ramdas Pophale) SiO2 
 PCOD9309956
Probable space group: P 2 2 2
;
_chemical_formula_sum "Si O2"
_cell_formula_units_Z 32
_cell_length_a 9.548410
_cell_length_b 14.960656
_cell_length_c 11.878610
_cell_angle_alpha 90.000000
_cell_angle_beta 90.000000
_cell_angle_gamma 90.000000
_cell_volume 1696.865109
_symmetry_space_group_name_H-M "P 2 2 2"
_symmetry_group_IT_number 16
_symmetry_cell_setting 'orthorhombic'
loop_
_space_group_symop_operation_xyz
x,y,z
-x,-y,z
x,-y,-z
-x,y,-z
loop_
_atom_site_type_symbol
_atom_site_label
_atom_site_fract_x
_atom_site_fract_y
_atom_site_fract_z
Si Si1 0.835107 0.604841 0.768896
Si Si2 0.156790 0.100910 0.256486
Si Si3 0.833122 0.712778 1.000000
Si Si4 0.238125 0.097913 1.000000
Si Si5 0.334934 0.744701 0.633294
Si Si6 0.164894 0.604842 0.768896
Si Si7 0.156790 0.899091 0.256486
Si Si8 0.334933 0.744701 0.366706
O O1 0.802658 0.500000 0.776849
O O2 0.741834 0.656782 0.679122
O O3 0.000000 0.613958 0.740817
O O4 0.814388 0.653694 0.888793
O O5 0.266450 0.171358 0.302641
O O6 0.000000 0.128172 0.290265
O O7 0.184021 0.000000 0.297382
O O8 0.161507 0.096276 0.120562
O O9 0.814387 0.653695 0.111208
O O10 0.724282 0.796126 0.999999
O O11 0.000000 0.742118 0.000000
O O12 0.161506 0.096275 0.879439
O O13 0.317144 0.000000 0.000000
O O14 0.258166 0.656782 0.679122
O O15 0.313563 0.754820 0.500000
O O16 0.500000 0.740438 0.655981
O O17 0.266450 0.828642 0.302640
#
# Coordination Sequence:
#
# PCOD9309956 Si02
#       8
#     4   4   4   4   4   4   4   4
#     4  10  21  38  62  90 116 146 189 240 291 344
#     4  10  20  36  61  91 120 151 190 235 282 338
#     4  10  17  31  58  90 123 151 178 225 288 350
#     4  10  18  30  57  95 126 150 179 224 287 349
#     4  11  25  42  58  79 113 157 199 240 289 343
#     4  10  21  38  62  90 116 146 189 240 291 344
#     4  10  20  36  61  91 120 151 190 235 282 338
#     4  11  25  42  58  79 113 157 199 240 289 343
#
# _framework density 18.858305000000001
#
# number of rings (size 3 to 8) (size 9 to 14) (size 15 to 20)
#    0.000    1.750    2.500    2.250    0.000    8.250 
#    0.000    7.500    0.000    3.750    0.000    0.000 
#    0.000    0.000    0.000    0.000    0.000    0.000 
#
# Total GULP energy -178305.263165 kJ/mol
# GULP energy per Si atom -5572.039474 kJ/mol
# Density = 1.881538 g / cm^3
# Si number density = 18.858305 Si / 1000 Ang^3
#
#
#
# Elastic Constant Matrix: (Units=GPa)
#
#
# Indices 1 2 3 4 5 6 
#
# 1 71.6341 69.7488 60.3691 0.0000 0.0000 0.0000
# 2 69.7488 152.9338 58.4470 0.0000 0.0000 0.0000
# 3 60.3691 58.4470 81.3951 0.0000 0.0000 0.0000
# 4 0.0000 0.0000 0.0000 6.3538 0.0000 0.0000
# 5 0.0000 0.0000 0.0000 0.0000 31.0165 0.0000
# 6 0.0000 0.0000 0.0000 0.0000 0.0000 5.9033
#
#
#
# Elastic Compliance Matrix: (Units=1/GPa)
#
#
# Indices 1 2 3 4 5 6 
#
# 1 0.048594 -0.011561 -0.027740 0.000000 0.000000 0.000000
# 2 -0.011561 0.011762 0.000129 0.000000 0.000000 0.000000
# 3 -0.027740 0.000129 0.032767 0.000000 0.000000 0.000000
# 4 0.000000 0.000000 0.000000 0.157386 0.000000 0.000000
# 5 0.000000 0.000000 0.000000 0.000000 0.032241 0.000000
# 6 0.000000 0.000000 0.000000 0.000000 0.000000 0.169398
#
#
# Mechanical properties :
#
#
# Convention : Reuss Voigt Hill
#
# Bulk Modulus (GPa) = 67.66187 75.89921 71.78054
# Shear Modulus (GPa) = 9.33848 16.48125 12.90987
#
# Velocity S-wave (km/s) = 2.22771 2.95948 2.61927
# Velocity P-wave (km/s) = 6.52487 7.21197 6.87700
#
# Compressibility (1/GPa) = 0.01477937
#
# Stress axis : x y z
#
# Youngs Moduli (GPa) = 20.57864 85.01694 30.51812
#
# Poissons Ratio (x) = 0.98289 0.84656
# Poissons Ratio (y) = 0.23791 -0.00392
# Poissons Ratio (z) = 0.57084 -0.01092
#
# Static dielectric constant tensor:
#      x y z
#    x 1.630560 0.000000 0.000000 
#    y 0.000000 1.683530 0.000000 
#    z 0.000000 0.000000 1.633910 
# 
# From -- ./inp_files/6623.got.cif
#   From: 2010.05.17/outbox.cif.g08.bks.cpg/sg16_4_cif.got.tgz:6623.got - 2010.06.03 22:28:35.
