data_PCOD9309387
_publ_section_title
;
Structure prediction by ZEFSAII (Michael W. Deem and Ramdas Pophale) SiO2 
 PCOD9309387
Probable space group: C 2/C
;
_chemical_formula_sum "Si O2"
_cell_formula_units_Z 28
_cell_length_a 15.000000
_cell_length_b 12.000000
_cell_length_c 15.000000
_cell_angle_alpha 90.000000
_cell_angle_beta 90.000000
_cell_angle_gamma 90.000000
_cell_volume 2700.000000
_symmetry_space_group_name_H-M "C 2/C"
_symmetry_group_IT_number 15
_symmetry_cell_setting 'monoclinic'
loop_
_space_group_symop_operation_xyz
x,y,z
-x,y,1/2-z
-x,-y,-z
x,-y,1/2+z
1/2+x,1/2+y,z
1/2-x,1/2+y,1/2-z
1/2-x,1/2-y,-z
1/2+x,1/2-y,1/2+z
loop_
_atom_site_type_symbol
_atom_site_label
_atom_site_fract_x
_atom_site_fract_y
_atom_site_fract_z
Si Si1 0.871453 0.200610 0.179417
Si Si2 0.013119 0.282534 0.042720
Si Si3 0.912178 0.410294 0.299763
Si Si4 0.773820 0.582222 0.221175
Si Si5 0.117903 0.049848 0.073267
Si Si6 0.939649 0.278636 0.662047
Si Si7 0.071278 0.030411 0.877683
O O1 0.898559 0.289142 0.254280
O O2 0.770343 0.166381 0.205715
O O3 0.913587 0.077188 0.182862
O O4 0.916728 0.253702 0.089343
O O5 0.058595 0.383942 0.098453
O O6 0.075330 0.174082 0.063179
O O7 0.013816 0.297396 0.935463
O O8 0.824934 0.482739 0.274709
O O9 0.000000 0.458380 0.250000
O O10 0.698523 0.548994 0.145502
O O11 0.852636 0.644870 0.169039
O O12 0.034362 0.972135 0.100756
O O13 0.130404 0.016746 0.968488
O O14 0.000000 0.294850 0.750000
O O15 0.908603 0.149464 0.663389
#
# Coordination Sequence:
#
# PCOD9309387 Si02
#       7
#     8   8   8   8   8   8   8
#     4  10  22  40  68  97 127 176 230 268 323 407
#     4   9  20  45  70  90 130 188 225 262 338 420
#     4  10  22  43  66  94 134 188 224 261 339 412
#     4  12  25  38  65 103 141 165 228 286 328 389
#     4   9  19  39  65 101 130 170 226 273 333 397
#     4  11  26  43  66 100 141 174 222 285 349 389
#     4   9  21  39  67  96 133 175 215 275 345 398
#
# _framework density 10.370369999999999
#
# number of rings (size 3 to 8) (size 9 to 14) (size 15 to 20)
#    0.000    2.000    1.429    1.286    6.000    3.429 
#    0.000   10.714    0.000    0.000    0.000    0.000 
#    0.000    0.000    0.000    0.000    0.000    0.000 
#
# Total GULP energy -156093.490944 kJ/mol
# GULP energy per Si atom -5574.767534 kJ/mol
# Density = 1.034677 g / cm^3
# Si number density = 10.370370 Si / 1000 Ang^3
#
#
#
# Elastic Constant Matrix: (Units=GPa)
#
#
# Indices 1 2 3 4 5 6 
#
# 1 98.2792 19.1418 60.7305 0.0000 12.2736 0.0000
# 2 19.1418 80.9970 34.4503 0.0000 4.1499 0.0000
# 3 60.7305 34.4503 155.0318 0.0000 3.8708 0.0000
# 4 0.0000 0.0000 0.0000 456.3978 0.0000 128.4553
# 5 12.2736 4.1499 3.8708 0.0000 38.1888 0.0000
# 6 0.0000 0.0000 0.0000 128.4553 0.0000 80.5069
#
#
#
# Elastic Compliance Matrix: (Units=1/GPa)
#
#
# Indices 1 2 3 4 5 6 
#
# 1 0.014055 -0.000908 -0.005207 0.000000 -0.003891 0.000000
# 2 -0.000908 0.013746 -0.002676 0.000000 -0.000931 0.000000
# 3 -0.005207 -0.002676 0.009059 0.000000 0.001046 0.000000
# 4 0.000000 0.000000 0.000000 0.003977 0.000000 -0.006346
# 5 -0.003891 -0.000931 0.001046 0.000000 0.027431 0.000000
# 6 0.000000 0.000000 0.000000 -0.006346 0.000000 0.022547
#
#
# Mechanical properties :
#
#
# Convention : Reuss Voigt Hill
#
# Bulk Modulus (GPa) = 51.86915 62.55035 57.20975
# Shear Modulus (GPa) = 43.54522 129.68438 86.61480
#
# Velocity S-wave (km/s) = 4.58700 7.91594 6.46926
# Velocity P-wave (km/s) = 7.28812 10.66645 9.13482
#
# Compressibility (1/GPa) = 0.01927928
#
# Stress axis : x y z
#
# Youngs Moduli (GPa) = 71.14684 72.74605 110.39283
#
# Poissons Ratio (x) = 0.06602 0.57483
# Poissons Ratio (y) = 0.06457 0.29540
# Poissons Ratio (z) = 0.37047 0.19466
#
# Static dielectric constant tensor:
#      x y z
#    x 1.767670 0.000000 -0.041900 
#    y 0.000000 1.774110 0.000000 
#    z -0.041900 0.000000 1.797740 
# 
# From -- ./inp_files/152594.got.cif
#   From: 2010.05.17/outbox.ucp.g08.bks.cvg/sg15_77_cif.got.tgz:152594.got - 2010.06.11 12:40:34.
