data_PCOD9309151
_publ_section_title
;
Structure prediction by ZEFSAII (Michael W. Deem and Ramdas Pophale) SiO2 
 PCOD9309151
Probable space group: C 2/C
;
_chemical_formula_sum "Si O2"
_cell_formula_units_Z 24
_cell_length_a 27.000000
_cell_length_b 9.000000
_cell_length_c 15.000000
_cell_angle_alpha 90.000000
_cell_angle_beta 40.000000
_cell_angle_gamma 90.000000
_cell_volume 2342.960837
_symmetry_space_group_name_H-M "C 2/C"
_symmetry_group_IT_number 15
_symmetry_cell_setting 'monoclinic'
loop_
_space_group_symop_operation_xyz
x,y,z
-x,y,1/2-z
-x,-y,-z
x,-y,1/2+z
1/2+x,1/2+y,z
1/2-x,1/2+y,1/2-z
1/2-x,1/2-y,-z
1/2+x,1/2-y,1/2+z
loop_
_atom_site_type_symbol
_atom_site_label
_atom_site_fract_x
_atom_site_fract_y
_atom_site_fract_z
Si Si1 0.704745 0.144667 0.845433
Si Si2 0.423713 0.621137 0.034920
Si Si3 0.815309 0.397653 0.762720
Si Si4 0.943750 0.203533 0.511932
Si Si5 0.500000 0.810807 0.250000
Si Si6 0.122480 0.448511 0.629677
Si Si7 0.000000 0.198319 0.750000
O O1 0.641646 0.258691 0.892772
O O2 0.765231 0.253017 0.809245
O O3 0.721965 0.033868 0.740323
O O4 0.671449 0.044654 0.971631
O O5 0.478965 0.679940 0.037059
O O6 0.398957 0.452564 0.089648
O O7 0.470973 0.612732 0.876772
O O8 0.898707 0.348639 0.608722
O O9 0.827879 0.433831 0.849182
O O10 0.960401 0.222897 0.384683
O O11 0.436505 0.914757 0.289521
O O12 0.069084 0.302869 0.690271
#
# Coordination Sequence:
#
# PCOD9309151 Si02
#       7
#     8   8   8   8   4   8   4
#     4  11  24  41  63  88 128 165 211 254 309 372
#     4  10  21  38  60  94 120 163 201 257 309 365
#     4  12  23  42  63  89 123 170 208 258 312 371
#     4  11  22  37  64  92 127 157 208 259 313 365
#     4  11  21  38  64 100 126 156 208 264 310 362
#     4  10  21  37  64  92 121 159 207 252 307 369
#     4   9  17  34  60  90 118 152 200 248 300 364
#
# _framework density 10.243449
#
# number of rings (size 3 to 8) (size 9 to 14) (size 15 to 20)
#    0.000    1.333    3.333    3.000    0.000    1.333 
#    0.000    0.833    0.000    0.000    0.000    0.000 
#    0.000    0.000    0.000    0.000    0.000    0.000 
#
# Total GULP energy -133967.612017 kJ/mol
# GULP energy per Si atom -5581.983834 kJ/mol
# Density = 1.022013 g / cm^3
# Si number density = 10.243449 Si / 1000 Ang^3
#
#
#
# Elastic Constant Matrix: (Units=GPa)
#
#
# Indices 1 2 3 4 5 6 
#
# 1 117.7010 22.5799 4.0142 0.0000 17.0891 0.0000
# 2 22.5799 63.6505 -5.0939 -0.0005 1.1086 0.0001
# 3 4.0142 -5.0939 6.2078 0.0000 7.7347 0.0000
# 4 0.0000 -0.0005 0.0000 -0.0332 0.0001 9.2280
# 5 17.0891 1.1086 7.7347 0.0001 24.7825 0.0000
# 6 0.0000 0.0001 0.0000 9.2280 0.0000 20.1807
#
#
#
# Elastic Compliance Matrix: (Units=1/GPa)
#
#
# Indices 1 2 3 4 5 6 
#
# 1 0.010168 -0.003631 -0.001670 0.000000 -0.006328 0.000000
# 2 -0.003631 0.019217 0.026294 -0.000003 -0.006563 0.000001
# 3 -0.001670 0.026294 0.300717 -0.000008 -0.093880 0.000003
# 4 0.000000 -0.000003 -0.000008 -0.235132 0.000003 0.107519
# 5 -0.006328 -0.006563 -0.093880 0.000003 0.074309 -0.000001
# 6 0.000000 0.000001 0.000003 0.107519 -0.000001 0.000387
#
#
# Mechanical properties :
#
#
# Convention : Reuss Voigt Hill
#
# Bulk Modulus (GPa) = 2.68753 25.61773 14.15263
# Shear Modulus (GPa) = 19.86424 20.05659 19.96041
#
# Velocity S-wave (km/s) = 3.11723 3.13229 3.12477
# Velocity P-wave (km/s) = 3.77768 5.06095 4.46565
#
# Compressibility (1/GPa) = 0.37208913
#
# Stress axis : x y z
#
# Youngs Moduli (GPa) = 98.34433 52.03637 3.32539
#
# Poissons Ratio (x) = 0.18892 0.00555
# Poissons Ratio (y) = 0.35705 -0.08744
# Poissons Ratio (z) = 0.16420 -1.36823
#
# Static dielectric constant tensor:
#      x y z
#    x 1.701490 0.000000 -0.049090 
#    y 0.000000 1.712030 0.000000 
#    z -0.049090 0.000000 1.773560 
# 
# From -- ./inp_files/166190.got.cif
#   From: 2010.05.17/outbox.ucp.g08.bks.cvg/sg15_84_cif.got.tgz:166190.got - 2010.06.11 12:40:34.
