data_PCOD9309631
_publ_section_title
;
Structure prediction by ZEFSAII (Michael W. Deem and Ramdas Pophale) SiO2 
 PCOD9309631
Probable space group: C 2/C
;
_chemical_formula_sum "Si O2"
_cell_formula_units_Z 22
_cell_length_a 12.000000
_cell_length_b 24.000000
_cell_length_c 12.000000
_cell_angle_alpha 90.000000
_cell_angle_beta 140.000000
_cell_angle_gamma 90.000000
_cell_volume 2221.473979
_symmetry_space_group_name_H-M "C 2/C"
_symmetry_group_IT_number 15
_symmetry_cell_setting 'monoclinic'
loop_
_space_group_symop_operation_xyz
x,y,z
-x,y,1/2-z
-x,-y,-z
x,-y,1/2+z
1/2+x,1/2+y,z
1/2-x,1/2+y,1/2-z
1/2-x,1/2-y,-z
1/2+x,1/2-y,1/2+z
loop_
_atom_site_type_symbol
_atom_site_label
_atom_site_fract_x
_atom_site_fract_y
_atom_site_fract_z
Si Si1 0.809365 0.391755 0.794070
Si Si2 0.500000 0.959105 0.750000
Si Si3 0.003891 0.716305 0.388957
Si Si4 0.055941 0.067447 0.544962
Si Si5 0.698997 0.459502 0.930369
Si Si6 0.869817 0.165876 0.751261
O O1 0.869619 0.327827 0.840500
O O2 0.623642 0.399675 0.594606
O O3 0.779797 0.424565 0.889074
O O4 0.938948 0.423285 0.809123
O O5 0.338246 0.995486 0.579754
O O6 0.959705 0.780916 0.384085
O O7 0.000000 0.712776 0.250000
O O8 0.191099 0.693735 0.571454
O O9 0.159141 0.076489 0.509408
O O10 0.159734 0.104582 0.715368
O O11 0.000000 0.000000 0.500000
O O12 0.500000 0.480731 0.750000
O O13 0.000000 0.154345 0.750000
#
# Coordination Sequence:
#
# PCOD9309631 Si02
#       6
#     8   4   8   8   8   8
#     4  11  23  40  63  94 133 169 221 281 329 397
#     4  12  22  40  64  94 134 174 230 270 342 394
#     4  11  22  42  65 101 130 171 225 278 333 398
#     4  11  23  44  61  95 133 175 225 271 334 402
#     4  10  25  41  61  92 136 178 223 275 329 409
#     4  11  24  40  70  95 132 176 221 280 336 393
#
# _framework density 9.9033350000000002
#
# number of rings (size 3 to 8) (size 9 to 14) (size 15 to 20)
#    0.000    1.091    2.727    4.909    2.545    5.091 
#    0.000    0.909    0.000    0.000    0.000    0.000 
#    0.000    0.000    0.000    0.000    0.000    0.000 
#
# Total GULP energy -122629.524255 kJ/mol
# GULP energy per Si atom -5574.069284 kJ/mol
# Density = 0.988079 g / cm^3
# Si number density = 9.903335 Si / 1000 Ang^3
#
#
#
# Elastic Constant Matrix: (Units=GPa)
#
#
# Indices 1 2 3 4 5 6 
#
# 1 114.8574 35.0799 23.7442 0.0000 0.2529 0.0000
# 2 35.0799 124.4310 37.9291 0.0000 -5.5305 0.0000
# 3 23.7442 37.9291 74.6877 0.0000 -1.7295 0.0000
# 4 0.0000 0.0000 0.0000 32.8122 0.0000 0.1885
# 5 0.2529 -5.5305 -1.7295 0.0000 26.8216 0.0000
# 6 0.0000 0.0000 0.0000 0.1885 0.0000 27.9746
#
#
#
# Elastic Compliance Matrix: (Units=1/GPa)
#
#
# Indices 1 2 3 4 5 6 
#
# 1 0.009790 -0.002173 -0.002025 0.000000 -0.000671 0.000000
# 2 -0.002173 0.010064 -0.004378 0.000000 0.001813 0.000000
# 3 -0.002025 -0.004378 0.016260 0.000000 0.000165 0.000000
# 4 0.000000 0.000000 0.000000 0.030478 0.000000 -0.000205
# 5 -0.000671 0.001813 0.000165 0.000000 0.037674 0.000000
# 6 0.000000 0.000000 0.000000 -0.000205 0.000000 0.035748
#
#
# Mechanical properties :
#
#
# Convention : Reuss Voigt Hill
#
# Bulk Modulus (GPa) = 52.73361 56.38695 54.56028
# Shear Modulus (GPa) = 30.58357 32.00322 31.29340
#
# Velocity S-wave (km/s) = 3.93377 4.02404 3.97916
# Velocity P-wave (km/s) = 6.87857 7.07962 6.97982
#
# Compressibility (1/GPa) = 0.01896324
#
# Stress axis : x y z
#
# Youngs Moduli (GPa) = 102.14456 99.36093 61.50068
#
# Poissons Ratio (x) = 0.21588 0.12451
# Poissons Ratio (y) = 0.22193 0.26927
# Poissons Ratio (z) = 0.20679 0.43503
#
# Static dielectric constant tensor:
#      x y z
#    x 1.703080 0.000000 0.001240 
#    y 0.000000 1.723410 0.000000 
#    z 0.001240 0.000000 1.835330 
# 
# From -- ./inp_files/91112.got.cif
#   From: 2010.05.17/outbox.ucp.g08.bks.cvg/sg15_46_cif.got.tgz:91112.got - 2010.06.11 12:40:34.
