data_PCOD9309483
_publ_section_title
;
Structure prediction by ZEFSAII (Michael W. Deem and Ramdas Pophale) SiO2 
 PCOD9309483
Probable space group: C 2/C
;
_chemical_formula_sum "Si O2"
_cell_formula_units_Z 28
_cell_length_a 18.000000
_cell_length_b 27.000000
_cell_length_c 9.000000
_cell_angle_alpha 90.000000
_cell_angle_beta 140.000000
_cell_angle_gamma 90.000000
_cell_volume 2811.553005
_symmetry_space_group_name_H-M "C 2/C"
_symmetry_group_IT_number 15
_symmetry_cell_setting 'monoclinic'
loop_
_space_group_symop_operation_xyz
x,y,z
-x,y,1/2-z
-x,-y,-z
x,-y,1/2+z
1/2+x,1/2+y,z
1/2-x,1/2+y,1/2-z
1/2-x,1/2-y,-z
1/2+x,1/2-y,1/2+z
loop_
_atom_site_type_symbol
_atom_site_label
_atom_site_fract_x
_atom_site_fract_y
_atom_site_fract_z
Si Si1 0.641953 0.730237 0.230061
Si Si2 0.744096 0.698384 0.072485
Si Si3 0.387463 0.463769 0.338372
Si Si4 0.466498 0.356307 0.377775
Si Si5 0.999594 0.327553 0.926321
Si Si6 0.290904 0.994752 0.683748
Si Si7 0.515240 0.072877 0.607227
O O1 0.750000 0.750000 0.500000
O O2 0.698429 0.712032 0.163959
O O3 0.549592 0.682548 0.098176
O O4 0.565658 0.779868 0.092189
O O5 0.867651 0.673759 0.276050
O O6 0.750000 0.750000 0.000000
O O7 0.658865 0.667271 0.838797
O O8 0.500000 0.500000 0.500000
O O9 0.445015 0.408942 0.424765
O O10 0.296001 0.479686 0.328522
O O11 0.301714 0.468705 0.065796
O O12 0.500000 0.362928 0.250000
O O13 0.000000 0.322260 0.750000
O O14 0.042689 0.381498 0.040834
O O15 0.374515 0.035959 0.735330
O O16 0.393011 0.955946 0.888834
O O17 0.500000 0.092701 0.750000
#
# Coordination Sequence:
#
# PCOD9309483 Si02
#       7
#     8   8   8   8   8   8   8
#     4  11  25  43  66 100 142 178 227 288 346 408
#     4  11  21  43  69  90 133 178 225 279 330 416
#     4  12  25  44  73 102 138 185 237 289 350 429
#     4  10  22  44  71  97 131 187 232 276 345 411
#     4  12  25  42  70 102 132 183 235 278 348 427
#     4  11  25  47  70 101 140 179 234 301 355 417
#     4  11  26  45  72 101 139 180 234 298 362 408
#
# _framework density 9.9589090000000002
#
# number of rings (size 3 to 8) (size 9 to 14) (size 15 to 20)
#    0.000    0.857    4.286    2.571    6.000    2.286 
#    0.000    1.429    0.000    0.000    0.000    0.000 
#    0.000    0.000    0.000    0.000    0.000    0.000 
#
# Total GULP energy -155921.511384 kJ/mol
# GULP energy per Si atom -5568.625407 kJ/mol
# Density = 0.993624 g / cm^3
# Si number density = 9.958909 Si / 1000 Ang^3
#
#
#
# Elastic Constant Matrix: (Units=GPa)
#
#
# Indices 1 2 3 4 5 6 
#
# 1 69.2861 24.7940 22.4840 0.0000 18.4072 0.0000
# 2 24.7940 145.7623 51.9064 0.0000 10.9338 0.0000
# 3 22.4840 51.9064 122.8365 0.0000 21.2364 0.0000
# 4 0.0000 0.0000 0.0000 41.0555 0.0000 5.4889
# 5 18.4072 10.9338 21.2364 0.0000 35.9117 0.0000
# 6 0.0000 0.0000 0.0000 5.4889 0.0000 36.5996
#
#
#
# Elastic Compliance Matrix: (Units=1/GPa)
#
#
# Indices 1 2 3 4 5 6 
#
# 1 0.017558 -0.002045 -0.001004 0.000000 -0.007783 0.000000
# 2 -0.002045 0.008322 -0.003214 0.000000 0.000415 0.000000
# 3 -0.001004 -0.003214 0.010498 0.000000 -0.004715 0.000000
# 4 0.000000 0.000000 0.000000 0.024856 0.000000 -0.003728
# 5 -0.007783 0.000415 -0.004715 0.000000 0.034497 0.000000
# 6 0.000000 0.000000 0.000000 -0.003728 0.000000 0.027882
#
#
# Mechanical properties :
#
#
# Convention : Reuss Voigt Hill
#
# Bulk Modulus (GPa) = 41.92580 59.58374 50.75477
# Shear Modulus (GPa) = 34.70063 38.62672 36.66368
#
# Velocity S-wave (km/s) = 4.17848 4.40853 4.29505
# Velocity P-wave (km/s) = 6.66144 7.47618 7.08054
#
# Compressibility (1/GPa) = 0.02385166
#
# Stress axis : x y z
#
# Youngs Moduli (GPa) = 56.95262 120.16762 95.25758
#
# Poissons Ratio (x) = 0.24578 0.09564
# Poissons Ratio (y) = 0.11648 0.30615
# Poissons Ratio (z) = 0.05718 0.38620
#
# Static dielectric constant tensor:
#      x y z
#    x 1.737260 0.000000 -0.014760 
#    y 0.000000 1.737690 0.000000 
#    z -0.014760 0.000000 1.686700 
# 
# From -- ./inp_files/52376.got.cif
#   From: 2010.05.17/outbox.ucp.g08.bks.cvg/sg15_27_cif.got.tgz:52376.got - 2010.06.11 12:40:34.
