data_PCOD9309115
_publ_section_title
;
Structure prediction by ZEFSAII (Michael W. Deem and Ramdas Pophale) SiO2 
 PCOD9309115
Probable space group: C 2/C
;
_chemical_formula_sum "Si O2"
_cell_formula_units_Z 26
_cell_length_a 21.000000
_cell_length_b 15.000000
_cell_length_c 27.000000
_cell_angle_alpha 90.000000
_cell_angle_beta 20.000000
_cell_angle_gamma 90.000000
_cell_volume 2908.881319
_symmetry_space_group_name_H-M "C 2/C"
_symmetry_group_IT_number 15
_symmetry_cell_setting 'monoclinic'
loop_
_space_group_symop_operation_xyz
x,y,z
-x,y,1/2-z
-x,-y,-z
x,-y,1/2+z
1/2+x,1/2+y,z
1/2-x,1/2+y,1/2-z
1/2-x,1/2-y,-z
1/2+x,1/2-y,1/2+z
loop_
_atom_site_type_symbol
_atom_site_label
_atom_site_fract_x
_atom_site_fract_y
_atom_site_fract_z
Si Si1 0.246309 0.083506 0.042708
Si Si2 0.145592 0.383041 0.225835
Si Si3 0.932799 0.081927 0.434992
Si Si4 0.251596 0.507261 0.354680
Si Si5 0.979439 0.652070 0.507471
Si Si6 0.500000 0.253607 0.750000
Si Si7 0.814818 0.246253 0.218599
O O1 0.175623 0.075612 0.037896
O O2 0.173882 0.182765 0.109806
O O3 0.180134 0.028604 0.139660
O O4 0.465972 0.065089 0.876980
O O5 0.061817 0.308636 0.249677
O O6 0.215526 0.329428 0.222334
O O7 0.299814 0.432666 0.079594
O O8 0.028291 0.178714 0.374144
O O9 0.102934 0.016826 0.297077
O O10 0.164807 0.410648 0.414760
O O11 0.101695 0.585177 0.452648
O O12 0.882967 0.721186 0.615400
O O13 0.121035 0.694495 0.364806
#
# Coordination Sequence:
#
# PCOD9309115 Si02
#       7
#     8   8   8   8   8   4   8
#     4  12  19  30  48  75 109 143 171 205 267 330
#     4  12  20  26  45  78 110 135 168 211 258 317
#     4  11  20  32  48  78 110 139 171 218 273 323
#     4  10  21  36  49  72 109 150 179 209 269 325
#     4  10  21  36  54  72 104 144 189 223 254 314
#     4  12  18  26  44  76 110 138 166 204 256 324
#     4  11  19  34  52  77 104 141 185 222 255 311
#
# _framework density 8.9381439999999994
#
# number of rings (size 3 to 8) (size 9 to 14) (size 15 to 20)
#    0.000    0.923    7.692    2.308    0.000    0.000 
#    0.000    2.308    0.000    0.000    0.000    4.308 
#    0.000    0.000    0.000    0.000    0.000    0.000 
#
# Total GULP energy -144827.941194 kJ/mol
# GULP energy per Si atom -5570.305431 kJ/mol
# Density = 0.891780 g / cm^3
# Si number density = 8.938144 Si / 1000 Ang^3
#
#
#
# Elastic Constant Matrix: (Units=GPa)
#
#
# Indices 1 2 3 4 5 6 
#
# 1 28.6474 9.0422 15.7946 -0.0611 1.5041 0.0140
# 2 9.0422 33.6005 28.4906 -0.0255 -9.1123 0.0130
# 3 15.7946 28.4906 126.1796 -0.3460 22.0704 0.0920
# 4 -0.0611 -0.0255 -0.3460 1.8909 0.0142 -0.8582
# 5 1.5041 -9.1123 22.0704 0.0142 22.9502 -0.0026
# 6 0.0140 0.0130 0.0920 -0.8582 -0.0026 7.1875
#
#
#
# Elastic Compliance Matrix: (Units=1/GPa)
#
#
# Indices 1 2 3 4 5 6 
#
# 1 0.039443 -0.010706 -0.001589 0.000911 -0.005308 0.000070
# 2 -0.010706 0.062596 -0.020767 -0.003763 0.045529 -0.000259
# 3 -0.001589 -0.020767 0.017127 0.003069 -0.024614 0.000179
# 4 0.000911 -0.003763 0.003069 0.559731 -0.004846 0.066797
# 5 -0.005308 0.045529 -0.024614 -0.004846 0.085671 -0.000305
# 6 0.000070 -0.000259 0.000179 0.066797 -0.000305 0.147104
#
#
# Mechanical properties :
#
#
# Convention : Reuss Voigt Hill
#
# Bulk Modulus (GPa) = 18.85325 32.78690 25.82008
# Shear Modulus (GPa) = 5.02272 15.41241 10.21756
#
# Velocity S-wave (km/s) = 1.67804 2.93946 2.39335
# Velocity P-wave (km/s) = 3.78468 5.46822 4.70240
#
# Compressibility (1/GPa) = 0.05304124
#
# Stress axis : x y z
#
# Youngs Moduli (GPa) = 25.35300 15.97539 58.38796
#
# Poissons Ratio (x) = 0.17103 0.09278
# Poissons Ratio (y) = 0.27143 1.21257
# Poissons Ratio (z) = 0.04029 0.33177
#
# Static dielectric constant tensor:
#      x y z
#    x 1.613520 -0.000010 -0.048010 
#    y -0.000010 1.596340 0.000040 
#    z -0.048010 0.000040 1.709010 
# 
# From -- ./inp_files/61436.got.cif
#   From: 2010.05.17/outbox.ucp.g08.bks.cvg/sg15_31_cif.got.tgz:61436.got - 2010.06.11 12:40:34.
