data_PCOD9309722
_publ_section_title
;
Structure prediction by ZEFSAII (Michael W. Deem and Ramdas Pophale) SiO2 
 PCOD9309722
Probable space group: C 2/C
;
_chemical_formula_sum "Si O2"
_cell_formula_units_Z 32
_cell_length_a 18.000000
_cell_length_b 9.000000
_cell_length_c 30.000000
_cell_angle_alpha 90.000000
_cell_angle_beta 40.000000
_cell_angle_gamma 90.000000
_cell_volume 3123.947783
_symmetry_space_group_name_H-M "C 2/C"
_symmetry_group_IT_number 15
_symmetry_cell_setting 'monoclinic'
loop_
_space_group_symop_operation_xyz
x,y,z
-x,y,1/2-z
-x,-y,-z
x,-y,1/2+z
1/2+x,1/2+y,z
1/2-x,1/2+y,1/2-z
1/2-x,1/2-y,-z
1/2+x,1/2-y,1/2+z
loop_
_atom_site_type_symbol
_atom_site_label
_atom_site_fract_x
_atom_site_fract_y
_atom_site_fract_z
Si Si1 0.238995 0.337289 0.429962
Si Si2 0.441148 0.127486 0.558099
Si Si3 0.647465 0.970217 0.810176
Si Si4 0.612640 0.613384 0.174889
Si Si5 0.094953 0.360732 0.587327
Si Si6 0.307463 0.831069 0.431136
Si Si7 0.265474 0.791788 0.303199
Si Si8 0.103080 0.119293 0.957950
O O1 0.162683 0.294017 0.422076
O O2 0.295882 0.490440 0.384990
O O3 0.148139 0.336513 0.513332
O O4 0.341578 0.240385 0.404816
O O5 0.395319 0.063430 0.626131
O O6 0.543121 0.245654 0.512231
O O7 0.500000 0.000000 0.500000
O O8 0.687569 0.077100 0.750953
O O9 0.542457 0.857885 0.846604
O O10 0.743156 0.854237 0.783345
O O11 0.500000 0.542315 0.250000
O O12 0.607521 0.719092 0.134013
O O13 0.653369 0.726686 0.194983
O O14 0.122036 0.531287 0.583810
O O15 0.250000 0.750000 0.500000
O O16 0.213885 0.903451 0.439440
O O17 0.153917 0.840672 0.385171
O O18 0.000000 0.000000 0.000000
#
# Coordination Sequence:
#
# PCOD9309722 Si02
#       8
#     8   8   8   8   8   8   8   8
#     4  11  22  41  67  96 131 167 224 280 330 417
#     4  12  20  43  71  95 128 181 222 283 357 398
#     4  12  25  44  70  97 137 181 231 291 348 419
#     4  11  23  44  64  91 132 178 214 267 344 412
#     4  11  23  40  66 101 129 169 223 283 340 393
#     4  11  21  40  63  97 129 167 220 271 332 401
#     4  11  26  46  65  98 137 179 234 278 349 425
#     4  11  24  41  66  97 131 173 229 282 337 416
#
# _framework density 10.243449
#
# number of rings (size 3 to 8) (size 9 to 14) (size 15 to 20)
#    0.000    0.750    5.000    3.000    1.750    2.000 
#    0.000    0.625    0.000    0.000    0.000    0.000 
#    0.000    0.000    0.000    0.000    0.000    0.000 
#
# Total GULP energy -178369.221662 kJ/mol
# GULP energy per Si atom -5574.038177 kJ/mol
# Density = 1.022013 g / cm^3
# Si number density = 10.243449 Si / 1000 Ang^3
#
#
#
# Elastic Constant Matrix: (Units=GPa)
#
#
# Indices 1 2 3 4 5 6 
#
# 1 74.4973 -0.2846 14.8090 0.0001 17.7477 -0.0004
# 2 -0.2846 36.5903 22.4029 0.0003 13.1390 -0.0014
# 3 14.8090 22.4029 110.2871 0.0000 22.5485 0.0002
# 4 0.0001 0.0003 0.0000 38.9901 0.0000 6.5118
# 5 17.7477 13.1390 22.5485 0.0000 29.0653 -0.0001
# 6 -0.0004 -0.0014 0.0002 6.5118 -0.0001 33.2209
#
#
#
# Elastic Compliance Matrix: (Units=1/GPa)
#
#
# Indices 1 2 3 4 5 6 
#
# 1 0.016342 0.004751 -0.000808 0.000000 -0.011499 0.000000
# 2 0.004751 0.035812 -0.004765 -0.000001 -0.015393 0.000002
# 3 -0.000808 -0.004765 0.011413 0.000000 -0.006206 0.000000
# 4 0.000000 -0.000001 0.000000 0.026516 0.000000 -0.005197
# 5 -0.011499 -0.015393 -0.006206 0.000000 0.053200 -0.000001
# 6 0.000000 0.000002 0.000000 -0.005197 -0.000001 0.031120
#
#
# Mechanical properties :
#
#
# Convention : Reuss Voigt Hill
#
# Bulk Modulus (GPa) = 16.14964 32.80324 24.47644
# Shear Modulus (GPa) = 25.42111 32.55175 28.98643
#
# Velocity S-wave (km/s) = 3.52639 3.99043 3.76557
# Velocity P-wave (km/s) = 4.94778 6.10557 5.55691
#
# Compressibility (1/GPa) = 0.06192088
#
# Stress axis : x y z
#
# Youngs Moduli (GPa) = 61.19341 27.92391 87.62240
#
# Poissons Ratio (x) = -0.13267 0.07083
# Poissons Ratio (y) = -0.29074 0.41755
# Poissons Ratio (z) = 0.04947 0.13307
#
# Static dielectric constant tensor:
#      x y z
#    x 2.096450 -0.000010 -0.471690 
#    y -0.000010 1.725700 0.000010 
#    z -0.471690 0.000010 2.259850 
# 
# From -- ./inp_files/315673.got.cif
#   From: 2010.05.17/outbox.ucp.g08.bks.cvg/sg15_158_cif.got.tgz:315673.got - 2010.06.11 12:40:34.
