data_PCOD9309771
_publ_section_title
;
Structure prediction by ZEFSAII (Michael W. Deem and Ramdas Pophale) SiO2 
 PCOD9309771
Probable space group: C 2/C
;
_chemical_formula_sum "Si O2"
_cell_formula_units_Z 24
_cell_length_a 24.000000
_cell_length_b 6.000000
_cell_length_c 21.000000
_cell_angle_alpha 90.000000
_cell_angle_beta 50.000000
_cell_angle_gamma 90.000000
_cell_volume 2316.518396
_symmetry_space_group_name_H-M "C 2/C"
_symmetry_group_IT_number 15
_symmetry_cell_setting 'monoclinic'
loop_
_space_group_symop_operation_xyz
x,y,z
-x,y,1/2-z
-x,-y,-z
x,-y,1/2+z
1/2+x,1/2+y,z
1/2-x,1/2+y,1/2-z
1/2-x,1/2-y,-z
1/2+x,1/2-y,1/2+z
loop_
_atom_site_type_symbol
_atom_site_label
_atom_site_fract_x
_atom_site_fract_y
_atom_site_fract_z
Si Si1 0.355605 0.559254 0.203329
Si Si2 0.007082 0.863581 0.667245
Si Si3 0.224499 0.566994 0.467310
Si Si4 0.421592 0.136336 0.377387
Si Si5 0.832884 0.270721 0.829014
Si Si6 0.227102 0.130623 0.852677
O O1 0.433760 0.639767 0.175982
O O2 0.346995 0.331306 0.249589
O O3 0.291319 0.736943 0.267325
O O4 0.333628 0.485693 0.147323
O O5 0.042283 0.609569 0.632800
O O6 0.000000 0.872841 0.750000
O O7 0.045790 0.115504 0.626407
O O8 0.250000 0.750000 0.500000
O O9 0.161142 0.401807 0.536564
O O10 0.296228 0.431384 0.394717
O O11 0.195279 0.692107 0.425786
O O12 0.405032 0.150412 0.313019
O O13 0.772125 0.456756 0.862759
#
# Coordination Sequence:
#
# PCOD9309771 Si02
#       6
#     8   8   8   8   8   8
#     4  11  24  42  66 104 133 179 226 284 346 396
#     4  12  26  42  67  97 139 178 222 276 338 417
#     4  11  24  41  67 102 132 174 229 283 339 399
#     4  12  25  43  67 100 136 176 223 277 340 408
#     4  11  22  41  70  97 133 170 226 290 335 391
#     4  11  23  41  70  97 134 170 231 288 335 397
#
# _framework density 10.360374999999999
#
# number of rings (size 3 to 8) (size 9 to 14) (size 15 to 20)
#    0.000    0.667    5.000    3.000    4.667    0.000 
#    0.000    1.667    0.000    0.000    0.000    0.000 
#    0.000    0.000    0.000    0.000    0.000    0.000 
#
# Total GULP energy -133716.762014 kJ/mol
# GULP energy per Si atom -5571.531751 kJ/mol
# Density = 1.033679 g / cm^3
# Si number density = 10.360375 Si / 1000 Ang^3
#
#
#
# Elastic Constant Matrix: (Units=GPa)
#
#
# Indices 1 2 3 4 5 6 
#
# 1 159.8132 30.7920 5.4954 -0.0092 8.7992 0.0114
# 2 30.7920 109.8201 8.2181 -0.0734 6.9480 0.0360
# 3 5.4954 8.2181 26.5798 -0.0209 8.3097 0.0181
# 4 -0.0092 -0.0734 -0.0209 35.3358 0.0177 -1.6899
# 5 8.7992 6.9480 8.3097 0.0177 26.7149 0.0001
# 6 0.0114 0.0360 0.0181 -1.6899 0.0001 51.1301
#
#
#
# Elastic Compliance Matrix: (Units=1/GPa)
#
#
# Indices 1 2 3 4 5 6 
#
# 1 0.006696 -0.001749 -0.000328 -0.000001 -0.001649 0.000000
# 2 -0.001749 0.009848 -0.002285 0.000019 -0.001275 -0.000005
# 3 -0.000328 -0.002285 0.042290 0.000026 -0.012452 -0.000012
# 4 -0.000001 0.000019 0.000026 0.028345 -0.000031 0.000937
# 5 -0.001649 -0.001275 -0.012452 -0.000031 0.042180 0.000005
# 6 0.000000 -0.000005 -0.000012 0.000937 0.000005 0.019589
#
#
# Mechanical properties :
#
#
# Convention : Reuss Voigt Hill
#
# Bulk Modulus (GPa) = 19.95605 42.80267 31.37936
# Shear Modulus (GPa) = 28.67395 39.41667 34.04531
#
# Velocity S-wave (km/s) = 3.72402 4.36625 4.05786
# Velocity P-wave (km/s) = 5.30499 6.79121 6.09358
#
# Compressibility (1/GPa) = 0.05011013
#
# Stress axis : x y z
#
# Youngs Moduli (GPa) = 149.33631 101.54630 23.64644
#
# Poissons Ratio (x) = 0.17757 0.00776
# Poissons Ratio (y) = 0.26114 0.05403
# Poissons Ratio (z) = 0.04904 0.23201
#
# Static dielectric constant tensor:
#      x y z
#    x 1.740550 -0.000020 -0.006280 
#    y -0.000020 1.789100 0.000000 
#    z -0.006280 0.000000 1.833510 
# 
# From -- ./inp_files/254117.got.cif
#   From: 2010.05.17/outbox.ucp.g08.bks.cvg/sg15_128_cif.got.tgz:254117.got - 2010.06.11 12:40:34.
