data_PCOD9309634
_publ_section_title
;
Structure prediction by ZEFSAII (Michael W. Deem and Ramdas Pophale) SiO2 
 PCOD9309634
Probable space group: C 2/C
;
_chemical_formula_sum "Si O2"
_cell_formula_units_Z 32
_cell_length_a 12.000000
_cell_length_b 15.000000
_cell_length_c 27.000000
_cell_angle_alpha 90.000000
_cell_angle_beta 140.000000
_cell_angle_gamma 90.000000
_cell_volume 3123.947783
_symmetry_space_group_name_H-M "C 2/C"
_symmetry_group_IT_number 15
_symmetry_cell_setting 'monoclinic'
loop_
_space_group_symop_operation_xyz
x,y,z
-x,y,1/2-z
-x,-y,-z
x,-y,1/2+z
1/2+x,1/2+y,z
1/2-x,1/2+y,1/2-z
1/2-x,1/2-y,-z
1/2+x,1/2-y,1/2+z
loop_
_atom_site_type_symbol
_atom_site_label
_atom_site_fract_x
_atom_site_fract_y
_atom_site_fract_z
Si Si1 0.261508 0.061514 0.106350
Si Si2 0.041781 0.428328 0.176091
Si Si3 0.437432 0.510669 0.056805
Si Si4 0.888795 0.149971 0.841299
Si Si5 0.899070 0.250350 0.666711
Si Si6 0.344710 0.226401 0.657424
Si Si7 0.652712 0.082124 0.601217
Si Si8 0.724971 0.093581 0.068319
O O1 0.288310 0.166541 0.109874
O O2 0.446839 0.011475 0.170012
O O3 0.168372 0.016898 0.027577
O O4 0.128340 0.043788 0.105834
O O5 0.910190 0.345819 0.140050
O O6 0.221668 0.400571 0.262671
O O7 0.087541 0.440649 0.134310
O O8 0.464282 0.421534 0.097576
O O9 0.328235 0.577831 0.052644
O O10 0.822855 0.191707 0.870126
O O11 0.963359 0.220136 0.827829
O O12 0.782323 0.165604 0.642622
O O13 0.000000 0.281112 0.750000
O O14 0.500000 0.233346 0.750000
O O15 0.304074 0.320879 0.620880
O O16 0.478967 0.105065 0.511609
O O17 0.738675 0.994407 0.606927
#
# Coordination Sequence:
#
# PCOD9309634 Si02
#       8
#     8   8   8   8   8   8   8   8
#     4  11  27  43  69 100 134 174 226 270 335 393
#     4  11  23  46  66  94 139 172 215 277 326 391
#     4  11  24  45  66 100 129 178 222 271 330 393
#     4  11  24  44  67  92 137 172 217 274 329 386
#     4  12  27  43  65 102 134 178 221 274 333 395
#     4  10  25  42  67  98 125 172 222 266 326 395
#     4  11  25  44  63  99 136 171 218 271 333 390
#     4  11  25  43  70  96 131 178 219 269 335 393
#
# _framework density 10.243449
#
# number of rings (size 3 to 8) (size 9 to 14) (size 15 to 20)
#    0.000    1.000    5.000    0.000    7.000    2.500 
#    0.000    0.000    0.000    0.000    0.000    0.000 
#    0.000    0.000    0.000    0.000    0.000    0.000 
#
# Total GULP energy -178870.325878 kJ/mol
# GULP energy per Si atom -5589.697684 kJ/mol
# Density = 1.022013 g / cm^3
# Si number density = 10.243449 Si / 1000 Ang^3
#
#
#
# Elastic Constant Matrix: (Units=GPa)
#
#
# Indices 1 2 3 4 5 6 
#
# 1 110.4074 13.3282 13.8854 0.0000 -0.8806 0.0000
# 2 13.3282 54.7170 24.3665 0.0000 5.0922 0.0000
# 3 13.8854 24.3665 26.5785 0.0000 -5.4496 0.0000
# 4 0.0000 0.0000 0.0000 30.3039 0.0000 -6.2854
# 5 -0.8806 5.0922 -5.4496 0.0000 14.9463 0.0000
# 6 0.0000 0.0000 0.0000 -6.2854 0.0000 20.1958
#
#
#
# Elastic Compliance Matrix: (Units=1/GPa)
#
#
# Indices 1 2 3 4 5 6 
#
# 1 0.009723 0.000325 -0.005710 0.000000 -0.001620 0.000000
# 2 0.000325 0.039980 -0.042812 0.000000 -0.029212 0.000000
# 3 -0.005710 -0.042812 0.089467 0.000000 0.046871 0.000000
# 4 0.000000 0.000000 0.000000 0.035276 0.000000 0.010979
# 5 -0.001620 -0.029212 0.046871 0.000000 0.093853 0.000000
# 6 0.000000 0.000000 0.000000 0.010979 0.000000 0.052932
#
#
# Mechanical properties :
#
#
# Convention : Reuss Voigt Hill
#
# Bulk Modulus (GPa) = 23.37745 32.76256 28.07001
# Shear Modulus (GPa) = 11.57715 22.43072 17.00393
#
# Velocity S-wave (km/s) = 2.37976 3.31249 2.88408
# Velocity P-wave (km/s) = 4.35738 5.53686 4.98214
#
# Compressibility (1/GPa) = 0.04277626
#
# Stress axis : x y z
#
# Youngs Moduli (GPa) = 102.84566 25.01227 11.17732
#
# Poissons Ratio (x) = -0.00813 0.06382
# Poissons Ratio (y) = -0.03342 0.47853
# Poissons Ratio (z) = 0.58722 1.07083
#
# Static dielectric constant tensor:
#      x y z
#    x 1.718480 0.000000 -0.009130 
#    y 0.000000 1.686510 0.000000 
#    z -0.009130 0.000000 1.745660 
# 
# From -- ./inp_files/198345.got.cif
#   From: 2010.05.17/outbox.ucp.g08.bks.cvg/sg15_100_cif.got.tgz:198345.got - 2010.06.11 12:40:34.
