data_PCOD9309783
_publ_section_title
;
Structure prediction by ZEFSAII (Michael W. Deem and Ramdas Pophale) SiO2 
 PCOD9309783
Probable space group: C 2/C
;
_chemical_formula_sum "Si O2"
_cell_formula_units_Z 20
_cell_length_a 12.000000
_cell_length_b 18.000000
_cell_length_c 9.000000
_cell_angle_alpha 90.000000
_cell_angle_beta 90.000000
_cell_angle_gamma 90.000000
_cell_volume 1944.000000
_symmetry_space_group_name_H-M "C 2/C"
_symmetry_group_IT_number 15
_symmetry_cell_setting 'monoclinic'
loop_
_space_group_symop_operation_xyz
x,y,z
-x,y,1/2-z
-x,-y,-z
x,-y,1/2+z
1/2+x,1/2+y,z
1/2-x,1/2+y,1/2-z
1/2-x,1/2-y,-z
1/2+x,1/2-y,1/2+z
loop_
_atom_site_type_symbol
_atom_site_label
_atom_site_fract_x
_atom_site_fract_y
_atom_site_fract_z
Si Si1 0.006026 0.616021 0.070053
Si Si2 0.000000 0.870694 0.250000
Si Si3 0.321327 0.996451 0.033399
Si Si4 0.500000 0.370621 0.750000
Si Si5 0.834440 0.004769 0.712243
Si Si6 0.114212 0.769027 0.500119
O O1 0.916377 0.556812 0.011110
O O2 0.960171 0.694091 0.009026
O O3 0.000000 0.618591 0.250000
O O4 0.125611 0.582826 0.015920
O O5 0.069171 0.818346 0.361379
O O6 0.094718 0.931228 0.205226
O O7 0.283183 0.999441 0.203353
O O8 0.208016 0.023016 0.952289
O O9 0.405442 0.429475 0.696540
O O10 0.569131 0.317626 0.638591
O O11 0.250000 0.750000 0.500000
#
# Coordination Sequence:
#
# PCOD9309783 Si02
#       6
#     8   4   8   4   8   8
#     4  11  23  43  65  99 137 172 229 284 328 409
#     4  11  24  42  68  97 132 184 228 273 344 412
#     4  11  23  40  71  94 131 177 222 282 344 388
#     4  11  26  44  68 101 140 176 228 283 334 410
#     4  11  22  43  67 100 133 173 231 283 333 404
#     4  12  26  45  69  98 144 187 222 283 345 401
#
# _framework density 10.288066000000001
#
# number of rings (size 3 to 8) (size 9 to 14) (size 15 to 20)
#    0.000    0.800    3.000    4.800    0.000    6.400 
#    0.000    3.000    0.000    0.000    0.000    0.000 
#    0.000    0.000    0.000    0.000    0.000    0.000 
#
# Total GULP energy -111386.821003 kJ/mol
# GULP energy per Si atom -5569.341050 kJ/mol
# Density = 1.026465 g / cm^3
# Si number density = 10.288066 Si / 1000 Ang^3
#
#
#
# Elastic Constant Matrix: (Units=GPa)
#
#
# Indices 1 2 3 4 5 6 
#
# 1 119.4076 51.5198 25.8688 0.0000 7.7239 0.0000
# 2 51.5198 142.3723 30.3569 0.0000 7.7454 0.0000
# 3 25.8688 30.3569 57.5879 0.0000 12.7739 0.0000
# 4 0.0000 0.0000 0.0000 26.5755 0.0000 4.7175
# 5 7.7239 7.7454 12.7739 0.0000 33.3434 0.0000
# 6 0.0000 0.0000 0.0000 4.7175 0.0000 40.7736
#
#
#
# Elastic Compliance Matrix: (Units=1/GPa)
#
#
# Indices 1 2 3 4 5 6 
#
# 1 0.010380 -0.003107 -0.002898 0.000000 -0.000573 0.000000
# 2 -0.003107 0.008845 -0.003247 0.000000 -0.000091 0.000000
# 3 -0.002898 -0.003247 0.021925 0.000000 -0.006974 0.000000
# 4 0.000000 0.000000 0.000000 0.038418 0.000000 -0.004445
# 5 -0.000573 -0.000091 -0.006974 0.000000 0.032816 0.000000
# 6 0.000000 0.000000 0.000000 -0.004445 0.000000 0.025040
#
#
# Mechanical properties :
#
#
# Convention : Reuss Voigt Hill
#
# Bulk Modulus (GPa) = 44.15641 59.42876 51.79258
# Shear Modulus (GPa) = 30.58528 34.24667 32.41598
#
# Velocity S-wave (km/s) = 3.85963 4.08412 3.97346
# Velocity P-wave (km/s) = 6.43187 7.15438 6.80272
#
# Compressibility (1/GPa) = 0.02264677
#
# Stress axis : x y z
#
# Youngs Moduli (GPa) = 96.33774 113.05217 45.61010
#
# Poissons Ratio (x) = 0.35127 0.13217
# Poissons Ratio (y) = 0.29934 0.14809
# Poissons Ratio (z) = 0.27918 0.36706
#
# Static dielectric constant tensor:
#      x y z
#    x 1.745130 0.000000 -0.005480 
#    y 0.000000 1.739060 0.000000 
#    z -0.005480 0.000000 1.766060 
# 
# From -- ./inp_files/29163.got.cif
#   From: 2010.05.17/outbox.ucp.g08.bks.cvg/sg15_15_cif.got.tgz:29163.got - 2010.06.11 12:40:34.
