data_PCOD9309563
_publ_section_title
;
Structure prediction by ZEFSAII (Michael W. Deem and Ramdas Pophale) SiO2 
 PCOD9309563
Probable space group: C 2/C
;
_chemical_formula_sum "Si O2"
_cell_formula_units_Z 24
_cell_length_a 9.000000
_cell_length_b 27.000000
_cell_length_c 15.000000
_cell_angle_alpha 90.000000
_cell_angle_beta 140.000000
_cell_angle_gamma 90.000000
_cell_volume 2342.960837
_symmetry_space_group_name_H-M "C 2/C"
_symmetry_group_IT_number 15
_symmetry_cell_setting 'monoclinic'
loop_
_space_group_symop_operation_xyz
x,y,z
-x,y,1/2-z
-x,-y,-z
x,-y,1/2+z
1/2+x,1/2+y,z
1/2-x,1/2+y,1/2-z
1/2-x,1/2-y,-z
1/2+x,1/2-y,1/2+z
loop_
_atom_site_type_symbol
_atom_site_label
_atom_site_fract_x
_atom_site_fract_y
_atom_site_fract_z
Si Si1 0.828159 0.704094 0.279802
Si Si2 0.097635 0.027002 0.894294
Si Si3 0.000000 0.730320 0.750000
Si Si4 0.000000 0.790174 0.250000
Si Si5 0.436700 0.660516 0.976570
Si Si6 0.265446 0.862284 0.467014
Si Si7 0.241683 0.945584 0.097543
O O1 0.650177 0.731050 0.262538
O O2 0.986881 0.750366 0.323306
O O3 0.994082 0.659080 0.385198
O O4 0.656871 0.684368 0.125490
O O5 0.243145 0.078415 0.947574
O O6 0.000000 0.014234 0.750000
O O7 0.898092 0.036902 0.877557
O O8 0.235325 0.984127 0.011662
O O9 0.206087 0.693908 0.879089
O O10 0.216211 0.827249 0.359029
O O11 0.543462 0.651166 0.927246
O O12 0.374225 0.606135 0.984510
O O13 0.500000 0.936806 0.250000
#
# Coordination Sequence:
#
# PCOD9309563 Si02
#       7
#     8   8   4   4   8   8   8
#     4  12  24  40  64  97 132 174 220 271 317 399
#     4  10  23  44  70 101 130 172 228 278 335 401
#     4  12  24  40  60  96 136 174 218 266 334 384
#     4  12  20  38  66  92 126 176 220 260 324 386
#     4  11  22  42  64  94 133 175 214 271 333 395
#     4  11  22  40  68  96 128 172 226 268 325 394
#     4  10  23  44  71  96 133 176 220 279 342 396
#
# _framework density 10.243449
#
# number of rings (size 3 to 8) (size 9 to 14) (size 15 to 20)
#    0.000    1.000    5.000    2.000    0.000    4.667 
#    4.500    0.000    0.000    0.000    0.000    0.000 
#    0.000    0.000    0.000    0.000    0.000    0.000 
#
# Total GULP energy -133658.234507 kJ/mol
# GULP energy per Si atom -5569.093104 kJ/mol
# Density = 1.022013 g / cm^3
# Si number density = 10.243449 Si / 1000 Ang^3
#
#
#
# Elastic Constant Matrix: (Units=GPa)
#
#
# Indices 1 2 3 4 5 6 
#
# 1 41.0183 6.4119 15.2214 0.0000 -16.1559 0.0000
# 2 6.4119 113.1057 45.9766 0.0000 -28.1068 0.0000
# 3 15.2214 45.9766 115.5520 0.0000 1.0153 0.0000
# 4 0.0000 0.0000 0.0000 24.1759 0.0000 0.8512
# 5 -16.1559 -28.1068 1.0153 0.0000 14.7515 0.0000
# 6 0.0000 0.0000 0.0000 0.8512 0.0000 19.0270
#
#
#
# Elastic Compliance Matrix: (Units=1/GPa)
#
#
# Indices 1 2 3 4 5 6 
#
# 1 -0.290841 -0.228327 0.135864 0.000000 -0.762926 0.000000
# 2 -0.228327 -0.154045 0.096204 0.000000 -0.550197 0.000000
# 3 0.135864 0.096204 -0.050470 0.000000 0.335575 0.000000
# 4 0.000000 0.000000 0.000000 0.041429 0.000000 -0.001853
# 5 -0.762926 -0.550197 0.335575 0.000000 -1.839188 0.000000
# 6 0.000000 0.000000 0.000000 -0.001853 0.000000 0.052640
#
#
# Mechanical properties :
#
#
# Convention : Reuss Voigt Hill
#
# Bulk Modulus (GPa) = -2.04971 44.98842 21.46936
# Shear Modulus (GPa) = -2.07419 25.06195 11.49388
#
# Velocity S-wave (km/s) = -1.00730 3.50139 2.37119
# Velocity P-wave (km/s) = 1.53477 6.19303 4.24253
#
# Compressibility (1/GPa) = -0.48787488
#
# Stress axis : x y z
#
# Youngs Moduli (GPa) = -3.43830 -6.49159 -19.81380
#
# Poissons Ratio (x) = -1.48221 2.69198
# Poissons Ratio (y) = -0.78506 1.90617
# Poissons Ratio (z) = 0.46714 0.62452
#
# Static dielectric constant tensor:
#      x y z
#    x 1.995550 0.000000 -0.076280 
#    y 0.000000 1.731860 0.000000 
#    z -0.076280 0.000000 1.765140 
# 
# From -- ./inp_files/139090.got.cif
#   From: 2010.05.17/outbox.ucp.g08.bks.cvg/sg15_70_cif.got.tgz:139090.got - 2010.06.11 12:40:34.
