data_PCOD9309494
_publ_section_title
;
Structure prediction by ZEFSAII (Michael W. Deem and Ramdas Pophale) SiO2 
 PCOD9309494
Probable space group: C 2/C
;
_chemical_formula_sum "Si O2"
_cell_formula_units_Z 28
_cell_length_a 9.000000
_cell_length_b 15.000000
_cell_length_c 24.000000
_cell_angle_alpha 90.000000
_cell_angle_beta 120.000000
_cell_angle_gamma 90.000000
_cell_volume 2805.922308
_symmetry_space_group_name_H-M "C 2/C"
_symmetry_group_IT_number 15
_symmetry_cell_setting 'monoclinic'
loop_
_space_group_symop_operation_xyz
x,y,z
-x,y,1/2-z
-x,-y,-z
x,-y,1/2+z
1/2+x,1/2+y,z
1/2-x,1/2+y,1/2-z
1/2-x,1/2-y,-z
1/2+x,1/2-y,1/2+z
loop_
_atom_site_type_symbol
_atom_site_label
_atom_site_fract_x
_atom_site_fract_y
_atom_site_fract_z
Si Si1 0.472761 0.862764 0.932903
Si Si2 0.905618 0.881860 0.525813
Si Si3 0.934046 0.315425 0.054375
Si Si4 0.500000 0.896564 0.250000
Si Si5 0.877497 0.812051 0.343143
Si Si6 0.637791 0.039517 0.657370
Si Si7 0.140713 0.921270 0.469472
Si Si8 0.500000 0.617138 0.750000
O O1 0.416546 0.782542 0.880885
O O2 0.413769 0.953217 0.889539
O O3 0.408589 0.837418 0.983486
O O4 0.673777 0.876331 0.987338
O O5 0.956147 0.790295 0.566447
O O6 0.747977 0.850336 0.456932
O O7 0.061476 0.909907 0.516026
O O8 0.847958 0.973935 0.543709
O O9 0.076291 0.374858 0.109842
O O10 0.674257 0.840824 0.300334
O O11 0.448290 0.952161 0.296646
O O12 0.005262 0.877421 0.401817
O O13 0.944230 0.822079 0.292019
O O14 0.839729 0.054034 0.704125
#
# Coordination Sequence:
#
# PCOD9309494 Si02
#       8
#     8   8   8   4   8   8   8   4
#     4  12  25  38  69  99 131 162 204 277 335 370
#     4  10  23  36  65  97 132 159 200 243 351 372
#     4  11  22  42  63 105 125 166 200 273 329 383
#     4  10  26  48  64  82 126 192 216 254 300 382
#     4  11  24  45  65  92 131 168 221 261 311 393
#     4  11  24  45  65  92 131 168 221 261 311 393
#     4  11  22  42  63 105 125 166 200 273 329 383
#     4  10  26  44  64  86 124 182 220 262 308 362
#
# _framework density 9.9788940000000004
#
# number of rings (size 3 to 8) (size 9 to 14) (size 15 to 20)
#    0.000    1.143    2.857    2.571    8.000    1.143 
#    0.000    5.714    0.000    0.000    0.000    0.000 
#    0.000    0.000    0.000    0.000    0.000    0.000 
#
# Total GULP energy -156113.343911 kJ/mol
# GULP energy per Si atom -5575.476568 kJ/mol
# Density = 0.995618 g / cm^3
# Si number density = 9.978894 Si / 1000 Ang^3
#
#
#
# Elastic Constant Matrix: (Units=GPa)
#
#
# Indices 1 2 3 4 5 6 
#
# 1 106.8203 28.2129 37.0697 0.0000 13.0557 0.0000
# 2 28.2129 148.6325 47.0510 0.0000 20.4049 0.0000
# 3 37.0697 47.0510 125.4964 0.0000 16.2485 0.0000
# 4 0.0000 0.0000 0.0000 31.3429 0.0000 1.5063
# 5 13.0557 20.4049 16.2485 0.0000 46.2681 0.0000
# 6 0.0000 0.0000 0.0000 1.5063 0.0000 20.2923
#
#
#
# Elastic Compliance Matrix: (Units=1/GPa)
#
#
# Indices 1 2 3 4 5 6 
#
# 1 0.010723 -0.000988 -0.002579 0.000000 -0.001684 0.000000
# 2 -0.000988 0.008005 -0.002398 0.000000 -0.002410 0.000000
# 3 -0.002579 -0.002398 0.009846 0.000000 -0.001672 0.000000
# 4 0.000000 0.000000 0.000000 0.032019 0.000000 -0.002377
# 5 -0.001684 -0.002410 -0.001672 0.000000 0.023739 0.000000
# 6 0.000000 0.000000 0.000000 -0.002377 0.000000 0.049456
#
#
# Mechanical properties :
#
#
# Convention : Reuss Voigt Hill
#
# Bulk Modulus (GPa) = 60.07673 67.29074 63.68373
# Shear Modulus (GPa) = 33.05442 37.48836 35.27139
#
# Velocity S-wave (km/s) = 4.07408 4.33873 4.20849
# Velocity P-wave (km/s) = 7.23174 7.67393 7.45611
#
# Compressibility (1/GPa) = 0.01664538
#
# Stress axis : x y z
#
# Youngs Moduli (GPa) = 93.25492 124.91742 101.56815
#
# Poissons Ratio (x) = 0.12339 0.26195
# Poissons Ratio (y) = 0.09212 0.24352
# Poissons Ratio (z) = 0.24051 0.29950
#
# Static dielectric constant tensor:
#      x y z
#    x 1.813290 0.000000 -0.016830 
#    y 0.000000 1.726300 0.000000 
#    z -0.016830 0.000000 1.669300 
# 
# From -- ./inp_files/264854.got.cif
#   From: 2010.05.17/outbox.ucp.g08.bks.cvg/sg15_133_cif.got.tgz:264854.got - 2010.06.11 12:40:34.
