data_PCOD9309000
_publ_section_title
;
Structure prediction by ZEFSAII (Michael W. Deem and Ramdas Pophale) SiO2 
 PCOD9309000
Probable space group: C 2/C
;
_chemical_formula_sum "Si O2"
_cell_formula_units_Z 28
_cell_length_a 12.000000
_cell_length_b 15.000000
_cell_length_c 18.000000
_cell_angle_alpha 90.000000
_cell_angle_beta 120.000000
_cell_angle_gamma 90.000000
_cell_volume 2805.922308
_symmetry_space_group_name_H-M "C 2/C"
_symmetry_group_IT_number 15
_symmetry_cell_setting 'monoclinic'
loop_
_space_group_symop_operation_xyz
x,y,z
-x,y,1/2-z
-x,-y,-z
x,-y,1/2+z
1/2+x,1/2+y,z
1/2-x,1/2+y,1/2-z
1/2-x,1/2-y,-z
1/2+x,1/2-y,1/2+z
loop_
_atom_site_type_symbol
_atom_site_label
_atom_site_fract_x
_atom_site_fract_y
_atom_site_fract_z
Si Si1 0.963655 0.723495 0.976028
Si Si2 0.660291 0.450867 0.796086
Si Si3 0.621036 0.054236 0.004923
Si Si4 0.680618 0.114086 0.437549
Si Si5 0.483738 0.407590 0.038755
Si Si6 0.246493 0.687391 0.301558
Si Si7 0.613597 0.636147 0.730441
O O1 0.895608 0.677235 0.027579
O O2 0.033849 0.816810 0.017718
O O3 0.060378 0.651539 0.974016
O O4 0.857338 0.756452 0.881496
O O5 0.500000 0.444256 0.750000
O O6 0.751954 0.433981 0.899401
O O7 0.704266 0.386261 0.741919
O O8 0.694994 0.555353 0.792756
O O9 0.500000 0.000000 0.000000
O O10 0.649590 0.989656 0.944495
O O11 0.834069 0.116015 0.503372
O O12 0.669356 0.143892 0.346891
O O13 0.555928 0.412050 0.139812
O O14 0.500000 0.500000 0.000000
O O15 0.172486 0.767070 0.234937
O O16 0.500000 0.654967 0.750000
#
# Coordination Sequence:
#
# PCOD9309000 Si02
#       7
#     8   8   8   8   8   8   8
#     4  10  20  38  60  85 121 164 204 253 315 378
#     4  11  24  42  61  89 128 167 205 259 322 377
#     4  10  21  40  63  89 124 168 206 251 317 385
#     4  10  20  38  62  89 119 157 207 260 310 372
#     4  11  21  35  56  87 120 160 210 255 302 371
#     4  11  22  38  62  93 123 159 212 264 311 374
#     4  11  20  35  60  88 117 155 201 260 315 359
#
# _framework density 9.9788940000000004
#
# number of rings (size 3 to 8) (size 9 to 14) (size 15 to 20)
#    0.000    1.429    0.000    9.429    0.000    1.143 
#    0.000    5.714    0.000    0.000    0.000    0.000 
#    0.000    0.000    0.000    0.000    0.000    0.000 
#
# Total GULP energy -156004.950321 kJ/mol
# GULP energy per Si atom -5571.605369 kJ/mol
# Density = 0.995618 g / cm^3
# Si number density = 9.978894 Si / 1000 Ang^3
#
#
#
# Elastic Constant Matrix: (Units=GPa)
#
#
# Indices 1 2 3 4 5 6 
#
# 1 56.0020 47.5005 22.6479 0.0000 -6.3150 0.0000
# 2 47.5005 175.4730 24.0945 0.0000 -14.9140 0.0000
# 3 22.6479 24.0945 76.2714 0.0000 -7.8085 0.0000
# 4 0.0000 0.0000 0.0000 38.4690 0.0000 -9.8716
# 5 -6.3150 -14.9140 -7.8085 0.0000 25.4084 0.0000
# 6 0.0000 0.0000 0.0000 -9.8716 0.0000 47.3140
#
#
#
# Elastic Compliance Matrix: (Units=1/GPa)
#
#
# Indices 1 2 3 4 5 6 
#
# 1 0.025293 -0.006000 -0.005505 0.000000 0.001073 0.000000
# 2 -0.006000 0.007613 -0.000329 0.000000 0.002876 0.000000
# 3 -0.005505 -0.000329 0.015167 0.000000 0.003100 0.000000
# 4 0.000000 0.000000 0.000000 0.027465 0.000000 0.005730
# 5 0.001073 0.002876 0.003100 0.000000 0.042264 0.000000
# 6 0.000000 0.000000 0.000000 0.005730 0.000000 0.022331
#
#
# Mechanical properties :
#
#
# Convention : Reuss Voigt Hill
#
# Bulk Modulus (GPa) = 40.97546 55.13689 48.05617
# Shear Modulus (GPa) = 29.08065 36.47184 32.77625
#
# Velocity S-wave (km/s) = 3.82135 4.27951 4.05690
# Velocity P-wave (km/s) = 6.32818 7.21842 6.78791
#
# Compressibility (1/GPa) = 0.02440485
#
# Stress axis : x y z
#
# Youngs Moduli (GPa) = 39.53718 131.36145 65.93250
#
# Poissons Ratio (x) = 0.78812 0.36297
# Poissons Ratio (y) = 0.23721 0.02168
# Poissons Ratio (z) = 0.21766 0.04320
#
# Static dielectric constant tensor:
#      x y z
#    x 1.736580 0.000000 0.019260 
#    y 0.000000 1.753840 0.000000 
#    z 0.019260 0.000000 1.792890 
# 
# From -- ./inp_files/198431.got.cif
#   From: 2010.05.17/outbox.ucp.g08.bks.cvg/sg15_100_cif.got.tgz:198431.got - 2010.06.11 12:40:34.
