data_PCOD9309391
_publ_section_title
;
Structure prediction by ZEFSAII (Michael W. Deem and Ramdas Pophale) SiO2 
 PCOD9309391
Probable space group: C 2/C
;
_chemical_formula_sum "Si O2"
_cell_formula_units_Z 20
_cell_length_a 9.000000
_cell_length_b 24.000000
_cell_length_c 18.000000
_cell_angle_alpha 90.000000
_cell_angle_beta 30.000000
_cell_angle_gamma 90.000000
_cell_volume 1944.000000
_symmetry_space_group_name_H-M "C 2/C"
_symmetry_group_IT_number 15
_symmetry_cell_setting 'monoclinic'
loop_
_space_group_symop_operation_xyz
x,y,z
-x,y,1/2-z
-x,-y,-z
x,-y,1/2+z
1/2+x,1/2+y,z
1/2-x,1/2+y,1/2-z
1/2-x,1/2-y,-z
1/2+x,1/2-y,1/2+z
loop_
_atom_site_type_symbol
_atom_site_label
_atom_site_fract_x
_atom_site_fract_y
_atom_site_fract_z
Si Si1 0.703431 0.062516 0.090549
Si Si2 0.454668 0.753269 0.180557
Si Si3 0.201575 0.564204 0.590337
Si Si4 0.803851 0.639497 0.157120
Si Si5 0.686702 0.143201 0.849830
O O1 0.500000 0.055752 0.250000
O O2 0.515008 0.097761 0.112149
O O3 0.771879 0.999256 0.032350
O O4 0.998139 0.088516 0.001644
O O5 0.500000 0.765263 0.250000
O O6 0.299173 0.692448 0.249172
O O7 0.269634 0.803683 0.223226
O O8 0.750000 0.750000 0.000000
O O9 0.000000 0.560135 0.750000
O O10 0.017762 0.599279 0.608491
O O11 0.500000 0.615485 0.250000
O O12 0.994088 0.660566 0.004765
O O13 0.000000 0.122720 0.750000
#
# Coordination Sequence:
#
# PCOD9309391 Si02
#       5
#     8   8   8   8   8
#     4  10  22  40  69  97 130 181 228 273 343 413
#     4  11  23  46  70  96 137 181 229 286 339 409
#     4  10  22  43  65  97 136 176 224 279 341 413
#     4  11  23  42  67  99 136 176 229 285 343 405
#     4  12  25  42  66  99 137 178 229 285 346 404
#
# _framework density 10.288066000000001
#
# number of rings (size 3 to 8) (size 9 to 14) (size 15 to 20)
#    0.000    1.200    4.000    3.000    0.000    3.200 
#    0.000    0.000    0.000    0.000    0.000    0.000 
#    0.000    0.000    0.000    0.000    0.000    0.000 
#
# Total GULP energy -111513.903841 kJ/mol
# GULP energy per Si atom -5575.695192 kJ/mol
# Density = 1.026465 g / cm^3
# Si number density = 10.288066 Si / 1000 Ang^3
#
#
#
# Elastic Constant Matrix: (Units=GPa)
#
#
# Indices 1 2 3 4 5 6 
#
# 1 185.4350 81.9456 36.9625 -0.0037 -30.1985 -0.0034
# 2 81.9456 108.9313 9.0568 0.0050 -9.0854 0.0104
# 3 36.9625 9.0568 103.0089 0.0289 -2.5867 0.1024
# 4 -0.0037 0.0050 0.0289 34.1763 0.0007 20.9410
# 5 -30.1985 -9.0854 -2.5867 0.0007 54.1684 0.0170
# 6 -0.0034 0.0104 0.1024 20.9410 0.0170 105.4770
#
#
#
# Elastic Compliance Matrix: (Units=1/GPa)
#
#
# Indices 1 2 3 4 5 6 
#
# 1 0.009511 -0.006589 -0.002731 0.000003 0.004067 0.000002
# 2 -0.006589 0.013937 0.001107 -0.000002 -0.001283 -0.000002
# 3 -0.002731 0.001107 0.010570 -0.000003 -0.000832 -0.000010
# 4 0.000003 -0.000002 -0.000003 0.033312 0.000003 -0.006614
# 5 0.004067 -0.001283 -0.000832 0.000003 0.020473 -0.000003
# 6 0.000002 -0.000002 -0.000010 -0.006614 -0.000003 0.010794
#
#
# Mechanical properties :
#
#
# Convention : Reuss Voigt Hill
#
# Bulk Modulus (GPa) = 56.84578 72.58945 64.71761
# Shear Modulus (GPa) = 41.36039 56.72503 49.04271
#
# Velocity S-wave (km/s) = 4.48829 5.25625 4.88738
# Velocity P-wave (km/s) = 7.38558 8.49663 7.96051
#
# Compressibility (1/GPa) = 0.01759146
#
# Stress axis : x y z
#
# Youngs Moduli (GPa) = 105.14126 71.74896 94.60891
#
# Poissons Ratio (x) = 0.47272 0.25842
# Poissons Ratio (y) = 0.69273 -0.10469
# Poissons Ratio (z) = 0.28719 -0.07939
#
# Static dielectric constant tensor:
#      x y z
#    x 1.739660 -0.000010 -0.086830 
#    y -0.000010 1.787520 0.000010 
#    z -0.086830 0.000010 1.926480 
# 
# From -- ./inp_files/193430.got.cif
#   From: 2010.05.17/outbox.ucp.g08.bks.cvg/sg15_97_cif.got.tgz:193430.got - 2010.06.11 12:40:34.
