data_PCOD9309782
_publ_section_title
;
Structure prediction by ZEFSAII (Michael W. Deem and Ramdas Pophale) SiO2 
 PCOD9309782
Probable space group: C 2/C
;
_chemical_formula_sum "Si O2"
_cell_formula_units_Z 26
_cell_length_a 9.000000
_cell_length_b 18.000000
_cell_length_c 18.000000
_cell_angle_alpha 90.000000
_cell_angle_beta 120.000000
_cell_angle_gamma 90.000000
_cell_volume 2525.330077
_symmetry_space_group_name_H-M "C 2/C"
_symmetry_group_IT_number 15
_symmetry_cell_setting 'monoclinic'
loop_
_space_group_symop_operation_xyz
x,y,z
-x,y,1/2-z
-x,-y,-z
x,-y,1/2+z
1/2+x,1/2+y,z
1/2-x,1/2+y,1/2-z
1/2-x,1/2-y,-z
1/2+x,1/2-y,1/2+z
loop_
_atom_site_type_symbol
_atom_site_label
_atom_site_fract_x
_atom_site_fract_y
_atom_site_fract_z
Si Si1 0.585562 0.644797 0.045268
Si Si2 0.431951 0.930874 0.648473
Si Si3 0.500000 0.180227 0.750000
Si Si4 0.791768 0.070611 0.865654
Si Si5 0.061812 0.715007 0.938146
Si Si6 0.502367 0.552284 0.163998
Si Si7 0.883968 0.431356 0.952389
O O1 0.777343 0.619012 0.076796
O O2 0.561786 0.732395 0.044673
O O3 0.567011 0.616599 0.125782
O O4 0.436546 0.605992 0.957083
O O5 0.500000 0.916678 0.750000
O O6 0.582544 0.917475 0.627027
O O7 0.342961 0.013168 0.628982
O O8 0.673692 0.131338 0.796327
O O9 0.514162 0.215687 0.837706
O O10 0.888193 0.020028 0.829307
O O11 0.250000 0.750000 0.000000
O O12 0.072596 0.635014 0.980091
O O13 0.500000 0.569650 0.250000
O O14 0.309639 0.542616 0.088593
O O15 0.000000 0.500000 0.000000
#
# Coordination Sequence:
#
# PCOD9309782 Si02
#       7
#     8   8   4   8   8   8   8
#     4  11  23  45  64  97 137 186 218 282 354 406
#     4  11  23  40  70 100 140 178 227 284 347 408
#     4  12  24  42  70  96 136 182 236 284 352 420
#     4  11  22  43  65  98 136 183 224 283 346 412
#     4  12  26  44  70 100 137 183 233 285 350 420
#     4  11  23  37  67 101 134 168 228 279 332 408
#     4  12  24  42  68 100 132 174 229 286 336 411
#
# _framework density 10.295684
#
# number of rings (size 3 to 8) (size 9 to 14) (size 15 to 20)
#    0.000    0.615    3.846    6.462    3.231    1.846 
#    0.000    0.000    0.000    0.000    0.000    0.000 
#    0.000    0.000    0.000    0.000    0.000    0.000 
#
# Total GULP energy -145062.132048 kJ/mol
# GULP energy per Si atom -5579.312771 kJ/mol
# Density = 1.027225 g / cm^3
# Si number density = 10.295684 Si / 1000 Ang^3
#
#
#
# Elastic Constant Matrix: (Units=GPa)
#
#
# Indices 1 2 3 4 5 6 
#
# 1 67.5724 8.6595 1.3215 0.0000 4.2922 0.0000
# 2 8.6595 72.2133 17.2075 0.0000 13.2723 0.0000
# 3 1.3215 17.2075 125.3277 0.0000 -1.2802 0.0000
# 4 0.0000 0.0000 0.0000 30.4712 0.0000 6.6894
# 5 4.2922 13.2723 -1.2802 0.0000 43.0450 0.0000
# 6 0.0000 0.0000 0.0000 6.6894 0.0000 16.6688
#
#
#
# Elastic Compliance Matrix: (Units=1/GPa)
#
#
# Indices 1 2 3 4 5 6 
#
# 1 0.015071 -0.001637 0.000056 0.000000 -0.000996 0.000000
# 2 -0.001637 0.015411 -0.002146 0.000000 -0.004652 0.000000
# 3 0.000056 -0.002146 0.008282 0.000000 0.000902 0.000000
# 4 0.000000 0.000000 0.000000 0.035989 0.000000 -0.014443
# 5 -0.000996 -0.004652 0.000902 0.000000 0.024792 0.000000
# 6 0.000000 0.000000 0.000000 -0.014443 0.000000 0.065788
#
#
# Mechanical properties :
#
#
# Convention : Reuss Voigt Hill
#
# Bulk Modulus (GPa) = 31.94039 35.49896 33.71967
# Shear Modulus (GPa) = 27.28887 33.89865 30.59376
#
# Velocity S-wave (km/s) = 3.64436 4.06181 3.85873
# Velocity P-wave (km/s) = 5.76660 6.26697 6.02198
#
# Compressibility (1/GPa) = 0.03130832
#
# Stress axis : x y z
#
# Youngs Moduli (GPa) = 66.35269 64.89016 120.73827
#
# Poissons Ratio (x) = 0.10625 -0.00673
# Poissons Ratio (y) = 0.10865 0.25912
# Poissons Ratio (z) = -0.00370 0.13926
#
# Static dielectric constant tensor:
#      x y z
#    x 1.720030 0.000000 -0.056750 
#    y 0.000000 1.779920 0.000000 
#    z -0.056750 0.000000 1.747480 
# 
# From -- ./inp_files/191113.got.cif
#   From: 2010.05.17/outbox.ucp.g08.bks.cvg/sg15_96_cif.got.tgz:191113.got - 2010.06.11 12:40:34.
