data_PCOD9309170
_publ_section_title
;
Structure prediction by ZEFSAII (Michael W. Deem and Ramdas Pophale) SiO2 
 PCOD9309170
Probable space group: C 2/C
;
_chemical_formula_sum "Si O2"
_cell_formula_units_Z 20
_cell_length_a 15.000000
_cell_length_b 18.000000
_cell_length_c 21.000000
_cell_angle_alpha 90.000000
_cell_angle_beta 160.000000
_cell_angle_gamma 90.000000
_cell_volume 1939.254213
_symmetry_space_group_name_H-M "C 2/C"
_symmetry_group_IT_number 15
_symmetry_cell_setting 'monoclinic'
loop_
_space_group_symop_operation_xyz
x,y,z
-x,y,1/2-z
-x,-y,-z
x,-y,1/2+z
1/2+x,1/2+y,z
1/2-x,1/2+y,1/2-z
1/2-x,1/2-y,-z
1/2+x,1/2-y,1/2+z
loop_
_atom_site_type_symbol
_atom_site_label
_atom_site_fract_x
_atom_site_fract_y
_atom_site_fract_z
Si Si1 0.638206 0.147547 0.675444
Si Si2 0.138190 0.787951 0.772147
Si Si3 0.536225 0.568046 0.849883
Si Si4 0.004284 0.929730 0.600020
Si Si5 0.900509 0.501375 0.270312
O O1 0.417525 0.177538 0.479094
O O2 0.667911 0.211676 0.750518
O O3 0.548773 0.071090 0.650648
O O4 0.892139 0.124897 0.802417
O O5 0.997867 0.849150 0.630469
O O6 0.000000 0.778303 0.750000
O O7 0.500000 0.583957 0.750000
O O8 0.422018 0.487477 0.794094
O O9 0.842515 0.551411 0.067330
O O10 0.752090 0.962892 0.392125
O O11 0.214005 0.942396 0.684693
#
# Coordination Sequence:
#
# PCOD9309170 Si02
#       5
#     8   8   8   8   8
#     4  11  25  42  65  97 132 173 222 272 331 398
#     4  12  24  42  68  96 133 173 221 282 335 388
#     4  11  22  40  65  95 130 172 217 268 327 389
#     4  10  21  38  66  99 128 169 221 269 323 392
#     4  10  21  40  65  95 133 172 216 268 324 390
#
# _framework density 10.313243
#
# number of rings (size 3 to 8) (size 9 to 14) (size 15 to 20)
#    0.000    1.200    0.000    6.600    0.000    4.800 
#    0.000    6.000    0.000    2.400    0.000    0.000 
#    0.000    0.000    0.000    0.000    0.000    0.000 
#
# Total GULP energy -111575.278370 kJ/mol
# GULP energy per Si atom -5578.763919 kJ/mol
# Density = 1.028977 g / cm^3
# Si number density = 10.313243 Si / 1000 Ang^3
#
#
#
# Elastic Constant Matrix: (Units=GPa)
#
#
# Indices 1 2 3 4 5 6 
#
# 1 165.9784 68.2545 67.6738 0.0222 6.5726 -0.0125
# 2 68.2545 109.0364 33.9014 -0.0739 7.6453 -0.0043
# 3 67.6738 33.9014 136.9013 -0.1017 13.4284 -0.0159
# 4 0.0222 -0.0739 -0.1017 29.9553 0.0145 -0.8906
# 5 6.5726 7.6453 13.4284 0.0145 51.3420 0.0141
# 6 -0.0125 -0.0043 -0.0159 -0.8906 0.0141 46.9700
#
#
#
# Elastic Compliance Matrix: (Units=1/GPa)
#
#
# Indices 1 2 3 4 5 6 
#
# 1 0.009428 -0.004842 -0.003503 -0.000031 0.000431 0.000000
# 2 -0.004842 0.012461 -0.000586 0.000033 -0.001082 0.000001
# 3 -0.003503 -0.000586 0.009369 0.000034 -0.001915 0.000003
# 4 -0.000031 0.000033 0.000034 0.033402 -0.000019 0.000633
# 5 0.000431 -0.001082 -0.001915 -0.000019 0.020084 -0.000007
# 6 0.000000 0.000001 0.000003 0.000633 -0.000007 0.021302
#
#
# Mechanical properties :
#
#
# Convention : Reuss Voigt Hill
#
# Bulk Modulus (GPa) = 74.65873 83.50838 79.08356
# Shear Modulus (GPa) = 38.94879 41.79255 40.37067
#
# Velocity S-wave (km/s) = 4.35016 4.50617 4.42885
# Velocity P-wave (km/s) = 7.84258 8.22484 8.03598
#
# Compressibility (1/GPa) = 0.01339428
#
# Stress axis : x y z
#
# Youngs Moduli (GPa) = 106.07165 80.25349 106.73217
#
# Poissons Ratio (x) = 0.38862 0.37393
# Poissons Ratio (y) = 0.51364 0.06252
# Poissons Ratio (z) = 0.37161 0.04701
#
# Static dielectric constant tensor:
#      x y z
#    x 1.813320 -0.000010 0.035700 
#    y -0.000010 1.725640 -0.000010 
#    z 0.035700 -0.000010 1.816600 
# 
# From -- ./inp_files/245232.got.cif
#   From: 2010.05.17/outbox.ucp.g08.bks.cvg/sg15_123_cif.got.tgz:245232.got - 2010.06.11 12:40:34.
