data_PCOD9309734
_publ_section_title
;
Structure prediction by ZEFSAII (Michael W. Deem and Ramdas Pophale) SiO2 
 PCOD9309734
Probable space group: C 2/C
;
_chemical_formula_sum "Si O2"
_cell_formula_units_Z 30
_cell_length_a 18.000000
_cell_length_b 18.000000
_cell_length_c 18.000000
_cell_angle_alpha 90.000000
_cell_angle_beta 30.000000
_cell_angle_gamma 90.000000
_cell_volume 2916.000000
_symmetry_space_group_name_H-M "C 2/C"
_symmetry_group_IT_number 15
_symmetry_cell_setting 'monoclinic'
loop_
_space_group_symop_operation_xyz
x,y,z
-x,y,1/2-z
-x,-y,-z
x,-y,1/2+z
1/2+x,1/2+y,z
1/2-x,1/2+y,1/2-z
1/2-x,1/2-y,-z
1/2+x,1/2-y,1/2+z
loop_
_atom_site_type_symbol
_atom_site_label
_atom_site_fract_x
_atom_site_fract_y
_atom_site_fract_z
Si Si1 0.500000 0.036518 0.250000
Si Si2 0.657444 0.610457 0.903035
Si Si3 0.687587 0.925712 0.979937
Si Si4 0.023589 0.850125 0.800867
Si Si5 0.055228 0.698804 0.853674
Si Si6 0.529926 0.270189 0.030723
Si Si7 0.827471 0.521015 0.167496
Si Si8 0.161890 0.349625 0.722976
O O1 0.402579 0.092326 0.282437
O O2 0.602113 0.981189 0.110243
O O3 0.801990 0.656985 0.801053
O O4 0.569926 0.663969 0.920467
O O5 0.728652 0.538757 0.799211
O O6 0.565685 0.600258 0.059850
O O7 0.584376 0.853211 0.049815
O O8 0.725934 0.966843 0.869660
O O9 0.852513 0.895996 0.855388
O O10 0.000000 0.794959 0.750000
O O11 0.068822 0.784073 0.817528
O O12 0.061254 0.709772 0.937700
O O13 0.446890 0.219634 0.163836
O O14 0.678967 0.310966 0.929623
O O15 0.821329 0.597529 0.218864
O O16 0.000000 0.500000 0.000000
#
# Coordination Sequence:
#
# PCOD9309734 Si02
#       8
#     4   8   8   8   8   8   8   8
#     4  12  30  46  70 100 146 194 238 270 370 434
#     4  11  23  41  71 108 134 179 239 289 345 413
#     4  12  26  46  69 100 141 188 233 289 349 431
#     4  11  27  40  62 103 148 181 221 285 359 425
#     4  11  21  42  71 102 134 180 237 290 342 418
#     4  11  23  43  74 103 137 176 243 297 342 402
#     4  12  22  44  75 100 136 183 239 291 341 411
#     4  12  25  46  72 104 139 186 232 299 348 418
#
# _framework density 10.288066000000001
#
# number of rings (size 3 to 8) (size 9 to 14) (size 15 to 20)
#    0.000    0.533    5.333    3.200    4.667    3.733 
#    0.000    0.000    0.000    0.000    0.000    0.000 
#    0.000    0.000    0.000    0.000    0.000    0.000 
#
# Total GULP energy -167010.560420 kJ/mol
# GULP energy per Si atom -5567.018681 kJ/mol
# Density = 1.026465 g / cm^3
# Si number density = 10.288066 Si / 1000 Ang^3
#
#
#
# Elastic Constant Matrix: (Units=GPa)
#
#
# Indices 1 2 3 4 5 6 
#
# 1 -26.6059 -26.4369 -1.0024 0.0041 48.2323 -0.0249
# 2 -26.4369 89.5683 44.3946 0.0020 27.5346 -0.0147
# 3 -1.0024 44.3946 128.7553 -0.0012 17.6928 -0.0125
# 4 0.0041 0.0020 -0.0012 98.2726 -0.0006 -213.7934
# 5 48.2323 27.5346 17.6928 -0.0006 22.6000 0.0116
# 6 -0.0249 -0.0147 -0.0125 -213.7934 0.0116 904.4388
#
#
#
# Elastic Compliance Matrix: (Units=1/GPa)
#
#
# Indices 1 2 3 4 5 6 
#
# 1 -0.003857 -0.005806 -0.000147 -0.000001 0.015420 -0.000001
# 2 -0.005806 0.010685 -0.004082 0.000000 0.002569 0.000000
# 3 -0.000147 -0.004082 0.009465 0.000001 -0.002122 0.000000
# 4 -0.000001 0.000000 0.000001 0.020949 0.000000 0.004952
# 5 0.015420 0.002569 -0.002122 0.000000 0.009870 0.000000
# 6 -0.000001 0.000000 0.000000 0.004952 0.000000 0.002276
#
#
# Mechanical properties :
#
#
# Convention : Reuss Voigt Hill
#
# Bulk Modulus (GPa) = -264.68401 25.06982 -119.80710
# Shear Modulus (GPa) = 73.31547 216.71311 145.01429
#
# Velocity S-wave (km/s) = 5.97567 10.27381 8.40416
# Velocity P-wave (km/s) = 9.01688 12.36711 5.98503
#
# Compressibility (1/GPa) = -0.00377809
#
# Stress axis : x y z
#
# Youngs Moduli (GPa) = -259.27237 93.59226 105.65601
#
# Poissons Ratio (x) = 0.54338 0.01554
# Poissons Ratio (y) = -1.50530 0.43132
# Poissons Ratio (z) = -0.03814 0.38207
#
# Static dielectric constant tensor:
#      x y z
#    x 1.775920 -0.000150 -0.021660 
#    y -0.000150 3.778700 0.000030 
#    z -0.021660 0.000030 1.756120 
# 
# From -- ./inp_files/211720.got.cif
#   From: 2010.05.17/outbox.ucp.g08.bks.cvg/sg15_106_cif.got.tgz:211720.got - 2010.06.11 12:40:34.
