data_PCOD9309066
_publ_section_title
;
Structure prediction by ZEFSAII (Michael W. Deem and Ramdas Pophale) SiO2 
 PCOD9309066
Probable space group: C 2/C
;
_chemical_formula_sum "Si O2"
_cell_formula_units_Z 24
_cell_length_a 9.000000
_cell_length_b 21.000000
_cell_length_c 27.000000
_cell_angle_alpha 90.000000
_cell_angle_beta 150.000000
_cell_angle_gamma 90.000000
_cell_volume 2551.500000
_symmetry_space_group_name_H-M "C 2/C"
_symmetry_group_IT_number 15
_symmetry_cell_setting 'monoclinic'
loop_
_space_group_symop_operation_xyz
x,y,z
-x,y,1/2-z
-x,-y,-z
x,-y,1/2+z
1/2+x,1/2+y,z
1/2-x,1/2+y,1/2-z
1/2-x,1/2-y,-z
1/2+x,1/2-y,1/2+z
loop_
_atom_site_type_symbol
_atom_site_label
_atom_site_fract_x
_atom_site_fract_y
_atom_site_fract_z
Si Si1 0.038686 0.811128 0.522992
Si Si2 0.217024 0.339952 0.706044
Si Si3 0.871630 0.809794 0.591233
Si Si4 0.338086 0.033743 0.250998
Si Si5 0.244500 0.446253 0.427645
Si Si6 0.300282 0.049365 0.470443
O O1 0.379979 0.813559 0.601818
O O2 0.997624 0.812291 0.571361
O O3 0.852455 0.746901 0.458943
O O4 0.878959 0.876000 0.457896
O O5 0.500000 0.334650 0.750000
O O6 0.345541 0.306231 0.791866
O O7 0.176681 0.414368 0.709517
O O8 0.709461 0.877981 0.551912
O O9 0.500000 0.063780 0.250000
O O10 0.022359 0.021810 0.135703
O O11 0.500737 0.971439 0.318652
O O12 0.500000 0.500000 0.500000
O O13 0.130734 0.447405 0.451445
O O14 0.500000 0.000000 0.500000
#
# Coordination Sequence:
#
# PCOD9309066 Si02
#       6
#     8   8   8   8   8   8
#     4  10  20  41  63  84 118 155 207 247 292 371
#     4  11  22  35  60  88 118 158 196 248 308 365
#     4   9  21  40  62  84 113 162 202 241 299 361
#     4  11  21  38  59  86 118 161 205 241 299 369
#     4  11  20  35  63  89 113 155 200 247 299 345
#     4  10  22  37  59  89 121 153 196 250 304 360
#
# _framework density 9.4062319999999993
#
# number of rings (size 3 to 8) (size 9 to 14) (size 15 to 20)
#    0.000    1.667    3.333    2.500    4.667    0.667 
#    3.000    0.833    0.000    0.000    0.000    0.000 
#    0.000    0.000    0.000    0.000    0.000    0.000 
#
# Total GULP energy -133638.059627 kJ/mol
# GULP energy per Si atom -5568.252484 kJ/mol
# Density = 0.938482 g / cm^3
# Si number density = 9.406232 Si / 1000 Ang^3
#
#
#
# Elastic Constant Matrix: (Units=GPa)
#
#
# Indices 1 2 3 4 5 6 
#
# 1 61.5066 36.1019 29.7761 -0.0030 27.1940 0.0008
# 2 36.1019 105.3869 44.6109 -0.0079 9.7922 -0.0010
# 3 29.7761 44.6109 82.7396 -0.0066 12.0955 -0.0013
# 4 -0.0030 -0.0079 -0.0066 27.8153 -0.0011 -1.1971
# 5 27.1940 9.7922 12.0955 -0.0011 33.3754 0.0006
# 6 0.0008 -0.0010 -0.0013 -1.1971 0.0006 23.4468
#
#
#
# Elastic Compliance Matrix: (Units=1/GPa)
#
#
# Indices 1 2 3 4 5 6 
#
# 1 0.032869 -0.007176 -0.004596 0.000000 -0.023010 -0.000001
# 2 -0.007176 0.013913 -0.005467 0.000002 0.003746 0.000001
# 3 -0.004596 -0.005467 0.016795 0.000002 -0.000738 0.000001
# 4 0.000000 0.000002 0.000002 0.036031 0.000000 0.001840
# 5 -0.023010 0.003746 -0.000738 0.000000 0.047879 0.000000
# 6 -0.000001 0.000001 0.000001 0.001840 0.000000 0.042744
#
#
# Mechanical properties :
#
#
# Convention : Reuss Voigt Hill
#
# Bulk Modulus (GPa) = 34.36393 52.29011 43.32702
# Shear Modulus (GPa) = 21.33023 26.20376 23.76700
#
# Velocity S-wave (km/s) = 3.37090 3.73620 3.55824
# Velocity P-wave (km/s) = 5.78419 6.81675 6.32159
#
# Compressibility (1/GPa) = 0.02910028
#
# Stress axis : x y z
#
# Youngs Moduli (GPa) = 30.42365 71.87419 59.54007
#
# Poissons Ratio (x) = 0.51580 0.27363
# Poissons Ratio (y) = 0.21833 0.32549
# Poissons Ratio (z) = 0.13982 0.39291
#
# Static dielectric constant tensor:
#      x y z
#    x 1.668760 0.000000 -0.039520 
#    y 0.000000 1.671310 0.000010 
#    z -0.039520 0.000010 1.661380 
# 
# From -- ./inp_files/135911.got.cif
#   From: 2010.05.17/outbox.ucp.g08.bks.cvg/sg15_68_cif.got.tgz:135911.got - 2010.06.11 12:40:34.
