data_PCOD9309113
_publ_section_title
;
Structure prediction by ZEFSAII (Michael W. Deem and Ramdas Pophale) SiO2 
 PCOD9309113
Probable space group: C 2/C
;
_chemical_formula_sum "Si O2"
_cell_formula_units_Z 26
_cell_length_a 21.000000
_cell_length_b 18.000000
_cell_length_c 9.000000
_cell_angle_alpha 90.000000
_cell_angle_beta 50.000000
_cell_angle_gamma 90.000000
_cell_volume 2606.083195
_symmetry_space_group_name_H-M "C 2/C"
_symmetry_group_IT_number 15
_symmetry_cell_setting 'monoclinic'
loop_
_space_group_symop_operation_xyz
x,y,z
-x,y,1/2-z
-x,-y,-z
x,-y,1/2+z
1/2+x,1/2+y,z
1/2-x,1/2+y,1/2-z
1/2-x,1/2-y,-z
1/2+x,1/2-y,1/2+z
loop_
_atom_site_type_symbol
_atom_site_label
_atom_site_fract_x
_atom_site_fract_y
_atom_site_fract_z
Si Si1 0.474456 0.233354 0.614102
Si Si2 0.322265 0.539824 0.394350
Si Si3 0.692303 0.360500 0.099538
Si Si4 0.000000 0.997417 0.750000
Si Si5 0.800338 0.671603 0.936598
Si Si6 0.083020 0.876485 0.980199
Si Si7 0.655999 0.789989 0.795250
O O1 0.500000 0.245265 0.750000
O O2 0.391345 0.183693 0.728022
O O3 0.450279 0.310607 0.571278
O O4 0.557755 0.200183 0.416876
O O5 0.304352 0.451412 0.395059
O O6 0.411300 0.542698 0.352497
O O7 0.249544 0.598871 0.551313
O O8 0.343048 0.578476 0.207173
O O9 0.669514 0.300666 0.264039
O O10 0.621967 0.347308 0.076201
O O11 0.781639 0.329709 0.912098
O O12 0.014922 0.058404 0.597961
O O13 0.750000 0.750000 0.000000
O O14 0.820293 0.672845 0.083021
#
# Coordination Sequence:
#
# PCOD9309113 Si02
#       7
#     8   8   8   4   8   8   8
#     4  10  21  35  62  88 119 162 202 248 291 357
#     4  11  22  36  57  87 124 154 197 239 309 356
#     4  10  22  40  63  87 122 162 193 256 300 359
#     4  10  24  34  58  88 120 158 192 252 304 374
#     4  11  21  39  58  88 125 159 196 246 296 363
#     4  11  20  39  56  89 125 151 198 244 307 365
#     4  10  21  40  61  89 118 157 208 241 300 352
#
# _framework density 9.9766580000000005
#
# number of rings (size 3 to 8) (size 9 to 14) (size 15 to 20)
#    0.000    1.538    3.077    2.308    1.077    2.462 
#    0.000    0.769    0.000    0.000    0.000    0.000 
#    0.000    0.000    0.000    0.000    0.000    0.000 
#
# Total GULP energy -144842.467952 kJ/mol
# GULP energy per Si atom -5570.864152 kJ/mol
# Density = 0.995395 g / cm^3
# Si number density = 9.976658 Si / 1000 Ang^3
#
#
#
# Elastic Constant Matrix: (Units=GPa)
#
#
# Indices 1 2 3 4 5 6 
#
# 1 100.8778 64.3095 30.0132 0.0000 -32.6722 0.0000
# 2 64.3095 126.8249 19.0612 0.0000 -24.2596 0.0000
# 3 30.0132 19.0612 70.5711 0.0000 -38.6590 0.0000
# 4 0.0000 0.0000 0.0000 25.4522 0.0000 -7.3292
# 5 -32.6722 -24.2596 -38.6590 0.0000 42.5836 0.0000
# 6 0.0000 0.0000 0.0000 -7.3292 0.0000 36.6162
#
#
#
# Elastic Compliance Matrix: (Units=1/GPa)
#
#
# Indices 1 2 3 4 5 6 
#
# 1 0.017463 -0.007082 -0.000765 0.000000 0.008670 0.000000
# 2 -0.007082 0.011740 0.001051 0.000000 0.002209 0.000000
# 3 -0.000765 0.001051 0.028284 0.000000 0.025689 0.000000
# 4 0.000000 0.000000 0.000000 0.041692 0.000000 0.008345
# 5 0.008670 0.002209 0.025689 0.000000 0.054715 0.000000
# 6 0.000000 0.000000 0.000000 0.008345 0.000000 0.028981
#
#
# Mechanical properties :
#
#
# Convention : Reuss Voigt Hill
#
# Bulk Modulus (GPa) = 22.78097 58.33797 40.55947
# Shear Modulus (GPa) = 23.68548 33.25639 28.47094
#
# Velocity S-wave (km/s) = 3.44909 4.08697 3.78150
# Velocity P-wave (km/s) = 5.22528 7.18135 6.27994
#
# Compressibility (1/GPa) = 0.04389629
#
# Stress axis : x y z
#
# Youngs Moduli (GPa) = 57.26370 85.17571 35.35540
#
# Poissons Ratio (x) = 0.60319 0.02704
# Poissons Ratio (y) = 0.40552 -0.03715
# Poissons Ratio (z) = 0.04379 -0.08950
#
# Static dielectric constant tensor:
#      x y z
#    x 1.725080 0.000000 0.019900 
#    y 0.000000 1.708600 0.000000 
#    z 0.019900 0.000000 1.926880 
# 
# From -- ./inp_files/56939.got.cif
#   From: 2010.05.17/outbox.ucp.g08.bks.cvg/sg15_29_cif.got.tgz:56939.got - 2010.06.11 12:40:34.
