data_PCOD9309630
_publ_section_title
;
Structure prediction by ZEFSAII (Michael W. Deem and Ramdas Pophale) SiO2 
 PCOD9309630
Probable space group: C 2/C
;
_chemical_formula_sum "Si O2"
_cell_formula_units_Z 24
_cell_length_a 12.000000
_cell_length_b 9.000000
_cell_length_c 27.000000
_cell_angle_alpha 90.000000
_cell_angle_beta 120.000000
_cell_angle_gamma 90.000000
_cell_volume 2525.330077
_symmetry_space_group_name_H-M "C 2/C"
_symmetry_group_IT_number 15
_symmetry_cell_setting 'monoclinic'
loop_
_space_group_symop_operation_xyz
x,y,z
-x,y,1/2-z
-x,-y,-z
x,-y,1/2+z
1/2+x,1/2+y,z
1/2-x,1/2+y,1/2-z
1/2-x,1/2-y,-z
1/2+x,1/2-y,1/2+z
loop_
_atom_site_type_symbol
_atom_site_label
_atom_site_fract_x
_atom_site_fract_y
_atom_site_fract_z
Si Si1 0.436567 0.786945 0.189543
Si Si2 0.948988 0.237617 0.579699
Si Si3 0.703586 0.772488 0.569375
Si Si4 0.246286 0.497733 0.992489
Si Si5 0.170408 0.535393 0.745976
Si Si6 0.927510 0.203347 0.786066
O O1 0.500000 0.695761 0.250000
O O2 0.335467 0.712925 0.130868
O O3 0.360691 0.915486 0.203969
O O4 0.560745 0.866900 0.192927
O O5 0.860227 0.384268 0.552886
O O6 0.866634 0.102306 0.537631
O O7 0.081761 0.262033 0.578899
O O8 0.983848 0.204494 0.644929
O O9 0.715232 0.620246 0.540084
O O10 0.695059 0.907610 0.528318
O O11 0.142049 0.364440 0.730722
O O12 0.313914 0.583374 0.765828
O O13 0.000000 0.186995 0.750000
#
# Coordination Sequence:
#
# PCOD9309630 Si02
#       6
#     8   8   8   8   8   8
#     4   8  17  39  61  86 121 161 186 251 315 352
#     4  11  23  43  61  88 131 158 202 265 300 364
#     4  11  20  43  66  88 123 163 207 254 306 366
#     4  10  25  38  64  93 116 167 213 246 306 365
#     4   9  21  39  60  91 122 159 196 250 310 366
#     4  12  23  41  64  93 125 164 204 250 317 372
#
# _framework density 9.5037079999999996
#
# number of rings (size 3 to 8) (size 9 to 14) (size 15 to 20)
#    1.000    0.667    3.333    2.000    0.000    2.667 
#    3.000    6.667    0.000    0.000    0.000    0.000 
#    0.000    0.000    0.000    0.000    0.000    0.000 
#
# Total GULP energy -133891.605792 kJ/mol
# GULP energy per Si atom -5578.816908 kJ/mol
# Density = 0.948208 g / cm^3
# Si number density = 9.503708 Si / 1000 Ang^3
#
#
#
# Elastic Constant Matrix: (Units=GPa)
#
#
# Indices 1 2 3 4 5 6 
#
# 1 101.7921 32.2681 63.7441 0.0000 4.2112 0.0000
# 2 32.2681 66.3834 31.2865 0.0000 9.6610 0.0000
# 3 63.7441 31.2865 140.0269 0.0000 7.0230 0.0000
# 4 0.0000 0.0000 0.0000 22.3485 0.0000 2.7609
# 5 4.2112 9.6610 7.0230 0.0000 29.8127 0.0000
# 6 0.0000 0.0000 0.0000 2.7609 0.0000 21.0827
#
#
#
# Elastic Compliance Matrix: (Units=1/GPa)
#
#
# Indices 1 2 3 4 5 6 
#
# 1 0.014874 -0.004617 -0.005777 0.000000 0.000756 0.000000
# 2 -0.004617 0.018925 -0.001874 0.000000 -0.005039 0.000000
# 3 -0.005777 -0.001874 0.010240 0.000000 -0.000989 0.000000
# 4 0.000000 0.000000 0.000000 0.045482 0.000000 -0.005956
# 5 0.000756 -0.005039 -0.000989 0.000000 0.035302 0.000000
# 6 0.000000 0.000000 0.000000 -0.005956 0.000000 0.048212
#
#
# Mechanical properties :
#
#
# Convention : Reuss Voigt Hill
#
# Bulk Modulus (GPa) = 51.27706 62.53331 56.90518
# Shear Modulus (GPa) = 24.50110 26.70901 25.60505
#
# Velocity S-wave (km/s) = 3.59420 3.75265 3.67428
# Velocity P-wave (km/s) = 6.65284 7.19356 6.92848
#
# Compressibility (1/GPa) = 0.01950190
#
# Stress axis : x y z
#
# Youngs Moduli (GPa) = 67.22999 52.84038 97.65817
#
# Poissons Ratio (x) = 0.24398 0.56422
# Poissons Ratio (y) = 0.31043 0.18299
# Poissons Ratio (z) = 0.38842 0.09901
#
# Static dielectric constant tensor:
#      x y z
#    x 1.654450 0.000000 0.006050 
#    y 0.000000 1.659310 0.000000 
#    z 0.006050 0.000000 1.664660 
# 
# From -- ./inp_files/291306.got.cif
#   From: 2010.05.17/outbox.ucp.g08.bks.cvg/sg15_146_cif.got.tgz:291306.got - 2010.06.11 12:40:34.
