data_PCOD9309125
_publ_section_title
;
Structure prediction by ZEFSAII (Michael W. Deem and Ramdas Pophale) SiO2 
 PCOD9309125
Probable space group: C 2/C
;
_chemical_formula_sum "Si O2"
_cell_formula_units_Z 32
_cell_length_a 15.000000
_cell_length_b 27.000000
_cell_length_c 12.000000
_cell_angle_alpha 90.000000
_cell_angle_beta 40.000000
_cell_angle_gamma 90.000000
_cell_volume 3123.947783
_symmetry_space_group_name_H-M "C 2/C"
_symmetry_group_IT_number 15
_symmetry_cell_setting 'monoclinic'
loop_
_space_group_symop_operation_xyz
x,y,z
-x,y,1/2-z
-x,-y,-z
x,-y,1/2+z
1/2+x,1/2+y,z
1/2-x,1/2+y,1/2-z
1/2-x,1/2-y,-z
1/2+x,1/2-y,1/2+z
loop_
_atom_site_type_symbol
_atom_site_label
_atom_site_fract_x
_atom_site_fract_y
_atom_site_fract_z
Si Si1 0.179663 0.136513 0.179123
Si Si2 0.784733 0.938127 0.248234
Si Si3 0.374872 0.528307 0.284071
Si Si4 0.989318 0.771363 0.892723
Si Si5 0.986524 0.591550 0.379384
Si Si6 0.791180 0.148462 0.596904
Si Si7 0.482827 0.162409 0.948020
Si Si8 0.128469 0.513235 0.691857
O O1 0.154689 0.080967 0.247256
O O2 0.093819 0.182516 0.311309
O O3 0.146692 0.131663 0.079530
O O4 0.338923 0.153554 0.024761
O O5 0.673225 0.922189 0.446886
O O6 0.847708 0.888282 0.137167
O O7 0.689318 0.960458 0.241160
O O8 0.885082 0.981194 0.193046
O O9 0.500000 0.531773 0.250000
O O10 0.245428 0.515105 0.486789
O O11 0.000000 0.758933 0.750000
O O12 0.004707 0.720886 0.944392
O O13 0.840038 0.795265 0.061585
O O14 0.000000 0.618435 0.250000
O O15 0.033464 0.627870 0.429649
O O16 0.073135 0.540486 0.285133
O O17 0.625970 0.145190 0.755805
O O18 0.000000 0.538004 0.750000
#
# Coordination Sequence:
#
# PCOD9309125 Si02
#       8
#     8   8   8   8   8   8   8   8
#     4  11  22  38  58  93 125 153 200 244 303 368
#     4  11  22  38  62  89 122 166 202 246 303 360
#     4  12  25  40  58  90 131 171 200 242 303 370
#     4  10  21  40  58  87 126 154 188 248 309 370
#     4  10  21  39  59  90 115 150 202 262 291 351
#     4  10  21  36  60  87 121 154 195 246 300 368
#     4  11  22  35  66  88 113 153 203 249 313 349
#     4  11  22  38  65  90 125 158 203 251 298 360
#
# _framework density 10.243449
#
# number of rings (size 3 to 8) (size 9 to 14) (size 15 to 20)
#    0.000    1.250    3.750    4.125    3.500    2.500 
#    2.250    0.000    0.000    7.500    0.000    0.000 
#    0.000    0.000    0.000    0.000    0.000    0.000 
#
# Total GULP energy -178453.991361 kJ/mol
# GULP energy per Si atom -5576.687230 kJ/mol
# Density = 1.022013 g / cm^3
# Si number density = 10.243449 Si / 1000 Ang^3
#
#
#
# Elastic Constant Matrix: (Units=GPa)
#
#
# Indices 1 2 3 4 5 6 
#
# 1 46.6838 25.7098 26.8317 0.0000 -3.4969 0.0000
# 2 25.7098 86.2908 -9.8830 0.0000 -13.2438 0.0000
# 3 26.8317 -9.8830 65.6632 0.0000 -15.9418 0.0000
# 4 0.0000 0.0000 0.0000 25.2570 0.0000 -6.7206
# 5 -3.4969 -13.2438 -15.9418 0.0000 20.6584 0.0000
# 6 0.0000 0.0000 0.0000 -6.7206 0.0000 25.3614
#
#
#
# Elastic Compliance Matrix: (Units=1/GPa)
#
#
# Indices 1 2 3 4 5 6 
#
# 1 0.049798 -0.023088 -0.031220 0.000000 -0.030464 0.000000
# 2 -0.023088 0.024944 0.019839 0.000000 0.027393 0.000000
# 3 -0.031220 0.019839 0.040334 0.000000 0.038559 0.000000
# 4 0.000000 0.000000 0.000000 0.042597 0.000000 0.011288
# 5 -0.030464 0.027393 0.038559 0.000000 0.090567 0.000000
# 6 0.000000 0.000000 0.000000 0.011288 0.000000 0.042421
#
#
# Mechanical properties :
#
#
# Convention : Reuss Voigt Hill
#
# Bulk Modulus (GPa) = 21.67384 31.55054 26.61219
# Shear Modulus (GPa) = 13.33415 24.65396 18.99406
#
# Velocity S-wave (km/s) = 2.55397 3.47277 3.04819
# Velocity P-wave (km/s) = 4.39310 5.61373 5.04050
#
# Compressibility (1/GPa) = 0.04613858
#
# Stress axis : x y z
#
# Youngs Moduli (GPa) = 20.08129 40.08963 24.79296
#
# Poissons Ratio (x) = 0.92559 0.77403
# Poissons Ratio (y) = 0.46364 -0.49187
# Poissons Ratio (z) = 0.62693 -0.79535
#
# Static dielectric constant tensor:
#      x y z
#    x 1.744150 0.000000 -0.005040 
#    y 0.000000 1.774240 0.000000 
#    z -0.005040 0.000000 1.764250 
# 
# From -- ./inp_files/101302.got.cif
#   From: 2010.05.17/outbox.ucp.g08.bks.cvg/sg15_51_cif.got.tgz:101302.got - 2010.06.11 12:40:34.
