data_PCOD9309307
_publ_section_title
;
Structure prediction by ZEFSAII (Michael W. Deem and Ramdas Pophale) SiO2 
 PCOD9309307
Probable space group: C 2/C
;
_chemical_formula_sum "Si O2"
_cell_formula_units_Z 30
_cell_length_a 12.000000
_cell_length_b 21.000000
_cell_length_c 24.000000
_cell_angle_alpha 90.000000
_cell_angle_beta 30.000000
_cell_angle_gamma 90.000000
_cell_volume 3024.000000
_symmetry_space_group_name_H-M "C 2/C"
_symmetry_group_IT_number 15
_symmetry_cell_setting 'monoclinic'
loop_
_space_group_symop_operation_xyz
x,y,z
-x,y,1/2-z
-x,-y,-z
x,-y,1/2+z
1/2+x,1/2+y,z
1/2-x,1/2+y,1/2-z
1/2-x,1/2-y,-z
1/2+x,1/2-y,1/2+z
loop_
_atom_site_type_symbol
_atom_site_label
_atom_site_fract_x
_atom_site_fract_y
_atom_site_fract_z
Si Si1 0.946494 0.254754 0.680402
Si Si2 0.874741 0.650046 0.663963
Si Si3 0.000000 0.359361 0.750000
Si Si4 0.561958 0.074564 0.975478
Si Si5 0.419048 0.620029 0.905054
Si Si6 0.263049 0.809701 0.643949
Si Si7 0.202825 0.319607 0.117112
Si Si8 0.923226 0.926383 0.525473
O O1 0.761246 0.213497 0.794661
O O2 0.020800 0.311779 0.687887
O O3 0.829441 0.282801 0.675955
O O4 0.386029 0.302795 0.411525
O O5 0.921475 0.603448 0.593380
O O6 0.687433 0.615892 0.783681
O O7 0.086326 0.671359 0.607924
O O8 0.781764 0.404299 0.846472
O O9 0.790993 0.085777 0.910334
O O10 0.389516 0.124058 0.079014
O O11 0.500000 0.000000 0.000000
O O12 0.351489 0.588842 0.992594
O O13 0.312507 0.749896 0.580761
O O14 0.000000 0.820887 0.750000
O O15 0.000000 0.323197 0.250000
O O16 0.375980 0.376612 0.050634
O O17 0.000000 0.000000 0.500000
#
# Coordination Sequence:
#
# PCOD9309307 Si02
#       8
#     8   8   4   8   8   8   8   8
#     4  10  21  44  73 102 128 178 231 306 338 402
#     4  10  22  42  72  96 133 175 238 275 351 414
#     4  12  28  42  68 116 134 174 252 276 354 424
#     4  12  28  41  62 103 141 189 224 271 351 429
#     4  10  22  47  70  94 135 186 223 288 359 387
#     4  11  22  44  69  98 136 175 232 298 348 401
#     4  11  20  44  72 101 128 182 239 285 352 393
#     4  12  28  45  72 101 147 188 223 299 347 423
#
# _framework density 9.9206350000000008
#
# number of rings (size 3 to 8) (size 9 to 14) (size 15 to 20)
#    0.800    0.267    5.333    2.000    6.533    3.733 
#    2.400    0.000    0.000    0.000    0.000    0.000 
#    0.000    0.000    0.000    0.000    0.000    0.000 
#
# Total GULP energy -167424.521780 kJ/mol
# GULP energy per Si atom -5580.817393 kJ/mol
# Density = 0.989806 g / cm^3
# Si number density = 9.920635 Si / 1000 Ang^3
#
#
#
# Elastic Constant Matrix: (Units=GPa)
#
#
# Indices 1 2 3 4 5 6 
#
# 1 97.7589 44.5516 -0.9139 -0.0117 0.7348 -0.0053
# 2 44.5516 183.0969 41.9964 -0.0420 -2.2688 0.0078
# 3 -0.9139 41.9964 51.4886 -0.1034 1.3243 0.0590
# 4 -0.0117 -0.0420 -0.1034 31.4566 0.0851 -4.5388
# 5 0.7348 -2.2688 1.3243 0.0851 29.2643 -0.0007
# 6 -0.0053 0.0078 0.0590 -4.5388 -0.0007 22.5413
#
#
#
# Elastic Compliance Matrix: (Units=1/GPa)
#
#
# Indices 1 2 3 4 5 6 
#
# 1 0.011926 -0.003646 0.003204 0.000012 -0.000727 -0.000002
# 2 -0.003646 0.007850 -0.006493 -0.000013 0.000994 0.000011
# 3 0.003204 -0.006493 0.024819 0.000072 -0.001707 -0.000048
# 4 0.000012 -0.000013 0.000072 0.032742 -0.000100 0.006593
# 5 -0.000727 0.000994 -0.001707 -0.000100 0.034344 -0.000015
# 6 -0.000002 0.000011 -0.000048 0.006593 -0.000015 0.045691
#
#
# Mechanical properties :
#
#
# Convention : Reuss Voigt Hill
#
# Bulk Modulus (GPa) = 32.54646 55.95697 44.25171
# Shear Modulus (GPa) = 27.55063 33.09979 30.32521
#
# Velocity S-wave (km/s) = 3.73037 4.08883 3.91370
# Velocity P-wave (km/s) = 5.91551 7.11020 6.54019
#
# Compressibility (1/GPa) = 0.03072531
#
# Stress axis : x y z
#
# Youngs Moduli (GPa) = 83.84911 127.38212 40.29161
#
# Poissons Ratio (x) = 0.46441 -0.12910
# Poissons Ratio (y) = 0.30570 0.26163
# Poissons Ratio (z) = -0.26866 0.82715
#
# Static dielectric constant tensor:
#      x y z
#    x 1.700210 0.000000 0.012800 
#    y 0.000000 1.673220 0.000010 
#    z 0.012800 0.000010 1.762510 
# 
# From -- ./inp_files/271013.got.cif
#   From: 2010.05.17/outbox.ucp.g08.bks.cvg/sg15_136_cif.got.tgz:271013.got - 2010.06.11 12:40:34.
