data_PCOD9309922
_publ_section_title
;
Structure prediction by ZEFSAII (Michael W. Deem and Ramdas Pophale) SiO2 
 PCOD9309922
Probable space group: P 2 2 2
;
_chemical_formula_sum "Si O2"
_cell_formula_units_Z 25
_cell_length_a 5.490556
_cell_length_b 26.095905
_cell_length_c 7.198315
_cell_angle_alpha 90.000000
_cell_angle_beta 90.000000
_cell_angle_gamma 90.000000
_cell_volume 1031.381971
_symmetry_space_group_name_H-M "P 2 2 2"
_symmetry_group_IT_number 16
_symmetry_cell_setting 'orthorhombic'
loop_
_space_group_symop_operation_xyz
x,y,z
-x,-y,z
x,-y,-z
-x,y,-z
loop_
_atom_site_type_symbol
_atom_site_label
_atom_site_fract_x
_atom_site_fract_y
_atom_site_fract_z
Si Si1 0.885568 0.052707 0.706269
Si Si2 0.964369 0.833989 0.207018
Si Si3 0.539373 0.205288 0.220700
Si Si4 0.550264 0.676030 0.779539
Si Si5 0.244913 0.478657 0.211886
Si Si6 0.500000 0.000000 0.500000
Si Si7 0.942459 0.637175 0.212621
O O1 0.909214 0.105806 0.807841
O O2 0.000000 0.058719 0.500000
O O3 0.615970 0.038736 0.648316
O O4 0.000000 0.000000 0.784961
O O5 0.729322 0.807259 0.297215
O O6 0.232128 0.827194 0.292388
O O7 0.000000 0.811162 0.000000
O O8 0.612457 0.264508 0.241739
O O9 0.500000 0.194489 0.000000
O O10 0.276539 0.669739 0.698740
O O11 0.779971 0.641591 0.710932
O O12 0.500000 0.665017 0.000000
O O13 0.500000 0.500000 0.289634
O O14 0.187657 0.418412 0.206600
O O15 0.000000 0.500000 0.301584
O O16 0.247585 0.500000 0.000000
O O17 0.000000 0.653770 0.000000
#
# Coordination Sequence:
#
# PCOD9309922 Si02
#       7
#     4   4   4   4   4   1   4
#     4   9  20  35  55  77 105 134 168 203 243 301
#     4  10  20  33  54  74 101 131 163 199 258 302
#     4   9  18  32  45  67  92 120 152 203 249 299
#     4   9  17  25  38  51  73  98 142 181 232 295
#     4  10  17  22  29  39  66  87 125 180 239 284
#     4   8  18  36  56  76 108 136 174 202 254 284
#     4  10  16  23  33  48  62  99 135 178 237 301
#
# _framework density 24.239319999999999
#
# number of rings (size 3 to 8) (size 9 to 14) (size 15 to 20)
#    0.000    2.720    1.600    1.920    8.960    4.160 
#    0.000    0.000    0.000    0.000    0.000    0.000 
#    0.000    0.000    0.000    0.000    0.000    0.000 
#
# Total GULP energy -139185.324019 kJ/mol
# GULP energy per Si atom -5567.412961 kJ/mol
# Density = 2.418415 g / cm^3
# Si number density = 24.239320 Si / 1000 Ang^3
#
#
#
# Elastic Constant Matrix: (Units=GPa)
#
#
# Indices 1 2 3 4 5 6 
#
# 1 233.4062 63.9341 1.9442 0.0000 0.0000 0.0000
# 2 63.9341 108.8083 -15.2237 0.0000 0.0000 0.0000
# 3 1.9442 -15.2237 76.7014 0.0000 0.0000 0.0000
# 4 0.0000 0.0000 0.0000 -69.6389 0.0000 0.0000
# 5 0.0000 0.0000 0.0000 0.0000 8.1602 0.0000
# 6 0.0000 0.0000 0.0000 0.0000 0.0000 58.1537
#
#
#
# Elastic Compliance Matrix: (Units=1/GPa)
#
#
# Indices 1 2 3 4 5 6 
#
# 1 0.005148 -0.003130 -0.000752 0.000000 0.000000 0.000000
# 2 -0.003130 0.011356 0.002333 0.000000 0.000000 0.000000
# 3 -0.000752 0.002333 0.013520 0.000000 0.000000 0.000000
# 4 0.000000 0.000000 0.000000 -0.014360 0.000000 0.000000
# 5 0.000000 0.000000 0.000000 0.000000 0.122546 0.000000
# 6 0.000000 0.000000 0.000000 0.000000 0.000000 0.017196
#
#
# Mechanical properties :
#
#
# Convention : Reuss Voigt Hill
#
# Bulk Modulus (GPa) = 37.13769 57.80281 47.47025
# Shear Modulus (GPa) = 29.85457 23.88574 26.87015
#
# Velocity S-wave (km/s) = 3.51331 3.14253 3.33308
# Velocity P-wave (km/s) = 5.64024 6.08817 5.86848
#
# Compressibility (1/GPa) = 0.02692682
#
# Stress axis : x y z
#
# Youngs Moduli (GPa) = 194.24930 88.05823 73.96595
#
# Poissons Ratio (x) = 0.27563 0.05560
# Poissons Ratio (y) = 0.60802 -0.17258
# Poissons Ratio (z) = 0.14603 -0.20547
#
# Static dielectric constant tensor:
#      x y z
#    x 2.050790 0.000000 0.000000 
#    y 0.000000 1.906380 0.000000 
#    z 0.000000 0.000000 1.942830 
# 
# From -- ./inp_files/3270.got.cif
#   From: 2010.05.17/outbox.cif.g08.bks.cpg/sg16_2_cif.got.tgz:3270.got - 2010.06.03 22:28:35.
