data_PCOD9309970
_publ_section_title
;
Structure prediction by ZEFSAII (Michael W. Deem and Ramdas Pophale) SiO2 
 PCOD9309970
Probable space group: P 2 2 2
;
_chemical_formula_sum "Si O2"
_cell_formula_units_Z 20
_cell_length_a 13.838004
_cell_length_b 4.949620
_cell_length_c 13.510212
_cell_angle_alpha 90.000000
_cell_angle_beta 90.000000
_cell_angle_gamma 90.000000
_cell_volume 925.353077
_symmetry_space_group_name_H-M "P 2 2 2"
_symmetry_group_IT_number 16
_symmetry_cell_setting 'orthorhombic'
loop_
_space_group_symop_operation_xyz
x,y,z
-x,-y,z
x,-y,-z
-x,y,-z
loop_
_atom_site_type_symbol
_atom_site_label
_atom_site_fract_x
_atom_site_fract_y
_atom_site_fract_z
Si Si1 0.653036 0.237522 0.931430
Si Si2 0.099968 0.417630 0.769920
Si Si3 0.317039 0.403467 0.280998
Si Si4 0.391915 0.082832 0.614634
Si Si5 0.130281 0.907118 0.893235
O O1 0.625901 0.366589 0.824135
O O2 0.753811 0.099926 0.899745
O O3 0.666096 0.500000 0.000000
O O4 0.605582 0.000000 0.000000
O O5 0.206248 0.491684 0.728042
O O6 0.097865 0.609054 0.866651
O O7 0.000000 0.500000 0.714790
O O8 0.100772 0.112147 0.807217
O O9 0.317892 0.107012 0.327244
O O10 0.371266 0.610670 0.354263
O O11 0.500000 0.000000 0.646171
O O12 0.383874 0.000000 0.500000
O O13 0.098074 0.000000 0.000000
#
# Coordination Sequence:
#
# PCOD9309970 Si02
#       5
#     4   4   4   4   4
#     4  10  18  32  55  86 122 164 209 242 280 348
#     4  11  22  33  50  80 117 159 201 236 280 346
#     4  11  21  39  64  89 124 164 194 242 309 358
#     4  11  24  43  69  97 117 139 189 261 327 377
#     4  10  18  30  46  72 113 158 206 253 286 319
#
# _framework density 21.613371999999998
#
# number of rings (size 3 to 8) (size 9 to 14) (size 15 to 20)
#    0.000    1.400    0.000   10.800    0.000    4.000 
#    0.000    0.000    0.000   12.600    0.000    1.400 
#    0.000    0.000    0.000    0.000    0.000    0.000 
#
# Total GULP energy -111482.362222 kJ/mol
# GULP energy per Si atom -5574.118111 kJ/mol
# Density = 2.156418 g / cm^3
# Si number density = 21.613372 Si / 1000 Ang^3
#
#
#
# Elastic Constant Matrix: (Units=GPa)
#
#
# Indices 1 2 3 4 5 6 
#
# 1 90.0134 11.0028 15.3342 0.0000 0.0000 0.0000
# 2 11.0028 94.1080 18.2419 0.0000 0.0000 0.0000
# 3 15.3342 18.2419 73.5295 0.0000 0.0000 0.0000
# 4 0.0000 0.0000 0.0000 40.9338 0.0000 0.0000
# 5 0.0000 0.0000 0.0000 0.0000 -51.0019 0.0000
# 6 0.0000 0.0000 0.0000 0.0000 0.0000 -1.4386
#
#
#
# Elastic Compliance Matrix: (Units=1/GPa)
#
#
# Indices 1 2 3 4 5 6 
#
# 1 0.011596 -0.000932 -0.002187 0.000000 0.000000 0.000000
# 2 -0.000932 0.011238 -0.002594 0.000000 0.000000 0.000000
# 3 -0.002187 -0.002594 0.014700 0.000000 0.000000 0.000000
# 4 0.000000 0.000000 0.000000 0.024430 0.000000 0.000000
# 5 0.000000 0.000000 0.000000 0.000000 -0.019607 0.000000
# 6 0.000000 0.000000 0.000000 0.000000 0.000000 -0.695140
#
#
# Mechanical properties :
#
#
# Convention : Reuss Voigt Hill
#
# Bulk Modulus (GPa) = 38.30223 38.53431 38.41827
# Shear Modulus (GPa) = -7.90318 11.90347 2.00014
#
# Velocity S-wave (km/s) = -1.91430 2.34934 0.96303
# Velocity P-wave (km/s) = 3.58803 5.02263 4.36468
#
# Compressibility (1/GPa) = 0.02610814
#
# Stress axis : x y z
#
# Youngs Moduli (GPa) = 86.23710 88.98551 68.02928
#
# Poissons Ratio (x) = 0.08292 0.14879
# Poissons Ratio (y) = 0.08036 0.17644
# Poissons Ratio (z) = 0.18861 0.23080
#
# Static dielectric constant tensor:
#      x y z
#    x 1.892540 0.000000 0.000000 
#    y 0.000000 1.765330 0.000000 
#    z 0.000000 0.000000 1.836140 
# 
# From -- ./inp_files/5899.got.cif
#   From: 2010.05.17/outbox.cif.g08.bks.cpg/sg16_3_cif.got.tgz:5899.got - 2010.06.03 22:28:35.
