data_PCOD9309505
_publ_section_title
;
Structure prediction by ZEFSAII (Michael W. Deem and Ramdas Pophale) SiO2 
 PCOD9309505
Probable space group: C 2/C
;
_chemical_formula_sum "Si O2"
_cell_formula_units_Z 32
_cell_length_a 21.000000
_cell_length_b 18.000000
_cell_length_c 24.000000
_cell_angle_alpha 90.000000
_cell_angle_beta 160.000000
_cell_angle_gamma 90.000000
_cell_volume 3102.806740
_symmetry_space_group_name_H-M "C 2/C"
_symmetry_group_IT_number 15
_symmetry_cell_setting 'monoclinic'
loop_
_space_group_symop_operation_xyz
x,y,z
-x,y,1/2-z
-x,-y,-z
x,-y,1/2+z
1/2+x,1/2+y,z
1/2-x,1/2+y,1/2-z
1/2-x,1/2-y,-z
1/2+x,1/2-y,1/2+z
loop_
_atom_site_type_symbol
_atom_site_label
_atom_site_fract_x
_atom_site_fract_y
_atom_site_fract_z
Si Si1 0.066593 0.654872 0.904349
Si Si2 0.711251 0.562018 0.648700
Si Si3 0.364293 0.428394 0.585827
Si Si4 0.564846 0.668944 0.013387
Si Si5 0.605935 0.301693 0.740898
Si Si6 0.446209 0.458500 0.077957
Si Si7 0.182850 0.692362 0.187142
Si Si8 0.204385 0.527114 0.173251
O O1 0.900844 0.605372 0.792990
O O2 0.994007 0.729856 0.816450
O O3 0.171226 0.605195 0.945367
O O4 0.216909 0.678339 0.075275
O O5 0.563243 0.622131 0.548991
O O6 0.645959 0.513001 0.543519
O O7 0.726969 0.503206 0.711341
O O8 0.500000 0.425604 0.750000
O O9 0.463656 0.370898 0.624386
O O10 0.349277 0.513204 0.553644
O O11 0.560116 0.623793 0.951914
O O12 0.486792 0.752007 0.949618
O O13 0.762419 0.673616 0.205145
O O14 0.658132 0.272029 0.721571
O O15 0.658702 0.487776 0.257567
O O16 0.181707 0.614685 0.154163
O O17 0.000000 0.500000 0.000000
#
# Coordination Sequence:
#
# PCOD9309505 Si02
#       8
#     8   8   8   8   8   8   8   8
#     4  11  24  36  57  86 120 169 211 238 292 347
#     4  11  21  39  57  85 121 161 203 240 296 353
#     4  10  23  40  59  81 116 165 211 250 291 349
#     4  11  23  36  57  89 120 158 188 242 306 362
#     4  11  21  37  53  86 130 159 197 245 285 357
#     4  11  22  43  58  79 125 160 196 252 297 347
#     4  12  21  37  58  90 124 157 192 234 309 364
#     4  11  22  35  62  88 120 158 199 248 298 358
#
# _framework density 10.313243
#
# number of rings (size 3 to 8) (size 9 to 14) (size 15 to 20)
#    0.000    1.000    5.000    2.625    7.000    0.500 
#    0.000    0.000    0.000    0.000    0.000    3.500 
#    0.000    0.000    0.000    0.000    0.000    0.000 
#
# Total GULP energy -178384.105192 kJ/mol
# GULP energy per Si atom -5574.503287 kJ/mol
# Density = 1.028977 g / cm^3
# Si number density = 10.313243 Si / 1000 Ang^3
#
#
#
# Elastic Constant Matrix: (Units=GPa)
#
#
# Indices 1 2 3 4 5 6 
#
# 1 28.5568 5.4490 6.7564 0.0113 4.8770 -0.0009
# 2 5.4490 8.0603 9.5528 0.0152 -11.2176 0.0032
# 3 6.7564 9.5528 53.8931 0.0154 4.9704 0.0011
# 4 0.0113 0.0152 0.0154 25.0839 -0.0063 8.3109
# 5 4.8770 -11.2176 4.9704 -0.0063 8.1621 -0.0083
# 6 -0.0009 0.0032 0.0011 8.3109 -0.0083 25.2448
#
#
#
# Elastic Compliance Matrix: (Units=1/GPa)
#
#
# Indices 1 2 3 4 5 6 
#
# 1 0.028719 0.024850 -0.010142 -0.000020 0.023169 0.000013
# 2 0.024850 -0.057649 0.016719 -0.000004 -0.104260 -0.000026
# 3 -0.010142 0.016719 0.015029 -0.000012 0.019885 0.000007
# 4 -0.000020 -0.000004 -0.000012 0.044747 0.000033 -0.014731
# 5 0.023169 -0.104260 0.019885 0.000033 -0.046726 -0.000013
# 6 0.000013 -0.000026 0.000007 -0.014731 -0.000013 0.044462
#
#
# Mechanical properties :
#
#
# Convention : Reuss Voigt Hill
#
# Bulk Modulus (GPa) = 20.42765 14.89183 17.65974
# Shear Modulus (GPa) = -278.49059 16.28161 -131.10449
#
# Velocity S-wave (km/s) = -11.63224 2.81259 -7.98118
# Velocity P-wave (km/s) = 13.05707 4.21699 8.73796
#
# Compressibility (1/GPa) = 0.04895326
#
# Stress axis : x y z
#
# Youngs Moduli (GPa) = 34.82036 -17.34637 66.53678
#
# Poissons Ratio (x) = 0.43106 0.67482
# Poissons Ratio (y) = -0.86530 -1.11241
# Poissons Ratio (z) = 0.35315 0.29001
#
# Static dielectric constant tensor:
#      x y z
#    x 1.613950 0.000000 0.085490 
#    y 0.000000 1.682490 -0.000190 
#    z 0.085490 -0.000190 1.863460 
# 
# From -- ./inp_files/256005.got.cif
#   From: 2010.05.17/outbox.ucp.g08.bks.cvg/sg15_129_cif.got.tgz:256005.got - 2010.06.11 12:40:34.
