data_PCOD9309175
_publ_section_title
;
Structure prediction by ZEFSAII (Michael W. Deem and Ramdas Pophale) SiO2 
 PCOD9309175
Probable space group: C 2/C
;
_chemical_formula_sum "Si O2"
_cell_formula_units_Z 16
_cell_length_a 9.000000
_cell_length_b 12.000000
_cell_length_c 30.000000
_cell_angle_alpha 90.000000
_cell_angle_beta 30.000000
_cell_angle_gamma 90.000000
_cell_volume 1620.000000
_symmetry_space_group_name_H-M "C 2/C"
_symmetry_group_IT_number 15
_symmetry_cell_setting 'monoclinic'
loop_
_space_group_symop_operation_xyz
x,y,z
-x,y,1/2-z
-x,-y,-z
x,-y,1/2+z
1/2+x,1/2+y,z
1/2-x,1/2+y,1/2-z
1/2-x,1/2-y,-z
1/2+x,1/2-y,1/2+z
loop_
_atom_site_type_symbol
_atom_site_label
_atom_site_fract_x
_atom_site_fract_y
_atom_site_fract_z
Si Si1 0.722852 0.762352 0.909394
Si Si2 0.946624 0.984037 0.696574
Si Si3 0.503572 0.056019 0.887155
Si Si4 0.854403 0.091852 0.947032
O O1 0.863521 0.676317 0.909332
O O2 0.582453 0.681933 0.908146
O O3 0.438092 0.841692 0.995901
O O4 0.962063 0.852689 0.829058
O O5 0.641916 0.004408 0.804376
O O6 0.204796 0.050744 0.656795
O O7 0.984605 0.026647 0.635453
O O8 0.267684 0.983981 0.979045
#
# Coordination Sequence:
#
# PCOD9309175 Si02
#       4
#     8   8   8   8
#     4  10  21  39  62  82 118 155 184 239 290 327
#     4  10  23  39  57  86 117 149 193 236 282 342
#     4  10  21  39  59  85 117 149 193 237 280 343
#     4  10  22  38  60  88 114 150 194 232 284 344
#
# _framework density 9.8765429999999999
#
# number of rings (size 3 to 8) (size 9 to 14) (size 15 to 20)
#    0.000    2.000    0.000    3.750    0.000   15.000 
#    0.000    5.000    0.000    0.000    0.000    0.000 
#    0.000    0.000    0.000    0.000    0.000    0.000 
#
# Total GULP energy -89195.545821 kJ/mol
# GULP energy per Si atom -5574.721614 kJ/mol
# Density = 0.985406 g / cm^3
# Si number density = 9.876543 Si / 1000 Ang^3
#
#
#
# Elastic Constant Matrix: (Units=GPa)
#
#
# Indices 1 2 3 4 5 6 
#
# 1 66.8912 45.0283 29.9021 -0.0046 19.7443 0.0013
# 2 45.0283 126.7323 48.3337 -0.0022 12.0778 -0.0041
# 3 29.9021 48.3337 121.8897 -0.0226 48.0151 0.0025
# 4 -0.0046 -0.0022 -0.0226 25.1841 0.0105 -8.4106
# 5 19.7443 12.0778 48.0151 0.0105 39.2924 -0.0016
# 6 0.0013 -0.0041 0.0025 -8.4106 -0.0016 52.2443
#
#
#
# Elastic Compliance Matrix: (Units=1/GPa)
#
#
# Indices 1 2 3 4 5 6 
#
# 1 0.022627 -0.007721 0.002034 0.000010 -0.011482 0.000000
# 2 -0.007721 0.012141 -0.005743 -0.000008 0.007166 0.000000
# 3 0.002034 -0.005743 0.018683 0.000027 -0.022088 0.000002
# 4 0.000010 -0.000008 0.000027 0.041964 -0.000046 0.006756
# 5 -0.011482 0.007166 -0.022088 -0.000046 0.056008 -0.000004
# 6 0.000000 0.000000 0.000002 0.006756 -0.000004 0.020228
#
#
# Mechanical properties :
#
#
# Convention : Reuss Voigt Hill
#
# Bulk Modulus (GPa) = 32.68917 62.44902 47.56910
# Shear Modulus (GPa) = 24.42486 36.16075 30.29280
#
# Velocity S-wave (km/s) = 3.52022 4.28324 3.92033
# Velocity P-wave (km/s) = 5.75390 7.49299 6.68028
#
# Compressibility (1/GPa) = 0.03059117
#
# Stress axis : x y z
#
# Youngs Moduli (GPa) = 44.19504 82.36351 53.52352
#
# Poissons Ratio (x) = 0.63591 -0.10885
# Poissons Ratio (y) = 0.34122 0.30739
# Poissons Ratio (z) = -0.08988 0.47302
#
# Static dielectric constant tensor:
#      x y z
#    x 1.723320 0.000000 -0.004140 
#    y 0.000000 1.702420 0.000000 
#    z -0.004140 0.000000 1.725060 
# 
# From -- ./inp_files/131754.got.cif
#   From: 2010.05.17/outbox.ucp.g08.bks.cvg/sg15_66_cif.got.tgz:131754.got - 2010.06.11 12:40:34.
