data_PCOD9309263
_publ_section_title
;
Structure prediction by ZEFSAII (Michael W. Deem and Ramdas Pophale) SiO2 
 PCOD9309263
Probable space group: C 2/C
;
_chemical_formula_sum "Si O2"
_cell_formula_units_Z 32
_cell_length_a 15.000000
_cell_length_b 30.000000
_cell_length_c 21.000000
_cell_angle_alpha 90.000000
_cell_angle_beta 160.000000
_cell_angle_gamma 90.000000
_cell_volume 3232.090354
_symmetry_space_group_name_H-M "C 2/C"
_symmetry_group_IT_number 15
_symmetry_cell_setting 'monoclinic'
loop_
_space_group_symop_operation_xyz
x,y,z
-x,y,1/2-z
-x,-y,-z
x,-y,1/2+z
1/2+x,1/2+y,z
1/2-x,1/2+y,1/2-z
1/2-x,1/2-y,-z
1/2+x,1/2-y,1/2+z
loop_
_atom_site_type_symbol
_atom_site_label
_atom_site_fract_x
_atom_site_fract_y
_atom_site_fract_z
Si Si1 0.980350 0.874836 0.531235
Si Si2 0.025456 0.040687 0.844162
Si Si3 0.273375 0.947045 0.045988
Si Si4 0.393602 0.296059 0.108560
Si Si5 0.549848 0.882660 0.858113
Si Si6 0.369642 0.906933 0.324303
Si Si7 0.766269 0.721893 0.643019
Si Si8 0.577288 0.806695 0.112844
O O1 0.284371 0.882963 0.720659
O O2 0.875946 0.905256 0.520036
O O3 0.832519 0.891251 0.367196
O O4 0.909550 0.822137 0.492394
O O5 0.789314 0.063901 0.728403
O O6 0.000000 0.038003 0.750000
O O7 0.273231 0.073512 0.017390
O O8 0.094978 0.990954 0.916216
O O9 0.500000 0.958239 0.250000
O O10 0.410575 0.932824 0.070681
O O11 0.500000 0.293067 0.250000
O O12 0.634632 0.302489 0.223031
O O13 0.250000 0.250000 0.000000
O O14 0.210336 0.338872 0.983851
O O15 0.500000 0.877670 0.750000
O O16 0.482457 0.860107 0.428992
O O17 0.608526 0.768672 0.542718
O O18 0.899554 0.708613 0.798754
O O19 0.000000 0.727220 0.750000
#
# Coordination Sequence:
#
# PCOD9309263 Si02
#       8
#     8   8   8   8   8   8   8   8
#     4  10  21  41  68  99 126 165 220 271 319 384
#     4  12  26  44  64  94 130 172 211 270 338 389
#     4  10  24  43  71  95 123 168 221 275 325 394
#     4  12  24  40  61  94 132 171 216 268 327 384
#     4  12  22  41  66  95 125 172 217 267 324 391
#     4  10  22  44  67  91 134 166 216 271 324 388
#     4  11  22  40  65  94 130 171 215 260 315 379
#     4  11  22  41  63  94 129 173 211 263 316 378
#
# _framework density 9.9007129999999997
#
# number of rings (size 3 to 8) (size 9 to 14) (size 15 to 20)
#    0.000    1.000    2.500    5.625    1.750    1.500 
#    0.000    0.625    0.000    0.000    0.000    0.000 
#    0.000    0.000    0.000    0.000    0.000    0.000 
#
# Total GULP energy -178744.724428 kJ/mol
# GULP energy per Si atom -5585.772638 kJ/mol
# Density = 0.987818 g / cm^3
# Si number density = 9.900713 Si / 1000 Ang^3
#
#
#
# Elastic Constant Matrix: (Units=GPa)
#
#
# Indices 1 2 3 4 5 6 
#
# 1 112.5759 24.2724 22.8776 0.0033 17.6875 -0.0015
# 2 24.2724 145.0219 26.0059 0.0036 2.6860 -0.0026
# 3 22.8776 26.0059 45.9270 0.0150 6.8245 0.0083
# 4 0.0033 0.0036 0.0150 40.6590 0.0028 4.0138
# 5 17.6875 2.6860 6.8245 0.0028 45.0443 0.0017
# 6 -0.0015 -0.0026 0.0083 4.0138 0.0017 39.4653
#
#
#
# Elastic Compliance Matrix: (Units=1/GPa)
#
#
# Indices 1 2 3 4 5 6 
#
# 1 0.010472 -0.000941 -0.004175 0.000001 -0.003423 0.000001
# 2 -0.000941 0.007761 -0.004002 0.000001 0.000513 0.000001
# 3 -0.004175 -0.004002 0.026436 -0.000008 -0.002127 -0.000005
# 4 0.000001 0.000001 -0.000008 0.024844 -0.000001 -0.002527
# 5 -0.003423 0.000513 -0.002127 -0.000001 0.023836 -0.000001
# 6 0.000001 0.000001 -0.000005 -0.002527 -0.000001 0.025596
#
#
# Mechanical properties :
#
#
# Convention : Reuss Voigt Hill
#
# Bulk Modulus (GPa) = 37.83180 49.98185 43.90683
# Shear Modulus (GPa) = 34.24835 40.39166 37.32000
#
# Velocity S-wave (km/s) = 4.16335 4.52135 4.34604
# Velocity P-wave (km/s) = 6.50064 7.24936 6.88518
#
# Compressibility (1/GPa) = 0.02643279
#
# Stress axis : x y z
#
# Youngs Moduli (GPa) = 95.49241 128.84659 37.82743
#
# Poissons Ratio (x) = 0.12119 0.15793
# Poissons Ratio (y) = 0.08982 0.15140
# Poissons Ratio (z) = 0.39869 0.51570
#
# Static dielectric constant tensor:
#      x y z
#    x 1.708680 0.000000 -0.036600 
#    y 0.000000 1.683340 -0.000010 
#    z -0.036600 -0.000010 1.724930 
# 
# From -- ./inp_files/44856.got.cif
#   From: 2010.05.17/outbox.ucp.g08.bks.cvg/sg15_23_cif.got.tgz:44856.got - 2010.06.11 12:40:34.
