data_PCOD9309354
_publ_section_title
;
Structure prediction by ZEFSAII (Michael W. Deem and Ramdas Pophale) SiO2 
 PCOD9309354
Probable space group: C 2/C
;
_chemical_formula_sum "Si O2"
_cell_formula_units_Z 30
_cell_length_a 12.000000
_cell_length_b 27.000000
_cell_length_c 18.000000
_cell_angle_alpha 90.000000
_cell_angle_beta 150.000000
_cell_angle_gamma 90.000000
_cell_volume 2916.000000
_symmetry_space_group_name_H-M "C 2/C"
_symmetry_group_IT_number 15
_symmetry_cell_setting 'monoclinic'
loop_
_space_group_symop_operation_xyz
x,y,z
-x,y,1/2-z
-x,-y,-z
x,-y,1/2+z
1/2+x,1/2+y,z
1/2-x,1/2+y,1/2-z
1/2-x,1/2-y,-z
1/2+x,1/2-y,1/2+z
loop_
_atom_site_type_symbol
_atom_site_label
_atom_site_fract_x
_atom_site_fract_y
_atom_site_fract_z
Si Si1 0.367175 0.289560 0.745505
Si Si2 0.050737 0.012249 0.361549
Si Si3 0.038713 0.948494 0.065238
Si Si4 0.032714 0.583469 0.896951
Si Si5 0.000000 0.339694 0.250000
Si Si6 0.793111 0.633184 0.183130
Si Si7 0.208701 0.602713 0.160630
Si Si8 0.545684 0.280052 0.004763
O O1 0.500000 0.274073 0.750000
O O2 0.369023 0.349237 0.745419
O O3 0.493864 0.267692 0.889288
O O4 0.116177 0.268224 0.592345
O O5 0.276165 0.042679 0.503540
O O6 0.000000 0.996032 0.250000
O O7 0.850750 0.052676 0.257003
O O8 0.064972 0.962785 0.416406
O O9 0.294769 0.936787 0.231650
O O10 0.905968 0.905302 0.948711
O O11 0.000000 0.000000 0.000000
O O12 0.073620 0.628537 0.864469
O O13 0.061746 0.597306 0.001169
O O14 0.228846 0.312469 0.359264
O O15 0.896713 0.618781 0.322825
O O16 0.669788 0.686196 0.102561
O O17 0.000000 0.628928 0.250000
#
# Coordination Sequence:
#
# PCOD9309354 Si02
#       8
#     8   8   8   8   4   8   8   8
#     4  11  21  36  64  99 130 159 200 260 332 388
#     4  10  22  39  60  93 129 160 201 262 326 378
#     4  12  24  38  61  91 119 165 223 250 310 380
#     4  11  23  38  66  87 130 165 206 259 314 390
#     4  12  20  38  62  96 132 156 202 256 326 382
#     4  11  25  46  64  86 131 174 217 266 312 370
#     4  10  22  43  62  94 129 169 205 259 330 376
#     4  11  24  38  62  97 127 161 209 260 324 384
#
# _framework density 10.288066000000001
#
# number of rings (size 3 to 8) (size 9 to 14) (size 15 to 20)
#    0.000    1.067    3.333    4.800    3.733    3.200 
#    0.000    2.667    0.000    0.000    0.000    0.000 
#    0.000    0.000    0.000    0.000    0.000    0.000 
#
# Total GULP energy -167130.042258 kJ/mol
# GULP energy per Si atom -5571.001409 kJ/mol
# Density = 1.026465 g / cm^3
# Si number density = 10.288066 Si / 1000 Ang^3
#
#
#
# Elastic Constant Matrix: (Units=GPa)
#
#
# Indices 1 2 3 4 5 6 
#
# 1 67.2540 -8.1781 4.0136 -0.0027 -9.3920 -0.0046
# 2 -8.1781 27.0971 -16.7306 -0.0014 -5.5272 -0.0033
# 3 4.0136 -16.7306 72.5005 -0.0068 -7.0315 -0.0174
# 4 -0.0027 -0.0014 -0.0068 7.1870 -0.0012 -14.1196
# 5 -9.3920 -5.5272 -7.0315 -0.0012 25.8348 -0.0020
# 6 -0.0046 -0.0033 -0.0174 -14.1196 -0.0020 5.4228
#
#
#
# Elastic Compliance Matrix: (Units=1/GPa)
#
#
# Indices 1 2 3 4 5 6 
#
# 1 0.016872 0.007807 0.001668 -0.000016 0.008258 -0.000013
# 2 0.007807 0.050773 0.012955 -0.000048 0.017227 -0.000039
# 3 0.001668 0.012955 0.017479 -0.000038 0.008136 -0.000030
# 4 -0.000016 -0.000048 -0.000038 -0.033810 -0.000034 -0.088033
# 5 0.008258 0.017227 0.008136 -0.000034 0.047609 -0.000029
# 6 -0.000013 -0.000039 -0.000030 -0.088033 -0.000029 -0.044809
#
#
# Mechanical properties :
#
#
# Convention : Reuss Voigt Hill
#
# Bulk Modulus (GPa) = 7.69323 13.89573 10.79448
# Shear Modulus (GPa) = 95.08899 20.20535 57.64717
#
# Velocity S-wave (km/s) = 6.80541 3.13706 5.29881
# Velocity P-wave (km/s) = 8.09311 4.45976 6.53406
#
# Compressibility (1/GPa) = 0.12998448
#
# Stress axis : x y z
#
# Youngs Moduli (GPa) = 59.27011 19.69545 57.21064
#
# Poissons Ratio (x) = -0.15375 -0.09545
# Poissons Ratio (y) = -0.46269 -0.74118
# Poissons Ratio (z) = -0.09888 -0.25516
#
# Static dielectric constant tensor:
#      x y z
#    x 1.611680 0.000000 -0.049800 
#    y 0.000000 1.814110 -0.000010 
#    z -0.049800 -0.000010 1.477830 
# 
# From -- ./inp_files/201293.got.cif
#   From: 2010.05.17/outbox.ucp.g08.bks.cvg/sg15_101_cif.got.tgz:201293.got - 2010.06.11 12:40:34.
