data_PCOD9309914
_publ_section_title
;
Structure prediction by ZEFSAII (Michael W. Deem and Ramdas Pophale) SiO2 
 PCOD9309914
Probable space group: C 2/C
;
_chemical_formula_sum "Si O2"
_cell_formula_units_Z 24
_cell_length_a 15.000000
_cell_length_b 6.000000
_cell_length_c 30.000000
_cell_angle_alpha 90.000000
_cell_angle_beta 120.000000
_cell_angle_gamma 90.000000
_cell_volume 2338.268590
_symmetry_space_group_name_H-M "C 2/C"
_symmetry_group_IT_number 15
_symmetry_cell_setting 'monoclinic'
loop_
_space_group_symop_operation_xyz
x,y,z
-x,y,1/2-z
-x,-y,-z
x,-y,1/2+z
1/2+x,1/2+y,z
1/2-x,1/2+y,1/2-z
1/2-x,1/2-y,-z
1/2+x,1/2-y,1/2+z
loop_
_atom_site_type_symbol
_atom_site_label
_atom_site_fract_x
_atom_site_fract_y
_atom_site_fract_z
Si Si1 0.899784 0.840647 0.297738
Si Si2 0.722201 0.500000 0.472201
Si Si3 0.695693 0.659353 0.297738
Si Si4 0.001091 0.166982 0.104979
Si Si5 0.407622 0.000000 0.157622
Si Si6 0.708867 0.166982 0.604979
O O1 0.788502 0.750000 0.288502
O O2 0.991215 0.660506 0.309684
O O3 0.876364 0.000000 0.250000
O O4 0.941855 0.998728 0.347389
O O5 0.750000 0.250000 0.500000
O O6 0.597374 0.529073 0.438713
O O7 0.780051 0.470928 0.438713
O O8 0.750000 0.750000 0.500000
O O9 0.752923 0.501272 0.347389
O O10 0.628154 0.839494 0.309684
O O11 0.946171 0.356109 0.123551
O O12 0.093192 0.250001 0.093192
O O13 0.300931 0.143891 0.123551
#
# Coordination Sequence:
#
# PCOD9309914 Si02
#       6
#     8   8   8   8   8   8
#     4  12  27  47  74 114 156 207 262 321 390 480
#     4  12  29  52  82 122 159 205 276 343 414 490
#     4  12  27  47  74 114 156 207 262 321 390 480
#     4  12  26  49  80 111 154 210 256 330 403 474
#     4  12  25  49  75 104 158 207 262 313 391 472
#     4  12  26  49  80 111 154 210 256 330 403 474
#
# _framework density 10.264004999999999
#
# number of rings (size 3 to 8) (size 9 to 14) (size 15 to 20)
#    0.000    0.000    6.667    2.000    0.000    5.333 
#    0.000    0.000    0.000    0.000    0.000    0.000 
#    0.000    0.000    0.000    0.000    0.000    0.000 
#
# Total GULP energy -133931.483624 kJ/mol
# GULP energy per Si atom -5580.478484 kJ/mol
# Density = 1.024064 g / cm^3
# Si number density = 10.264005 Si / 1000 Ang^3
#
#
#
# Elastic Constant Matrix: (Units=GPa)
#
#
# Indices 1 2 3 4 5 6 
#
# 1 227.0804 76.2514 47.4517 0.0000 0.0001 0.0000
# 2 76.2514 149.8503 60.5258 0.0001 0.0002 0.0000
# 3 47.4517 60.5258 104.4833 0.0000 0.0002 0.0000
# 4 0.0000 0.0001 0.0000 61.8805 -0.0001 0.0000
# 5 0.0001 0.0002 0.0002 -0.0001 30.7332 0.0000
# 6 0.0000 0.0000 0.0000 0.0000 0.0000 68.8458
#
#
#
# Elastic Compliance Matrix: (Units=1/GPa)
#
#
# Indices 1 2 3 4 5 6 
#
# 1 0.005411 -0.002299 -0.001126 0.000000 0.000000 0.000000
# 2 -0.002299 0.009688 -0.004568 0.000000 0.000000 0.000000
# 3 -0.001126 -0.004568 0.012729 0.000000 0.000000 0.000000
# 4 0.000000 0.000000 0.000000 0.016160 0.000000 0.000000
# 5 0.000000 0.000000 0.000000 0.000000 0.032538 0.000000
# 6 0.000000 0.000000 0.000000 0.000000 0.000000 0.014525
#
#
# Mechanical properties :
#
#
# Convention : Reuss Voigt Hill
#
# Bulk Modulus (GPa) = 84.44429 94.43020 89.43724
# Shear Modulus (GPa) = 45.05165 52.10425 48.57795
#
# Velocity S-wave (km/s) = 4.68978 5.04352 4.86987
# Velocity P-wave (km/s) = 8.39946 8.94521 8.67662
#
# Compressibility (1/GPa) = 0.01184213
#
# Stress axis : x y z
#
# Youngs Moduli (GPa) = 184.81479 103.21911 78.56347
#
# Poissons Ratio (x) = 0.23726 0.08845
# Poissons Ratio (y) = 0.42481 0.35890
# Poissons Ratio (z) = 0.20807 0.47154
#
# Static dielectric constant tensor:
#      x y z
#    x 1.733770 0.000000 0.000000 
#    y 0.000000 1.788580 0.000000 
#    z 0.000000 0.000000 1.799430 
# 
# From -- ./inp_files/312447.got.cif
#   From: 2010.05.17/outbox.ucp.g08.bks.cvg/sg15_157_cif.got.tgz:312447.got - 2010.06.11 12:40:34.
