data_PCOD9309428
_publ_section_title
;
Structure prediction by ZEFSAII (Michael W. Deem and Ramdas Pophale) SiO2 
 PCOD9309428
Probable space group: C 2/C
;
_chemical_formula_sum "Si O2"
_cell_formula_units_Z 28
_cell_length_a 30.000000
_cell_length_b 9.000000
_cell_length_c 12.000000
_cell_angle_alpha 90.000000
_cell_angle_beta 120.000000
_cell_angle_gamma 90.000000
_cell_volume 2805.922308
_symmetry_space_group_name_H-M "C 2/C"
_symmetry_group_IT_number 15
_symmetry_cell_setting 'monoclinic'
loop_
_space_group_symop_operation_xyz
x,y,z
-x,y,1/2-z
-x,-y,-z
x,-y,1/2+z
1/2+x,1/2+y,z
1/2-x,1/2+y,1/2-z
1/2-x,1/2-y,-z
1/2+x,1/2-y,1/2+z
loop_
_atom_site_type_symbol
_atom_site_label
_atom_site_fract_x
_atom_site_fract_y
_atom_site_fract_z
Si Si1 0.541026 0.332537 0.700676
Si Si2 0.115572 0.609865 0.914215
Si Si3 0.555108 0.331647 0.253112
Si Si4 0.535539 0.859035 0.521097
Si Si5 0.158955 0.286494 0.905335
Si Si6 0.237960 0.850461 0.331868
Si Si7 0.268310 0.190633 0.403747
O O1 0.500000 0.332945 0.750000
O O2 0.586292 0.218529 0.790737
O O3 0.556718 0.502444 0.705532
O O4 0.506249 0.267809 0.560128
O O5 0.134427 0.453478 0.883565
O O6 0.075930 0.603994 0.971331
O O7 0.169869 0.676181 0.019373
O O8 0.500000 0.312175 0.250000
O O9 0.560169 0.207376 0.163254
O O10 0.610013 0.312073 0.384573
O O11 0.500000 0.000000 0.500000
O O12 0.186729 0.222342 0.826606
O O13 0.209561 0.288096 0.046435
O O14 0.242795 0.803590 0.209851
O O15 0.242061 0.028917 0.351283
O O16 0.250000 0.250000 0.500000
#
# Coordination Sequence:
#
# PCOD9309428 Si02
#       7
#     8   8   8   8   8   8   8
#     4   9  21  38  59  88 127 166 213 274 329 398
#     4  10  22  42  64  92 128 170 222 278 333 412
#     4  11  22  38  61  94 131 170 220 274 336 405
#     4  11  21  38  63  93 129 174 219 273 336 405
#     4  10  22  43  67  95 132 178 226 277 340 402
#     4  10  25  44  71  98 138 176 229 287 338 411
#     4  11  26  45  69 102 135 178 233 282 350 412
#
# _framework density 9.9788940000000004
#
# number of rings (size 3 to 8) (size 9 to 14) (size 15 to 20)
#    0.000    1.714    0.000    3.000    8.000    1.143 
#    5.143    1.429    0.000    0.000    0.000    0.000 
#    0.000    0.000    0.000    0.000    0.000    0.000 
#
# Total GULP energy -156046.199970 kJ/mol
# GULP energy per Si atom -5573.078570 kJ/mol
# Density = 0.995618 g / cm^3
# Si number density = 9.978894 Si / 1000 Ang^3
#
#
#
# Elastic Constant Matrix: (Units=GPa)
#
#
# Indices 1 2 3 4 5 6 
#
# 1 149.2775 60.4820 38.2300 0.0000 1.5634 0.0000
# 2 60.4820 104.2272 49.1435 0.0000 4.3515 0.0000
# 3 38.2300 49.1435 83.2256 0.0000 -6.8007 0.0000
# 4 0.0000 0.0000 0.0000 33.2578 0.0000 2.5859
# 5 1.5634 4.3515 -6.8007 0.0000 37.0733 0.0000
# 6 0.0000 0.0000 0.0000 2.5859 0.0000 35.1659
#
#
#
# Elastic Compliance Matrix: (Units=1/GPa)
#
#
# Indices 1 2 3 4 5 6 
#
# 1 0.008881 -0.004463 -0.001454 0.000000 -0.000117 0.000000
# 2 -0.004463 0.015887 -0.007582 0.000000 -0.003067 0.000000
# 3 -0.001454 -0.007582 0.017500 0.000000 0.004161 0.000000
# 4 0.000000 0.000000 0.000000 0.030241 0.000000 -0.002224
# 5 -0.000117 -0.003067 0.004161 0.000000 0.028102 0.000000
# 6 0.000000 0.000000 0.000000 -0.002224 0.000000 0.028600
#
#
# Mechanical properties :
#
#
# Convention : Reuss Voigt Hill
#
# Bulk Modulus (GPa) = 65.48204 70.27126 67.87665
# Shear Modulus (GPa) = 30.99850 33.69106 32.34478
#
# Velocity S-wave (km/s) = 3.94535 4.11313 4.03011
# Velocity P-wave (km/s) = 7.32365 7.60549 7.46590
#
# Compressibility (1/GPa) = 0.01527136
#
# Stress axis : x y z
#
# Youngs Moduli (GPa) = 112.60333 62.94396 57.14252
#
# Poissons Ratio (x) = 0.28093 0.08306
# Poissons Ratio (y) = 0.50256 0.43323
# Poissons Ratio (z) = 0.16368 0.47722
#
# Static dielectric constant tensor:
#      x y z
#    x 1.674720 0.000000 0.014460 
#    y 0.000000 1.742710 0.000000 
#    z 0.014460 0.000000 1.833910 
# 
# From -- ./inp_files/121864.got.cif
#   From: 2010.05.17/outbox.ucp.g08.bks.cvg/sg15_61_cif.got.tgz:121864.got - 2010.06.11 12:40:34.
