data_PCOD9309750
_publ_section_title
;
Structure prediction by ZEFSAII (Michael W. Deem and Ramdas Pophale) SiO2 
 PCOD9309750
Probable space group: C 2/C
;
_chemical_formula_sum "Si O2"
_cell_formula_units_Z 32
_cell_length_a 21.000000
_cell_length_b 18.000000
_cell_length_c 24.000000
_cell_angle_alpha 90.000000
_cell_angle_beta 20.000000
_cell_angle_gamma 90.000000
_cell_volume 3102.806740
_symmetry_space_group_name_H-M "C 2/C"
_symmetry_group_IT_number 15
_symmetry_cell_setting 'monoclinic'
loop_
_space_group_symop_operation_xyz
x,y,z
-x,y,1/2-z
-x,-y,-z
x,-y,1/2+z
1/2+x,1/2+y,z
1/2-x,1/2+y,1/2-z
1/2-x,1/2-y,-z
1/2+x,1/2-y,1/2+z
loop_
_atom_site_type_symbol
_atom_site_label
_atom_site_fract_x
_atom_site_fract_y
_atom_site_fract_z
Si Si1 0.709711 0.666844 0.053880
Si Si2 0.958993 0.665181 0.958278
Si Si3 0.166932 0.920131 0.373944
Si Si4 0.598778 0.824162 0.778047
Si Si5 0.052233 0.079464 0.559365
Si Si6 0.650897 0.668256 0.675683
Si Si7 0.704143 0.041793 0.606912
Si Si8 0.670823 0.320101 0.798159
O O1 0.500000 0.660571 0.250000
O O2 0.750000 0.750000 0.000000
O O3 0.850116 0.650327 0.989834
O O4 0.745377 0.614133 0.971212
O O5 0.148389 0.616904 0.805926
O O6 0.049146 0.747585 0.883296
O O7 0.806724 0.658775 0.134088
O O8 0.270478 0.950192 0.346198
O O9 0.058974 0.949132 0.405299
O O10 0.992799 0.875284 0.545379
O O11 0.756100 0.880471 0.621685
O O12 0.617347 0.753762 0.721802
O O13 0.688656 0.806881 0.765146
O O14 0.373519 0.842177 0.973863
O O15 0.912936 0.126172 0.714261
O O16 0.134431 0.018446 0.534125
O O17 0.500000 0.651480 0.750000
O O18 0.500000 0.019557 0.750000
#
# Coordination Sequence:
#
# PCOD9309750 Si02
#       8
#     8   8   8   8   8   8   8   8
#     4  12  26  44  70 106 143 184 235 294 362 427
#     4  12  21  37  65 101 139 182 225 293 351 421
#     4  11  23  45  67  98 135 187 238 286 348 427
#     4  11  23  43  68 106 140 182 232 294 350 421
#     4  11  27  45  73 100 143 190 234 291 357 423
#     4  12  25  41  69 104 142 180 234 292 357 419
#     4  12  26  48  70  99 143 188 236 288 359 431
#     4  11  22  36  66 103 139 174 231 287 355 415
#
# _framework density 10.313243
#
# number of rings (size 3 to 8) (size 9 to 14) (size 15 to 20)
#    0.000    0.500    3.750    5.625    1.750    0.500 
#    0.000    0.000    0.000    5.250    0.000    0.000 
#    0.000    0.000    0.000    0.000    0.000    0.000 
#
# Total GULP energy -178255.673022 kJ/mol
# GULP energy per Si atom -5570.489782 kJ/mol
# Density = 1.028977 g / cm^3
# Si number density = 10.313243 Si / 1000 Ang^3
#
#
#
# Elastic Constant Matrix: (Units=GPa)
#
#
# Indices 1 2 3 4 5 6 
#
# 1 158.5177 27.2831 26.6198 -0.0038 -22.8378 0.0023
# 2 27.2831 58.3050 16.2138 -0.0186 -6.4949 -0.0037
# 3 26.6198 16.2138 157.8969 -0.0504 -14.4024 0.0042
# 4 -0.0038 -0.0186 -0.0504 20.6103 0.0018 -2.8398
# 5 -22.8378 -6.4949 -14.4024 0.0018 57.4447 0.0032
# 6 0.0023 -0.0037 0.0042 -2.8398 0.0032 38.9031
#
#
#
# Elastic Compliance Matrix: (Units=1/GPa)
#
#
# Indices 1 2 3 4 5 6 
#
# 1 0.007277 -0.002943 -0.000707 -0.000003 0.002383 -0.000001
# 2 -0.002943 0.018986 -0.001396 0.000014 0.000627 0.000003
# 3 -0.000707 -0.001396 0.006709 0.000015 0.001243 0.000000
# 4 -0.000003 0.000014 0.000015 0.049012 0.000002 0.003578
# 5 0.002383 0.000627 0.001243 0.000002 0.018738 -0.000002
# 6 -0.000001 0.000003 0.000000 0.003578 -0.000002 0.025966
#
#
# Mechanical properties :
#
#
# Convention : Reuss Voigt Hill
#
# Bulk Modulus (GPa) = 43.70731 57.21700 50.46215
# Shear Modulus (GPa) = 34.62386 43.69848 39.16117
#
# Velocity S-wave (km/s) = 4.10153 4.60778 4.36200
# Velocity P-wave (km/s) = 6.60802 7.49057 7.06309
#
# Compressibility (1/GPa) = 0.02287947
#
# Stress axis : x y z
#
# Youngs Moduli (GPa) = 137.41773 52.66912 149.04782
#
# Poissons Ratio (x) = 0.15501 0.10542
# Poissons Ratio (y) = 0.40443 0.20812
# Poissons Ratio (z) = 0.09719 0.07354
#
# Static dielectric constant tensor:
#      x y z
#    x 1.738740 -0.000010 -0.001020 
#    y -0.000010 1.850310 0.000030 
#    z -0.001020 0.000030 1.729130 
# 
# From -- ./inp_files/280503.got.cif
#   From: 2010.05.17/outbox.ucp.g08.bks.cvg/sg15_141_cif.got.tgz:280503.got - 2010.06.11 12:40:34.
