data_PCOD9309752
_publ_section_title
;
Structure prediction by ZEFSAII (Michael W. Deem and Ramdas Pophale) SiO2 
 PCOD9309752
Probable space group: C 2/C
;
_chemical_formula_sum "Si O2"
_cell_formula_units_Z 26
_cell_length_a 18.000000
_cell_length_b 21.000000
_cell_length_c 9.000000
_cell_angle_alpha 90.000000
_cell_angle_beta 130.000000
_cell_angle_gamma 90.000000
_cell_volume 2606.083195
_symmetry_space_group_name_H-M "C 2/C"
_symmetry_group_IT_number 15
_symmetry_cell_setting 'monoclinic'
loop_
_space_group_symop_operation_xyz
x,y,z
-x,y,1/2-z
-x,-y,-z
x,-y,1/2+z
1/2+x,1/2+y,z
1/2-x,1/2+y,1/2-z
1/2-x,1/2-y,-z
1/2+x,1/2-y,1/2+z
loop_
_atom_site_type_symbol
_atom_site_label
_atom_site_fract_x
_atom_site_fract_y
_atom_site_fract_z
Si Si1 0.662952 0.663557 0.866733
Si Si2 0.320957 0.820532 0.332970
Si Si3 0.737221 0.814241 0.702410
Si Si4 0.803618 0.903348 0.528493
Si Si5 0.467701 0.769306 0.940977
Si Si6 0.423879 0.526821 0.779735
Si Si7 0.500000 0.676083 0.250000
O O1 0.764735 0.680144 0.917174
O O2 0.584333 0.718989 0.736438
O O3 0.626353 0.595271 0.758732
O O4 0.690707 0.664551 0.073483
O O5 0.273339 0.756455 0.199176
O O6 0.437567 0.810301 0.486474
O O7 0.277862 0.884504 0.199805
O O8 0.754802 0.867919 0.604228
O O9 0.624793 0.807966 0.610037
O O10 0.903654 0.866578 0.616247
O O11 0.843580 0.973905 0.624527
O O12 0.507020 0.722335 0.119072
O O13 0.500000 0.541143 0.750000
O O14 0.500000 0.500000 0.000000
#
# Coordination Sequence:
#
# PCOD9309752 Si02
#       7
#     8   8   8   8   8   8   4
#     4  11  25  41  58  94 131 163 207 256 327 374
#     4  11  22  39  63  88 126 166 207 261 316 374
#     4  11  23  38  59  93 127 163 205 263 324 370
#     4  12  22  40  62  92 126 164 208 254 314 375
#     4  11  22  37  64  90 125 160 206 258 316 380
#     4  12  25  41  64  92 126 170 211 257 313 380
#     4  12  18  36  60  90 120 152 200 250 308 374
#
# _framework density 9.9766580000000005
#
# number of rings (size 3 to 8) (size 9 to 14) (size 15 to 20)
#    0.000    0.615    5.385    6.000    2.154    1.846 
#    0.000    0.000    0.000    5.538    0.000    0.000 
#    0.000    0.000    0.000    0.000    0.000    0.000 
#
# Total GULP energy -145104.842041 kJ/mol
# GULP energy per Si atom -5580.955463 kJ/mol
# Density = 0.995395 g / cm^3
# Si number density = 9.976658 Si / 1000 Ang^3
#
#
#
# Elastic Constant Matrix: (Units=GPa)
#
#
# Indices 1 2 3 4 5 6 
#
# 1 128.3665 37.1612 26.7229 0.0000 31.6968 0.0000
# 2 37.1612 100.7139 19.0786 0.0000 21.5414 0.0000
# 3 26.7229 19.0786 78.3243 0.0000 10.2095 0.0000
# 4 0.0000 0.0000 0.0000 31.9291 0.0000 7.4605
# 5 31.6968 21.5414 10.2095 0.0000 46.8907 0.0000
# 6 0.0000 0.0000 0.0000 7.4605 0.0000 29.8750
#
#
#
# Elastic Compliance Matrix: (Units=1/GPa)
#
#
# Indices 1 2 3 4 5 6 
#
# 1 0.010231 -0.002189 -0.002251 0.000000 -0.005420 0.000000
# 2 -0.002189 0.011820 -0.001664 0.000000 -0.003588 0.000000
# 3 -0.002251 -0.001664 0.014041 0.000000 -0.000771 0.000000
# 4 0.000000 0.000000 0.000000 0.033260 0.000000 -0.008306
# 5 -0.005420 -0.003588 -0.000771 0.000000 0.026806 0.000000
# 6 0.000000 0.000000 0.000000 -0.008306 0.000000 0.035547
#
#
# Mechanical properties :
#
#
# Convention : Reuss Voigt Hill
#
# Bulk Modulus (GPa) = 41.87167 52.59222 47.23195
# Shear Modulus (GPa) = 32.92183 36.70175 34.81179
#
# Velocity S-wave (km/s) = 4.06636 4.29345 4.18145
# Velocity P-wave (km/s) = 6.56334 7.14095 6.85823
#
# Compressibility (1/GPa) = 0.02388250
#
# Stress axis : x y z
#
# Youngs Moduli (GPa) = 97.74333 84.60548 71.21841
#
# Poissons Ratio (x) = 0.18523 0.16030
# Poissons Ratio (y) = 0.21399 0.11854
# Poissons Ratio (z) = 0.22000 0.14082
#
# Static dielectric constant tensor:
#      x y z
#    x 1.720940 0.000000 -0.038940 
#    y 0.000000 1.708000 0.000000 
#    z -0.038940 0.000000 1.689630 
# 
# From -- ./inp_files/50709.got.cif
#   From: 2010.05.17/outbox.ucp.g08.bks.cvg/sg15_26_cif.got.tgz:50709.got - 2010.06.11 12:40:34.
