data_PCOD9309373
_publ_section_title
;
Structure prediction by ZEFSAII (Michael W. Deem and Ramdas Pophale) SiO2 
 PCOD9309373
Probable space group: C 2/C
;
_chemical_formula_sum "Si O2"
_cell_formula_units_Z 24
_cell_length_a 30.000000
_cell_length_b 15.000000
_cell_length_c 30.000000
_cell_angle_alpha 90.000000
_cell_angle_beta 170.000000
_cell_angle_gamma 90.000000
_cell_volume 2344.250399
_symmetry_space_group_name_H-M "C 2/C"
_symmetry_group_IT_number 15
_symmetry_cell_setting 'monoclinic'
loop_
_space_group_symop_operation_xyz
x,y,z
-x,y,1/2-z
-x,-y,-z
x,-y,1/2+z
1/2+x,1/2+y,z
1/2-x,1/2+y,1/2-z
1/2-x,1/2-y,-z
1/2+x,1/2-y,1/2+z
loop_
_atom_site_type_symbol
_atom_site_label
_atom_site_fract_x
_atom_site_fract_y
_atom_site_fract_z
Si Si1 0.964418 0.449691 0.566510
Si Si2 0.018444 0.012607 0.465590
Si Si3 0.500000 0.194082 0.750000
Si Si4 0.547063 0.313617 0.936153
Si Si5 0.500000 0.928354 0.750000
Si Si6 0.699449 0.193637 0.524453
Si Si7 0.334441 0.064220 0.656273
O O1 0.738703 0.477876 0.311418
O O2 0.885018 0.360901 0.514742
O O3 0.008168 0.522019 0.648488
O O4 0.239003 0.454354 0.812618
O O5 0.048583 0.115891 0.479028
O O6 0.000000 0.000000 0.500000
O O7 0.499355 0.136135 0.793397
O O8 0.250000 0.250000 0.500000
O O9 0.288432 0.254903 0.677501
O O10 0.597056 0.381654 0.943706
O O11 0.344678 0.868308 0.562142
O O12 0.310055 0.988493 0.593987
O O13 0.491111 0.272980 0.314607
#
# Coordination Sequence:
#
# PCOD9309373 Si02
#       7
#     8   8   4   8   4   8   8
#     4  10  22  40  63  89 119 163 204 245 311 379
#     4  11  23  43  67  91 122 161 204 253 312 383
#     4  11  22  34  52  83 116 154 196 243 286 330
#     4  11  22  39  62  91 121 157 200 250 302 357
#     4   9  20  38  60  89 124 170 216 251 302 364
#     4  11  22  40  62  91 125 163 209 264 311 359
#     4   9  20  38  58  84 122 163 203 244 292 359
#
# _framework density 10.237814
#
# number of rings (size 3 to 8) (size 9 to 14) (size 15 to 20)
#    0.000    1.667    0.000    5.000    0.000    2.667 
#    0.000   20.000    0.000    0.000    0.000    0.000 
#    0.000    0.000    0.000    0.000    0.000    0.000 
#
# Total GULP energy -134059.958046 kJ/mol
# GULP energy per Si atom -5585.831585 kJ/mol
# Density = 1.021451 g / cm^3
# Si number density = 10.237814 Si / 1000 Ang^3
#
#
#
# Elastic Constant Matrix: (Units=GPa)
#
#
# Indices 1 2 3 4 5 6 
#
# 1 110.6426 2.5602 -1.2778 0.5676 -15.8224 0.2205
# 2 2.5602 42.3401 -11.4602 0.7913 -10.3796 0.4978
# 3 -1.2778 -11.4602 81.1913 0.9391 -10.9080 0.5768
# 4 0.5676 0.7913 0.9391 8.7234 0.1626 15.3198
# 5 -15.8224 -10.3796 -10.9080 0.1626 19.0572 0.1584
# 6 0.2205 0.4978 0.5768 15.3198 0.1584 22.9553
#
#
#
# Elastic Compliance Matrix: (Units=1/GPa)
#
#
# Indices 1 2 3 4 5 6 
#
# 1 0.010615 0.002661 0.002045 0.004976 0.011421 -0.003611
# 2 0.002661 0.031078 0.007483 0.013901 0.023386 -0.010326
# 3 0.002045 0.007483 0.015297 0.009061 0.014508 -0.006713
# 4 0.004976 0.013901 0.009061 -0.656650 0.018854 0.437525
# 5 0.011421 0.023386 0.014508 0.018854 0.082954 -0.014137
# 6 -0.003611 -0.010326 -0.006713 0.437525 -0.014137 -0.247906
#
#
# Mechanical properties :
#
#
# Convention : Reuss Voigt Hill
#
# Bulk Modulus (GPa) = 12.28992 23.75759 18.02376
# Shear Modulus (GPa) = -6.56282 26.43730 9.93724
#
# Velocity S-wave (km/s) = -1.79225 3.59717 2.20539
# Velocity P-wave (km/s) = 1.31620 5.37409 3.91237
#
# Compressibility (1/GPa) = 0.08136749
#
# Stress axis : x y z
#
# Youngs Moduli (GPa) = 94.20606 32.17762 65.37224
#
# Poissons Ratio (x) = -0.08562 -0.13369
# Poissons Ratio (y) = -0.25067 -0.48918
# Poissons Ratio (z) = -0.19266 -0.24078
#
# Static dielectric constant tensor:
#      x y z
#    x 1.743250 0.000160 0.026040 
#    y 0.000160 1.773890 -0.000350 
#    z 0.026040 -0.000350 1.692800 
# 
# From -- ./inp_files/320415.got.cif
#   From: 2010.05.17/outbox.ucp.g08.bks.cvg/sg15_161_cif.got.tgz:320415.got - 2010.06.11 12:40:34.
