data_PCOD9309144
_publ_section_title
;
Structure prediction by ZEFSAII (Michael W. Deem and Ramdas Pophale) SiO2 
 PCOD9309144
Probable space group: C 2/C
;
_chemical_formula_sum "Si O2"
_cell_formula_units_Z 24
_cell_length_a 30.000000
_cell_length_b 6.000000
_cell_length_c 27.000000
_cell_angle_alpha 90.000000
_cell_angle_beta 30.000000
_cell_angle_gamma 90.000000
_cell_volume 2430.000000
_symmetry_space_group_name_H-M "C 2/C"
_symmetry_group_IT_number 15
_symmetry_cell_setting 'monoclinic'
loop_
_space_group_symop_operation_xyz
x,y,z
-x,y,1/2-z
-x,-y,-z
x,-y,1/2+z
1/2+x,1/2+y,z
1/2-x,1/2+y,1/2-z
1/2-x,1/2-y,-z
1/2+x,1/2-y,1/2+z
loop_
_atom_site_type_symbol
_atom_site_label
_atom_site_fract_x
_atom_site_fract_y
_atom_site_fract_z
Si Si1 0.901777 0.170830 0.372594
Si Si2 0.748920 0.492173 0.051645
Si Si3 0.218165 0.777616 0.686230
Si Si4 0.332851 0.397791 0.528398
Si Si5 0.956877 0.198839 0.076890
Si Si6 0.389849 0.973742 0.048958
O O1 0.839349 0.393522 0.441558
O O2 0.836122 0.020510 0.401834
O O3 0.000000 0.195533 0.250000
O O4 0.896858 0.052675 0.432121
O O5 0.719842 0.625427 0.129019
O O6 0.772747 0.247082 0.048224
O O7 0.265651 0.535664 0.629639
O O8 0.123871 0.820956 0.804875
O O9 0.292805 0.916609 0.643809
O O10 0.387075 0.215375 0.508782
O O11 0.913421 0.358543 0.077646
O O12 0.037660 0.328975 0.026422
O O13 0.000000 0.000000 0.000000
#
# Coordination Sequence:
#
# PCOD9309144 Si02
#       6
#     8   8   8   8   8   8
#     4  10  21  37  62  90 125 168 211 266 317 386
#     4   9  21  39  58  91 124 163 214 259 322 376
#     4  10  23  40  65  87 127 169 207 267 320 386
#     4  10  21  40  61  90 128 168 210 261 324 379
#     4  11  25  41  63  94 126 165 216 267 320 384
#     4  10  24  39  62  93 123 166 214 263 319 385
#
# _framework density 9.8765429999999999
#
# number of rings (size 3 to 8) (size 9 to 14) (size 15 to 20)
#    0.000    2.000    0.000    1.500    4.667   11.333 
#    0.000    0.000    0.000    0.000    0.000    0.000 
#    0.000    0.000    0.000    0.000    0.000    0.000 
#
# Total GULP energy -133651.916779 kJ/mol
# GULP energy per Si atom -5568.829866 kJ/mol
# Density = 0.985406 g / cm^3
# Si number density = 9.876543 Si / 1000 Ang^3
#
#
#
# Elastic Constant Matrix: (Units=GPa)
#
#
# Indices 1 2 3 4 5 6 
#
# 1 74.2553 18.5399 33.9656 -0.0205 -5.0287 -0.0032
# 2 18.5399 78.7405 41.0335 0.0009 4.9974 -0.0316
# 3 33.9656 41.0335 203.1914 -0.0005 5.8970 -0.0045
# 4 -0.0205 0.0009 -0.0005 23.1606 -0.0109 4.9650
# 5 -5.0287 4.9974 5.8970 -0.0109 26.4933 -0.0077
# 6 -0.0032 -0.0316 -0.0045 4.9650 -0.0077 35.0505
#
#
#
# Elastic Compliance Matrix: (Units=1/GPa)
#
#
# Indices 1 2 3 4 5 6 
#
# 1 0.015396 -0.002764 -0.002129 0.000016 0.003918 -0.000003
# 2 -0.002764 0.014802 -0.002447 -0.000007 -0.002772 0.000013
# 3 -0.002129 -0.002447 0.005807 -0.000002 -0.001235 -0.000002
# 4 0.000016 -0.000007 -0.000002 0.044529 0.000021 -0.006308
# 5 0.003918 -0.002772 -0.001235 0.000021 0.039287 0.000003
# 6 -0.000003 0.000013 -0.000002 -0.006308 0.000003 0.029424
#
#
# Mechanical properties :
#
#
# Convention : Reuss Voigt Hill
#
# Bulk Modulus (GPa) = 46.89240 60.36282 53.62761
# Shear Modulus (GPa) = 29.23401 34.45076 31.84238
#
# Velocity S-wave (km/s) = 3.85121 4.18074 4.01935
# Velocity P-wave (km/s) = 6.60050 7.34369 6.98199
#
# Compressibility (1/GPa) = 0.02132542
#
# Stress axis : x y z
#
# Youngs Moduli (GPa) = 64.95000 67.55963 172.19685
#
# Poissons Ratio (x) = 0.18675 0.36663
# Poissons Ratio (y) = 0.17954 0.42130
# Poissons Ratio (z) = 0.13829 0.16529
#
# Static dielectric constant tensor:
#      x y z
#    x 1.736760 -0.000020 0.004470 
#    y -0.000020 1.779150 0.000020 
#    z 0.004470 0.000020 1.668330 
# 
# From -- ./inp_files/304010.got.cif
#   From: 2010.05.17/outbox.ucp.g08.bks.cvg/sg15_153_cif.got.tgz:304010.got - 2010.06.11 12:40:34.
