data_PCOD9309411
_publ_section_title
;
Structure prediction by ZEFSAII (Michael W. Deem and Ramdas Pophale) SiO2 
 PCOD9309411
Probable space group: C 2/C
;
_chemical_formula_sum "Si O2"
_cell_formula_units_Z 22
_cell_length_a 12.000000
_cell_length_b 18.000000
_cell_length_c 12.000000
_cell_angle_alpha 90.000000
_cell_angle_beta 120.000000
_cell_angle_gamma 90.000000
_cell_volume 2244.737847
_symmetry_space_group_name_H-M "C 2/C"
_symmetry_group_IT_number 15
_symmetry_cell_setting 'monoclinic'
loop_
_space_group_symop_operation_xyz
x,y,z
-x,y,1/2-z
-x,-y,-z
x,-y,1/2+z
1/2+x,1/2+y,z
1/2-x,1/2+y,1/2-z
1/2-x,1/2-y,-z
1/2+x,1/2-y,1/2+z
loop_
_atom_site_type_symbol
_atom_site_label
_atom_site_fract_x
_atom_site_fract_y
_atom_site_fract_z
Si Si1 0.739122 0.123960 0.942493
Si Si2 0.695247 0.344430 0.772378
Si Si3 0.646700 0.467798 0.566232
Si Si4 0.667766 0.677320 0.927186
Si Si5 0.500000 0.778568 0.250000
Si Si6 0.375619 0.284280 0.328377
O O1 0.601178 0.165430 0.859735
O O2 0.832866 0.178347 0.920802
O O3 0.762198 0.040145 0.907808
O O4 0.781732 0.128553 0.091084
O O5 0.665936 0.416648 0.685046
O O6 0.585499 0.279415 0.719051
O O7 0.821637 0.299237 0.795485
O O8 0.500000 0.500000 0.500000
O O9 0.675399 0.403967 0.487265
O O10 0.686096 0.669545 0.804151
O O11 0.525432 0.706138 0.885682
O O12 0.750000 0.750000 0.000000
#
# Coordination Sequence:
#
# PCOD9309411 Si02
#       6
#     8   8   8   8   4   8
#     4  11  25  42  69 102 135 170 223 281 337 387
#     4  11  24  42  72  98 130 176 227 274 326 403
#     4  12  25  43  66  98 138 172 220 277 339 387
#     4  11  23  41  64  94 128 180 218 266 323 401
#     4  10  22  44  70  96 128 178 224 264 330 400
#     4  10  22  41  67  96 127 170 227 269 321 395
#
# _framework density 9.8006989999999998
#
# number of rings (size 3 to 8) (size 9 to 14) (size 15 to 20)
#    0.000    1.091    3.636    3.273    5.091    0.000 
#    3.273    0.909    0.000    0.000    0.000    0.000 
#    0.000    0.000    0.000    0.000    0.000    0.000 
#
# Total GULP energy -122691.195200 kJ/mol
# GULP energy per Si atom -5576.872509 kJ/mol
# Density = 0.977839 g / cm^3
# Si number density = 9.800699 Si / 1000 Ang^3
#
#
#
# Elastic Constant Matrix: (Units=GPa)
#
#
# Indices 1 2 3 4 5 6 
#
# 1 44.1611 38.8036 36.2658 0.0000 0.9945 0.0000
# 2 38.8036 179.0271 71.5193 0.0000 12.0729 0.0000
# 3 36.2658 71.5193 130.0673 0.0000 -22.2232 0.0000
# 4 0.0000 0.0000 0.0000 44.5074 0.0000 -3.1566
# 5 0.9945 12.0729 -22.2232 0.0000 30.4713 0.0000
# 6 0.0000 0.0000 0.0000 -3.1566 0.0000 42.6085
#
#
#
# Elastic Compliance Matrix: (Units=1/GPa)
#
#
# Indices 1 2 3 4 5 6 
#
# 1 0.032445 -0.003398 -0.008144 0.000000 -0.005652 0.000000
# 2 -0.003398 0.008861 -0.005147 0.000000 -0.007154 0.000000
# 3 -0.008144 -0.005147 0.015060 0.000000 0.013288 0.000000
# 4 0.000000 0.000000 0.000000 0.022587 0.000000 0.001673
# 5 -0.005652 -0.007154 0.013288 0.000000 0.045528 0.000000
# 6 0.000000 0.000000 0.000000 0.001673 0.000000 0.023593
#
#
# Mechanical properties :
#
#
# Convention : Reuss Voigt Hill
#
# Bulk Modulus (GPa) = 43.50089 71.82588 57.66339
# Shear Modulus (GPa) = 26.43903 37.29524 31.86713
#
# Velocity S-wave (km/s) = 3.67663 4.36671 4.03644
# Velocity P-wave (km/s) = 6.34543 7.88333 7.15582
#
# Compressibility (1/GPa) = 0.02298803
#
# Stress axis : x y z
#
# Youngs Moduli (GPa) = 30.82126 112.85570 66.40235
#
# Poissons Ratio (x) = 0.38347 0.54077
# Poissons Ratio (y) = 0.10473 0.34178
# Poissons Ratio (z) = 0.25100 0.58089
#
# Static dielectric constant tensor:
#      x y z
#    x 1.731500 0.000000 -0.004670 
#    y 0.000000 1.671100 0.000000 
#    z -0.004670 0.000000 1.800540 
# 
# From -- ./inp_files/87971.got.cif
#   From: 2010.05.17/outbox.ucp.g08.bks.cvg/sg15_44_cif.got.tgz:87971.got - 2010.06.11 12:40:34.
