data_PCOD9309964
_publ_section_title
;
Structure prediction by ZEFSAII (Michael W. Deem and Ramdas Pophale) SiO2 
 PCOD9309964
Probable space group: P 2 2 2
;
_chemical_formula_sum "Si O2"
_cell_formula_units_Z 17
_cell_length_a 7.310857
_cell_length_b 5.346019
_cell_length_c 19.171866
_cell_angle_alpha 90.000000
_cell_angle_beta 90.000000
_cell_angle_gamma 90.000000
_cell_volume 749.312836
_symmetry_space_group_name_H-M "P 2 2 2"
_symmetry_group_IT_number 16
_symmetry_cell_setting 'orthorhombic'
loop_
_space_group_symop_operation_xyz
x,y,z
-x,-y,z
x,-y,-z
-x,y,-z
loop_
_atom_site_type_symbol
_atom_site_label
_atom_site_fract_x
_atom_site_fract_y
_atom_site_fract_z
Si Si1 0.804152 0.715456 0.370239
Si Si2 0.000000 0.500000 0.500000
Si Si3 0.720160 0.004640 0.158311
Si Si4 0.787889 0.205139 0.313191
Si Si5 0.723309 0.497836 0.080833
O O1 0.710272 0.478880 0.332543
O O2 0.868159 0.653286 0.448357
O O3 0.998026 0.753077 0.330131
O O4 0.713850 0.984986 0.362826
O O5 0.765579 0.093748 0.236322
O O6 0.785849 0.233204 0.110919
O O7 0.500000 0.000000 0.154688
O O8 0.781376 0.735065 0.128467
O O9 0.500000 0.500000 0.082294
O O10 0.777354 0.500000 0.000000
#
# Coordination Sequence:
#
# PCOD9309964 Si02
#       5
#     4   1   4   4   4
#     4   9  18  29  48  68  90 114 143 187 225 263
#     4   8  16  30  48  74  90 106 142 186 236 256
#     4  10  18  28  45  66  92 121 148 184 229 274
#     4   9  17  29  42  68  92 115 147 177 225 269
#     4   9  17  28  42  63  89 117 151 190 229 266
#
# _framework density 22.687450999999999
#
# number of rings (size 3 to 8) (size 9 to 14) (size 15 to 20)
#    0.000    3.059    0.000    2.118    0.000   10.353 
#    0.000    0.000    0.000    0.000    0.000   69.176 
#    0.000    0.000    0.000    0.000    0.000    0.000 
#
# Total GULP energy -94766.771493 kJ/mol
# GULP energy per Si atom -5574.515970 kJ/mol
# Density = 2.263581 g / cm^3
# Si number density = 22.687451 Si / 1000 Ang^3
#
#
#
# Elastic Constant Matrix: (Units=GPa)
#
#
# Indices 1 2 3 4 5 6 
#
# 1 79.6884 13.2487 4.5490 0.0000 0.0000 0.0000
# 2 13.2487 223.6814 80.3304 0.0000 0.0000 0.0000
# 3 4.5490 80.3304 167.6335 0.0000 0.0000 0.0000
# 4 0.0000 0.0000 0.0000 191.3318 0.0000 0.0000
# 5 0.0000 0.0000 0.0000 0.0000 7.6424 0.0000
# 6 0.0000 0.0000 0.0000 0.0000 0.0000 -11.2668
#
#
#
# Elastic Compliance Matrix: (Units=1/GPa)
#
#
# Indices 1 2 3 4 5 6 
#
# 1 0.012674 -0.000758 0.000019 0.000000 0.000000 0.000000
# 2 -0.000758 0.005445 -0.002589 0.000000 0.000000 0.000000
# 3 0.000019 -0.002589 0.007205 0.000000 0.000000 0.000000
# 4 0.000000 0.000000 0.000000 0.005227 0.000000 0.000000
# 5 0.000000 0.000000 0.000000 0.000000 0.130849 0.000000
# 6 0.000000 0.000000 0.000000 0.000000 0.000000 -0.088756
#
#
# Mechanical properties :
#
#
# Convention : Reuss Voigt Hill
#
# Bulk Modulus (GPa) = 53.56214 74.13995 63.85105
# Shear Modulus (GPa) = 58.46440 62.39981 60.43211
#
# Velocity S-wave (km/s) = 5.08187 5.25013 5.16668
# Velocity P-wave (km/s) = 7.62193 8.33676 7.98735
#
# Compressibility (1/GPa) = 0.01866990
#
# Stress axis : x y z
#
# Youngs Moduli (GPa) = 78.90339 183.64701 138.78398
#
# Poissons Ratio (x) = 0.13912 -0.00265
# Poissons Ratio (y) = 0.05977 0.35929
# Poissons Ratio (z) = -0.00151 0.47543
#
# Static dielectric constant tensor:
#      x y z
#    x 1.116050 0.000000 0.000000 
#    y 0.000000 1.823720 0.000000 
#    z 0.000000 0.000000 1.846350 
# 
# From -- ./inp_files/8050.got.cif
#   From: 2010.05.17/outbox.cif.g08.bks.cpg/sg16_5_cif.got.tgz:8050.got - 2010.06.03 22:28:35.
