data_PCOD9309269
_publ_section_title
;
Structure prediction by ZEFSAII (Michael W. Deem and Ramdas Pophale) SiO2 
 PCOD9309269
Probable space group: C 2/C
;
_chemical_formula_sum "Si O2"
_cell_formula_units_Z 24
_cell_length_a 30.000000
_cell_length_b 15.000000
_cell_length_c 15.000000
_cell_angle_alpha 90.000000
_cell_angle_beta 160.000000
_cell_angle_gamma 90.000000
_cell_volume 2308.635967
_symmetry_space_group_name_H-M "C 2/C"
_symmetry_group_IT_number 15
_symmetry_cell_setting 'monoclinic'
loop_
_space_group_symop_operation_xyz
x,y,z
-x,y,1/2-z
-x,-y,-z
x,-y,1/2+z
1/2+x,1/2+y,z
1/2-x,1/2+y,1/2-z
1/2-x,1/2-y,-z
1/2+x,1/2-y,1/2+z
loop_
_atom_site_type_symbol
_atom_site_label
_atom_site_fract_x
_atom_site_fract_y
_atom_site_fract_z
Si Si1 0.554381 0.209442 0.757877
Si Si2 0.652795 0.717609 0.121299
Si Si3 0.000000 0.372555 0.750000
Si Si4 0.444752 0.015700 0.494036
Si Si5 0.991142 0.152787 0.482665
Si Si6 0.348706 0.493667 0.128482
Si Si7 0.000000 0.065076 0.750000
O O1 0.500000 0.239470 0.750000
O O2 0.497262 0.111164 0.628246
O O3 0.505598 0.277185 0.590903
O O4 0.709884 0.212839 0.069238
O O5 0.546438 0.708438 0.000087
O O6 0.619287 0.804129 0.998069
O O7 0.620814 0.630467 0.001626
O O8 0.997160 0.439535 0.660064
O O9 0.500000 0.000000 0.500000
O O10 0.288934 0.009951 0.181427
O O11 0.116408 0.092174 0.744064
O O12 0.877792 0.081136 0.242503
O O13 0.459133 0.491061 0.258850
#
# Coordination Sequence:
#
# PCOD9309269 Si02
#       7
#     8   8   4   8   8   8   4
#     4  12  24  38  60  97 131 163 214 271 326 375
#     4  10  21  42  63  88 125 172 222 255 317 395
#     4  11  24  44  67  94 122 182 219 254 330 385
#     4  12  25  42  65  96 133 169 213 274 326 385
#     4  10  22  41  65  90 126 175 215 265 319 383
#     4  10  22  42  64  97 128 169 224 259 326 388
#     4   9  20  36  67  86 122 168 215 276 310 381
#
# _framework density 10.395749
#
# number of rings (size 3 to 8) (size 9 to 14) (size 15 to 20)
#    0.000    1.333    0.833    4.500    1.167    2.000 
#    0.000    0.000    0.000    0.000    0.000    0.000 
#    0.000    0.000    0.000    0.000    0.000    0.000 
#
# Total GULP energy -133970.635995 kJ/mol
# GULP energy per Si atom -5582.109833 kJ/mol
# Density = 1.037209 g / cm^3
# Si number density = 10.395749 Si / 1000 Ang^3
#
#
#
# Elastic Constant Matrix: (Units=GPa)
#
#
# Indices 1 2 3 4 5 6 
#
# 1 96.3194 24.4388 19.8686 0.0000 -23.6294 0.0000
# 2 24.4388 86.9644 47.3413 0.0000 -7.0527 0.0000
# 3 19.8686 47.3413 101.8350 0.0000 -26.2903 0.0000
# 4 0.0000 0.0000 0.0000 18.9684 0.0000 -22.1536
# 5 -23.6294 -7.0527 -26.2903 0.0000 33.1719 0.0000
# 6 0.0000 0.0000 0.0000 -22.1536 0.0000 45.2688
#
#
#
# Elastic Compliance Matrix: (Units=1/GPa)
#
#
# Indices 1 2 3 4 5 6 
#
# 1 0.013527 -0.003983 0.001862 0.000000 0.010265 0.000000
# 2 -0.003983 0.016811 -0.008610 0.000000 -0.006086 0.000000
# 3 0.001862 -0.008610 0.016758 0.000000 0.012777 0.000000
# 4 0.000000 0.000000 0.000000 0.123049 0.000000 0.060218
# 5 0.010265 -0.006086 0.012777 0.000000 0.046290 0.000000
# 6 0.000000 0.000000 0.000000 0.060218 0.000000 0.051560
#
#
# Mechanical properties :
#
#
# Convention : Reuss Voigt Hill
#
# Bulk Modulus (GPa) = 39.00777 52.04626 45.52702
# Shear Modulus (GPa) = 16.77855 32.37983 24.57919
#
# Velocity S-wave (km/s) = 2.84384 3.95062 3.44201
# Velocity P-wave (km/s) = 5.43924 6.77471 6.14337
#
# Compressibility (1/GPa) = 0.02563592
#
# Stress axis : x y z
#
# Youngs Moduli (GPa) = 73.92830 59.48351 59.67465
#
# Poissons Ratio (x) = 0.23690 -0.11113
# Poissons Ratio (y) = 0.29443 0.51377
# Poissons Ratio (z) = -0.13768 0.51212
#
# Static dielectric constant tensor:
#      x y z
#    x 1.770620 0.000000 0.035330 
#    y 0.000000 1.814380 0.000000 
#    z 0.035330 0.000000 1.812840 
# 
# From -- ./inp_files/182561.got.cif
#   From: 2010.05.17/outbox.ucp.g08.bks.cvg/sg15_92_cif.got.tgz:182561.got - 2010.06.11 12:40:34.
