data_PCOD9309562
_publ_section_title
;
Structure prediction by ZEFSAII (Michael W. Deem and Ramdas Pophale) SiO2 
 PCOD9309562
Probable space group: C 2/C
;
_chemical_formula_sum "Si O2"
_cell_formula_units_Z 30
_cell_length_a 18.000000
_cell_length_b 9.000000
_cell_length_c 18.000000
_cell_angle_alpha 90.000000
_cell_angle_beta 90.000000
_cell_angle_gamma 90.000000
_cell_volume 2916.000000
_symmetry_space_group_name_H-M "C 2/C"
_symmetry_group_IT_number 15
_symmetry_cell_setting 'monoclinic'
loop_
_space_group_symop_operation_xyz
x,y,z
-x,y,1/2-z
-x,-y,-z
x,-y,1/2+z
1/2+x,1/2+y,z
1/2-x,1/2+y,1/2-z
1/2-x,1/2-y,-z
1/2+x,1/2-y,1/2+z
loop_
_atom_site_type_symbol
_atom_site_label
_atom_site_fract_x
_atom_site_fract_y
_atom_site_fract_z
Si Si1 0.583694 0.810260 0.644331
Si Si2 0.664650 0.293948 0.996141
Si Si3 0.579896 0.292425 0.841188
Si Si4 0.828942 0.155269 0.482683
Si Si5 0.808419 0.860034 0.249669
Si Si6 0.065977 0.878976 0.378359
Si Si7 0.500000 0.955535 0.250000
Si Si8 0.674778 0.326801 0.691346
O O1 0.615517 0.796881 0.558304
O O2 0.652787 0.742155 0.689115
O O3 0.507781 0.713279 0.640227
O O4 0.557639 0.945368 0.700012
O O5 0.669824 0.473309 0.011460
O O6 0.750000 0.250000 0.000000
O O7 0.634311 0.263306 0.911864
O O8 0.542513 0.445693 0.871991
O O9 0.533051 0.149437 0.815949
O O10 0.615788 0.323529 0.759289
O O11 0.750000 0.250000 0.500000
O O12 0.893197 0.181944 0.546091
O O13 0.847665 0.188662 0.395450
O O14 0.870030 0.870919 0.184432
O O15 0.735242 0.796171 0.211869
O O16 0.790124 0.011449 0.293209
#
# Coordination Sequence:
#
# PCOD9309562 Si02
#       8
#     8   8   8   8   8   8   4   8
#     4  12  25  44  73 100 140 185 235 291 361 418
#     4  11  26  48  69 100 145 186 229 296 356 417
#     4  10  27  44  66 103 140 183 235 282 358 425
#     4  11  23  43  72 108 135 185 237 289 346 424
#     4  11  22  41  67 101 137 179 230 283 349 410
#     4  10  23  44  69  97 141 179 230 287 353 419
#     4  12  28  42  72 102 134 192 232 298 348 428
#     4  11  24  41  72 101 137 185 229 293 343 417
#
# _framework density 10.288066000000001
#
# number of rings (size 3 to 8) (size 9 to 14) (size 15 to 20)
#    0.000    1.067    4.000    0.800    5.600    5.867 
#    0.000    0.000    0.000    0.000    0.000    0.000 
#    0.000    0.000    0.000    0.000    0.000    0.000 
#
# Total GULP energy -167031.188105 kJ/mol
# GULP energy per Si atom -5567.706270 kJ/mol
# Density = 1.026465 g / cm^3
# Si number density = 10.288066 Si / 1000 Ang^3
#
#
#
# Elastic Constant Matrix: (Units=GPa)
#
#
# Indices 1 2 3 4 5 6 
#
# 1 34.6717 15.3248 9.5639 0.0000 1.6288 0.0000
# 2 15.3248 63.6847 18.4644 0.0000 1.3743 0.0000
# 3 9.5639 18.4644 165.8049 0.0000 11.9417 0.0000
# 4 0.0000 0.0000 0.0000 34.6184 0.0000 9.8070
# 5 1.6288 1.3743 11.9417 0.0000 37.9506 0.0000
# 6 0.0000 0.0000 0.0000 9.8070 0.0000 28.8045
#
#
#
# Elastic Compliance Matrix: (Units=1/GPa)
#
#
# Indices 1 2 3 4 5 6 
#
# 1 0.032470 -0.007513 -0.000978 0.000000 -0.000814 0.000000
# 2 -0.007513 0.017964 -0.001579 0.000000 0.000169 0.000000
# 3 -0.000978 -0.001579 0.006401 0.000000 -0.001915 0.000000
# 4 0.000000 0.000000 0.000000 0.031970 0.000000 -0.010885
# 5 -0.000814 0.000169 -0.001915 0.000000 0.026981 0.000000
# 6 0.000000 0.000000 0.000000 -0.010885 0.000000 0.038423
#
#
# Mechanical properties :
#
#
# Convention : Reuss Voigt Hill
#
# Bulk Modulus (GPa) = 27.25017 38.98527 33.11772
# Shear Modulus (GPa) = 26.79787 34.99523 30.89655
#
# Velocity S-wave (km/s) = 3.61276 4.12851 3.87922
# Velocity P-wave (km/s) = 5.53851 6.45865 6.01619
#
# Compressibility (1/GPa) = 0.03669702
#
# Stress axis : x y z
#
# Youngs Moduli (GPa) = 30.79723 55.66556 156.21591
#
# Poissons Ratio (x) = 0.41819 0.15273
# Poissons Ratio (y) = 0.23137 0.24673
# Poissons Ratio (z) = 0.03011 0.08792
#
# Static dielectric constant tensor:
#      x y z
#    x 1.746240 0.000000 -0.020820 
#    y 0.000000 1.823900 0.000000 
#    z -0.020820 0.000000 1.751980 
# 
# From -- ./inp_files/209596.got.cif
#   From: 2010.05.17/outbox.ucp.g08.bks.cvg/sg15_105_cif.got.tgz:209596.got - 2010.06.11 12:40:34.
