data_PCOD9309673
_publ_section_title
;
Structure prediction by ZEFSAII (Michael W. Deem and Ramdas Pophale) SiO2 
 PCOD9309673
Probable space group: C 2/C
;
_chemical_formula_sum "Si O2"
_cell_formula_units_Z 32
_cell_length_a 21.000000
_cell_length_b 18.000000
_cell_length_c 24.000000
_cell_angle_alpha 90.000000
_cell_angle_beta 20.000000
_cell_angle_gamma 90.000000
_cell_volume 3102.806740
_symmetry_space_group_name_H-M "C 2/C"
_symmetry_group_IT_number 15
_symmetry_cell_setting 'monoclinic'
loop_
_space_group_symop_operation_xyz
x,y,z
-x,y,1/2-z
-x,-y,-z
x,-y,1/2+z
1/2+x,1/2+y,z
1/2-x,1/2+y,1/2-z
1/2-x,1/2-y,-z
1/2+x,1/2-y,1/2+z
loop_
_atom_site_type_symbol
_atom_site_label
_atom_site_fract_x
_atom_site_fract_y
_atom_site_fract_z
Si Si1 0.849650 0.376484 0.244371
Si Si2 0.202408 0.088002 0.115505
Si Si3 0.698901 0.039668 0.255904
Si Si4 0.502482 0.572859 0.397572
Si Si5 0.069266 0.652405 0.018356
Si Si6 0.344950 0.297414 0.196312
Si Si7 0.661096 0.588548 0.475331
Si Si8 0.784706 0.083080 0.940425
O O1 0.815222 0.452031 0.237827
O O2 0.696718 0.386425 0.421953
O O3 0.762029 0.314544 0.274304
O O4 0.079663 0.375759 0.067711
O O5 0.000000 0.110511 0.250000
O O6 0.130580 0.096686 0.239097
O O7 0.238515 0.003791 0.061204
O O8 0.514739 0.074492 0.433146
O O9 0.874518 0.067499 0.147223
O O10 0.705675 0.069277 0.186335
O O11 0.454515 0.487640 0.422516
O O12 0.904188 0.712142 0.153889
O O13 0.210405 0.682063 0.857133
O O14 0.165789 0.636363 0.998064
O O15 0.528060 0.347051 0.060293
O O16 0.745151 0.597994 0.468622
O O17 0.000000 0.099575 0.750000
#
# Coordination Sequence:
#
# PCOD9309673 Si02
#       8
#     8   8   8   8   8   8   8   8
#     4  11  23  39  67  97 128 178 222 286 351 382
#     4  11  22  39  63 101 141 168 214 272 345 417
#     4  11  22  39  65  98 124 177 232 285 341 387
#     4  11  20  37  66  95 131 171 222 281 336 392
#     4  12  26  41  62  90 132 181 226 278 331 400
#     4  12  24  42  63  90 133 175 234 282 327 393
#     4  11  20  39  61  88 133 172 225 275 313 399
#     4  11  21  40  60  89 137 189 221 262 328 401
#
# _framework density 10.313243
#
# number of rings (size 3 to 8) (size 9 to 14) (size 15 to 20)
#    0.000    0.750    7.500    2.250    0.000    2.500 
#    0.000    0.000    0.000    0.000    0.000    3.500 
#    0.000    0.000    0.000    0.000    0.000    0.000 
#
# Total GULP energy -178297.099144 kJ/mol
# GULP energy per Si atom -5571.784348 kJ/mol
# Density = 1.028977 g / cm^3
# Si number density = 10.313243 Si / 1000 Ang^3
#
#
#
# Elastic Constant Matrix: (Units=GPa)
#
#
# Indices 1 2 3 4 5 6 
#
# 1 114.6664 15.0804 23.3914 0.0027 -3.6478 -0.0175
# 2 15.0804 31.6483 -1.4452 0.0311 -8.7508 0.0191
# 3 23.3914 -1.4452 84.7110 0.0311 -10.1405 -0.0007
# 4 0.0027 0.0311 0.0311 28.3282 -0.0207 -11.0166
# 5 -3.6478 -8.7508 -10.1405 -0.0207 41.8327 -0.0080
# 6 -0.0175 0.0191 -0.0007 -11.0166 -0.0080 26.6529
#
#
#
# Elastic Compliance Matrix: (Units=1/GPa)
#
#
# Indices 1 2 3 4 5 6 
#
# 1 0.009970 -0.005140 -0.002951 0.000013 -0.000921 0.000015
# 2 -0.005140 0.036362 0.002983 -0.000056 0.007881 -0.000050
# 3 -0.002951 0.002983 0.013094 -0.000019 0.003541 -0.000010
# 4 0.000013 -0.000056 -0.000019 0.042062 0.000009 0.017386
# 5 -0.000921 0.007881 0.003541 0.000009 0.026331 0.000005
# 6 0.000015 -0.000050 -0.000010 0.017386 0.000005 0.044706
#
#
# Mechanical properties :
#
#
# Convention : Reuss Voigt Hill
#
# Bulk Modulus (GPa) = 20.32085 33.89767 27.10926
# Shear Modulus (GPa) = 25.10751 32.29603 28.70177
#
# Velocity S-wave (km/s) = 3.49269 3.96126 3.73433
# Velocity P-wave (km/s) = 5.11257 6.11488 5.63605
#
# Compressibility (1/GPa) = 0.04921054
#
# Stress axis : x y z
#
# Youngs Moduli (GPa) = 100.30490 27.50126 76.36826
#
# Poissons Ratio (x) = 0.14136 0.22535
# Poissons Ratio (y) = 0.51557 -0.22782
# Poissons Ratio (z) = 0.29599 -0.08204
#
# Static dielectric constant tensor:
#      x y z
#    x 1.765910 -0.000010 -0.009120 
#    y -0.000010 1.752730 0.000040 
#    z -0.009120 0.000040 1.822380 
# 
# From -- ./inp_files/280499.got.cif
#   From: 2010.05.17/outbox.ucp.g08.bks.cvg/sg15_141_cif.got.tgz:280499.got - 2010.06.11 12:40:34.
