data_PCOD9309496
_publ_section_title
;
Structure prediction by ZEFSAII (Michael W. Deem and Ramdas Pophale) SiO2 
 PCOD9309496
Probable space group: C 2/C
;
_chemical_formula_sum "Si O2"
_cell_formula_units_Z 24
_cell_length_a 15.000000
_cell_length_b 30.000000
_cell_length_c 15.000000
_cell_angle_alpha 90.000000
_cell_angle_beta 160.000000
_cell_angle_gamma 90.000000
_cell_volume 2308.635967
_symmetry_space_group_name_H-M "C 2/C"
_symmetry_group_IT_number 15
_symmetry_cell_setting 'monoclinic'
loop_
_space_group_symop_operation_xyz
x,y,z
-x,y,1/2-z
-x,-y,-z
x,-y,1/2+z
1/2+x,1/2+y,z
1/2-x,1/2+y,1/2-z
1/2-x,1/2-y,-z
1/2+x,1/2-y,1/2+z
loop_
_atom_site_type_symbol
_atom_site_label
_atom_site_fract_x
_atom_site_fract_y
_atom_site_fract_z
Si Si1 0.779222 0.005120 0.868606
Si Si2 0.734922 0.607543 0.636656
Si Si3 0.944245 0.576970 0.092040
Si Si4 0.500000 0.534727 0.750000
Si Si5 0.000000 0.154353 0.250000
Si Si6 0.784622 0.278140 0.885651
Si Si7 0.681679 0.858203 0.683514
O O1 0.691654 0.055977 0.784739
O O2 0.568119 0.965862 0.658827
O O3 0.000000 0.000000 0.000000
O O4 0.859857 0.997404 0.047975
O O5 0.675326 0.624467 0.480817
O O6 0.457516 0.617728 0.424313
O O7 0.968534 0.632301 0.905968
O O8 0.000000 0.575358 0.250000
O O9 0.052285 0.620854 0.148980
O O10 0.639007 0.567464 0.809300
O O11 0.824743 0.187216 0.144552
O O12 0.570325 0.239178 0.678331
O O13 0.777194 0.305494 0.785950
#
# Coordination Sequence:
#
# PCOD9309496 Si02
#       7
#     8   8   8   4   4   8   8
#     4  11  21  38  62  87 131 178 216 274 312 371
#     4  11  24  38  61  94 132 175 216 257 311 373
#     4  10  23  41  63  91 125 171 223 265 328 380
#     4  10  23  38  56  92 118 176 226 260 318 381
#     4  10  23  42  62  98 138 172 212 258 316 387
#     4  11  23  42  67  94 126 167 210 263 328 401
#     4  11  24  42  64  94 124 164 216 267 324 387
#
# _framework density 10.395749
#
# number of rings (size 3 to 8) (size 9 to 14) (size 15 to 20)
#    0.000    1.333    1.667    4.000    4.667    6.667 
#    9.000    0.000    0.000    1.000    0.000    0.000 
#    0.000    0.000    0.000    0.000    0.000    0.000 
#
# Total GULP energy -133928.099458 kJ/mol
# GULP energy per Si atom -5580.337477 kJ/mol
# Density = 1.037209 g / cm^3
# Si number density = 10.395749 Si / 1000 Ang^3
#
#
#
# Elastic Constant Matrix: (Units=GPa)
#
#
# Indices 1 2 3 4 5 6 
#
# 1 93.8708 38.6828 10.9752 0.0015 14.3306 0.0008
# 2 38.6828 69.3669 -7.4643 0.0028 2.1551 0.0053
# 3 10.9752 -7.4643 53.2651 -0.0027 7.4512 -0.0149
# 4 0.0015 0.0028 -0.0027 24.7089 0.0001 6.9307
# 5 14.3306 2.1551 7.4512 0.0001 32.5267 -0.0029
# 6 0.0008 0.0053 -0.0149 6.9307 -0.0029 35.0823
#
#
#
# Elastic Compliance Matrix: (Units=1/GPa)
#
#
# Indices 1 2 3 4 5 6 
#
# 1 0.015593 -0.008925 -0.003704 0.000000 -0.005430 -0.000001
# 2 -0.008925 0.019816 0.004390 -0.000001 0.001614 -0.000001
# 3 -0.003704 0.004390 0.020626 0.000000 -0.003384 0.000008
# 4 0.000000 -0.000001 0.000000 0.042846 -0.000001 -0.008464
# 5 -0.005430 0.001614 -0.003384 -0.000001 0.033805 0.000001
# 6 -0.000001 -0.000001 0.000008 -0.008464 0.000001 0.030177
#
#
# Mechanical properties :
#
#
# Convention : Reuss Voigt Hill
#
# Bulk Modulus (GPa) = 25.28063 33.43223 29.35643
# Shear Modulus (GPa) = 25.97064 30.08418 28.02741
#
# Velocity S-wave (km/s) = 3.53809 3.80800 3.67553
# Velocity P-wave (km/s) = 5.37367 5.95392 5.67122
#
# Compressibility (1/GPa) = 0.03955598
#
# Stress axis : x y z
#
# Youngs Moduli (GPa) = 64.13138 50.46511 48.48291
#
# Poissons Ratio (x) = 0.45042 0.17958
# Poissons Ratio (y) = 0.57240 -0.21285
# Poissons Ratio (z) = 0.23755 -0.22155
#
# Static dielectric constant tensor:
#      x y z
#    x 1.789610 0.000000 0.048710 
#    y 0.000000 1.752850 0.000000 
#    z 0.048710 0.000000 1.971180 
# 
# From -- ./inp_files/8276.got.cif
#   From: 2010.05.17/outbox.ucp.g08.bks.cvg/sg15_5_cif.got.tgz:8276.got - 2010.06.11 12:40:34.
