data_PCOD9309605
_publ_section_title
;
Structure prediction by ZEFSAII (Michael W. Deem and Ramdas Pophale) SiO2 
 PCOD9309605
Probable space group: C 2/C
;
_chemical_formula_sum "Si O2"
_cell_formula_units_Z 20
_cell_length_a 15.000000
_cell_length_b 9.000000
_cell_length_c 15.000000
_cell_angle_alpha 90.000000
_cell_angle_beta 70.000000
_cell_angle_gamma 90.000000
_cell_volume 1902.877557
_symmetry_space_group_name_H-M "C 2/C"
_symmetry_group_IT_number 15
_symmetry_cell_setting 'monoclinic'
loop_
_space_group_symop_operation_xyz
x,y,z
-x,y,1/2-z
-x,-y,-z
x,-y,1/2+z
1/2+x,1/2+y,z
1/2-x,1/2+y,1/2-z
1/2-x,1/2-y,-z
1/2+x,1/2-y,1/2+z
loop_
_atom_site_type_symbol
_atom_site_label
_atom_site_fract_x
_atom_site_fract_y
_atom_site_fract_z
Si Si1 0.257654 0.757474 0.646546
Si Si2 0.052248 0.823015 0.323950
Si Si3 0.068502 0.827099 0.805954
Si Si4 0.759453 0.503902 0.985482
Si Si5 0.105758 0.757642 0.993000
O O1 0.341301 0.726147 0.688986
O O2 0.171707 0.824166 0.729748
O O3 0.230014 0.602554 0.607274
O O4 0.270159 0.876742 0.562145
O O5 0.000000 0.777105 0.250000
O O6 0.993314 0.756415 0.424232
O O7 0.042424 0.001434 0.331910
O O8 0.080843 0.748357 0.896965
O O9 0.000000 0.768137 0.750000
O O10 0.832846 0.375855 0.987294
O O11 0.661728 0.410530 0.001349
#
# Coordination Sequence:
#
# PCOD9309605 Si02
#       5
#     8   8   8   8   8
#     4  11  25  44  68 102 139 180 223 286 340 404
#     4  11  25  43  71  99 135 178 233 276 342 406
#     4  11  25  43  71  97 136 182 230 273 343 408
#     4  10  24  43  71  96 142 177 230 277 343 398
#     4  11  24  45  71  99 134 184 227 281 335 411
#
# _framework density 10.510398
#
# number of rings (size 3 to 8) (size 9 to 14) (size 15 to 20)
#    0.000    1.200    2.000    3.000   14.000    0.800 
#    0.000    0.000    0.000    0.000    0.000    0.000 
#    0.000    0.000    0.000    0.000    0.000    0.000 
#
# Total GULP energy -111556.499875 kJ/mol
# GULP energy per Si atom -5577.824994 kJ/mol
# Density = 1.048648 g / cm^3
# Si number density = 10.510398 Si / 1000 Ang^3
#
#
#
# Elastic Constant Matrix: (Units=GPa)
#
#
# Indices 1 2 3 4 5 6 
#
# 1 107.7817 6.7904 17.0021 0.0000 33.1195 0.0000
# 2 6.7904 63.7742 0.4339 0.0000 9.5317 0.0000
# 3 17.0021 0.4339 37.1593 0.0000 15.8082 0.0000
# 4 0.0000 0.0000 0.0000 11.6631 0.0000 1.4097
# 5 33.1195 9.5317 15.8082 0.0000 35.8015 0.0000
# 6 0.0000 0.0000 0.0000 1.4097 0.0000 27.8208
#
#
#
# Elastic Compliance Matrix: (Units=1/GPa)
#
#
# Indices 1 2 3 4 5 6 
#
# 1 0.013003 0.000370 -0.000978 0.000000 -0.011695 0.000000
# 2 0.000370 0.016468 0.002031 0.000000 -0.005623 0.000000
# 3 -0.000978 0.002031 0.033467 0.000000 -0.014413 0.000000
# 4 0.000000 0.000000 0.000000 0.086269 0.000000 -0.004371
# 5 -0.011695 -0.005623 -0.014413 0.000000 0.046612 0.000000
# 6 0.000000 0.000000 0.000000 -0.004371 0.000000 0.036166
#
#
# Mechanical properties :
#
#
# Convention : Reuss Voigt Hill
#
# Bulk Modulus (GPa) = 15.20182 28.57424 21.88803
# Shear Modulus (GPa) = 19.91507 27.35632 23.63570
#
# Velocity S-wave (km/s) = 3.08132 3.61140 3.35684
# Velocity P-wave (km/s) = 4.46172 5.56888 5.04576
#
# Compressibility (1/GPa) = 0.06578158
#
# Stress axis : x y z
#
# Youngs Moduli (GPa) = 76.90662 60.72547 29.88062
#
# Poissons Ratio (x) = -0.02248 0.02923
# Poissons Ratio (y) = -0.02847 -0.06067
# Poissons Ratio (z) = 0.07524 -0.12331
#
# Static dielectric constant tensor:
#      x y z
#    x 1.797710 0.000000 0.026150 
#    y 0.000000 1.786990 0.000000 
#    z 0.026150 0.000000 1.810420 
# 
# From -- ./inp_files/150533.got.cif
#   From: 2010.05.17/outbox.ucp.g08.bks.cvg/sg15_76_cif.got.tgz:150533.got - 2010.06.11 12:40:34.
