data_PCOD9309006
_publ_section_title
;
Structure prediction by ZEFSAII (Michael W. Deem and Ramdas Pophale) SiO2 
 PCOD9309006
Probable space group: C 2/C
;
_chemical_formula_sum "Si O2"
_cell_formula_units_Z 28
_cell_length_a 12.000000
_cell_length_b 30.000000
_cell_length_c 15.000000
_cell_angle_alpha 90.000000
_cell_angle_beta 30.000000
_cell_angle_gamma 90.000000
_cell_volume 2700.000000
_symmetry_space_group_name_H-M "C 2/C"
_symmetry_group_IT_number 15
_symmetry_cell_setting 'monoclinic'
loop_
_space_group_symop_operation_xyz
x,y,z
-x,y,1/2-z
-x,-y,-z
x,-y,1/2+z
1/2+x,1/2+y,z
1/2-x,1/2+y,1/2-z
1/2-x,1/2-y,-z
1/2+x,1/2-y,1/2+z
loop_
_atom_site_type_symbol
_atom_site_label
_atom_site_fract_x
_atom_site_fract_y
_atom_site_fract_z
Si Si1 0.277668 0.552089 0.205413
Si Si2 0.292759 0.505418 0.523019
Si Si3 0.419639 0.194686 0.451562
Si Si4 0.610018 0.103630 0.922322
Si Si5 0.859649 0.797486 0.527889
Si Si6 0.500000 0.091702 0.750000
Si Si7 0.855414 0.873703 0.090379
Si Si8 0.000000 0.058812 0.750000
O O1 0.449546 0.519756 0.136941
O O2 0.081850 0.572634 0.402147
O O3 0.206879 0.522555 0.168793
O O4 0.435080 0.593044 0.062672
O O5 0.318377 0.471217 0.425282
O O6 0.162849 0.550802 0.596793
O O7 0.421366 0.153734 0.518750
O O8 0.216401 0.191450 0.520816
O O9 0.646064 0.192376 0.237330
O O10 0.405352 0.244580 0.500945
O O11 0.647183 0.102849 0.789569
O O12 0.855187 0.088477 0.784150
O O13 0.058672 0.828971 0.423477
O O14 0.289128 0.128235 0.898080
#
# Coordination Sequence:
#
# PCOD9309006 Si02
#       8
#     8   8   8   8   8   4   8   4
#     4  10  22  41  60  81 123 162 205 256 308 351
#     4  10  22  40  56  88 119 160 212 260 299 359
#     4  10  21  35  62  95 122 162 183 248 308 381
#     4  12  23  36  61  90 120 159 198 247 313 368
#     4  10  20  38  61  91 131 152 198 240 311 370
#     4  10  24  42  64  82 122 170 212 260 306 344
#     4  11  22  42  61  92 121 165 208 255 301 371
#     4  12  24  34  62  92 120 162 204 254 312 380
#
# _framework density 10.370369999999999
#
# number of rings (size 3 to 8) (size 9 to 14) (size 15 to 20)
#    0.000    1.429    2.857    2.571    2.000    2.857 
#    0.000    0.000    0.000    3.429    0.000    0.000 
#    0.000    0.000    0.000    0.000    0.000    0.000 
#
# Total GULP energy -156011.381962 kJ/mol
# GULP energy per Si atom -5571.835070 kJ/mol
# Density = 1.034677 g / cm^3
# Si number density = 10.370370 Si / 1000 Ang^3
#
#
#
# Elastic Constant Matrix: (Units=GPa)
#
#
# Indices 1 2 3 4 5 6 
#
# 1 -28.2626 -30.9103 -29.6037 0.0000 -39.1608 0.0000
# 2 -30.9103 48.6116 -13.4831 0.0000 -28.7811 0.0000
# 3 -29.6037 -13.4831 83.2413 0.0000 -14.0197 0.0000
# 4 0.0000 0.0000 0.0000 47.8610 0.0000 -5.7131
# 5 -39.1608 -28.7811 -14.0197 0.0000 27.0671 0.0000
# 6 0.0000 0.0000 0.0000 -5.7131 0.0000 31.1073
#
#
#
# Elastic Compliance Matrix: (Units=1/GPa)
#
#
# Indices 1 2 3 4 5 6 
#
# 1 -0.000805 -0.009927 -0.004238 0.000000 -0.013916 0.000000
# 2 -0.009927 0.012809 -0.001731 0.000000 -0.001638 0.000000
# 3 -0.004238 -0.001731 0.009732 0.000000 -0.002932 0.000000
# 4 0.000000 0.000000 0.000000 0.021362 0.000000 0.003923
# 5 -0.013916 -0.001638 -0.002932 0.000000 0.013552 0.000000
# 6 0.000000 0.000000 0.000000 0.003923 0.000000 0.032867
#
#
# Mechanical properties :
#
#
# Convention : Reuss Voigt Hill
#
# Bulk Modulus (GPa) = -99.44571 -4.93376 -52.18974
# Shear Modulus (GPa) = 42.38835 33.04625 37.71730
#
# Velocity S-wave (km/s) = 4.52566 3.99595 4.26903
# Velocity P-wave (km/s) = 4.55437 4.34813 0.95816
#
# Compressibility (1/GPa) = -0.01005574
#
# Stress axis : x y z
#
# Youngs Moduli (GPa) = -1241.50894 78.06762 102.75502
#
# Poissons Ratio (x) = 0.77494 0.43548
# Poissons Ratio (y) = -12.32384 0.17790
# Poissons Ratio (z) = -5.26152 0.13516
#
# Static dielectric constant tensor:
#      x y z
#    x 1.486130 0.000000 0.011570 
#    y 0.000000 1.711150 0.000000 
#    z 0.011570 0.000000 1.787760 
# 
# From -- ./inp_files/52069.got.cif
#   From: 2010.05.17/outbox.ucp.g08.bks.cvg/sg15_27_cif.got.tgz:52069.got - 2010.06.11 12:40:34.
