data_PCOD9309442
_publ_section_title
;
Structure prediction by ZEFSAII (Michael W. Deem and Ramdas Pophale) SiO2 
 PCOD9309442
Probable space group: C 2/C
;
_chemical_formula_sum "Si O2"
_cell_formula_units_Z 30
_cell_length_a 21.000000
_cell_length_b 15.000000
_cell_length_c 15.000000
_cell_angle_alpha 90.000000
_cell_angle_beta 40.000000
_cell_angle_gamma 90.000000
_cell_volume 3037.171456
_symmetry_space_group_name_H-M "C 2/C"
_symmetry_group_IT_number 15
_symmetry_cell_setting 'monoclinic'
loop_
_space_group_symop_operation_xyz
x,y,z
-x,y,1/2-z
-x,-y,-z
x,-y,1/2+z
1/2+x,1/2+y,z
1/2-x,1/2+y,1/2-z
1/2-x,1/2-y,-z
1/2+x,1/2-y,1/2+z
loop_
_atom_site_type_symbol
_atom_site_label
_atom_site_fract_x
_atom_site_fract_y
_atom_site_fract_z
Si Si1 0.600521 0.695853 0.697309
Si Si2 0.500000 0.578011 0.250000
Si Si3 0.431159 0.529703 0.655945
Si Si4 0.847176 0.436942 0.245009
Si Si5 0.550026 0.145849 0.599713
Si Si6 0.201319 0.385093 0.584192
Si Si7 0.301973 0.013975 0.591731
Si Si8 0.183247 0.803083 0.498599
O O1 0.500000 0.705560 0.750000
O O2 0.579652 0.634499 0.806748
O O3 0.682316 0.642502 0.549038
O O4 0.644244 0.794154 0.671095
O O5 0.515702 0.515955 0.317687
O O6 0.400741 0.636461 0.365169
O O7 0.500000 0.500000 0.500000
O O8 0.316501 0.497118 0.773695
O O9 0.826974 0.528875 0.324103
O O10 0.837969 0.458747 0.150792
O O11 0.760546 0.366959 0.364588
O O12 0.955042 0.391225 0.146479
O O13 0.500000 0.159258 0.750000
O O14 0.615362 0.235145 0.512297
O O15 0.633949 0.070081 0.508782
O O16 0.178981 0.412773 0.505583
O O17 0.250000 0.750000 0.500000
#
# Coordination Sequence:
#
# PCOD9309442 Si02
#       8
#     8   4   8   8   8   8   8   8
#     4  10  22  42  69  99 140 184 236 292 348 417
#     4  12  22  40  68  96 142 184 226 288 360 416
#     4  11  24  43  70 104 142 187 238 292 362 428
#     4  12  25  45  74  99 143 191 232 302 369 426
#     4  12  23  45  71  99 139 186 239 291 361 426
#     4  10  23  45  69  99 141 189 234 285 354 433
#     4  11  25  45  69 104 139 186 241 289 357 435
#     4  12  22  42  69 103 136 185 233 296 360 432
#
# _framework density 9.8776119999999992
#
# number of rings (size 3 to 8) (size 9 to 14) (size 15 to 20)
#    0.000    0.800    4.000    3.600    3.733    0.000 
#    9.600    1.333    0.000    0.000    0.000    0.000 
#    0.000    0.000    0.000    0.000    0.000    0.000 
#
# Total GULP energy -167536.186108 kJ/mol
# GULP energy per Si atom -5584.539537 kJ/mol
# Density = 0.985513 g / cm^3
# Si number density = 9.877612 Si / 1000 Ang^3
#
#
#
# Elastic Constant Matrix: (Units=GPa)
#
#
# Indices 1 2 3 4 5 6 
#
# 1 112.7436 45.1540 42.0521 0.0000 -5.5524 0.0000
# 2 45.1540 147.0542 69.9186 0.0000 -4.1022 0.0000
# 3 42.0521 69.9186 106.0608 0.0000 -15.7321 0.0000
# 4 0.0000 0.0000 0.0000 33.4244 0.0000 -15.3651
# 5 -5.5524 -4.1022 -15.7321 0.0000 41.9299 0.0000
# 6 0.0000 0.0000 0.0000 -15.3651 0.0000 26.6861
#
#
#
# Elastic Compliance Matrix: (Units=1/GPa)
#
#
# Indices 1 2 3 4 5 6 
#
# 1 0.010746 -0.001862 -0.003017 0.000000 0.000109 0.000000
# 2 -0.001862 0.010326 -0.006306 0.000000 -0.001603 0.000000
# 3 -0.003017 -0.006306 0.015494 0.000000 0.004797 0.000000
# 4 0.000000 0.000000 0.000000 0.040688 0.000000 0.023427
# 5 0.000109 -0.001603 0.004797 0.000000 0.025507 0.000000
# 6 0.000000 0.000000 0.000000 0.023427 0.000000 0.050961
#
#
# Mechanical properties :
#
#
# Convention : Reuss Voigt Hill
#
# Bulk Modulus (GPa) = 70.45047 75.56754 73.00900
# Shear Modulus (GPa) = 27.65123 34.32366 30.98745
#
# Velocity S-wave (km/s) = 3.74530 4.17279 3.96481
# Velocity P-wave (km/s) = 7.37849 7.84546 7.61556
#
# Compressibility (1/GPa) = 0.01419437
#
# Stress axis : x y z
#
# Youngs Moduli (GPa) = 93.05650 96.84503 64.54247
#
# Poissons Ratio (x) = 0.18034 0.19472
# Poissons Ratio (y) = 0.17329 0.40703
# Poissons Ratio (z) = 0.28075 0.61075
#
# Static dielectric constant tensor:
#      x y z
#    x 1.700980 0.000000 -0.003560 
#    y 0.000000 1.728850 0.000000 
#    z -0.003560 0.000000 1.681950 
# 
# From -- ./inp_files/168617.got.cif
#   From: 2010.05.17/outbox.ucp.g08.bks.cvg/sg15_85_cif.got.tgz:168617.got - 2010.06.11 12:40:34.
