data_PCOD9309086
_publ_section_title
;
Structure prediction by ZEFSAII (Michael W. Deem and Ramdas Pophale) SiO2 
 PCOD9309086
Probable space group: C 2/C
;
_chemical_formula_sum "Si O2"
_cell_formula_units_Z 24
_cell_length_a 9.000000
_cell_length_b 21.000000
_cell_length_c 21.000000
_cell_angle_alpha 90.000000
_cell_angle_beta 40.000000
_cell_angle_gamma 90.000000
_cell_volume 2551.224023
_symmetry_space_group_name_H-M "C 2/C"
_symmetry_group_IT_number 15
_symmetry_cell_setting 'monoclinic'
loop_
_space_group_symop_operation_xyz
x,y,z
-x,y,1/2-z
-x,-y,-z
x,-y,1/2+z
1/2+x,1/2+y,z
1/2-x,1/2+y,1/2-z
1/2-x,1/2-y,-z
1/2+x,1/2-y,1/2+z
loop_
_atom_site_type_symbol
_atom_site_label
_atom_site_fract_x
_atom_site_fract_y
_atom_site_fract_z
Si Si1 0.161736 0.040247 0.995780
Si Si2 0.039622 0.798392 0.071610
Si Si3 0.141905 0.415159 0.334654
Si Si4 0.772298 0.224552 0.782500
Si Si5 0.630338 0.567765 0.607770
Si Si6 0.419285 0.309023 0.965112
O O1 0.107504 0.113917 0.034760
O O2 0.173810 0.994365 0.052422
O O3 0.418705 0.048596 0.883053
O O4 0.000000 0.000000 0.000000
O O5 0.127050 0.867258 0.067622
O O6 0.857092 0.771286 0.182447
O O7 0.250000 0.750000 0.000000
O O8 0.939207 0.803794 0.034523
O O9 0.115843 0.338902 0.336794
O O10 0.190357 0.427250 0.393148
O O11 0.373249 0.434278 0.221856
O O12 0.651180 0.285504 0.852585
O O13 0.000000 0.209152 0.750000
O O14 0.250000 0.250000 0.000000
#
# Coordination Sequence:
#
# PCOD9309086 Si02
#       6
#     8   8   8   8   8   8
#     4  12  25  42  61  97 139 173 213 276 341 402
#     4  11  21  40  69  95 128 171 223 270 343 391
#     4  10  20  42  70  88 126 175 222 269 330 410
#     4  11  20  41  71  94 123 174 226 275 326 401
#     4  10  21  42  66  95 121 176 228 269 334 408
#     4  12  25  43  65  98 137 172 225 281 334 403
#
# _framework density 9.4072490000000002
#
# number of rings (size 3 to 8) (size 9 to 14) (size 15 to 20)
#    0.000    1.000    8.333    0.500    0.000    1.333 
#    6.000    1.667    0.000    0.000    0.000    0.000 
#    0.000    0.000    0.000    0.000    0.000    0.000 
#
# Total GULP energy -133777.802621 kJ/mol
# GULP energy per Si atom -5574.075109 kJ/mol
# Density = 0.938584 g / cm^3
# Si number density = 9.407249 Si / 1000 Ang^3
#
#
#
# Elastic Constant Matrix: (Units=GPa)
#
#
# Indices 1 2 3 4 5 6 
#
# 1 76.9949 53.2191 42.1516 0.0005 -0.0122 -0.0005
# 2 53.2191 140.2656 69.0814 0.0001 1.1190 -0.0002
# 3 42.1516 69.0814 85.3946 0.0001 11.6437 -0.0005
# 4 0.0005 0.0001 0.0001 42.4481 0.0001 -1.4330
# 5 -0.0122 1.1190 11.6437 0.0001 35.4170 0.0003
# 6 -0.0005 -0.0002 -0.0005 -1.4330 0.0003 33.1809
#
#
#
# Elastic Compliance Matrix: (Units=1/GPa)
#
#
# Indices 1 2 3 4 5 6 
#
# 1 0.019455 -0.004183 -0.006531 0.000000 0.002286 0.000000
# 2 -0.004183 0.013044 -0.008826 0.000000 0.002488 0.000000
# 3 -0.006531 -0.008826 0.023070 0.000000 -0.007308 0.000000
# 4 0.000000 0.000000 0.000000 0.023593 0.000000 0.001019
# 5 0.002286 0.002488 -0.007308 0.000000 0.030560 0.000000
# 6 0.000000 0.000000 0.000000 0.001019 0.000000 0.030182
#
#
# Mechanical properties :
#
#
# Convention : Reuss Voigt Hill
#
# Bulk Modulus (GPa) = 60.64748 70.17326 65.41037
# Shear Modulus (GPa) = 27.10318 31.42275 29.26297
#
# Velocity S-wave (km/s) = 3.79957 4.09116 3.94806
# Velocity P-wave (km/s) = 7.18007 7.72627 7.45817
#
# Compressibility (1/GPa) = 0.01648873
#
# Stress axis : x y z
#
# Youngs Moduli (GPa) = 51.40043 76.66545 43.34545
#
# Poissons Ratio (x) = 0.32073 0.28307
# Poissons Ratio (y) = 0.21503 0.38257
# Poissons Ratio (z) = 0.33568 0.67666
#
# Static dielectric constant tensor:
#      x y z
#    x 1.696510 0.000000 -0.047290 
#    y 0.000000 1.652420 0.000000 
#    z -0.047290 0.000000 1.682290 
# 
# From -- ./inp_files/136182.got.cif
#   From: 2010.05.17/outbox.ucp.g08.bks.cvg/sg15_69_cif.got.tgz:136182.got - 2010.06.11 12:40:34.
