data_PCOD9309155
_publ_section_title
;
Structure prediction by ZEFSAII (Michael W. Deem and Ramdas Pophale) SiO2 
 PCOD9309155
Probable space group: C 2/C
;
_chemical_formula_sum "Si O2"
_cell_formula_units_Z 24
_cell_length_a 12.000000
_cell_length_b 24.000000
_cell_length_c 12.000000
_cell_angle_alpha 90.000000
_cell_angle_beta 50.000000
_cell_angle_gamma 90.000000
_cell_volume 2647.449595
_symmetry_space_group_name_H-M "C 2/C"
_symmetry_group_IT_number 15
_symmetry_cell_setting 'monoclinic'
loop_
_space_group_symop_operation_xyz
x,y,z
-x,y,1/2-z
-x,-y,-z
x,-y,1/2+z
1/2+x,1/2+y,z
1/2-x,1/2+y,1/2-z
1/2-x,1/2-y,-z
1/2+x,1/2-y,1/2+z
loop_
_atom_site_type_symbol
_atom_site_label
_atom_site_fract_x
_atom_site_fract_y
_atom_site_fract_z
Si Si1 0.146661 0.377553 0.898568
Si Si2 0.813003 0.041219 0.135668
Si Si3 0.155548 0.447703 0.114976
Si Si4 0.328769 0.734417 0.333061
Si Si5 0.922563 0.066551 0.682380
Si Si6 0.168517 0.647401 0.796668
O O1 0.198224 0.413683 0.757594
O O2 0.246310 0.321574 0.842992
O O3 0.174399 0.420519 0.982812
O O4 0.976661 0.360403 0.032740
O O5 0.760938 0.999397 0.070785
O O6 0.846334 0.993296 0.206678
O O7 0.958665 0.070896 0.994816
O O8 0.160143 0.394070 0.194868
O O9 0.000000 0.472489 0.250000
O O10 0.500000 0.724282 0.250000
O O11 0.250000 0.750000 0.500000
O O12 0.320107 0.788955 0.256431
O O13 0.811250 0.118896 0.758790
O O14 0.000000 0.063997 0.750000
#
# Coordination Sequence:
#
# PCOD9309155 Si02
#       6
#     8   8   8   8   8   8
#     4  11  22  36  60  91 122 155 192 245 302 354
#     4  10  22  34  57  88 116 156 204 242 290 359
#     4   9  18  34  55  82 121 151 194 240 299 351
#     4  12  22  37  63  92 120 151 190 251 308 352
#     4  10  22  39  57  81 122 160 202 246 294 346
#     4  10  21  38  56  86 119 155 195 244 296 355
#
# _framework density 9.0653279999999992
#
# number of rings (size 3 to 8) (size 9 to 14) (size 15 to 20)
#    0.000    1.667    3.333    1.500    2.333    9.333 
#    0.000    0.000    0.000    5.000    0.000    0.000 
#    0.000    0.000    0.000    0.000    0.000    0.000 
#
# Total GULP energy -133649.903807 kJ/mol
# GULP energy per Si atom -5568.745992 kJ/mol
# Density = 0.904470 g / cm^3
# Si number density = 9.065328 Si / 1000 Ang^3
#
#
#
# Elastic Constant Matrix: (Units=GPa)
#
#
# Indices 1 2 3 4 5 6 
#
# 1 63.3323 40.4807 18.5420 0.0000 -13.4833 0.0000
# 2 40.4807 133.4317 55.7451 0.0000 -17.4728 0.0000
# 3 18.5420 55.7451 104.1522 0.0000 -23.3473 0.0000
# 4 0.0000 0.0000 0.0000 26.6679 0.0000 -6.4524
# 5 -13.4833 -17.4728 -23.3473 0.0000 29.7387 0.0000
# 6 0.0000 0.0000 0.0000 -6.4524 0.0000 25.6917
#
#
#
# Elastic Compliance Matrix: (Units=1/GPa)
#
#
# Indices 1 2 3 4 5 6 
#
# 1 0.020630 -0.005764 0.000910 0.000000 0.006681 0.000000
# 2 -0.005764 0.011359 -0.005028 0.000000 0.000113 0.000000
# 3 0.000910 -0.005028 0.014030 0.000000 0.008473 0.000000
# 4 0.000000 0.000000 0.000000 0.039924 0.000000 0.010027
# 5 0.006681 0.000113 0.008473 0.000000 0.043374 0.000000
# 6 0.000000 0.000000 0.000000 0.010027 0.000000 0.041441
#
#
# Mechanical properties :
#
#
# Convention : Reuss Voigt Hill
#
# Bulk Modulus (GPa) = 38.08877 58.93909 48.51393
# Shear Modulus (GPa) = 25.09124 28.82956 26.96040
#
# Velocity S-wave (km/s) = 3.72413 3.99193 3.86036
# Velocity P-wave (km/s) = 6.28854 7.33661 6.83270
#
# Compressibility (1/GPa) = 0.02625446
#
# Stress axis : x y z
#
# Youngs Moduli (GPa) = 48.47314 88.03949 71.27717
#
# Poissons Ratio (x) = 0.50746 -0.06487
# Poissons Ratio (y) = 0.27940 0.35838
# Poissons Ratio (z) = -0.04411 0.44266
#
# Static dielectric constant tensor:
#      x y z
#    x 1.771790 0.000000 -0.045140 
#    y 0.000000 1.589070 0.000000 
#    z -0.045140 0.000000 1.629190 
# 
# From -- ./inp_files/89426.got.cif
#   From: 2010.05.17/outbox.ucp.g08.bks.cvg/sg15_45_cif.got.tgz:89426.got - 2010.06.11 12:40:34.
