data_PCOD9309174
_publ_section_title
;
Structure prediction by ZEFSAII (Michael W. Deem and Ramdas Pophale) SiO2 
 PCOD9309174
Probable space group: C 2/C
;
_chemical_formula_sum "Si O2"
_cell_formula_units_Z 26
_cell_length_a 12.000000
_cell_length_b 21.000000
_cell_length_c 12.000000
_cell_angle_alpha 90.000000
_cell_angle_beta 60.000000
_cell_angle_gamma 90.000000
_cell_volume 2618.860821
_symmetry_space_group_name_H-M "C 2/C"
_symmetry_group_IT_number 15
_symmetry_cell_setting 'monoclinic'
loop_
_space_group_symop_operation_xyz
x,y,z
-x,y,1/2-z
-x,-y,-z
x,-y,1/2+z
1/2+x,1/2+y,z
1/2-x,1/2+y,1/2-z
1/2-x,1/2-y,-z
1/2+x,1/2-y,1/2+z
loop_
_atom_site_type_symbol
_atom_site_label
_atom_site_fract_x
_atom_site_fract_y
_atom_site_fract_z
Si Si1 0.339872 0.505413 0.447404
Si Si2 0.500000 0.724401 0.250000
Si Si3 0.978573 0.303500 0.040346
Si Si4 0.289179 0.377746 0.347927
Si Si5 0.501532 0.330464 0.079935
Si Si6 0.393866 0.432937 0.635022
Si Si7 0.242707 0.868412 0.597518
O O1 0.298153 0.453073 0.375444
O O2 0.324019 0.471017 0.573027
O O3 0.492323 0.523776 0.370542
O O4 0.268326 0.572798 0.482002
O O5 0.457687 0.768976 0.169288
O O6 0.375156 0.682473 0.349958
O O7 0.854629 0.348467 0.078688
O O8 0.996246 0.244345 0.946232
O O9 0.116334 0.338718 0.974260
O O10 0.368604 0.357945 0.197270
O O11 0.380944 0.345346 0.395104
O O12 0.535790 0.372316 0.955205
O O13 0.293013 0.405789 0.771744
#
# Coordination Sequence:
#
# PCOD9309174 Si02
#       7
#     8   4   8   8   8   8   8
#     4  10  22  39  65  95 126 163 221 263 313 376
#     4  12  24  44  66  98 128 176 224 248 320 394
#     4  12  25  43  63  96 140 165 210 267 329 383
#     4  10  24  41  67  94 127 171 216 265 323 379
#     4  10  21  41  68  92 124 171 216 265 314 383
#     4  10  21  38  70  97 119 164 223 269 306 378
#     4  12  23  41  69  96 130 170 211 274 315 381
#
# _framework density 9.9279810000000008
#
# number of rings (size 3 to 8) (size 9 to 14) (size 15 to 20)
#    0.000    1.231    3.077    1.846   10.769    1.846 
#    2.769    0.000    3.385    0.000    0.000    0.000 
#    0.000    0.000    0.000    0.000    0.000    0.000 
#
# Total GULP energy -145143.131978 kJ/mol
# GULP energy per Si atom -5582.428153 kJ/mol
# Density = 0.990538 g / cm^3
# Si number density = 9.927981 Si / 1000 Ang^3
#
#
#
# Elastic Constant Matrix: (Units=GPa)
#
#
# Indices 1 2 3 4 5 6 
#
# 1 108.8590 62.9335 26.3838 0.0000 -28.3150 0.0000
# 2 62.9335 129.6366 14.5356 0.0000 -11.0295 0.0000
# 3 26.3838 14.5356 36.7269 0.0000 -0.4494 0.0000
# 4 0.0000 0.0000 0.0000 29.5728 0.0000 10.2260
# 5 -28.3150 -11.0295 -0.4494 0.0000 30.7458 0.0000
# 6 0.0000 0.0000 0.0000 10.2260 0.0000 43.7350
#
#
#
# Elastic Compliance Matrix: (Units=1/GPa)
#
#
# Indices 1 2 3 4 5 6 
#
# 1 0.020287 -0.007200 -0.011529 0.000000 0.015932 0.000000
# 2 -0.007200 0.010885 0.000831 0.000000 -0.002714 0.000000
# 3 -0.011529 0.000831 0.035061 0.000000 -0.009807 0.000000
# 4 0.000000 0.000000 0.000000 0.036789 0.000000 -0.008602
# 5 0.015932 -0.002714 -0.009807 0.000000 0.046080 0.000000
# 6 0.000000 0.000000 0.000000 -0.008602 0.000000 0.024876
#
#
# Mechanical properties :
#
#
# Convention : Reuss Voigt Hill
#
# Bulk Modulus (GPa) = 32.85456 53.65870 43.25663
# Shear Modulus (GPa) = 22.73540 32.23538 27.48539
#
# Velocity S-wave (km/s) = 3.38748 4.03359 3.72457
# Velocity P-wave (km/s) = 5.64645 6.98397 6.35052
#
# Compressibility (1/GPa) = 0.03043717
#
# Stress axis : x y z
#
# Youngs Moduli (GPa) = 49.29238 91.86730 28.52148
#
# Poissons Ratio (x) = 0.66148 0.32883
# Poissons Ratio (y) = 0.35493 -0.02371
# Poissons Ratio (z) = 0.56830 -0.07637
#
# Static dielectric constant tensor:
#      x y z
#    x 1.688110 0.000000 0.081120 
#    y 0.000000 1.719150 0.000000 
#    z 0.081120 0.000000 1.760560 
# 
# From -- ./inp_files/89499.got.cif
#   From: 2010.05.17/outbox.ucp.g08.bks.cvg/sg15_45_cif.got.tgz:89499.got - 2010.06.11 12:40:34.
