data_PCOD9309205
_publ_section_title
;
Structure prediction by ZEFSAII (Michael W. Deem and Ramdas Pophale) SiO2 
 PCOD9309205
Probable space group: C 2/C
;
_chemical_formula_sum "Si O2"
_cell_formula_units_Z 28
_cell_length_a 9.000000
_cell_length_b 27.000000
_cell_length_c 18.000000
_cell_angle_alpha 90.000000
_cell_angle_beta 40.000000
_cell_angle_gamma 90.000000
_cell_volume 2811.553005
_symmetry_space_group_name_H-M "C 2/C"
_symmetry_group_IT_number 15
_symmetry_cell_setting 'monoclinic'
loop_
_space_group_symop_operation_xyz
x,y,z
-x,y,1/2-z
-x,-y,-z
x,-y,1/2+z
1/2+x,1/2+y,z
1/2-x,1/2+y,1/2-z
1/2-x,1/2-y,-z
1/2+x,1/2-y,1/2+z
loop_
_atom_site_type_symbol
_atom_site_label
_atom_site_fract_x
_atom_site_fract_y
_atom_site_fract_z
Si Si1 0.222425 0.808982 0.851135
Si Si2 0.584071 0.602898 0.301295
Si Si3 0.146046 0.147629 0.536318
Si Si4 0.776902 0.697972 0.630916
Si Si5 0.366504 0.945618 0.466903
Si Si6 0.533762 0.943310 0.572420
Si Si7 0.377991 0.870052 0.221478
O O1 0.500000 0.809991 0.750000
O O2 0.155730 0.846168 0.811991
O O3 0.150093 0.752330 0.872825
O O4 0.118095 0.826359 0.968850
O O5 0.500000 0.613000 0.250000
O O6 0.382722 0.578868 0.427474
O O7 0.796026 0.565149 0.207762
O O8 0.285887 0.182236 0.541363
O O9 0.297993 0.099495 0.466915
O O10 0.896229 0.131231 0.661447
O O11 0.500000 0.694686 0.750000
O O12 0.913366 0.661993 0.633358
O O13 0.487978 0.938238 0.501187
O O14 0.512879 0.921799 0.344702
O O15 0.355591 0.003705 0.458181
O O16 0.500000 0.852070 0.250000
#
# Coordination Sequence:
#
# PCOD9309205 Si02
#       7
#     8   8   8   8   8   8   8
#     4  11  21  39  64  92 126 159 205 258 307 360
#     4  10  22  41  61  93 127 158 207 251 306 365
#     4  11  21  40  64  92 121 161 212 250 303 369
#     4   9  21  39  64  90 121 166 205 249 307 369
#     4  10  22  40  63  90 127 162 208 248 307 363
#     4  10  21  39  67  91 118 169 203 255 299 368
#     4  11  23  41  60  92 131 159 203 257 306 369
#
# _framework density 9.9589090000000002
#
# number of rings (size 3 to 8) (size 9 to 14) (size 15 to 20)
#    0.000    1.714    2.857    1.286    2.000    0.571 
#    2.571    4.286    0.000    0.000    0.000    0.000 
#    0.000    0.000    0.000    0.000    0.000    0.000 
#
# Total GULP energy -156164.419106 kJ/mol
# GULP energy per Si atom -5577.300682 kJ/mol
# Density = 0.993624 g / cm^3
# Si number density = 9.958909 Si / 1000 Ang^3
#
#
#
# Elastic Constant Matrix: (Units=GPa)
#
#
# Indices 1 2 3 4 5 6 
#
# 1 20.4507 12.9519 -7.4371 0.0000 -4.8781 0.0000
# 2 12.9519 74.4140 -1.9655 0.0000 -2.2695 0.0000
# 3 -7.4371 -1.9655 58.3322 0.0000 3.7332 0.0000
# 4 0.0000 0.0000 0.0000 30.1241 0.0000 17.2510
# 5 -4.8781 -2.2695 3.7332 0.0000 18.2241 0.0000
# 6 0.0000 0.0000 0.0000 17.2510 0.0000 40.6602
#
#
#
# Elastic Compliance Matrix: (Units=1/GPa)
#
#
# Indices 1 2 3 4 5 6 
#
# 1 0.060887 -0.010006 0.006548 0.000000 0.013710 0.000000
# 2 -0.010006 0.015141 -0.000724 0.000000 -0.000645 0.000000
# 3 0.006548 -0.000724 0.018084 0.000000 -0.002042 0.000000
# 4 0.000000 0.000000 0.000000 0.043850 0.000000 -0.018604
# 5 0.013710 -0.000645 -0.002042 0.000000 0.058880 0.000000
# 6 0.000000 0.000000 0.000000 -0.018604 0.000000 0.032487
#
#
# Mechanical properties :
#
#
# Convention : Reuss Voigt Hill
#
# Bulk Modulus (GPa) = 11.66218 17.81062 14.73640
# Shear Modulus (GPa) = 18.77741 27.77820 23.27781
#
# Velocity S-wave (km/s) = 3.07375 3.73854 3.42232
# Velocity P-wave (km/s) = 4.29710 5.25329 4.79907
#
# Compressibility (1/GPa) = 0.08574729
#
# Stress axis : x y z
#
# Youngs Moduli (GPa) = 16.42391 66.04505 55.29646
#
# Poissons Ratio (x) = 0.66087 -0.36209
# Poissons Ratio (y) = 0.16434 0.04005
# Poissons Ratio (z) = -0.10755 0.04784
#
# Static dielectric constant tensor:
#      x y z
#    x 1.695820 0.000000 0.012570 
#    y 0.000000 1.185480 0.000000 
#    z 0.012570 0.000000 1.709940 
# 
# From -- ./inp_files/193816.got.cif
#   From: 2010.05.17/outbox.ucp.g08.bks.cvg/sg15_97_cif.got.tgz:193816.got - 2010.06.11 12:40:34.
