data_PCOD9309304
_publ_section_title
;
Structure prediction by ZEFSAII (Michael W. Deem and Ramdas Pophale) SiO2 
 PCOD9309304
Probable space group: C 2/C
;
_chemical_formula_sum "Si O2"
_cell_formula_units_Z 28
_cell_length_a 27.000000
_cell_length_b 18.000000
_cell_length_c 9.000000
_cell_angle_alpha 90.000000
_cell_angle_beta 40.000000
_cell_angle_gamma 90.000000
_cell_volume 2811.553005
_symmetry_space_group_name_H-M "C 2/C"
_symmetry_group_IT_number 15
_symmetry_cell_setting 'monoclinic'
loop_
_space_group_symop_operation_xyz
x,y,z
-x,y,1/2-z
-x,-y,-z
x,-y,1/2+z
1/2+x,1/2+y,z
1/2-x,1/2+y,1/2-z
1/2-x,1/2-y,-z
1/2+x,1/2-y,1/2+z
loop_
_atom_site_type_symbol
_atom_site_label
_atom_site_fract_x
_atom_site_fract_y
_atom_site_fract_z
Si Si1 0.842607 0.948773 0.058702
Si Si2 0.475322 0.921501 0.632466
Si Si3 0.874732 0.098156 0.824043
Si Si4 0.247937 0.279281 0.676517
Si Si5 0.684275 0.873020 0.355346
Si Si6 0.968230 0.167800 0.157723
Si Si7 0.108348 0.318981 0.222396
O O1 0.848248 0.932221 0.222113
O O2 0.755195 0.931326 0.205368
O O3 0.903483 0.893606 0.840362
O O4 0.871403 0.030132 0.946354
O O5 0.500000 0.923005 0.750000
O O6 0.526893 0.864854 0.413814
O O7 0.500000 0.000000 0.500000
O O8 0.384847 0.896915 0.868938
O O9 0.958724 0.135242 0.601127
O O10 0.812852 0.157401 0.025445
O O11 0.250000 0.250000 0.500000
O O12 0.277468 0.206192 0.693343
O O13 0.168958 0.309511 0.941835
O O14 0.651965 0.858258 0.262124
O O15 0.924136 0.235617 0.180215
O O16 0.000000 0.191333 0.250000
#
# Coordination Sequence:
#
# PCOD9309304 Si02
#       7
#     8   8   8   8   8   8   8
#     4  11  24  42  65  99 136 172 224 282 340 412
#     4  10  25  43  63  95 132 174 224 279 343 408
#     4  11  25  40  68  95 137 178 221 276 344 406
#     4  12  23  43  67 100 129 180 226 272 339 404
#     4  11  24  44  68  98 139 169 232 288 338 410
#     4  10  21  44  65  96 132 177 224 277 337 406
#     4  11  24  43  70  98 131 180 228 283 341 404
#
# _framework density 9.9589090000000002
#
# number of rings (size 3 to 8) (size 9 to 14) (size 15 to 20)
#    0.000    1.143    2.857    2.571    4.000    2.857 
#    0.000    1.429    0.000    0.000    0.000    0.000 
#    0.000    0.000    0.000    0.000    0.000    0.000 
#
# Total GULP energy -156138.510166 kJ/mol
# GULP energy per Si atom -5576.375363 kJ/mol
# Density = 0.993624 g / cm^3
# Si number density = 9.958909 Si / 1000 Ang^3
#
#
#
# Elastic Constant Matrix: (Units=GPa)
#
#
# Indices 1 2 3 4 5 6 
#
# 1 30.0294 -18.1225 18.6185 0.0000 -11.9407 0.0000
# 2 -18.1225 86.6974 46.7657 0.0000 -3.8259 0.0000
# 3 18.6185 46.7657 202.0352 0.0000 -22.6214 0.0000
# 4 0.0000 0.0000 0.0000 51.0767 0.0000 2.3782
# 5 -11.9407 -3.8259 -22.6214 0.0000 33.1165 0.0000
# 6 0.0000 0.0000 0.0000 2.3782 0.0000 24.8539
#
#
#
# Elastic Compliance Matrix: (Units=1/GPa)
#
#
# Indices 1 2 3 4 5 6 
#
# 1 0.053289 0.015449 -0.006644 0.000000 0.016461 0.000000
# 2 0.015449 0.017670 -0.005048 0.000000 0.004164 0.000000
# 3 -0.006644 -0.005048 0.006927 0.000000 0.001753 0.000000
# 4 0.000000 0.000000 0.000000 0.019666 0.000000 -0.001882
# 5 0.016461 0.004164 0.001753 0.000000 0.037810 0.000000
# 6 0.000000 0.000000 0.000000 -0.001882 0.000000 0.040415
#
#
# Mechanical properties :
#
#
# Convention : Reuss Voigt Hill
#
# Bulk Modulus (GPa) = 11.70947 45.92061 28.81504
# Shear Modulus (GPa) = 25.41575 39.90942 32.66259
#
# Velocity S-wave (km/s) = 3.57603 4.48113 4.05392
# Velocity P-wave (km/s) = 4.78982 7.06252 6.03413
#
# Compressibility (1/GPa) = 0.08540096
#
# Stress axis : x y z
#
# Youngs Moduli (GPa) = 18.76567 56.59220 144.37209
#
# Poissons Ratio (x) = -0.87430 0.95918
# Poissons Ratio (y) = -0.28991 0.72875
# Poissons Ratio (z) = 0.12468 0.28566
#
# Static dielectric constant tensor:
#      x y z
#    x 1.776210 0.000000 -0.012640 
#    y 0.000000 1.725570 0.000000 
#    z -0.012640 0.000000 1.684490 
# 
# From -- ./inp_files/67096.got.cif
#   From: 2010.05.17/outbox.ucp.g08.bks.cvg/sg15_34_cif.got.tgz:67096.got - 2010.06.11 12:40:34.
