data_PCOD9309897
_publ_section_title
;
Structure prediction by ZEFSAII (Michael W. Deem and Ramdas Pophale) SiO2 
 PCOD9309897
Probable space group: C 2/C
;
_chemical_formula_sum "Si O2"
_cell_formula_units_Z 22
_cell_length_a 18.000000
_cell_length_b 15.000000
_cell_length_c 24.000000
_cell_angle_alpha 90.000000
_cell_angle_beta 20.000000
_cell_angle_gamma 90.000000
_cell_volume 2216.290529
_symmetry_space_group_name_H-M "C 2/C"
_symmetry_group_IT_number 15
_symmetry_cell_setting 'monoclinic'
loop_
_space_group_symop_operation_xyz
x,y,z
-x,y,1/2-z
-x,-y,-z
x,-y,1/2+z
1/2+x,1/2+y,z
1/2-x,1/2+y,1/2-z
1/2-x,1/2-y,-z
1/2+x,1/2-y,1/2+z
loop_
_atom_site_type_symbol
_atom_site_label
_atom_site_fract_x
_atom_site_fract_y
_atom_site_fract_z
Si Si1 0.256802 0.975575 0.454614
Si Si2 0.904928 0.071845 0.110452
Si Si3 0.823262 0.185056 0.997489
Si Si4 0.792059 0.744369 0.637688
Si Si5 0.500000 0.494094 0.750000
Si Si6 0.445839 0.934947 0.987828
O O1 0.500000 0.957153 0.250000
O O2 0.238893 0.083092 0.469696
O O3 0.152229 0.949851 0.591488
O O4 0.066617 0.939150 0.548547
O O5 0.903678 0.173838 0.090594
O O6 0.647603 0.053318 0.303136
O O7 0.000000 0.000000 0.000000
O O8 0.084832 0.201457 0.815043
O O9 0.750000 0.250000 0.000000
O O10 0.723040 0.214148 0.126882
O O11 0.950145 0.664265 0.509584
O O12 0.699437 0.548088 0.639148
O O13 0.500000 0.000000 0.000000
#
# Coordination Sequence:
#
# PCOD9309897 Si02
#       6
#     8   8   8   8   4   8
#     4  12  25  45  69 105 145 189 243 302 360 443
#     4  12  25  45  67 100 146 195 236 290 366 445
#     4  12  23  38  61 102 142 177 227 293 369 430
#     4  12  24  40  66  96 138 185 230 291 358 436
#     4  12  24  42  74 106 140 184 240 298 376 430
#     4  12  25  45  69 103 141 184 240 305 366 434
#
# _framework density 9.9264960000000002
#
# number of rings (size 3 to 8) (size 9 to 14) (size 15 to 20)
#    0.000    0.000    7.273    3.818    0.000    0.000 
#    0.000    0.000    2.000    2.182    0.000    0.000 
#    0.000    0.000    0.000    0.000    0.000    0.000 
#
# Total GULP energy -122585.202730 kJ/mol
# GULP energy per Si atom -5572.054670 kJ/mol
# Density = 0.990390 g / cm^3
# Si number density = 9.926496 Si / 1000 Ang^3
#
#
#
# Elastic Constant Matrix: (Units=GPa)
#
#
# Indices 1 2 3 4 5 6 
#
# 1 100.6688 31.4281 18.0179 -0.0301 -0.2224 0.0158
# 2 31.4281 55.7983 19.6885 -0.0452 -12.1293 0.0344
# 3 18.0179 19.6885 172.0414 -0.0339 6.3936 0.0247
# 4 -0.0301 -0.0452 -0.0339 32.5608 -0.0052 0.6641
# 5 -0.2224 -12.1293 6.3936 -0.0052 42.4489 -0.0202
# 6 0.0158 0.0344 0.0247 0.6641 -0.0202 41.9598
#
#
#
# Elastic Compliance Matrix: (Units=1/GPa)
#
#
# Indices 1 2 3 4 5 6 
#
# 1 0.012239 -0.007175 -0.000389 0.000001 -0.001928 0.000001
# 2 -0.007175 0.024357 -0.002306 0.000026 0.007269 -0.000013
# 3 -0.000389 -0.002306 0.006176 0.000003 -0.001591 -0.000002
# 4 0.000001 0.000026 0.000003 0.030722 0.000011 -0.000486
# 5 -0.001928 0.007269 -0.001591 0.000011 0.025864 0.000008
# 6 0.000001 -0.000013 -0.000002 -0.000486 0.000008 0.023840
#
#
# Mechanical properties :
#
#
# Convention : Reuss Voigt Hill
#
# Bulk Modulus (GPa) = 43.41860 51.86415 47.64137
# Shear Modulus (GPa) = 33.19685 40.68551 36.94118
#
# Velocity S-wave (km/s) = 4.09361 4.53187 4.31830
# Velocity P-wave (km/s) = 6.65290 7.31879 6.99377
#
# Compressibility (1/GPa) = 0.02303160
#
# Stress axis : x y z
#
# Youngs Moduli (GPa) = 81.70595 41.05583 161.90805
#
# Poissons Ratio (x) = 0.29459 0.06298
# Poissons Ratio (y) = 0.58626 0.37338
# Poissons Ratio (z) = 0.03178 0.09468
#
# Static dielectric constant tensor:
#      x y z
#    x 1.430170 -0.000520 0.368330 
#    y -0.000520 1.699000 0.000540 
#    z 0.368330 0.000540 1.504780 
# 
# From -- ./inp_files/47415.got.cif
#   From: 2010.05.17/outbox.ucp.g08.bks.cvg/sg15_24_cif.got.tgz:47415.got - 2010.06.11 12:40:34.
