data_PCOD9309916
_publ_section_title
;
Structure prediction by ZEFSAII (Michael W. Deem and Ramdas Pophale) SiO2 
 PCOD9309916
Probable space group: C 2/C
;
_chemical_formula_sum "Si O2"
_cell_formula_units_Z 22
_cell_length_a 18.000000
_cell_length_b 9.000000
_cell_length_c 15.000000
_cell_angle_alpha 90.000000
_cell_angle_beta 60.000000
_cell_angle_gamma 90.000000
_cell_volume 2104.441731
_symmetry_space_group_name_H-M "C 2/C"
_symmetry_group_IT_number 15
_symmetry_cell_setting 'monoclinic'
loop_
_space_group_symop_operation_xyz
x,y,z
-x,y,1/2-z
-x,-y,-z
x,-y,1/2+z
1/2+x,1/2+y,z
1/2-x,1/2+y,1/2-z
1/2-x,1/2-y,-z
1/2+x,1/2-y,1/2+z
loop_
_atom_site_type_symbol
_atom_site_label
_atom_site_fract_x
_atom_site_fract_y
_atom_site_fract_z
Si Si1 0.372662 0.828089 0.161148
Si Si2 0.199601 0.009127 0.803158
Si Si3 0.375953 0.115253 0.447706
Si Si4 0.713112 0.412590 0.502242
Si Si5 0.897920 0.905931 0.315511
Si Si6 0.000000 0.412506 0.250000
O O1 0.299117 0.952096 0.223459
O O2 0.327911 0.664363 0.186587
O O3 0.439383 0.835284 0.206941
O O4 0.399919 0.858128 0.039185
O O5 0.188999 0.063017 0.912558
O O6 0.144716 0.091602 0.757749
O O7 0.370183 0.269146 0.396062
O O8 0.285817 0.028779 0.491863
O O9 0.441079 0.014491 0.350186
O O10 0.750000 0.250000 0.500000
O O11 0.632604 0.447227 0.613622
O O12 0.000000 0.900747 0.250000
#
# Coordination Sequence:
#
# PCOD9309916 Si02
#       6
#     8   8   8   8   8   4
#     4  12  27  48  77 111 154 202 256 321 387 463
#     4  12  26  46  79 106 152 202 252 315 393 455
#     4  12  25  50  77 104 154 201 258 309 394 460
#     4  12  26  48  77 111 148 202 256 319 386 466
#     4  12  27  48  75 111 152 201 259 315 382 465
#     4  12  28  46  78 118 150 198 264 326 376 464
#
# _framework density 10.454079
#
# number of rings (size 3 to 8) (size 9 to 14) (size 15 to 20)
#    0.000    0.000    6.364    3.273    1.273    0.727 
#    3.273    0.000    0.000    0.000    0.000    0.000 
#    0.000    0.000    0.000    0.000    0.000    0.000 
#
# Total GULP energy -122949.848157 kJ/mol
# GULP energy per Si atom -5588.629462 kJ/mol
# Density = 1.043028 g / cm^3
# Si number density = 10.454079 Si / 1000 Ang^3
#
#
#
# Elastic Constant Matrix: (Units=GPa)
#
#
# Indices 1 2 3 4 5 6 
#
# 1 161.9296 54.2139 66.5330 0.0000 38.5820 0.0000
# 2 54.2139 137.1125 46.6081 0.0000 8.4029 0.0000
# 3 66.5330 46.6081 144.4361 0.0000 38.0259 0.0000
# 4 0.0000 0.0000 0.0000 38.5459 0.0000 9.5218
# 5 38.5820 8.4029 38.0259 0.0000 64.9052 0.0000
# 6 0.0000 0.0000 0.0000 9.5218 0.0000 35.7035
#
#
#
# Elastic Compliance Matrix: (Units=1/GPa)
#
#
# Indices 1 2 3 4 5 6 
#
# 1 0.008804 -0.002474 -0.002322 0.000000 -0.003553 0.000000
# 2 -0.002474 0.008906 -0.002149 0.000000 0.001577 0.000000
# 3 -0.002322 -0.002149 0.009754 0.000000 -0.004056 0.000000
# 4 0.000000 0.000000 0.000000 0.027773 0.000000 -0.007407
# 5 -0.003553 0.001577 -0.004056 0.000000 0.019692 0.000000
# 6 0.000000 0.000000 0.000000 -0.007407 0.000000 0.029984
#
#
# Mechanical properties :
#
#
# Convention : Reuss Voigt Hill
#
# Bulk Modulus (GPa) = 73.67060 86.46534 80.06797
# Shear Modulus (GPa) = 40.54242 46.23912 43.39077
#
# Velocity S-wave (km/s) = 4.40827 4.70780 4.56049
# Velocity P-wave (km/s) = 7.82446 8.42590 8.13074
#
# Compressibility (1/GPa) = 0.01357394
#
# Stress axis : x y z
#
# Youngs Moduli (GPa) = 113.57879 112.29012 102.51727
#
# Poissons Ratio (x) = 0.27783 0.23803
# Poissons Ratio (y) = 0.28102 0.22032
# Poissons Ratio (z) = 0.26371 0.24133
#
# Static dielectric constant tensor:
#      x y z
#    x 1.755420 0.000000 -0.032970 
#    y 0.000000 1.777610 0.000000 
#    z -0.032970 0.000000 1.784070 
# 
# From -- ./inp_files/159640.got.cif
#   From: 2010.05.17/outbox.ucp.g08.bks.cvg/sg15_80_cif.got.tgz:159640.got - 2010.06.11 12:40:34.
