data_PCOD9309274
_publ_section_title
;
Structure prediction by ZEFSAII (Michael W. Deem and Ramdas Pophale) SiO2 
 PCOD9309274
Probable space group: C 2/C
;
_chemical_formula_sum "Si O2"
_cell_formula_units_Z 20
_cell_length_a 12.000000
_cell_length_b 18.000000
_cell_length_c 18.000000
_cell_angle_alpha 90.000000
_cell_angle_beta 30.000000
_cell_angle_gamma 90.000000
_cell_volume 1944.000000
_symmetry_space_group_name_H-M "C 2/C"
_symmetry_group_IT_number 15
_symmetry_cell_setting 'monoclinic'
loop_
_space_group_symop_operation_xyz
x,y,z
-x,y,1/2-z
-x,-y,-z
x,-y,1/2+z
1/2+x,1/2+y,z
1/2-x,1/2+y,1/2-z
1/2-x,1/2-y,-z
1/2+x,1/2-y,1/2+z
loop_
_atom_site_type_symbol
_atom_site_label
_atom_site_fract_x
_atom_site_fract_y
_atom_site_fract_z
Si Si1 0.016457 0.990209 0.401988
Si Si2 0.265081 0.864182 0.983576
Si Si3 0.334018 0.115291 0.617393
Si Si4 0.819179 0.875491 0.791664
Si Si5 0.124871 0.253423 0.804443
O O1 0.199465 0.936742 0.253302
O O2 0.787528 0.945056 0.517709
O O3 0.073066 0.069152 0.331482
O O4 0.000000 0.000000 0.500000
O O5 0.243417 0.878876 0.085041
O O6 0.079147 0.804495 0.063592
O O7 0.500477 0.822759 0.835618
O O8 0.590770 0.091935 0.459091
O O9 0.302477 0.200460 0.662434
O O10 0.744789 0.796490 0.801304
O O11 0.000000 0.866140 0.750000
#
# Coordination Sequence:
#
# PCOD9309274 Si02
#       5
#     8   8   8   8   8
#     4  11  23  38  62  96 129 162 212 268 316 374
#     4   9  19  39  66  92 122 160 207 265 319 367
#     4  10  21  42  67  90 123 170 217 263 314 374
#     4  11  24  41  61  88 132 179 206 244 322 401
#     4   9  19  36  66  94 112 151 215 267 301 355
#
# _framework density 10.288066000000001
#
# number of rings (size 3 to 8) (size 9 to 14) (size 15 to 20)
#    0.000    2.000    0.000    4.200    0.000   12.000 
#    0.000    8.000    0.000    0.000    0.000    0.000 
#    0.000    0.000    0.000    0.000    0.000    0.000 
#
# Total GULP energy -111406.750180 kJ/mol
# GULP energy per Si atom -5570.337509 kJ/mol
# Density = 1.026465 g / cm^3
# Si number density = 10.288066 Si / 1000 Ang^3
#
#
#
# Elastic Constant Matrix: (Units=GPa)
#
#
# Indices 1 2 3 4 5 6 
#
# 1 148.7926 65.4757 57.2706 -0.0020 15.3840 0.0037
# 2 65.4757 75.7526 34.5904 -0.0142 6.2970 0.0153
# 3 57.2706 34.5904 61.5048 -0.0125 9.5387 0.0328
# 4 -0.0020 -0.0142 -0.0125 36.9115 0.0095 13.9028
# 5 15.3840 6.2970 9.5387 0.0095 35.1513 -0.0085
# 6 0.0037 0.0153 0.0328 13.9028 -0.0085 31.4912
#
#
#
# Elastic Compliance Matrix: (Units=1/GPa)
#
#
# Indices 1 2 3 4 5 6 
#
# 1 0.013377 -0.007865 -0.007666 -0.000009 -0.002365 0.000014
# 2 -0.007865 0.022395 -0.005411 0.000009 0.000899 -0.000008
# 3 -0.007666 -0.005411 0.026901 0.000020 -0.002976 -0.000034
# 4 -0.000009 0.000009 0.000020 0.032495 -0.000015 -0.014346
# 5 -0.002365 0.000899 -0.002976 -0.000015 0.030130 0.000018
# 6 0.000014 -0.000008 -0.000034 -0.014346 0.000018 0.038088
#
#
# Mechanical properties :
#
#
# Convention : Reuss Voigt Hill
#
# Bulk Modulus (GPa) = 48.09978 66.74707 57.42343
# Shear Modulus (GPa) = 23.56260 29.29167 26.42714
#
# Velocity S-wave (km/s) = 3.38767 3.77712 3.58768
# Velocity P-wave (km/s) = 6.22326 7.17856 6.71791
#
# Compressibility (1/GPa) = 0.02079012
#
# Stress axis : x y z
#
# Youngs Moduli (GPa) = 74.75539 44.65292 37.17268
#
# Poissons Ratio (x) = 0.35120 0.28496
# Poissons Ratio (y) = 0.58796 0.20113
# Poissons Ratio (z) = 0.57306 0.24160
#
# Static dielectric constant tensor:
#      x y z
#    x 1.761500 -0.000010 -0.007540 
#    y -0.000010 1.741200 0.000010 
#    z -0.007540 0.000010 1.771900 
# 
# From -- ./inp_files/199686.got.cif
#   From: 2010.05.17/outbox.ucp.g08.bks.cvg/sg15_100_cif.got.tgz:199686.got - 2010.06.11 12:40:34.
