data_PCOD9309676
_publ_section_title
;
Structure prediction by ZEFSAII (Michael W. Deem and Ramdas Pophale) SiO2 
 PCOD9309676
Probable space group: C 2/C
;
_chemical_formula_sum "Si O2"
_cell_formula_units_Z 28
_cell_length_a 15.000000
_cell_length_b 18.000000
_cell_length_c 12.000000
_cell_angle_alpha 90.000000
_cell_angle_beta 120.000000
_cell_angle_gamma 90.000000
_cell_volume 2805.922308
_symmetry_space_group_name_H-M "C 2/C"
_symmetry_group_IT_number 15
_symmetry_cell_setting 'monoclinic'
loop_
_space_group_symop_operation_xyz
x,y,z
-x,y,1/2-z
-x,-y,-z
x,-y,1/2+z
1/2+x,1/2+y,z
1/2-x,1/2+y,1/2-z
1/2-x,1/2-y,-z
1/2+x,1/2-y,1/2+z
loop_
_atom_site_type_symbol
_atom_site_label
_atom_site_fract_x
_atom_site_fract_y
_atom_site_fract_z
Si Si1 0.987693 0.650716 0.958912
Si Si2 0.249374 0.176245 0.226694
Si Si3 0.925104 0.202269 0.544792
Si Si4 0.702840 0.082307 0.778621
Si Si5 0.415353 0.066717 0.289697
Si Si6 0.349370 0.328734 0.242807
Si Si7 0.209393 0.668915 0.003715
O O1 0.898157 0.627696 0.821203
O O2 0.026168 0.582402 0.058449
O O3 0.087447 0.675521 0.952420
O O4 0.947084 0.713404 0.018913
O O5 0.346904 0.139706 0.225870
O O6 0.281681 0.262477 0.253462
O O7 0.244253 0.145276 0.348122
O O8 0.145278 0.167395 0.094483
O O9 0.864727 0.191461 0.623074
O O10 0.037848 0.169073 0.633430
O O11 0.787954 0.098151 0.738154
O O12 0.666391 0.998482 0.758053
O O13 0.733216 0.112729 0.918838
O O14 0.500000 0.052399 0.250000
O O15 0.250000 0.750000 0.000000
#
# Coordination Sequence:
#
# PCOD9309676 Si02
#       7
#     8   8   8   8   8   8   8
#     4  11  21  37  64  94 131 162 212 268 329 379
#     4  11  22  39  63  93 125 169 212 268 319 379
#     4  11  21  39  66  96 120 161 218 276 319 368
#     4  12  24  39  59  94 131 176 207 263 329 388
#     4  11  24  40  61  97 135 163 210 264 330 390
#     4  11  22  39  64  93 126 162 217 265 319 385
#     4  11  20  38  59  91 133 168 218 256 315 393
#
# _framework density 9.9788940000000004
#
# number of rings (size 3 to 8) (size 9 to 14) (size 15 to 20)
#    0.000    0.857    5.714    3.000    2.000    1.143 
#    0.000    1.429    0.000    0.000    0.000    0.000 
#    0.000    0.000    0.000    0.000    0.000    0.000 
#
# Total GULP energy -156312.943753 kJ/mol
# GULP energy per Si atom -5582.605134 kJ/mol
# Density = 0.995618 g / cm^3
# Si number density = 9.978894 Si / 1000 Ang^3
#
#
#
# Elastic Constant Matrix: (Units=GPa)
#
#
# Indices 1 2 3 4 5 6 
#
# 1 12.4496 3.9172 14.0605 0.0000 -8.0900 0.0000
# 2 3.9172 47.4110 5.1469 0.0000 -1.3581 0.0000
# 3 14.0605 5.1469 103.2613 0.0000 16.2535 0.0000
# 4 0.0000 0.0000 0.0000 20.6394 0.0000 9.8110
# 5 -8.0900 -1.3581 16.2535 0.0000 23.7582 0.0000
# 6 0.0000 0.0000 0.0000 9.8110 0.0000 27.4176
#
#
#
# Elastic Compliance Matrix: (Units=1/GPa)
#
#
# Indices 1 2 3 4 5 6 
#
# 1 0.184227 -0.008489 -0.038618 0.000000 0.088666 0.000000
# 2 -0.008489 0.021698 0.000374 0.000000 -0.001906 0.000000
# 3 -0.038618 0.000374 0.019041 0.000000 -0.026155 0.000000
# 4 0.000000 0.000000 0.000000 0.058382 0.000000 -0.020891
# 5 0.088666 -0.001906 -0.026155 0.000000 0.090067 0.000000
# 6 0.000000 0.000000 0.000000 -0.020891 0.000000 0.043948
#
#
# Mechanical properties :
#
#
# Convention : Reuss Voigt Hill
#
# Bulk Modulus (GPa) = 7.60451 23.26346 15.43399
# Shear Modulus (GPa) = 9.01449 23.69618 16.35533
#
# Velocity S-wave (km/s) = 2.12758 3.44948 2.86579
# Velocity P-wave (km/s) = 3.13911 5.24851 4.32440
#
# Compressibility (1/GPa) = 0.13150083
#
# Stress axis : x y z
#
# Youngs Moduli (GPa) = 5.42808 46.08667 52.51891
#
# Poissons Ratio (x) = 0.39122 2.02819
# Poissons Ratio (y) = 0.04608 -0.01966
# Poissons Ratio (z) = 0.20962 -0.01726
#
# Static dielectric constant tensor:
#      x y z
#    x 1.703840 0.000000 -0.009190 
#    y 0.000000 1.708590 0.000000 
#    z -0.009190 0.000000 1.718720 
# 
# From -- ./inp_files/98836.got.cif
#   From: 2010.05.17/outbox.ucp.g08.bks.cvg/sg15_50_cif.got.tgz:98836.got - 2010.06.11 12:40:34.
