data_PCOD9309534
_publ_section_title
;
Structure prediction by ZEFSAII (Michael W. Deem and Ramdas Pophale) SiO2 
 PCOD9309534
Probable space group: C 2/C
;
_chemical_formula_sum "Si O2"
_cell_formula_units_Z 24
_cell_length_a 12.000000
_cell_length_b 15.000000
_cell_length_c 27.000000
_cell_angle_alpha 90.000000
_cell_angle_beta 30.000000
_cell_angle_gamma 90.000000
_cell_volume 2430.000000
_symmetry_space_group_name_H-M "C 2/C"
_symmetry_group_IT_number 15
_symmetry_cell_setting 'monoclinic'
loop_
_space_group_symop_operation_xyz
x,y,z
-x,y,1/2-z
-x,-y,-z
x,-y,1/2+z
1/2+x,1/2+y,z
1/2-x,1/2+y,1/2-z
1/2-x,1/2-y,-z
1/2+x,1/2-y,1/2+z
loop_
_atom_site_type_symbol
_atom_site_label
_atom_site_fract_x
_atom_site_fract_y
_atom_site_fract_z
Si Si1 0.144451 0.496564 0.644160
Si Si2 0.743781 0.372873 0.177708
Si Si3 0.969287 0.207092 0.146911
Si Si4 0.582419 0.827790 0.961593
Si Si5 0.964177 0.143448 0.490477
Si Si6 0.337783 0.930175 0.673920
O O1 0.243400 0.593581 0.593707
O O2 0.341804 0.428591 0.580528
O O3 0.000000 0.500551 0.750000
O O4 0.032701 0.459993 0.636720
O O5 0.500000 0.344496 0.250000
O O6 0.844926 0.300739 0.178827
O O7 0.721967 0.473923 0.206785
O O8 0.922711 0.375908 0.063389
O O9 0.800985 0.140002 0.239467
O O10 0.183773 0.199010 0.100983
O O11 0.047129 0.171811 0.062857
O O12 0.608217 0.881895 0.900064
O O13 0.479231 0.728492 0.997062
#
# Coordination Sequence:
#
# PCOD9309534 Si02
#       6
#     8   8   8   8   8   8
#     4  11  23  43  67  98 136 178 226 282 336 400
#     4  11  25  44  69  99 137 181 224 275 339 400
#     4  11  23  44  70  96 137 179 223 274 344 399
#     4  11  24  43  67  97 138 173 228 276 341 400
#     4  10  23  42  68  96 133 181 225 276 340 399
#     4  12  25  42  71  99 138 174 230 281 335 402
#
# _framework density 9.8765429999999999
#
# number of rings (size 3 to 8) (size 9 to 14) (size 15 to 20)
#    0.000    1.000    1.667    6.000    4.667    4.667 
#    0.000    0.000    0.000    0.000    0.000    0.000 
#    0.000    0.000    0.000    0.000    0.000    0.000 
#
# Total GULP energy -133882.841878 kJ/mol
# GULP energy per Si atom -5578.451745 kJ/mol
# Density = 0.985406 g / cm^3
# Si number density = 9.876543 Si / 1000 Ang^3
#
#
#
# Elastic Constant Matrix: (Units=GPa)
#
#
# Indices 1 2 3 4 5 6 
#
# 1 118.5760 35.2654 38.7020 -0.0008 16.6314 0.0004
# 2 35.2654 131.4108 47.1827 -0.0020 24.5619 0.0042
# 3 38.7020 47.1827 87.8121 -0.0193 10.4342 -0.0005
# 4 -0.0008 -0.0020 -0.0193 32.8898 0.0017 5.6928
# 5 16.6314 24.5619 10.4342 0.0017 26.3612 0.0026
# 6 0.0004 0.0042 -0.0005 5.6928 0.0026 32.0700
#
#
#
# Elastic Compliance Matrix: (Units=1/GPa)
#
#
# Indices 1 2 3 4 5 6 
#
# 1 0.010478 -0.000616 -0.003746 -0.000002 -0.004554 0.000001
# 2 -0.000616 0.010935 -0.004659 -0.000002 -0.007956 -0.000001
# 3 -0.003746 -0.004659 0.015473 0.000009 0.000580 -0.000001
# 4 -0.000002 -0.000002 0.000009 0.031368 -0.000002 -0.005568
# 5 -0.004554 -0.007956 0.000580 -0.000002 0.047991 -0.000002
# 6 0.000001 -0.000001 -0.000001 -0.005568 -0.000002 0.032170
#
#
# Mechanical properties :
#
#
# Convention : Reuss Voigt Hill
#
# Bulk Modulus (GPa) = 53.06402 64.45546 58.75974
# Shear Modulus (GPa) = 28.94552 32.70745 30.82648
#
# Velocity S-wave (km/s) = 3.83216 4.07358 3.95472
# Velocity P-wave (km/s) = 6.81928 7.40452 7.11792
#
# Compressibility (1/GPa) = 0.01884516
#
# Stress axis : x y z
#
# Youngs Moduli (GPa) = 95.43844 91.45237 64.62744
#
# Poissons Ratio (x) = 0.05630 0.24210
# Poissons Ratio (y) = 0.05875 0.30108
# Poissons Ratio (z) = 0.35752 0.42605
#
# Static dielectric constant tensor:
#      x y z
#    x 1.705490 0.000000 -0.051450 
#    y 0.000000 1.743510 0.000000 
#    z -0.051450 0.000000 1.716770 
# 
# From -- ./inp_files/182409.got.cif
#   From: 2010.05.17/outbox.ucp.g08.bks.cvg/sg15_92_cif.got.tgz:182409.got - 2010.06.11 12:40:34.
