data_PCOD9309472
_publ_section_title
;
Structure prediction by ZEFSAII (Michael W. Deem and Ramdas Pophale) SiO2 
 PCOD9309472
Probable space group: C 2/C
;
_chemical_formula_sum "Si O2"
_cell_formula_units_Z 32
_cell_length_a 9.000000
_cell_length_b 15.000000
_cell_length_c 30.000000
_cell_angle_alpha 90.000000
_cell_angle_beta 130.000000
_cell_angle_gamma 90.000000
_cell_volume 3102.479995
_symmetry_space_group_name_H-M "C 2/C"
_symmetry_group_IT_number 15
_symmetry_cell_setting 'monoclinic'
loop_
_space_group_symop_operation_xyz
x,y,z
-x,y,1/2-z
-x,-y,-z
x,-y,1/2+z
1/2+x,1/2+y,z
1/2-x,1/2+y,1/2-z
1/2-x,1/2-y,-z
1/2+x,1/2-y,1/2+z
loop_
_atom_site_type_symbol
_atom_site_label
_atom_site_fract_x
_atom_site_fract_y
_atom_site_fract_z
Si Si1 0.185953 0.510286 0.469943
Si Si2 0.375898 0.148610 0.902728
Si Si3 0.352523 0.237155 0.804210
Si Si4 0.766891 0.565532 0.205259
Si Si5 0.886689 0.016385 0.418723
Si Si6 0.075389 0.877723 0.191087
Si Si7 0.930811 0.303516 0.513750
Si Si8 0.284550 0.313424 0.375273
O O1 0.277943 0.548744 0.441960
O O2 0.380532 0.476433 0.532635
O O3 0.088882 0.592238 0.477180
O O4 0.033075 0.431548 0.431175
O O5 0.385667 0.214876 0.862727
O O6 0.156547 0.110826 0.855686
O O7 0.414490 0.198172 0.957078
O O8 0.303655 0.341062 0.787631
O O9 0.177661 0.177670 0.750364
O O10 0.558441 0.206622 0.823776
O O11 0.692784 0.563505 0.140162
O O12 0.677307 0.474950 0.208723
O O13 0.000000 0.560909 0.250000
O O14 0.828865 0.911463 0.403988
O O15 0.119969 0.820861 0.154954
O O16 0.750000 0.250000 0.500000
O O17 0.117986 0.258407 0.572868
#
# Coordination Sequence:
#
# PCOD9309472 Si02
#       8
#     8   8   8   8   8   8   8   8
#     4  11  24  41  68  98 141 177 225 275 345 408
#     4  12  26  43  69 101 143 177 225 288 346 407
#     4  12  27  46  70 103 134 180 239 288 334 414
#     4  11  25  43  73  95 133 183 230 283 348 406
#     4  10  22  44  66  99 134 182 222 276 341 410
#     4  11  24  49  69  97 140 182 226 289 347 412
#     4  12  24  41  66 103 139 181 220 280 347 412
#     4  11  23  45  70  98 136 182 228 279 347 409
#
# _framework density 10.314329000000001
#
# number of rings (size 3 to 8) (size 9 to 14) (size 15 to 20)
#    0.000    0.750    3.750    4.125    5.250    1.500 
#    0.000    1.250    0.000    0.000    0.000    0.000 
#    0.000    0.000    0.000    0.000    0.000    0.000 
#
# Total GULP energy -178957.363137 kJ/mol
# GULP energy per Si atom -5592.417598 kJ/mol
# Density = 1.029085 g / cm^3
# Si number density = 10.314329 Si / 1000 Ang^3
#
#
#
# Elastic Constant Matrix: (Units=GPa)
#
#
# Indices 1 2 3 4 5 6 
#
# 1 71.0533 19.7638 34.8298 0.0000 25.2050 0.0000
# 2 19.7638 86.6517 42.1448 0.0000 12.0198 0.0000
# 3 34.8298 42.1448 133.5788 0.0000 16.4389 0.0000
# 4 0.0000 0.0000 0.0000 31.2753 0.0000 4.3693
# 5 25.2050 12.0198 16.4389 0.0000 59.1804 0.0000
# 6 0.0000 0.0000 0.0000 4.3693 0.0000 13.2507
#
#
#
# Elastic Compliance Matrix: (Units=1/GPa)
#
#
# Indices 1 2 3 4 5 6 
#
# 1 0.018597 -0.001608 -0.003528 0.000000 -0.006614 0.000000
# 2 -0.001608 0.013925 -0.003842 0.000000 -0.001076 0.000000
# 3 -0.003528 -0.003842 0.009668 0.000000 -0.000403 0.000000
# 4 0.000000 0.000000 0.000000 0.033518 0.000000 -0.011052
# 5 -0.006614 -0.001076 -0.000403 0.000000 0.020045 0.000000
# 6 0.000000 0.000000 0.000000 -0.011052 0.000000 0.079112
#
#
# Mechanical properties :
#
#
# Convention : Reuss Voigt Hill
#
# Bulk Modulus (GPa) = 41.26420 53.86227 47.56323
# Shear Modulus (GPa) = 24.88828 33.71097 29.29963
#
# Velocity S-wave (km/s) = 3.47723 4.04689 3.77282
# Velocity P-wave (km/s) = 6.01400 6.92845 6.48736
#
# Compressibility (1/GPa) = 0.02423408
#
# Stress axis : x y z
#
# Youngs Moduli (GPa) = 53.77312 71.81317 103.43820
#
# Poissons Ratio (x) = 0.11551 0.36488
# Poissons Ratio (y) = 0.08649 0.39737
# Poissons Ratio (z) = 0.18969 0.27588
#
# Static dielectric constant tensor:
#      x y z
#    x 1.781940 0.000000 -0.030610 
#    y 0.000000 1.706760 0.000000 
#    z -0.030610 0.000000 1.719330 
# 
# From -- ./inp_files/308273.got.cif
#   From: 2010.05.17/outbox.ucp.g08.bks.cvg/sg15_155_cif.got.tgz:308273.got - 2010.06.11 12:40:34.
