data_PCOD9309850
_publ_section_title
;
Structure prediction by ZEFSAII (Michael W. Deem and Ramdas Pophale) SiO2 
 PCOD9309850
Probable space group: C 2/C
;
_chemical_formula_sum "Si O2"
_cell_formula_units_Z 28
_cell_length_a 21.000000
_cell_length_b 6.000000
_cell_length_c 24.000000
_cell_angle_alpha 90.000000
_cell_angle_beta 70.000000
_cell_angle_gamma 90.000000
_cell_volume 2841.630485
_symmetry_space_group_name_H-M "C 2/C"
_symmetry_group_IT_number 15
_symmetry_cell_setting 'monoclinic'
loop_
_space_group_symop_operation_xyz
x,y,z
-x,y,1/2-z
-x,-y,-z
x,-y,1/2+z
1/2+x,1/2+y,z
1/2-x,1/2+y,1/2-z
1/2-x,1/2-y,-z
1/2+x,1/2-y,1/2+z
loop_
_atom_site_type_symbol
_atom_site_label
_atom_site_fract_x
_atom_site_fract_y
_atom_site_fract_z
Si Si1 0.892427 0.123418 0.642249
Si Si2 0.766372 0.167876 0.159443
Si Si3 0.036519 0.746431 0.488079
Si Si4 0.020236 0.800398 0.807544
Si Si5 0.884078 0.730556 0.919733
Si Si6 0.339565 0.978204 0.228152
Si Si7 0.805629 0.231854 0.933648
O O1 0.927547 0.256596 0.582452
O O2 0.854745 0.283833 0.696406
O O3 0.835285 0.971544 0.629975
O O4 0.948181 0.989395 0.661417
O O5 0.706615 0.016665 0.203883
O O6 0.793199 0.341464 0.198173
O O7 0.735289 0.269104 0.112652
O O8 0.086419 0.742083 0.526252
O O9 0.000000 0.500000 0.500000
O O10 0.000000 0.000000 0.500000
O O11 0.086161 0.634034 0.784386
O O12 0.000000 0.864267 0.750000
O O13 0.950236 0.723825 0.858750
O O14 0.846019 0.481021 0.924109
O O15 0.845287 0.981801 0.924116
O O16 0.750000 0.250000 0.000000
#
# Coordination Sequence:
#
# PCOD9309850 Si02
#       7
#     8   8   8   8   8   8   8
#     4  11  25  43  72 102 140 187 244 298 358 434
#     4  11  25  45  72 103 143 195 245 301 361 435
#     4  12  25  46  74 104 147 185 242 297 357 433
#     4  11  26  44  70 106 145 189 238 303 371 430
#     4  12  27  48  74 110 146 192 241 297 372 430
#     4  11  24  43  70 104 141 190 251 299 363 435
#     4  12  29  48  75 106 151 192 242 301 367 436
#
# _framework density 9.8534980000000001
#
# number of rings (size 3 to 8) (size 9 to 14) (size 15 to 20)
#    0.000    0.571    2.857    3.857   10.000    0.571 
#    0.000    0.000    0.000    0.000    0.000    0.000 
#    0.000    0.000    0.000    0.000    0.000    0.000 
#
# Total GULP energy -155975.340949 kJ/mol
# GULP energy per Si atom -5570.547891 kJ/mol
# Density = 0.983107 g / cm^3
# Si number density = 9.853498 Si / 1000 Ang^3
#
#
#
# Elastic Constant Matrix: (Units=GPa)
#
#
# Indices 1 2 3 4 5 6 
#
# 1 146.3512 62.2526 63.7412 0.0006 11.7248 0.0027
# 2 62.2526 124.5013 21.8330 0.0032 -2.5499 0.0086
# 3 63.7412 21.8330 122.3841 -0.0002 -0.1698 0.0018
# 4 0.0006 0.0032 -0.0002 43.0925 -0.0003 -4.7332
# 5 11.7248 -2.5499 -0.1698 -0.0003 53.0225 0.0008
# 6 0.0027 0.0086 0.0018 -4.7332 0.0008 43.1956
#
#
#
# Elastic Compliance Matrix: (Units=1/GPa)
#
#
# Indices 1 2 3 4 5 6 
#
# 1 0.011292 -0.004821 -0.005025 0.000000 -0.002745 0.000001
# 2 -0.004821 0.010358 0.000665 -0.000001 0.001566 -0.000002
# 3 -0.005025 0.000665 0.010671 0.000000 0.001177 0.000000
# 4 0.000000 -0.000001 0.000000 0.023489 0.000000 0.002574
# 5 -0.002745 0.001566 0.001177 0.000000 0.019546 -0.000001
# 6 0.000001 -0.000002 0.000000 0.002574 -0.000001 0.023433
#
#
# Mechanical properties :
#
#
# Convention : Reuss Voigt Hill
#
# Bulk Modulus (GPa) = 71.63526 76.54336 74.08931
# Shear Modulus (GPa) = 41.04973 44.22279 42.63626
#
# Velocity S-wave (km/s) = 4.56894 4.74224 4.65640
# Velocity P-wave (km/s) = 8.01640 8.30122 8.16005
#
# Compressibility (1/GPa) = 0.01395961
#
# Stress axis : x y z
#
# Youngs Moduli (GPa) = 88.55714 96.54225 93.71118
#
# Poissons Ratio (x) = 0.46546 0.47090
# Poissons Ratio (y) = 0.42696 -0.06235
# Poissons Ratio (z) = 0.44500 -0.06424
#
# Static dielectric constant tensor:
#      x y z
#    x 1.696240 0.000000 -0.024200 
#    y 0.000000 1.766030 0.000010 
#    z -0.024200 0.000010 1.702870 
# 
# From -- ./inp_files/278903.got.cif
#   From: 2010.05.17/outbox.ucp.g08.bks.cvg/sg15_140_cif.got.tgz:278903.got - 2010.06.11 12:40:34.
