data_PCOD9309745
_publ_section_title
;
Structure prediction by ZEFSAII (Michael W. Deem and Ramdas Pophale) SiO2 
 PCOD9309745
Probable space group: C 2/C
;
_chemical_formula_sum "Si O2"
_cell_formula_units_Z 22
_cell_length_a 18.000000
_cell_length_b 9.000000
_cell_length_c 18.000000
_cell_angle_alpha 90.000000
_cell_angle_beta 50.000000
_cell_angle_gamma 90.000000
_cell_volume 2233.785596
_symmetry_space_group_name_H-M "C 2/C"
_symmetry_group_IT_number 15
_symmetry_cell_setting 'monoclinic'
loop_
_space_group_symop_operation_xyz
x,y,z
-x,y,1/2-z
-x,-y,-z
x,-y,1/2+z
1/2+x,1/2+y,z
1/2-x,1/2+y,1/2-z
1/2-x,1/2-y,-z
1/2+x,1/2-y,1/2+z
loop_
_atom_site_type_symbol
_atom_site_label
_atom_site_fract_x
_atom_site_fract_y
_atom_site_fract_z
Si Si1 0.355949 0.486732 0.422321
Si Si2 0.000000 0.779363 0.250000
Si Si3 0.163757 0.533633 0.136598
Si Si4 0.154902 0.329630 0.286820
Si Si5 0.421710 0.186456 0.934868
Si Si6 0.733281 0.058149 0.353943
O O1 0.451370 0.385064 0.345094
O O2 0.269453 0.426907 0.532528
O O3 0.387441 0.649178 0.431808
O O4 0.304474 0.511183 0.375466
O O5 0.092168 0.669415 0.204864
O O6 0.175704 0.430968 0.200934
O O7 0.109227 0.432107 0.109291
O O8 0.208782 0.174240 0.235453
O O9 0.197593 0.417055 0.329919
O O10 0.038032 0.313964 0.369473
O O11 0.359567 0.137369 0.047050
#
# Coordination Sequence:
#
# PCOD9309745 Si02
#       6
#     8   4   8   8   8   8
#     4  11  23  44  69  96 128 179 227 263 321 404
#     4  12  24  36  66 104 126 158 222 288 312 368
#     4  11  22  42  68  93 131 169 228 272 319 388
#     4  12  23  42  65  97 134 170 215 278 338 384
#     4  11  21  46  71  90 123 186 232 253 317 420
#     4  11  25  41  65  97 134 173 212 279 337 387
#
# _framework density 9.8487519999999993
#
# number of rings (size 3 to 8) (size 9 to 14) (size 15 to 20)
#    0.000    0.727    5.455    3.273    2.545    0.000 
#    0.000    0.909    0.000    0.000    0.000    0.000 
#    0.000    0.000    0.000    0.000    0.000    0.000 
#
# Total GULP energy -123008.600899 kJ/mol
# GULP energy per Si atom -5591.300041 kJ/mol
# Density = 0.982634 g / cm^3
# Si number density = 9.848752 Si / 1000 Ang^3
#
#
#
# Elastic Constant Matrix: (Units=GPa)
#
#
# Indices 1 2 3 4 5 6 
#
# 1 79.8689 24.7911 44.4898 0.0000 -5.9308 0.0000
# 2 24.7911 77.7597 38.2145 0.0000 -11.2801 0.0000
# 3 44.4898 38.2145 136.3986 0.0000 -35.0912 0.0000
# 4 0.0000 0.0000 0.0000 52.9764 0.0000 -6.4517
# 5 -5.9308 -11.2801 -35.0912 0.0000 35.9162 0.0000
# 6 0.0000 0.0000 0.0000 -6.4517 0.0000 41.5736
#
#
#
# Elastic Compliance Matrix: (Units=1/GPa)
#
#
# Indices 1 2 3 4 5 6 
#
# 1 0.016169 -0.003048 -0.005316 0.000000 -0.003481 0.000000
# 2 -0.003048 0.015505 -0.002974 0.000000 0.001460 0.000000
# 3 -0.005316 -0.002974 0.012599 0.000000 0.010498 0.000000
# 4 0.000000 0.000000 0.000000 0.019240 0.000000 0.002986
# 5 -0.003481 0.001460 0.010498 0.000000 0.037984 0.000000
# 6 0.000000 0.000000 0.000000 0.002986 0.000000 0.024517
#
#
# Mechanical properties :
#
#
# Convention : Reuss Voigt Hill
#
# Bulk Modulus (GPa) = 46.29878 56.55756 51.42817
# Shear Modulus (GPa) = 32.07415 38.52869 35.30142
#
# Velocity S-wave (km/s) = 4.03964 4.42749 4.23800
# Velocity P-wave (km/s) = 6.73158 7.41028 7.07907
#
# Compressibility (1/GPa) = 0.02159884
#
# Stress axis : x y z
#
# Youngs Moduli (GPa) = 61.84688 64.49401 79.36876
#
# Poissons Ratio (x) = 0.19655 0.42189
# Poissons Ratio (y) = 0.18848 0.23607
# Poissons Ratio (z) = 0.32875 0.19183
#
# Static dielectric constant tensor:
#      x y z
#    x 1.675670 0.000000 -0.004320 
#    y 0.000000 1.709700 0.000000 
#    z -0.004320 0.000000 1.688070 
# 
# From -- ./inp_files/159201.got.cif
#   From: 2010.05.17/outbox.ucp.g08.bks.cvg/sg15_80_cif.got.tgz:159201.got - 2010.06.11 12:40:34.
