data_PCOD9309954
_publ_section_title
;
Structure prediction by ZEFSAII (Michael W. Deem and Ramdas Pophale) SiO2 
 PCOD9309954
Probable space group: P 2 2 2
;
_chemical_formula_sum "Si O2"
_cell_formula_units_Z 32
_cell_length_a 13.148295
_cell_length_b 15.094521
_cell_length_c 7.599763
_cell_angle_alpha 90.000000
_cell_angle_beta 90.000000
_cell_angle_gamma 90.000000
_cell_volume 1508.303797
_symmetry_space_group_name_H-M "P 2 2 2"
_symmetry_group_IT_number 16
_symmetry_cell_setting 'orthorhombic'
loop_
_space_group_symop_operation_xyz
x,y,z
-x,-y,z
x,-y,-z
-x,y,-z
loop_
_atom_site_type_symbol
_atom_site_label
_atom_site_fract_x
_atom_site_fract_y
_atom_site_fract_z
Si Si1 0.108662 0.186981 0.776802
Si Si2 0.114907 0.198377 0.197733
Si Si3 0.602273 0.963240 0.300990
Si Si4 0.516209 0.768490 0.300209
Si Si5 0.308041 0.295069 0.686426
Si Si6 0.701754 0.669500 0.267011
Si Si7 0.172901 0.995361 0.797126
Si Si8 0.617974 0.512121 0.713539
O O1 0.200480 0.251467 0.728162
O O2 0.131047 0.086034 0.713279
O O3 0.996345 0.220268 0.726935
O O4 0.108277 0.184306 0.988573
O O5 0.200878 0.273120 0.215338
O O6 0.142826 0.101321 0.275156
O O7 0.577968 0.859525 0.312541
O O8 0.500000 0.000000 0.215255
O O9 0.609031 0.000000 0.500000
O O10 0.704988 0.992525 0.209831
O O11 0.500000 0.733345 0.500000
O O12 0.398443 0.770716 0.245901
O O13 0.593420 0.706520 0.196529
O O14 0.303967 0.312057 0.476666
O O15 0.338845 0.391388 0.760560
O O16 0.693994 0.565833 0.226206
O O17 0.138848 0.000000 0.000000
O O18 0.500000 0.500000 0.770675
O O19 0.615088 0.500000 0.500000
#
# Coordination Sequence:
#
# PCOD9309954 Si02
#       8
#     4   4   4   4   4   4   4   4
#     4  10  22  38  57  77 105 143 185 226 268 313
#     4  10  21  40  57  75 105 146 184 222 269 320
#     4  11  20  30  47  74 114 146 175 208 263 322
#     4  10  17  30  51  79 110 145 170 210 264 320
#     4  10  20  34  57  86 110 136 181 223 265 319
#     4  10  19  33  59  83 108 139 179 218 267 318
#     4  10  21  36  54  75 102 139 185 226 262 309
#     4   9  16  32  56  85 112 140 172 217 267 322
#
# _framework density 21.215883999999999
#
# number of rings (size 3 to 8) (size 9 to 14) (size 15 to 20)
#    0.000    2.000    3.750    1.125    1.750    2.250 
#    0.000    1.875    0.000    6.750    0.000    0.000 
#    0.000    0.000    0.000    0.000    0.000    0.000 
#
# Total GULP energy -178364.240995 kJ/mol
# GULP energy per Si atom -5573.882531 kJ/mol
# Density = 2.116760 g / cm^3
# Si number density = 21.215884 Si / 1000 Ang^3
#
#
#
# Elastic Constant Matrix: (Units=GPa)
#
#
# Indices 1 2 3 4 5 6 
#
# 1 145.0231 47.2842 -9.1070 0.0000 0.0000 0.0000
# 2 47.2842 111.0562 -1.9199 0.0000 0.0000 0.0000
# 3 -9.1070 -1.9199 32.9731 0.0000 0.0000 0.0000
# 4 0.0000 0.0000 0.0000 12.9687 0.0000 0.0000
# 5 0.0000 0.0000 0.0000 0.0000 33.0195 0.0000
# 6 0.0000 0.0000 0.0000 0.0000 0.0000 0.2118
#
#
#
# Elastic Compliance Matrix: (Units=1/GPa)
#
#
# Indices 1 2 3 4 5 6 
#
# 1 0.008143 -0.003432 0.002049 0.000000 0.000000 0.000000
# 2 -0.003432 0.010460 -0.000339 0.000000 0.000000 0.000000
# 3 0.002049 -0.000339 0.030874 0.000000 0.000000 0.000000
# 4 0.000000 0.000000 0.000000 0.077109 0.000000 0.000000
# 5 0.000000 0.000000 0.000000 0.000000 0.030285 0.000000
# 6 0.000000 0.000000 0.000000 0.000000 0.000000 4.722214
#
#
# Mechanical properties :
#
#
# Convention : Reuss Voigt Hill
#
# Bulk Modulus (GPa) = 21.72289 40.17412 30.94850
# Shear Modulus (GPa) = 1.02085 26.09301 13.55693
#
# Velocity S-wave (km/s) = 0.69442 3.51077 2.53059
# Velocity P-wave (km/s) = 3.30214 5.95071 4.81223
#
# Compressibility (1/GPa) = 0.04603439
#
# Stress axis : x y z
#
# Youngs Moduli (GPa) = 122.80487 95.60539 32.38973
#
# Poissons Ratio (x) = 0.32808 -0.06637
# Poissons Ratio (y) = 0.42142 0.01097
# Poissons Ratio (z) = -0.25166 0.03239
#
# Static dielectric constant tensor:
#      x y z
#    x 1.861210 0.000000 0.000000 
#    y 0.000000 1.817460 0.000000 
#    z 0.000000 0.000000 1.854200 
# 
# From -- ./inp_files/4839.got.cif
#   From: 2010.05.17/outbox.cif.g08.bks.cpg/sg16_3_cif.got.tgz:4839.got - 2010.06.03 22:28:35.
