data_PCOD9309838
_publ_section_title
;
Structure prediction by ZEFSAII (Michael W. Deem and Ramdas Pophale) SiO2 
 PCOD9309838
Probable space group: C 2/C
;
_chemical_formula_sum "Si O2"
_cell_formula_units_Z 24
_cell_length_a 21.000000
_cell_length_b 12.000000
_cell_length_c 27.000000
_cell_angle_alpha 90.000000
_cell_angle_beta 160.000000
_cell_angle_gamma 90.000000
_cell_volume 2327.105055
_symmetry_space_group_name_H-M "C 2/C"
_symmetry_group_IT_number 15
_symmetry_cell_setting 'monoclinic'
loop_
_space_group_symop_operation_xyz
x,y,z
-x,y,1/2-z
-x,-y,-z
x,-y,1/2+z
1/2+x,1/2+y,z
1/2-x,1/2+y,1/2-z
1/2-x,1/2-y,-z
1/2+x,1/2-y,1/2+z
loop_
_atom_site_type_symbol
_atom_site_label
_atom_site_fract_x
_atom_site_fract_y
_atom_site_fract_z
Si Si1 0.452217 0.582513 0.062493
Si Si2 0.372098 0.484744 0.705786
Si Si3 0.008945 0.671050 0.939514
Si Si4 0.329890 0.100507 0.163783
Si Si5 0.390348 0.190757 0.966209
Si Si6 0.691124 0.954744 0.739466
O O1 0.518492 0.540117 0.164101
O O2 0.453199 0.715518 0.061669
O O3 0.595908 0.550011 0.123220
O O4 0.259432 0.518978 0.913743
O O5 0.500000 0.479328 0.750000
O O6 0.202484 0.396565 0.582596
O O7 0.275723 0.605113 0.642226
O O8 0.923052 0.701095 0.930915
O O9 0.870877 0.582533 0.813242
O O10 0.500000 0.125256 0.250000
O O11 0.168410 0.196147 0.048301
O O12 0.373779 0.087536 0.254153
O O13 0.577353 0.128143 0.120283
#
# Coordination Sequence:
#
# PCOD9309838 Si02
#       6
#     8   8   8   8   8   8
#     4  12  26  43  74  97 141 183 227 284 334 417
#     4  11  25  45  69 103 136 181 228 278 353 404
#     4  11  24  44  72 101 131 181 233 283 337 411
#     4  12  30  44  68 108 141 177 225 289 355 397
#     4  11  23  46  74  99 135 178 231 290 337 413
#     4  11  24  45  70 100 137 178 233 280 339 415
#
# _framework density 10.313243
#
# number of rings (size 3 to 8) (size 9 to 14) (size 15 to 20)
#    0.000    0.667    5.000    2.000   11.667    2.000 
#    0.000    0.000    0.000    0.000    0.000    0.000 
#    0.000    0.000    0.000    0.000    0.000    0.000 
#
# Total GULP energy -134053.864219 kJ/mol
# GULP energy per Si atom -5585.577676 kJ/mol
# Density = 1.028977 g / cm^3
# Si number density = 10.313243 Si / 1000 Ang^3
#
#
#
# Elastic Constant Matrix: (Units=GPa)
#
#
# Indices 1 2 3 4 5 6 
#
# 1 143.2349 -4.0274 10.2351 0.0115 22.8476 -0.0035
# 2 -4.0274 85.5505 3.8552 0.0112 6.1327 -0.0080
# 3 10.2351 3.8552 20.0287 0.0203 9.2644 -0.0020
# 4 0.0115 0.0112 0.0203 4.6760 -0.0048 9.1988
# 5 22.8476 6.1327 9.2644 -0.0048 39.6266 0.0004
# 6 -0.0035 -0.0080 -0.0020 9.1988 0.0004 26.5729
#
#
#
# Elastic Compliance Matrix: (Units=1/GPa)
#
#
# Indices 1 2 3 4 5 6 
#
# 1 0.007818 0.000763 -0.002245 -0.000056 -0.004101 0.000020
# 2 0.000763 0.011941 -0.001828 -0.000098 -0.001861 0.000038
# 3 -0.002245 -0.001828 0.056846 -0.000802 -0.011713 0.000281
# 4 -0.000056 -0.000098 -0.000802 0.670420 0.000319 -0.232081
# 5 -0.004101 -0.001861 -0.011713 0.000319 0.030626 -0.000113
# 6 0.000020 0.000038 0.000281 -0.232081 -0.000113 0.117972
#
#
# Mechanical properties :
#
#
# Convention : Reuss Voigt Hill
#
# Bulk Modulus (GPa) = 14.28868 29.88220 22.08544
# Shear Modulus (GPa) = 5.40207 30.09186 17.74696
#
# Velocity S-wave (km/s) = 1.62009 3.82369 2.93643
# Velocity P-wave (km/s) = 3.23140 5.83206 4.71460
#
# Compressibility (1/GPa) = 0.06998548
#
# Stress axis : x y z
#
# Youngs Moduli (GPa) = 127.91790 83.74723 17.59135
#
# Poissons Ratio (x) = -0.06391 0.03949
# Poissons Ratio (y) = -0.09762 0.03215
# Poissons Ratio (z) = 0.28717 0.15306
#
# Static dielectric constant tensor:
#      x y z
#    x 1.703260 0.000000 -0.056660 
#    y 0.000000 1.749660 -0.000010 
#    z -0.056660 -0.000010 1.799190 
# 
# From -- ./inp_files/111428.got.cif
#   From: 2010.05.17/outbox.ucp.g08.bks.cvg/sg15_56_cif.got.tgz:111428.got - 2010.06.11 12:40:34.
