data_PCOD9309726
_publ_section_title
;
Structure prediction by ZEFSAII (Michael W. Deem and Ramdas Pophale) SiO2 
 PCOD9309726
Probable space group: C 2/C
;
_chemical_formula_sum "Si O2"
_cell_formula_units_Z 24
_cell_length_a 27.000000
_cell_length_b 12.000000
_cell_length_c 21.000000
_cell_angle_alpha 90.000000
_cell_angle_beta 160.000000
_cell_angle_gamma 90.000000
_cell_volume 2327.105055
_symmetry_space_group_name_H-M "C 2/C"
_symmetry_group_IT_number 15
_symmetry_cell_setting 'monoclinic'
loop_
_space_group_symop_operation_xyz
x,y,z
-x,y,1/2-z
-x,-y,-z
x,-y,1/2+z
1/2+x,1/2+y,z
1/2-x,1/2+y,1/2-z
1/2-x,1/2-y,-z
1/2+x,1/2-y,1/2+z
loop_
_atom_site_type_symbol
_atom_site_label
_atom_site_fract_x
_atom_site_fract_y
_atom_site_fract_z
Si Si1 0.418405 0.084804 0.948443
Si Si2 0.431625 0.506347 0.739591
Si Si3 0.901008 0.846808 0.462012
Si Si4 0.689345 0.881152 0.617659
Si Si5 0.180364 0.350255 0.459969
Si Si6 0.988664 0.164033 0.546227
O O1 0.268231 0.124708 0.735302
O O2 0.376245 0.004473 0.956671
O O3 0.496613 0.201044 0.060058
O O4 0.500000 0.000000 0.000000
O O5 0.500000 0.521864 0.750000
O O6 0.264855 0.460768 0.534937
O O7 0.453548 0.606907 0.818621
O O8 0.517134 0.410096 0.882514
O O9 0.922371 0.714645 0.496270
O O10 0.936976 0.872674 0.431152
O O11 0.731068 0.849137 0.595781
O O12 0.822180 0.871328 0.828675
O O13 0.250000 0.250000 0.500000
O O14 0.000000 0.349470 0.250000
#
# Coordination Sequence:
#
# PCOD9309726 Si02
#       6
#     8   8   8   8   8   8
#     4  11  23  40  69 106 141 177 240 305 358 425
#     4  12  25  45  71 106 151 197 238 300 372 433
#     4  11  21  40  70 101 139 185 241 294 354 432
#     4  11  22  41  70 102 139 184 237 299 352 430
#     4  12  26  44  69 109 151 192 240 301 373 431
#     4  11  23  44  72 101 140 187 247 289 359 435
#
# _framework density 10.313243
#
# number of rings (size 3 to 8) (size 9 to 14) (size 15 to 20)
#    0.000    0.667    5.000    4.000    0.000    1.333 
#    0.000    0.833    0.000   11.000    0.000    0.000 
#    0.000    0.000    0.000    0.000    0.000    0.000 
#
# Total GULP energy -133885.205248 kJ/mol
# GULP energy per Si atom -5578.550219 kJ/mol
# Density = 1.028977 g / cm^3
# Si number density = 10.313243 Si / 1000 Ang^3
#
#
#
# Elastic Constant Matrix: (Units=GPa)
#
#
# Indices 1 2 3 4 5 6 
#
# 1 165.3320 48.9192 30.7273 0.0000 -9.1612 0.0000
# 2 48.9192 153.3228 30.6573 0.0000 -2.4331 0.0000
# 3 30.7273 30.6573 83.0273 0.0001 8.1097 0.0000
# 4 0.0000 0.0000 0.0001 33.5022 0.0000 -3.3511
# 5 -9.1612 -2.4331 8.1097 0.0000 35.9341 0.0000
# 6 0.0000 0.0000 0.0000 -3.3511 0.0000 45.7648
#
#
#
# Elastic Compliance Matrix: (Units=1/GPa)
#
#
# Indices 1 2 3 4 5 6 
#
# 1 0.007106 -0.001797 -0.002179 0.000000 0.002182 0.000000
# 2 -0.001797 0.007538 -0.002171 0.000000 0.000542 0.000000
# 3 -0.002179 -0.002171 0.014031 0.000000 -0.003869 0.000000
# 4 0.000000 0.000000 0.000000 0.030069 0.000000 0.002202
# 5 0.002182 0.000542 -0.003869 0.000000 0.029295 0.000000
# 6 0.000000 0.000000 0.000000 0.002202 0.000000 0.022012
#
#
# Mechanical properties :
#
#
# Convention : Reuss Voigt Hill
#
# Bulk Modulus (GPa) = 61.05268 69.14330 65.09799
# Shear Modulus (GPa) = 39.12172 42.46544 40.79358
#
# Velocity S-wave (km/s) = 4.35981 4.54230 4.45199
# Velocity P-wave (km/s) = 7.41669 7.81693 7.61944
#
# Compressibility (1/GPa) = 0.01637930
#
# Stress axis : x y z
#
# Youngs Moduli (GPa) = 140.72505 132.65616 71.27310
#
# Poissons Ratio (x) = 0.23836 0.15534
# Poissons Ratio (y) = 0.25286 0.15477
# Poissons Ratio (z) = 0.30671 0.28806
#
# Static dielectric constant tensor:
#      x y z
#    x 1.774180 0.000000 0.065580 
#    y 0.000000 1.811660 0.000000 
#    z 0.065580 0.000000 1.793420 
# 
# From -- ./inp_files/257646.got.cif
#   From: 2010.05.17/outbox.ucp.g08.bks.cvg/sg15_129_cif.got.tgz:257646.got - 2010.06.11 12:40:34.
