data_PCOD9309646
_publ_section_title
;
Structure prediction by ZEFSAII (Michael W. Deem and Ramdas Pophale) SiO2 
 PCOD9309646
Probable space group: C 2/C
;
_chemical_formula_sum "Si O2"
_cell_formula_units_Z 28
_cell_length_a 12.000000
_cell_length_b 30.000000
_cell_length_c 15.000000
_cell_angle_alpha 90.000000
_cell_angle_beta 30.000000
_cell_angle_gamma 90.000000
_cell_volume 2700.000000
_symmetry_space_group_name_H-M "C 2/C"
_symmetry_group_IT_number 15
_symmetry_cell_setting 'monoclinic'
loop_
_space_group_symop_operation_xyz
x,y,z
-x,y,1/2-z
-x,-y,-z
x,-y,1/2+z
1/2+x,1/2+y,z
1/2-x,1/2+y,1/2-z
1/2-x,1/2-y,-z
1/2+x,1/2-y,1/2+z
loop_
_atom_site_type_symbol
_atom_site_label
_atom_site_fract_x
_atom_site_fract_y
_atom_site_fract_z
Si Si1 0.701317 0.799293 0.342195
Si Si2 0.754389 0.109638 0.085949
Si Si3 0.206539 0.969741 0.823711
Si Si4 0.500000 0.366151 0.250000
Si Si5 0.892329 0.800121 0.563867
Si Si6 0.251041 0.062212 0.096879
Si Si7 0.500000 0.972255 0.250000
Si Si8 0.706709 0.333125 0.670235
O O1 0.705496 0.749245 0.377582
O O2 0.447950 0.810258 0.492086
O O3 0.810269 0.834629 0.336158
O O4 0.858023 0.800062 0.147043
O O5 0.500000 0.097736 0.250000
O O6 0.844227 0.080020 0.104711
O O7 0.767714 0.162306 0.093678
O O8 0.895030 0.103276 0.899214
O O9 0.290120 0.964959 0.663291
O O10 0.386783 0.993590 0.759835
O O11 0.000000 0.000000 0.000000
O O12 0.871471 0.817857 0.678091
O O13 0.253525 0.114245 0.123402
O O14 0.000000 0.048689 0.250000
O O15 0.372437 0.056729 0.915551
O O16 0.500000 0.320864 0.750000
#
# Coordination Sequence:
#
# PCOD9309646 Si02
#       8
#     8   8   8   4   8   8   4   8
#     4  11  24  42  67 103 137 178 233 280 347 420
#     4  11  24  43  69  99 142 181 227 291 357 415
#     4  12  25  46  74 102 144 182 235 294 351 422
#     4  10  26  40  69 108 136 180 229 290 354 430
#     4  11  23  42  67  99 137 179 228 286 348 412
#     4  11  25  47  71 102 139 185 235 286 352 415
#     4  12  26  44  73 108 132 186 227 296 360 408
#     4  11  25  44  69  94 138 186 232 285 339 414
#
# _framework density 10.370369999999999
#
# number of rings (size 3 to 8) (size 9 to 14) (size 15 to 20)
#    0.000    0.857    5.000    1.286    1.000    8.000 
#    0.000    0.000    0.000    0.000    0.000    0.000 
#    0.000    0.000    0.000    0.000    0.000    0.000 
#
# Total GULP energy -155971.603188 kJ/mol
# GULP energy per Si atom -5570.414400 kJ/mol
# Density = 1.034677 g / cm^3
# Si number density = 10.370370 Si / 1000 Ang^3
#
#
#
# Elastic Constant Matrix: (Units=GPa)
#
#
# Indices 1 2 3 4 5 6 
#
# 1 51.9068 18.2271 52.9312 0.0000 17.2866 0.0000
# 2 18.2271 63.3313 36.3330 0.0000 -2.3712 0.0000
# 3 52.9312 36.3330 146.2346 -0.0001 31.0620 0.0000
# 4 0.0000 0.0000 -0.0001 26.9448 0.0000 16.0086
# 5 17.2866 -2.3712 31.0620 0.0000 46.1661 0.0000
# 6 0.0000 0.0000 0.0000 16.0086 0.0000 19.1304
#
#
#
# Elastic Compliance Matrix: (Units=1/GPa)
#
#
# Indices 1 2 3 4 5 6 
#
# 1 0.032281 -0.004129 -0.009388 0.000000 -0.005983 0.000000
# 2 -0.004129 0.019859 -0.004649 0.000000 0.005694 0.000000
# 3 -0.009388 -0.004649 0.012479 0.000000 -0.005120 0.000000
# 4 0.000000 0.000000 0.000000 0.073809 0.000000 -0.061764
# 5 -0.005983 0.005694 -0.005120 0.000000 0.027638 0.000000
# 6 0.000000 0.000000 0.000000 -0.061764 0.000000 0.103958
#
#
# Mechanical properties :
#
#
# Convention : Reuss Voigt Hill
#
# Bulk Modulus (GPa) = 35.35183 52.93948 44.14565
# Shear Modulus (GPa) = 15.83363 28.71369 22.27366
#
# Velocity S-wave (km/s) = 2.76598 3.72480 3.28061
# Velocity P-wave (km/s) = 5.22326 6.63918 5.97332
#
# Compressibility (1/GPa) = 0.02828708
#
# Stress axis : x y z
#
# Youngs Moduli (GPa) = 30.97843 50.35597 80.13561
#
# Poissons Ratio (x) = 0.20791 0.75228
# Poissons Ratio (y) = 0.12791 0.37255
# Poissons Ratio (z) = 0.29081 0.23410
#
# Static dielectric constant tensor:
#      x y z
#    x 1.745060 0.000000 -0.029860 
#    y 0.000000 1.710820 0.000000 
#    z -0.029860 0.000000 1.377830 
# 
# From -- ./inp_files/149295.got.cif
#   From: 2010.05.17/outbox.ucp.g08.bks.cvg/sg15_75_cif.got.tgz:149295.got - 2010.06.11 12:40:34.
