data_PCOD9309268
_publ_section_title
;
Structure prediction by ZEFSAII (Michael W. Deem and Ramdas Pophale) SiO2 
 PCOD9309268
Probable space group: C 2/C
;
_chemical_formula_sum "Si O2"
_cell_formula_units_Z 28
_cell_length_a 15.000000
_cell_length_b 21.000000
_cell_length_c 18.000000
_cell_angle_alpha 90.000000
_cell_angle_beta 150.000000
_cell_angle_gamma 90.000000
_cell_volume 2835.000000
_symmetry_space_group_name_H-M "C 2/C"
_symmetry_group_IT_number 15
_symmetry_cell_setting 'monoclinic'
loop_
_space_group_symop_operation_xyz
x,y,z
-x,y,1/2-z
-x,-y,-z
x,-y,1/2+z
1/2+x,1/2+y,z
1/2-x,1/2+y,1/2-z
1/2-x,1/2-y,-z
1/2+x,1/2-y,1/2+z
loop_
_atom_site_type_symbol
_atom_site_label
_atom_site_fract_x
_atom_site_fract_y
_atom_site_fract_z
Si Si1 0.536981 0.197176 0.542990
Si Si2 0.728272 0.089084 0.204961
Si Si3 0.549091 0.927939 0.870221
Si Si4 0.713093 0.694854 0.912233
Si Si5 0.081510 0.156612 0.411515
Si Si6 0.315748 0.775787 0.195201
Si Si7 0.304871 0.464840 0.606039
O O1 0.420864 0.137804 0.432839
O O2 0.696583 0.213170 0.601783
O O3 0.610075 0.187891 0.679093
O O4 0.383316 0.250514 0.430271
O O5 0.633620 0.067865 0.212695
O O6 0.745345 0.040658 0.148758
O O7 0.928392 0.120422 0.351284
O O8 0.500000 0.917218 0.750000
O O9 0.678755 0.869376 0.987828
O O10 0.661541 0.992695 0.960818
O O11 0.500000 0.685951 0.750000
O O12 0.750000 0.750000 0.000000
O O13 0.258971 0.183491 0.581477
O O14 0.156177 0.104237 0.405806
O O15 0.957509 0.216315 0.292955
O O16 0.500000 0.496477 0.750000
#
# Coordination Sequence:
#
# PCOD9309268 Si02
#       7
#     8   8   8   8   8   8   8
#     4   9  18  32  52  79 114 153 191 232 294 357
#     4   9  20  39  59  82 116 154 192 243 298 350
#     4  11  24  40  61  88 118 155 202 249 294 353
#     4  11  22  36  57  85 115 154 197 250 304 353
#     4   9  19  36  61  90 123 157 196 245 299 361
#     4   9  17  33  55  86 120 153 188 237 297 362
#     4  10  21  42  62  84 117 158 200 244 295 354
#
# _framework density 9.8765429999999999
#
# number of rings (size 3 to 8) (size 9 to 14) (size 15 to 20)
#    0.000    2.286    0.000    2.143    0.000    6.857 
#    0.000   22.143    0.000    0.000    0.000    0.000 
#    0.000    0.000    0.000    0.000    0.000    0.000 
#
# Total GULP energy -156004.033800 kJ/mol
# GULP energy per Si atom -5571.572636 kJ/mol
# Density = 0.985406 g / cm^3
# Si number density = 9.876543 Si / 1000 Ang^3
#
#
#
# Elastic Constant Matrix: (Units=GPa)
#
#
# Indices 1 2 3 4 5 6 
#
# 1 128.2035 22.0483 22.1554 0.0063 -0.8588 0.0017
# 2 22.0483 59.0662 19.7232 -0.0049 -8.6159 -0.0066
# 3 22.1554 19.7232 86.8765 0.0211 -16.2876 0.0007
# 4 0.0063 -0.0049 0.0211 30.4053 0.0057 -3.3504
# 5 -0.8588 -8.6159 -16.2876 0.0057 23.2546 0.0010
# 6 0.0017 -0.0066 0.0007 -3.3504 0.0010 16.1821
#
#
#
# Elastic Compliance Matrix: (Units=1/GPa)
#
#
# Indices 1 2 3 4 5 6 
#
# 1 0.008616 -0.002876 -0.001939 -0.000001 -0.002105 -0.000002
# 2 -0.002876 0.019690 -0.002750 0.000006 0.005263 0.000009
# 3 -0.001939 -0.002750 0.014303 -0.000012 0.008927 -0.000005
# 4 -0.000001 0.000006 -0.000012 0.033657 -0.000015 0.006968
# 5 -0.002105 0.005263 0.008927 -0.000015 0.051127 -0.000004
# 6 -0.000002 0.000009 -0.000005 0.006968 -0.000004 0.063239
#
#
# Mechanical properties :
#
#
# Convention : Reuss Voigt Hill
#
# Bulk Modulus (GPa) = 36.39167 44.66667 40.52917
# Shear Modulus (GPa) = 23.26438 27.98303 25.62371
#
# Velocity S-wave (km/s) = 3.43557 3.76791 3.60557
# Velocity P-wave (km/s) = 5.84815 6.44912 6.15597
#
# Compressibility (1/GPa) = 0.02747882
#
# Stress axis : x y z
#
# Youngs Moduli (GPa) = 116.06786 50.78836 69.91472
#
# Poissons Ratio (x) = 0.14605 0.13557
# Poissons Ratio (y) = 0.33378 0.19227
# Poissons Ratio (z) = 0.22506 0.13967
#
# Static dielectric constant tensor:
#      x y z
#    x 1.761320 0.000000 -0.015540 
#    y 0.000000 1.755650 0.000000 
#    z -0.015540 0.000000 1.676090 
# 
# From -- ./inp_files/206976.got.cif
#   From: 2010.05.17/outbox.ucp.g08.bks.cvg/sg15_104_cif.got.tgz:206976.got - 2010.06.11 12:40:34.
