data_PCOD9309230
_publ_section_title
;
Structure prediction by ZEFSAII (Michael W. Deem and Ramdas Pophale) SiO2 
 PCOD9309230
Probable space group: C 2/C
;
_chemical_formula_sum "Si O2"
_cell_formula_units_Z 32
_cell_length_a 27.000000
_cell_length_b 12.000000
_cell_length_c 15.000000
_cell_angle_alpha 90.000000
_cell_angle_beta 40.000000
_cell_angle_gamma 90.000000
_cell_volume 3123.947783
_symmetry_space_group_name_H-M "C 2/C"
_symmetry_group_IT_number 15
_symmetry_cell_setting 'monoclinic'
loop_
_space_group_symop_operation_xyz
x,y,z
-x,y,1/2-z
-x,-y,-z
x,-y,1/2+z
1/2+x,1/2+y,z
1/2-x,1/2+y,1/2-z
1/2-x,1/2-y,-z
1/2+x,1/2-y,1/2+z
loop_
_atom_site_type_symbol
_atom_site_label
_atom_site_fract_x
_atom_site_fract_y
_atom_site_fract_z
Si Si1 0.553871 0.326894 0.894100
Si Si2 0.531991 0.188755 0.105579
Si Si3 0.807748 0.985093 0.733611
Si Si4 0.082394 0.681181 0.682822
Si Si5 0.303830 0.831127 0.039981
Si Si6 0.894576 0.167840 0.518457
Si Si7 0.800742 0.357048 0.743929
Si Si8 0.385554 0.951079 0.781479
O O1 0.622539 0.416379 0.816248
O O2 0.579796 0.233615 0.785860
O O3 0.531884 0.275250 0.022001
O O4 0.477446 0.367743 0.945831
O O5 0.500000 0.224927 0.250000
O O6 0.475051 0.087130 0.156464
O O7 0.621616 0.156514 0.997596
O O8 0.743856 0.904403 0.779946
O O9 0.761662 0.075004 0.856322
O O10 0.841911 0.059949 0.605505
O O11 0.109086 0.777103 0.575358
O O12 0.122463 0.562114 0.647250
O O13 0.000000 0.652919 0.750000
O O14 0.264144 0.713020 0.113237
O O15 0.341645 0.850510 0.892186
O O16 0.863591 0.267419 0.624203
O O17 0.844653 0.450169 0.741841
#
# Coordination Sequence:
#
# PCOD9309230 Si02
#       8
#     8   8   8   8   8   8   8   8
#     4  11  22  44  67  96 130 174 230 270 335 397
#     4  10  21  40  67  97 130 170 225 282 327 399
#     4  11  24  40  66  93 132 182 212 279 339 400
#     4  10  23  41  66  96 129 166 220 284 321 401
#     4  10  22  40  59  90 137 163 221 276 337 395
#     4  10  23  45  64  93 137 175 230 274 335 405
#     4  11  22  37  62  93 130 172 223 282 330 403
#     4  11  22  39  66  96 127 178 219 277 345 382
#
# _framework density 10.243449
#
# number of rings (size 3 to 8) (size 9 to 14) (size 15 to 20)
#    0.000    1.500    2.500    2.625    1.750    2.500 
#    0.000    5.000    0.000    0.000    0.000    0.000 
#    0.000    0.000    0.000    0.000    0.000    0.000 
#
# Total GULP energy -178392.551479 kJ/mol
# GULP energy per Si atom -5574.767234 kJ/mol
# Density = 1.022013 g / cm^3
# Si number density = 10.243449 Si / 1000 Ang^3
#
#
#
# Elastic Constant Matrix: (Units=GPa)
#
#
# Indices 1 2 3 4 5 6 
#
# 1 108.7383 27.7518 25.3981 0.0000 -7.9468 0.0000
# 2 27.7518 52.1316 7.5209 0.0000 -5.9736 0.0000
# 3 25.3981 7.5209 57.6785 0.0000 -1.0833 0.0000
# 4 0.0000 0.0000 0.0000 36.4817 0.0000 0.4108
# 5 -7.9468 -5.9736 -1.0833 0.0000 38.6077 0.0000
# 6 0.0000 0.0000 0.0000 0.4108 0.0000 30.6344
#
#
#
# Elastic Compliance Matrix: (Units=1/GPa)
#
#
# Indices 1 2 3 4 5 6 
#
# 1 0.011724 -0.005436 -0.004426 0.000000 0.001448 0.000000
# 2 -0.005436 0.022414 -0.000485 0.000000 0.002335 0.000000
# 3 -0.004426 -0.000485 0.019341 0.000000 -0.000443 0.000000
# 4 0.000000 0.000000 0.000000 0.027415 0.000000 -0.000368
# 5 0.001448 0.002335 -0.000443 0.000000 0.026548 0.000000
# 6 0.000000 0.000000 0.000000 -0.000368 0.000000 0.032648
#
#
# Mechanical properties :
#
#
# Convention : Reuss Voigt Hill
#
# Bulk Modulus (GPa) = 30.50306 37.76555 34.13431
# Shear Modulus (GPa) = 29.11829 31.66992 30.39411
#
# Velocity S-wave (km/s) = 3.77412 3.93601 3.85592
# Velocity P-wave (km/s) = 5.82352 6.25542 6.04333
#
# Compressibility (1/GPa) = 0.03278360
#
# Stress axis : x y z
#
# Youngs Moduli (GPa) = 85.29867 44.61532 51.70249
#
# Poissons Ratio (x) = 0.24255 0.22885
# Poissons Ratio (y) = 0.46372 0.02507
# Poissons Ratio (z) = 0.37755 0.02163
#
# Static dielectric constant tensor:
#      x y z
#    x 1.725850 0.000000 0.005300 
#    y 0.000000 1.725740 0.000000 
#    z 0.005300 0.000000 1.787260 
# 
# From -- ./inp_files/177790.got.cif
#   From: 2010.05.17/outbox.ucp.g08.bks.cvg/sg15_89_cif.got.tgz:177790.got - 2010.06.11 12:40:34.
