data_PCOD9309463
_publ_section_title
;
Structure prediction by ZEFSAII (Michael W. Deem and Ramdas Pophale) SiO2 
 PCOD9309463
Probable space group: C 2/C
;
_chemical_formula_sum "Si O2"
_cell_formula_units_Z 24
_cell_length_a 30.000000
_cell_length_b 6.000000
_cell_length_c 15.000000
_cell_angle_alpha 90.000000
_cell_angle_beta 60.000000
_cell_angle_gamma 90.000000
_cell_volume 2338.268590
_symmetry_space_group_name_H-M "C 2/C"
_symmetry_group_IT_number 15
_symmetry_cell_setting 'monoclinic'
loop_
_space_group_symop_operation_xyz
x,y,z
-x,y,1/2-z
-x,-y,-z
x,-y,1/2+z
1/2+x,1/2+y,z
1/2-x,1/2+y,1/2-z
1/2-x,1/2-y,-z
1/2+x,1/2-y,1/2+z
loop_
_atom_site_type_symbol
_atom_site_label
_atom_site_fract_x
_atom_site_fract_y
_atom_site_fract_z
Si Si1 0.760182 0.647720 0.876922
Si Si2 0.813484 0.482835 0.646066
Si Si3 0.884164 0.834967 0.192728
Si Si4 0.888795 0.858801 0.516799
Si Si5 0.672222 0.465599 0.580959
Si Si6 0.999320 0.250432 0.550473
O O1 0.776670 0.562410 0.763430
O O2 0.720686 0.845548 0.889522
O O3 0.808699 0.743842 0.883883
O O4 0.725558 0.485600 0.973259
O O5 0.855474 0.343622 0.659732
O O6 0.845591 0.668579 0.561975
O O7 0.851266 0.885785 0.314813
O O8 0.943027 0.761110 0.153116
O O9 0.886018 0.040515 0.120239
O O10 0.870888 0.026434 0.455144
O O11 0.946990 0.766037 0.448618
O O12 0.000000 0.500000 0.500000
O O13 0.000000 0.000000 0.500000
#
# Coordination Sequence:
#
# PCOD9309463 Si02
#       6
#     8   8   8   8   8   8
#     4  11  24  38  66  99 142 189 244 292 372 435
#     4  12  22  43  68  90 142 185 236 286 368 442
#     4  11  23  44  68  96 135 180 232 294 368 431
#     4  11  23  44  68  96 135 180 232 294 368 431
#     4  11  24  42  64 100 136 179 242 295 354 436
#     4  10  22  43  74 101 135 182 233 293 372 437
#
# _framework density 10.264004999999999
#
# number of rings (size 3 to 8) (size 9 to 14) (size 15 to 20)
#    0.000    1.000    5.000    2.000    0.000    4.667 
#    0.000    0.000    0.000    2.000    0.000    0.000 
#    0.000    0.000    0.000    0.000    0.000    0.000 
#
# Total GULP energy -133651.723902 kJ/mol
# GULP energy per Si atom -5568.821829 kJ/mol
# Density = 1.024064 g / cm^3
# Si number density = 10.264005 Si / 1000 Ang^3
#
#
#
# Elastic Constant Matrix: (Units=GPa)
#
#
# Indices 1 2 3 4 5 6 
#
# 1 116.1312 34.5414 51.5229 -0.0001 -2.4334 -0.0001
# 2 34.5414 72.4339 28.4634 0.0003 -11.3993 0.0005
# 3 51.5229 28.4634 98.1634 0.0000 -2.0644 0.0001
# 4 -0.0001 0.0003 0.0000 33.7847 0.0000 -3.9600
# 5 -2.4334 -11.3993 -2.0644 0.0000 39.7433 0.0000
# 6 -0.0001 0.0005 0.0001 -3.9600 0.0000 45.5022
#
#
#
# Elastic Compliance Matrix: (Units=1/GPa)
#
#
# Indices 1 2 3 4 5 6 
#
# 1 0.012048 -0.003784 -0.005239 0.000000 -0.000620 0.000000
# 2 -0.003784 0.017517 -0.002996 0.000000 0.004637 0.000000
# 3 -0.005239 -0.002996 0.013796 0.000000 -0.000463 0.000000
# 4 0.000000 0.000000 0.000000 0.029904 0.000000 0.002603
# 5 -0.000620 0.004637 -0.000463 0.000000 0.026429 0.000000
# 6 0.000000 0.000000 0.000000 0.002603 0.000000 0.022203
#
#
# Mechanical properties :
#
#
# Convention : Reuss Voigt Hill
#
# Bulk Modulus (GPa) = 51.75197 57.30930 54.53063
# Shear Modulus (GPa) = 32.81331 35.28610 34.04970
#
# Velocity S-wave (km/s) = 4.00242 4.15049 4.07713
# Velocity P-wave (km/s) = 6.82820 7.13771 6.98467
#
# Compressibility (1/GPa) = 0.01932294
#
# Stress axis : x y z
#
# Youngs Moduli (GPa) = 83.00149 57.08725 72.48489
#
# Poissons Ratio (x) = 0.21602 0.37978
# Poissons Ratio (y) = 0.31407 0.21714
# Poissons Ratio (z) = 0.43488 0.17101
#
# Static dielectric constant tensor:
#      x y z
#    x 1.728470 0.000000 -0.025880 
#    y 0.000000 1.851340 0.000000 
#    z -0.025880 0.000000 1.733780 
# 
# From -- ./inp_files/179997.got.cif
#   From: 2010.05.17/outbox.ucp.g08.bks.cvg/sg15_90_cif.got.tgz:179997.got - 2010.06.11 12:40:34.
