data_PCOD9309583
_publ_section_title
;
Structure prediction by ZEFSAII (Michael W. Deem and Ramdas Pophale) SiO2 
 PCOD9309583
Probable space group: C 2/C
;
_chemical_formula_sum "Si O2"
_cell_formula_units_Z 30
_cell_length_a 27.000000
_cell_length_b 24.000000
_cell_length_c 9.000000
_cell_angle_alpha 90.000000
_cell_angle_beta 30.000000
_cell_angle_gamma 90.000000
_cell_volume 2916.000000
_symmetry_space_group_name_H-M "C 2/C"
_symmetry_group_IT_number 15
_symmetry_cell_setting 'monoclinic'
loop_
_space_group_symop_operation_xyz
x,y,z
-x,y,1/2-z
-x,-y,-z
x,-y,1/2+z
1/2+x,1/2+y,z
1/2-x,1/2+y,1/2-z
1/2-x,1/2-y,-z
1/2+x,1/2-y,1/2+z
loop_
_atom_site_type_symbol
_atom_site_label
_atom_site_fract_x
_atom_site_fract_y
_atom_site_fract_z
Si Si1 0.221523 0.001146 0.645431
Si Si2 0.929483 0.641257 0.698460
Si Si3 0.000000 0.437129 0.750000
Si Si4 0.043741 0.171631 0.301422
Si Si5 0.940309 0.265009 0.747997
Si Si6 0.859921 0.461408 0.540648
Si Si7 0.719582 0.245213 0.407479
Si Si8 0.585655 0.545499 0.247797
O O1 0.300572 0.038223 0.349626
O O2 0.280166 0.966049 0.615544
O O3 0.167389 0.963813 0.663198
O O4 0.138684 0.034467 0.952109
O O5 0.942037 0.603005 0.516014
O O6 0.023519 0.682876 0.445903
O O7 0.919760 0.594358 0.849518
O O8 0.838033 0.685473 0.952527
O O9 0.075447 0.481466 0.630284
O O10 0.049405 0.108438 0.341108
O O11 0.000000 0.173049 0.250000
O O12 0.976910 0.207659 0.583954
O O13 0.146474 0.205643 0.045299
O O14 0.000000 0.272408 0.750000
O O15 0.823611 0.257262 0.059395
O O16 0.750000 0.250000 0.500000
O O17 0.500000 0.500000 0.500000
#
# Coordination Sequence:
#
# PCOD9309583 Si02
#       8
#     8   8   4   8   8   8   8   8
#     4  10  24  41  65 100 135 183 237 276 348 429
#     4  11  23  41  70 100 142 178 236 294 358 418
#     4  12  22  44  64 100 148 184 220 298 352 438
#     4  11  26  45  68 104 144 176 232 297 361 421
#     4  11  23  45  73 102 131 185 247 291 348 421
#     4  11  24  42  65 101 139 183 230 285 355 421
#     4  11  23  45  72 101 129 184 242 294 347 414
#     4  11  24  45  69  98 143 186 231 290 355 414
#
# _framework density 10.288066000000001
#
# number of rings (size 3 to 8) (size 9 to 14) (size 15 to 20)
#    0.000    1.067    4.667    1.600    1.867    6.933 
#    4.800    0.000    0.000    0.000    0.000    0.000 
#    0.000    0.000    0.000    0.000    0.000    0.000 
#
# Total GULP energy -167508.548807 kJ/mol
# GULP energy per Si atom -5583.618294 kJ/mol
# Density = 1.026465 g / cm^3
# Si number density = 10.288066 Si / 1000 Ang^3
#
#
#
# Elastic Constant Matrix: (Units=GPa)
#
#
# Indices 1 2 3 4 5 6 
#
# 1 84.3857 40.2076 26.5535 0.0000 -10.0000 0.0000
# 2 40.2076 194.3223 80.6520 0.0000 -5.0534 0.0000
# 3 26.5535 80.6520 162.6826 0.0000 -10.8116 0.0000
# 4 0.0000 0.0000 0.0000 -8.1930 0.0000 13.1970
# 5 -10.0000 -5.0534 -10.8116 0.0000 35.4754 0.0000
# 6 0.0000 0.0000 0.0000 13.1970 0.0000 23.4252
#
#
#
# Elastic Compliance Matrix: (Units=1/GPa)
#
#
# Indices 1 2 3 4 5 6 
#
# 1 0.013636 -0.002396 -0.000822 0.000000 0.003252 0.000000
# 2 -0.002396 0.006900 -0.003072 0.000000 -0.000629 0.000000
# 3 -0.000822 -0.003072 0.007920 0.000000 0.001744 0.000000
# 4 0.000000 0.000000 0.000000 -0.063989 0.000000 0.036049
# 5 0.003252 -0.000629 0.001744 0.000000 0.029547 0.000000
# 6 0.000000 0.000000 0.000000 0.036049 0.000000 0.022380
#
#
# Mechanical properties :
#
#
# Convention : Reuss Voigt Hill
#
# Bulk Modulus (GPa) = 62.98212 81.80184 72.39198
# Shear Modulus (GPa) = 145.91808 29.74001 87.82905
#
# Velocity S-wave (km/s) = 8.43031 3.80592 6.54046
# Velocity P-wave (km/s) = 11.19982 7.69125 9.60706
#
# Compressibility (1/GPa) = 0.01587752
#
# Stress axis : x y z
#
# Youngs Moduli (GPa) = 73.33613 144.92080 126.26544
#
# Poissons Ratio (x) = 0.34719 0.10377
# Poissons Ratio (y) = 0.17570 0.38784
# Poissons Ratio (z) = 0.06027 0.44515
#
# Static dielectric constant tensor:
#      x y z
#    x 1.755630 0.000000 -0.014610 
#    y 0.000000 1.694060 0.000000 
#    z -0.014610 0.000000 1.910270 
# 
# From -- ./inp_files/67728.got.cif
#   From: 2010.05.17/outbox.ucp.g08.bks.cvg/sg15_34_cif.got.tgz:67728.got - 2010.06.11 12:40:34.
