data_PCOD9309932
_publ_section_title
;
Structure prediction by ZEFSAII (Michael W. Deem and Ramdas Pophale) SiO2 
 PCOD9309932
Probable space group: P 2 2 2
;
_chemical_formula_sum "Si O2"
_cell_formula_units_Z 21
_cell_length_a 17.693047
_cell_length_b 5.620795
_cell_length_c 8.901227
_cell_angle_alpha 90.000000
_cell_angle_beta 90.000000
_cell_angle_gamma 90.000000
_cell_volume 885.218036
_symmetry_space_group_name_H-M "P 2 2 2"
_symmetry_group_IT_number 16
_symmetry_cell_setting 'orthorhombic'
loop_
_space_group_symop_operation_xyz
x,y,z
-x,-y,z
x,-y,-z
-x,y,-z
loop_
_atom_site_type_symbol
_atom_site_label
_atom_site_fract_x
_atom_site_fract_y
_atom_site_fract_z
Si Si1 0.500000 0.500000 0.000000
Si Si2 0.190368 0.247141 0.584131
Si Si3 0.396731 0.274921 0.245516
Si Si4 0.267380 0.249400 0.018933
Si Si5 0.642529 0.226375 0.286963
Si Si6 0.029152 0.749108 0.321712
O O1 0.453613 0.326612 0.109809
O O2 0.186479 0.500000 0.500000
O O3 0.275667 0.220607 0.638501
O O4 0.119498 0.258422 0.694420
O O5 0.174146 0.000000 0.500000
O O6 0.397447 0.527032 0.330061
O O7 0.404142 0.014103 0.315294
O O8 0.311121 0.258344 0.177014
O O9 0.334039 0.241901 0.891011
O O10 0.226580 0.500000 0.000000
O O11 0.225776 0.000000 0.000000
O O12 0.000000 0.500000 0.258208
O O13 0.000000 0.748028 0.500000
O O14 0.000000 0.000000 0.260321
#
# Coordination Sequence:
#
# PCOD9309932 Si02
#       6
#     1   4   4   4   4   4
#     4  12  20  34  64  86 110 142 158 214 336 322
#     4  12  21  32  52  76 103 158 183 214 273 315
#     4  10  20  33  52  80 109 130 163 221 271 346
#     4   8  14  29  45  64  99 127 146 206 257 305
#     4  10  20  34  45  74 115 136 174 214 258 327
#     4  10  16  30  48  70 105 129 174 237 276 298
#
# _framework density 23.72297
#
# number of rings (size 3 to 8) (size 9 to 14) (size 15 to 20)
#    0.000    1.905    6.667    1.143    0.000    1.524 
#    0.000    0.000    0.000    0.000    0.000   10.000 
#    0.000   41.143    0.000    0.000    0.000    0.000 
#
# Total GULP energy -117066.374665 kJ/mol
# GULP energy per Si atom -5574.589270 kJ/mol
# Density = 2.366898 g / cm^3
# Si number density = 23.722970 Si / 1000 Ang^3
#
#
#
# Elastic Constant Matrix: (Units=GPa)
#
#
# Indices 1 2 3 4 5 6 
#
# 1 94.0627 62.4463 2.3271 0.0000 0.0000 0.0000
# 2 62.4463 327.5974 26.2450 0.0000 0.0000 0.0000
# 3 2.3271 26.2450 30.6368 0.0000 0.0000 0.0000
# 4 0.0000 0.0000 0.0000 -7.5387 0.0000 0.0000
# 5 0.0000 0.0000 0.0000 0.0000 -70.5996 0.0000
# 6 0.0000 0.0000 0.0000 0.0000 0.0000 35.1729
#
#
#
# Elastic Compliance Matrix: (Units=1/GPa)
#
#
# Indices 1 2 3 4 5 6 
#
# 1 0.012209 -0.002419 0.001145 0.000000 0.000000 0.000000
# 2 -0.002419 0.003757 -0.003034 0.000000 0.000000 0.000000
# 3 0.001145 -0.003034 0.035153 0.000000 0.000000 0.000000
# 4 0.000000 0.000000 0.000000 -0.132649 0.000000 0.000000
# 5 0.000000 0.000000 0.000000 0.000000 -0.014164 0.000000
# 6 0.000000 0.000000 0.000000 0.000000 0.000000 0.028431
#
#
# Mechanical properties :
#
#
# Convention : Reuss Voigt Hill
#
# Bulk Modulus (GPa) = 23.52869 70.48154 47.00511
# Shear Modulus (GPa) = -112.41114 15.49215 -48.45949
#
# Velocity S-wave (km/s) = -6.89114 2.55825 -4.52455
# Velocity P-wave (km/s) = 7.30599 6.20491 2.72732
#
# Compressibility (1/GPa) = 0.04250130
#
# Stress axis : x y z
#
# Youngs Moduli (GPa) = 81.90836 266.18943 28.44711
#
# Poissons Ratio (x) = 0.64390 -0.03257
# Poissons Ratio (y) = 0.19813 0.08632
# Poissons Ratio (z) = -0.09377 0.80774
#
# Static dielectric constant tensor:
#      x y z
#    x 1.858860 0.000000 0.000000 
#    y 0.000000 2.029490 0.000000 
#    z 0.000000 0.000000 1.977290 
# 
# From -- ./inp_files/7059.got.cif
#   From: 2010.05.17/outbox.cif.g08.bks.cpg/sg16_4_cif.got.tgz:7059.got - 2010.06.03 22:28:35.
