data_PCOD9309400
_publ_section_title
;
Structure prediction by ZEFSAII (Michael W. Deem and Ramdas Pophale) SiO2 
 PCOD9309400
Probable space group: C 2/C
;
_chemical_formula_sum "Si O2"
_cell_formula_units_Z 20
_cell_length_a 24.000000
_cell_length_b 9.000000
_cell_length_c 9.000000
_cell_angle_alpha 90.000000
_cell_angle_beta 100.000000
_cell_angle_gamma 90.000000
_cell_volume 1914.466272
_symmetry_space_group_name_H-M "C 2/C"
_symmetry_group_IT_number 15
_symmetry_cell_setting 'monoclinic'
loop_
_space_group_symop_operation_xyz
x,y,z
-x,y,1/2-z
-x,-y,-z
x,-y,1/2+z
1/2+x,1/2+y,z
1/2-x,1/2+y,1/2-z
1/2-x,1/2-y,-z
1/2+x,1/2-y,1/2+z
loop_
_atom_site_type_symbol
_atom_site_label
_atom_site_fract_x
_atom_site_fract_y
_atom_site_fract_z
Si Si1 0.798449 0.186124 0.834531
Si Si2 0.611472 0.139999 0.493532
Si Si3 0.484008 0.661136 0.421408
Si Si4 0.083436 0.673345 0.132355
Si Si5 0.261662 0.994811 0.434131
O O1 0.865501 0.212501 0.888036
O O2 0.775720 0.355714 0.843743
O O3 0.782310 0.112300 0.670282
O O4 0.767414 0.074298 0.936523
O O5 0.580075 0.275087 0.571588
O O6 0.589440 0.156933 0.313688
O O7 0.591777 0.988472 0.564059
O O8 0.680170 0.103307 0.518627
O O9 0.500000 0.663939 0.250000
O O10 0.500000 0.500000 0.500000
O O11 0.525560 0.767587 0.535492
#
# Coordination Sequence:
#
# PCOD9309400 Si02
#       5
#     8   8   8   8   8
#     4  10  23  40  64  97 135 176 231 285 344 411
#     4  11  23  44  70  96 136 184 233 282 344 417
#     4  12  27  46  69 101 137 175 228 289 350 413
#     4  11  24  43  68  98 133 181 232 287 346 413
#     4  10  22  41  64  96 133 178 226 282 344 411
#
# _framework density 10.446776
#
# number of rings (size 3 to 8) (size 9 to 14) (size 15 to 20)
#    0.000    1.200    0.000    6.000    0.000   11.200 
#    0.000    0.000    0.000    0.000    0.000    0.000 
#    0.000    0.000    0.000    0.000    0.000    0.000 
#
# Total GULP energy -111639.696568 kJ/mol
# GULP energy per Si atom -5581.984828 kJ/mol
# Density = 1.042300 g / cm^3
# Si number density = 10.446776 Si / 1000 Ang^3
#
#
#
# Elastic Constant Matrix: (Units=GPa)
#
#
# Indices 1 2 3 4 5 6 
#
# 1 100.0192 43.0327 22.3678 0.0000 -4.2563 0.0000
# 2 43.0327 111.1017 45.9649 0.0000 -6.6651 0.0000
# 3 22.3678 45.9649 114.0859 0.0000 -9.8190 0.0000
# 4 0.0000 0.0000 0.0000 52.3579 0.0000 7.3326
# 5 -4.2563 -6.6651 -9.8190 0.0000 39.0859 0.0000
# 6 0.0000 0.0000 0.0000 7.3326 0.0000 43.5503
#
#
#
# Elastic Compliance Matrix: (Units=1/GPa)
#
#
# Indices 1 2 3 4 5 6 
#
# 1 0.012036 -0.004410 -0.000547 0.000000 0.000421 0.000000
# 2 -0.004410 0.012440 -0.004095 0.000000 0.000612 0.000000
# 3 -0.000547 -0.004095 0.010688 0.000000 0.001927 0.000000
# 4 0.000000 0.000000 0.000000 0.019561 0.000000 -0.003293
# 5 0.000421 0.000612 0.001927 0.000000 0.026219 0.000000
# 6 0.000000 0.000000 0.000000 -0.003293 0.000000 0.023516
#
#
# Mechanical properties :
#
#
# Convention : Reuss Voigt Hill
#
# Bulk Modulus (GPa) = 58.61454 60.88195 59.74825
# Shear Modulus (GPa) = 38.98650 41.25492 40.12071
#
# Velocity S-wave (km/s) = 4.32436 4.44839 4.38681
# Velocity P-wave (km/s) = 7.28342 7.45564 7.37003
#
# Compressibility (1/GPa) = 0.01706061
#
# Stress axis : x y z
#
# Youngs Moduli (GPa) = 83.08558 80.38747 93.56267
#
# Poissons Ratio (x) = 0.35454 0.05114
# Poissons Ratio (y) = 0.36644 0.38309
# Poissons Ratio (z) = 0.04541 0.32915
#
# Static dielectric constant tensor:
#      x y z
#    x 1.803460 0.000000 -0.040190 
#    y 0.000000 1.736480 0.000000 
#    z -0.040190 0.000000 1.745640 
# 
# From -- ./inp_files/60064.got.cif
#   From: 2010.05.17/outbox.ucp.g08.bks.cvg/sg15_31_cif.got.tgz:60064.got - 2010.06.11 12:40:34.
