data_PCOD9309514
_publ_section_title
;
Structure prediction by ZEFSAII (Michael W. Deem and Ramdas Pophale) SiO2 
 PCOD9309514
Probable space group: C 2/C
;
_chemical_formula_sum "Si O2"
_cell_formula_units_Z 32
_cell_length_a 30.000000
_cell_length_b 15.000000
_cell_length_c 9.000000
_cell_angle_alpha 90.000000
_cell_angle_beta 50.000000
_cell_angle_gamma 90.000000
_cell_volume 3102.479995
_symmetry_space_group_name_H-M "C 2/C"
_symmetry_group_IT_number 15
_symmetry_cell_setting 'monoclinic'
loop_
_space_group_symop_operation_xyz
x,y,z
-x,y,1/2-z
-x,-y,-z
x,-y,1/2+z
1/2+x,1/2+y,z
1/2-x,1/2+y,1/2-z
1/2-x,1/2-y,-z
1/2+x,1/2-y,1/2+z
loop_
_atom_site_type_symbol
_atom_site_label
_atom_site_fract_x
_atom_site_fract_y
_atom_site_fract_z
Si Si1 0.862359 0.125280 0.439710
Si Si2 0.110906 0.344990 0.532834
Si Si3 0.468923 0.099302 0.043290
Si Si4 0.915648 0.309611 0.243351
Si Si5 0.836436 0.006610 0.743865
Si Si6 0.238731 0.090140 0.344999
Si Si7 0.258013 0.777892 0.307225
Si Si8 0.134825 0.550021 0.450019
O O1 0.897526 0.216221 0.351483
O O2 0.876952 0.063148 0.547718
O O3 0.793800 0.151523 0.605298
O O4 0.866647 0.068200 0.280026
O O5 0.059165 0.339448 0.765136
O O6 0.087875 0.308740 0.426338
O O7 0.177891 0.309760 0.383503
O O8 0.117878 0.450996 0.524829
O O9 0.413256 0.083492 0.060720
O O10 0.520455 0.155408 0.860363
O O11 0.500000 0.000000 0.000000
O O12 0.870282 0.384573 0.398245
O O13 0.789954 0.956839 0.737256
O O14 0.804586 0.072761 0.926771
O O15 0.251299 0.191201 0.273781
O O16 0.300752 0.048921 0.251852
O O17 0.250000 0.750000 0.500000
#
# Coordination Sequence:
#
# PCOD9309514 Si02
#       8
#     8   8   8   8   8   8   8   8
#     4  11  23  43  67  95 135 170 223 282 341 396
#     4  12  23  39  66  89 135 183 216 259 328 398
#     4  12  26  42  61  96 135 178 228 262 309 399
#     4  12  24  42  64  93 132 179 221 273 321 393
#     4  10  23  40  64  94 132 175 220 277 339 398
#     4  11  23  38  61  96 136 174 218 269 334 403
#     4  12  22  40  62  98 138 172 218 272 334 412
#     4  12  24  38  63  94 135 180 217 262 322 390
#
# _framework density 10.314329000000001
#
# number of rings (size 3 to 8) (size 9 to 14) (size 15 to 20)
#    0.000    0.500    6.250    2.250    5.250    1.500 
#    0.000    0.000    0.000    0.000    0.000   29.750 
#    0.000    0.000    0.000    0.000    0.000    0.000 
#
# Total GULP energy -178593.784202 kJ/mol
# GULP energy per Si atom -5581.055756 kJ/mol
# Density = 1.029085 g / cm^3
# Si number density = 10.314329 Si / 1000 Ang^3
#
#
#
# Elastic Constant Matrix: (Units=GPa)
#
#
# Indices 1 2 3 4 5 6 
#
# 1 29.8727 -8.4644 18.4380 0.0000 5.3137 0.0000
# 2 -8.4644 64.5240 18.1491 0.0000 6.1806 0.0000
# 3 18.4380 18.1491 86.4532 0.0000 -0.8307 0.0000
# 4 0.0000 0.0000 0.0000 47.0055 0.0000 -25.6983
# 5 5.3137 6.1806 -0.8307 0.0000 23.4065 0.0000
# 6 0.0000 0.0000 0.0000 -25.6983 0.0000 37.1845
#
#
#
# Elastic Compliance Matrix: (Units=1/GPa)
#
#
# Indices 1 2 3 4 5 6 
#
# 1 0.046705 0.010947 -0.012393 0.000000 -0.013934 0.000000
# 2 0.010947 0.019519 -0.006508 0.000000 -0.007870 0.000000
# 3 -0.012393 -0.006508 0.015625 0.000000 0.005086 0.000000
# 4 0.000000 0.000000 0.000000 0.034193 0.000000 0.023631
# 5 -0.013934 -0.007870 0.005086 0.000000 0.048145 0.000000
# 6 0.000000 0.000000 0.000000 0.023631 0.000000 0.043225
#
#
# Mechanical properties :
#
#
# Convention : Reuss Voigt Hill
#
# Bulk Modulus (GPa) = 15.16488 26.34392 20.75440
# Shear Modulus (GPa) = 20.38325 31.70110 26.04218
#
# Velocity S-wave (km/s) = 3.14682 3.92439 3.55692
# Velocity P-wave (km/s) = 4.53549 5.77345 5.19150
#
# Compressibility (1/GPa) = 0.06594185
#
# Stress axis : x y z
#
# Youngs Moduli (GPa) = 21.41098 51.23307 63.99966
#
# Poissons Ratio (x) = -0.56087 0.79314
# Poissons Ratio (y) = -0.23439 0.41651
# Poissons Ratio (z) = 0.26534 0.33342
#
# Static dielectric constant tensor:
#      x y z
#    x 1.797270 0.000000 0.016340 
#    y 0.000000 1.711710 0.000000 
#    z 0.016340 0.000000 1.783800 
# 
# From -- ./inp_files/70124.got.cif
#   From: 2010.05.17/outbox.ucp.g08.bks.cvg/sg15_36_cif.got.tgz:70124.got - 2010.06.11 12:40:34.
