data_PCOD9309088
_publ_section_title
;
Structure prediction by ZEFSAII (Michael W. Deem and Ramdas Pophale) SiO2 
 PCOD9309088
Probable space group: C 2/C
;
_chemical_formula_sum "Si O2"
_cell_formula_units_Z 30
_cell_length_a 24.000000
_cell_length_b 9.000000
_cell_length_c 21.000000
_cell_angle_alpha 90.000000
_cell_angle_beta 40.000000
_cell_angle_gamma 90.000000
_cell_volume 2915.684598
_symmetry_space_group_name_H-M "C 2/C"
_symmetry_group_IT_number 15
_symmetry_cell_setting 'monoclinic'
loop_
_space_group_symop_operation_xyz
x,y,z
-x,y,1/2-z
-x,-y,-z
x,-y,1/2+z
1/2+x,1/2+y,z
1/2-x,1/2+y,1/2-z
1/2-x,1/2-y,-z
1/2+x,1/2-y,1/2+z
loop_
_atom_site_type_symbol
_atom_site_label
_atom_site_fract_x
_atom_site_fract_y
_atom_site_fract_z
Si Si1 0.309437 0.867071 0.872197
Si Si2 0.001216 0.884186 0.413311
Si Si3 0.000000 0.131944 0.250000
Si Si4 0.980139 0.769225 0.964619
Si Si5 0.785403 0.676075 0.147205
Si Si6 0.114310 0.328119 0.246023
Si Si7 0.705522 0.351687 0.227490
Si Si8 0.876784 0.874239 0.409619
O O1 0.274125 0.763633 0.846078
O O2 0.365554 0.758993 0.868672
O O3 0.363509 0.005907 0.797460
O O4 0.221634 0.916728 0.985093
O O5 0.997157 0.785470 0.480591
O O6 0.103296 0.889344 0.307113
O O7 0.936876 0.823711 0.416031
O O8 0.975380 0.056548 0.448022
O O9 0.947757 0.237278 0.247513
O O10 0.927635 0.018867 0.340355
O O11 0.057350 0.684139 0.860663
O O12 0.884735 0.698915 0.036990
O O13 0.707585 0.747629 0.173761
O O14 0.760116 0.503419 0.178066
O O15 0.783133 0.766685 0.215755
#
# Coordination Sequence:
#
# PCOD9309088 Si02
#       8
#     8   8   4   8   8   8   8   8
#     4  11  27  44  70 102 142 182 243 284 356 411
#     4  10  20  42  76  98 142 184 236 277 362 424
#     4  12  26  46  74  98 138 190 234 280 362 412
#     4  10  22  41  72 113 133 184 231 295 353 419
#     4  11  23  43  72 101 147 177 238 281 361 411
#     4  12  25  46  71 108 139 181 236 301 341 425
#     4  11  23  45  68 104 137 191 224 293 345 429
#     4  11  23  47  69 100 139 199 228 285 349 432
#
# _framework density 10.289179000000001
#
# number of rings (size 3 to 8) (size 9 to 14) (size 15 to 20)
#    0.000    1.067    2.667    3.200    1.867    2.133 
#    9.600    2.000    0.000    0.000    0.000    0.000 
#    0.000    0.000    0.000    0.000    0.000    0.000 
#
# Total GULP energy -167760.574456 kJ/mol
# GULP energy per Si atom -5592.019149 kJ/mol
# Density = 1.026576 g / cm^3
# Si number density = 10.289179 Si / 1000 Ang^3
#
#
#
# Elastic Constant Matrix: (Units=GPa)
#
#
# Indices 1 2 3 4 5 6 
#
# 1 97.9742 37.8867 14.2738 -0.0004 -14.6987 0.0003
# 2 37.8867 136.1302 61.4870 -0.0012 -10.3352 0.0014
# 3 14.2738 61.4870 110.4231 -0.0006 -17.5756 0.0007
# 4 -0.0004 -0.0012 -0.0006 36.4587 0.0003 -6.5784
# 5 -14.6987 -10.3352 -17.5756 0.0003 27.0805 -0.0003
# 6 0.0003 0.0014 0.0007 -6.5784 -0.0003 33.3758
#
#
#
# Elastic Compliance Matrix: (Units=1/GPa)
#
#
# Indices 1 2 3 4 5 6 
#
# 1 0.012325 -0.003588 0.001396 0.000000 0.006226 0.000000
# 2 -0.003588 0.010860 -0.005837 0.000000 -0.001591 0.000000
# 3 0.001396 -0.005837 0.013262 0.000000 0.007137 0.000000
# 4 0.000000 0.000000 0.000000 0.028440 0.000000 0.005606
# 5 0.006226 -0.001591 0.007137 0.000000 0.044331 0.000000
# 6 0.000000 0.000000 0.000000 0.005606 0.000000 0.031067
#
#
# Mechanical properties :
#
#
# Convention : Reuss Voigt Hill
#
# Bulk Modulus (GPa) = 49.04612 63.53582 56.29097
# Shear Modulus (GPa) = 30.64887 34.77498 32.71193
#
# Velocity S-wave (km/s) = 3.86343 4.11528 3.99134
# Velocity P-wave (km/s) = 6.61717 7.31593 6.97531
#
# Compressibility (1/GPa) = 0.02038897
#
# Stress axis : x y z
#
# Youngs Moduli (GPa) = 81.13614 92.08168 75.40561
#
# Poissons Ratio (x) = 0.33038 -0.10524
# Poissons Ratio (y) = 0.29111 0.44011
# Poissons Ratio (z) = -0.11324 0.53744
#
# Static dielectric constant tensor:
#      x y z
#    x 1.741980 0.000000 0.055680 
#    y 0.000000 1.699680 0.000000 
#    z 0.055680 0.000000 1.778010 
# 
# From -- ./inp_files/255154.got.cif
#   From: 2010.05.17/outbox.ucp.g08.bks.cvg/sg15_128_cif.got.tgz:255154.got - 2010.06.11 12:40:34.
