data_PCOD9309136
_publ_section_title
;
Structure prediction by ZEFSAII (Michael W. Deem and Ramdas Pophale) SiO2 
 PCOD9309136
Probable space group: C 2/C
;
_chemical_formula_sum "Si O2"
_cell_formula_units_Z 28
_cell_length_a 18.000000
_cell_length_b 27.000000
_cell_length_c 6.000000
_cell_angle_alpha 90.000000
_cell_angle_beta 110.000000
_cell_angle_gamma 90.000000
_cell_volume 2740.143682
_symmetry_space_group_name_H-M "C 2/C"
_symmetry_group_IT_number 15
_symmetry_cell_setting 'monoclinic'
loop_
_space_group_symop_operation_xyz
x,y,z
-x,y,1/2-z
-x,-y,-z
x,-y,1/2+z
1/2+x,1/2+y,z
1/2-x,1/2+y,1/2-z
1/2-x,1/2-y,-z
1/2+x,1/2-y,1/2+z
loop_
_atom_site_type_symbol
_atom_site_label
_atom_site_fract_x
_atom_site_fract_y
_atom_site_fract_z
Si Si1 0.500000 0.672774 0.750000
Si Si2 0.623321 0.973046 0.138588
Si Si3 0.606432 0.721779 0.222198
Si Si4 0.250517 0.613672 0.784915
Si Si5 0.754098 0.304825 0.598715
Si Si6 0.578205 0.625569 0.458441
Si Si7 0.874917 0.671979 0.550019
Si Si8 0.500000 0.910216 0.250000
O O1 0.450561 0.707931 0.538549
O O2 0.558226 0.633861 0.693078
O O3 0.697106 0.934984 0.197225
O O4 0.542128 0.942242 0.099482
O O5 0.625822 0.999917 0.393758
O O6 0.692105 0.702934 0.233786
O O7 0.586071 0.682927 0.392364
O O8 0.600447 0.778205 0.294460
O O9 0.263398 0.649284 0.582409
O O10 0.197419 0.647558 0.890647
O O11 0.336341 0.601183 0.976893
O O12 0.750000 0.250000 0.500000
O O13 0.842009 0.312236 0.778706
O O14 0.500000 0.605754 0.250000
O O15 0.936345 0.627870 0.587044
#
# Coordination Sequence:
#
# PCOD9309136 Si02
#       8
#     4   8   8   8   8   8   8   4
#     4  10  22  34  52  85 126 184 221 264 330 396
#     4  11  27  52  80 108 137 182 239 311 386 437
#     4  11  21  34  56  85 139 181 230 275 323 405
#     4  11  23  42  68  96 128 177 232 284 355 430
#     4  12  22  36  61  92 135 181 229 283 343 412
#     4  10  21  37  58  90 129 178 217 268 332 409
#     4  11  24  39  56  95 131 183 235 285 338 407
#     4  10  26  46  70  97 144 186 237 314 360 436
#
# _framework density 10.218442
#
# number of rings (size 3 to 8) (size 9 to 14) (size 15 to 20)
#    0.000    1.143    4.286    1.714    7.000    0.000 
#    2.571    0.000    0.000    0.857    0.000    0.000 
#    0.000    0.000    0.000    0.000    0.000    0.000 
#
# Total GULP energy -155872.893433 kJ/mol
# GULP energy per Si atom -5566.889051 kJ/mol
# Density = 1.019518 g / cm^3
# Si number density = 10.218442 Si / 1000 Ang^3
#
#
#
# Elastic Constant Matrix: (Units=GPa)
#
#
# Indices 1 2 3 4 5 6 
#
# 1 108.9758 40.7768 28.5836 0.0000 8.6224 0.0000
# 2 40.7768 79.7428 40.1959 0.0000 -2.7892 0.0000
# 3 28.5836 40.1959 70.9966 0.0000 7.9337 0.0000
# 4 0.0000 0.0000 0.0000 13.4992 0.0000 10.8628
# 5 8.6224 -2.7892 7.9337 0.0000 23.5611 0.0000
# 6 0.0000 0.0000 0.0000 10.8628 0.0000 10.1493
#
#
#
# Elastic Compliance Matrix: (Units=1/GPa)
#
#
# Indices 1 2 3 4 5 6 
#
# 1 0.011980 -0.005773 -0.001027 0.000000 -0.004722 0.000000
# 2 -0.005773 0.021082 -0.010522 0.000000 0.008152 0.000000
# 3 -0.001027 -0.010522 0.021357 0.000000 -0.008061 0.000000
# 4 0.000000 0.000000 0.000000 0.533952 0.000000 -0.571486
# 5 -0.004722 0.008152 -0.008061 0.000000 0.047850 0.000000
# 6 0.000000 0.000000 0.000000 -0.571486 0.000000 0.710187
#
#
# Mechanical properties :
#
#
# Convention : Reuss Voigt Hill
#
# Bulk Modulus (GPa) = 50.57342 53.20311 51.88827
# Shear Modulus (GPa) = 3.60323 19.45250 11.52787
#
# Velocity S-wave (km/s) = 1.32926 3.08853 2.37760
# Velocity P-wave (km/s) = 5.21112 6.22961 5.74299
#
# Compressibility (1/GPa) = 0.01977323
#
# Stress axis : x y z
#
# Youngs Moduli (GPa) = 83.47560 47.43458 46.82368
#
# Poissons Ratio (x) = 0.27386 0.04807
# Poissons Ratio (y) = 0.48194 0.49269
# Poissons Ratio (z) = 0.08570 0.49912
#
# Static dielectric constant tensor:
#      x y z
#    x 1.629600 0.000000 0.089910 
#    y 0.000000 2.044200 0.000000 
#    z 0.089910 0.000000 1.831650 
# 
# From -- ./inp_files/11591.got.cif
#   From: 2010.05.17/outbox.ucp.g08.bks.cvg/sg15_6_cif.got.tgz:11591.got - 2010.06.11 12:40:34.
