data_PCOD9309380
_publ_section_title
;
Structure prediction by ZEFSAII (Michael W. Deem and Ramdas Pophale) SiO2 
 PCOD9309380
Probable space group: C 2/C
;
_chemical_formula_sum "Si O2"
_cell_formula_units_Z 26
_cell_length_a 18.000000
_cell_length_b 27.000000
_cell_length_c 9.000000
_cell_angle_alpha 90.000000
_cell_angle_beta 40.000000
_cell_angle_gamma 90.000000
_cell_volume 2811.553005
_symmetry_space_group_name_H-M "C 2/C"
_symmetry_group_IT_number 15
_symmetry_cell_setting 'monoclinic'
loop_
_space_group_symop_operation_xyz
x,y,z
-x,y,1/2-z
-x,-y,-z
x,-y,1/2+z
1/2+x,1/2+y,z
1/2-x,1/2+y,1/2-z
1/2-x,1/2-y,-z
1/2+x,1/2-y,1/2+z
loop_
_atom_site_type_symbol
_atom_site_label
_atom_site_fract_x
_atom_site_fract_y
_atom_site_fract_z
Si Si1 0.231867 0.827631 0.591113
Si Si2 0.870295 0.063452 0.718723
Si Si3 0.623339 0.069987 0.634456
Si Si4 0.000000 0.007802 0.250000
Si Si5 0.369470 0.735364 0.515482
Si Si6 0.026695 0.172649 0.881895
Si Si7 0.873925 0.466366 0.021575
O O1 0.294290 0.881439 0.490314
O O2 0.305158 0.788137 0.580465
O O3 0.208375 0.803066 0.463817
O O4 0.101732 0.832267 0.852068
O O5 0.911680 0.027035 0.790176
O O6 0.912659 0.118819 0.693460
O O7 0.733448 0.062359 0.890535
O O8 0.933546 0.041739 0.473165
O O9 0.500000 0.085316 0.750000
O O10 0.617395 0.047784 0.814628
O O11 0.657117 0.023894 0.473415
O O12 0.396871 0.712315 0.638037
O O13 0.500000 0.739497 0.250000
O O14 0.000000 0.185319 0.750000
O O15 0.000000 0.457797 0.750000
#
# Coordination Sequence:
#
# PCOD9309380 Si02
#       7
#     8   8   8   4   8   8   8
#     4  10  22  40  66  89 116 162 210 259 314 374
#     4  11  23  40  59  93 130 165 215 250 315 369
#     4  11  23  39  61  89 125 168 214 254 311 374
#     4  10  24  36  62  90 132 174 202 262 302 372
#     4   9  20  41  65  89 117 154 208 260 315 380
#     4  11  24  38  62  95 125 159 203 259 325 375
#     4  11  24  39  60  89 131 174 210 260 306 368
#
# _framework density 9.2475579999999997
#
# number of rings (size 3 to 8) (size 9 to 14) (size 15 to 20)
#    0.000    1.538    0.769    4.154    9.692    3.077 
#    0.000    0.000    0.000   14.769    0.000    0.000 
#    0.000    0.000    0.000    0.000    0.000    0.000 
#
# Total GULP energy -145068.166358 kJ/mol
# GULP energy per Si atom -5579.544860 kJ/mol
# Density = 0.922651 g / cm^3
# Si number density = 9.247558 Si / 1000 Ang^3
#
#
#
# Elastic Constant Matrix: (Units=GPa)
#
#
# Indices 1 2 3 4 5 6 
#
# 1 180.8083 62.6902 46.1161 0.0000 3.3294 0.0000
# 2 62.6902 121.7912 38.0930 0.0000 -0.5327 0.0000
# 3 46.1161 38.0930 58.6082 0.0000 0.5759 0.0000
# 4 0.0000 0.0000 0.0000 25.9528 0.0000 -8.6439
# 5 3.3294 -0.5327 0.5759 0.0000 46.7125 0.0000
# 6 0.0000 0.0000 0.0000 -8.6439 0.0000 52.8574
#
#
#
# Elastic Compliance Matrix: (Units=1/GPa)
#
#
# Indices 1 2 3 4 5 6 
#
# 1 0.007503 -0.002535 -0.004252 0.000000 -0.000511 0.000000
# 2 -0.002535 0.011164 -0.005265 0.000000 0.000373 0.000000
# 3 -0.004252 -0.005265 0.023831 0.000000 -0.000051 0.000000
# 4 0.000000 0.000000 0.000000 0.040751 0.000000 0.006664
# 5 -0.000511 0.000373 -0.000051 0.000000 0.021449 0.000000
# 6 0.000000 0.000000 0.000000 0.006664 0.000000 0.020009
#
#
# Mechanical properties :
#
#
# Convention : Reuss Voigt Hill
#
# Bulk Modulus (GPa) = 54.36358 72.77849 63.57103
# Shear Modulus (GPa) = 32.27029 39.39176 35.83102
#
# Velocity S-wave (km/s) = 4.18161 4.62003 4.40628
# Velocity P-wave (km/s) = 7.26442 8.23985 7.76746
#
# Compressibility (1/GPa) = 0.01839467
#
# Stress axis : x y z
#
# Youngs Moduli (GPa) = 133.27361 89.57392 41.96285
#
# Poissons Ratio (x) = 0.22704 0.17841
# Poissons Ratio (y) = 0.33781 0.22095
# Poissons Ratio (z) = 0.56662 0.47164
#
# Static dielectric constant tensor:
#      x y z
#    x 1.644460 0.000000 0.008890 
#    y 0.000000 1.645770 0.000000 
#    z 0.008890 0.000000 1.665390 
# 
# From -- ./inp_files/52144.got.cif
#   From: 2010.05.17/outbox.ucp.g08.bks.cvg/sg15_27_cif.got.tgz:52144.got - 2010.06.11 12:40:34.
