data_PCOD9309974
_publ_section_title
;
Structure prediction by ZEFSAII (Michael W. Deem and Ramdas Pophale) SiO2 
 PCOD9309974
Probable space group: P 2 2 2
;
_chemical_formula_sum "Si O2"
_cell_formula_units_Z 24
_cell_length_a 11.170853
_cell_length_b 9.688434
_cell_length_c 11.341443
_cell_angle_alpha 90.000000
_cell_angle_beta 90.000000
_cell_angle_gamma 90.000000
_cell_volume 1227.462510
_symmetry_space_group_name_H-M "P 2 2 2"
_symmetry_group_IT_number 16
_symmetry_cell_setting 'orthorhombic'
loop_
_space_group_symop_operation_xyz
x,y,z
-x,-y,z
x,-y,-z
-x,y,-z
loop_
_atom_site_type_symbol
_atom_site_label
_atom_site_fract_x
_atom_site_fract_y
_atom_site_fract_z
Si Si1 0.373674 0.577076 0.391774
Si Si2 0.865624 0.697296 0.051781
Si Si3 0.095745 0.821180 0.324431
Si Si4 0.292528 0.159003 0.486468
Si Si5 0.804155 0.579440 0.817657
Si Si6 0.172278 0.108307 0.257887
O O1 0.500000 0.500000 0.382171
O O2 0.305677 0.500000 0.500000
O O3 0.373838 0.733688 0.441074
O O4 0.308551 0.563301 0.267682
O O5 0.857526 0.565268 0.138633
O O6 0.827778 0.827125 0.128948
O O7 0.784029 0.662739 0.939104
O O8 0.000000 0.711255 0.000000
O O9 0.162318 0.822963 0.449830
O O10 0.110704 0.674796 0.261755
O O11 0.957300 0.857666 0.315190
O O12 0.170668 0.941923 0.256969
O O13 0.270081 0.173802 0.346491
O O14 0.330464 0.000000 0.500000
#
# Coordination Sequence:
#
# PCOD9309974 Si02
#       6
#     4   4   4   4   4   4
#     4  10  21  39  60  81 104 134 188 249 300 350
#     4  11  21  33  50  74 115 159 194 221 266 335
#     4   9  18  30  49  80 116 155 191 221 266 334
#     4   9  18  34  56  83 116 146 182 234 296 341
#     4  10  20  35  51  74 110 150 185 238 272 329
#     4  10  18  30  50  80 117 156 189 221 266 339
#
# _framework density 19.552530999999998
#
# number of rings (size 3 to 8) (size 9 to 14) (size 15 to 20)
#    0.000    2.167    1.667    2.500    0.000    2.667 
#    0.000    3.333    0.000    1.000    0.000    0.000 
#    0.000   26.667    0.000    0.000    0.000    0.000 
#
# Total GULP energy -133714.677703 kJ/mol
# GULP energy per Si atom -5571.444904 kJ/mol
# Density = 1.950803 g / cm^3
# Si number density = 19.552531 Si / 1000 Ang^3
#
#
#
# Elastic Constant Matrix: (Units=GPa)
#
#
# Indices 1 2 3 4 5 6 
#
# 1 50.8125 6.5789 31.7847 0.0000 0.0000 0.0000
# 2 6.5789 53.3803 33.8568 0.0000 0.0000 0.0000
# 3 31.7847 33.8568 129.3273 0.0000 0.0000 0.0000
# 4 0.0000 0.0000 0.0000 25.2144 0.0000 0.0000
# 5 0.0000 0.0000 0.0000 0.0000 20.1244 0.0000
# 6 0.0000 0.0000 0.0000 0.0000 0.0000 19.6168
#
#
#
# Elastic Compliance Matrix: (Units=1/GPa)
#
#
# Indices 1 2 3 4 5 6 
#
# 1 0.023292 0.000911 -0.005963 0.000000 0.000000 0.000000
# 2 0.000911 0.022499 -0.006114 0.000000 0.000000 0.000000
# 3 -0.005963 -0.006114 0.010798 0.000000 0.000000 0.000000
# 4 0.000000 0.000000 0.000000 0.039660 0.000000 0.000000
# 5 0.000000 0.000000 0.000000 0.000000 0.049691 0.000000
# 6 0.000000 0.000000 0.000000 0.000000 0.000000 0.050977
#
#
# Mechanical properties :
#
#
# Convention : Reuss Voigt Hill
#
# Bulk Modulus (GPa) = 29.18993 41.99565 35.59279
# Shear Modulus (GPa) = 21.67614 23.74443 22.71028
#
# Velocity S-wave (km/s) = 3.33319 3.48859 3.41178
# Velocity P-wave (km/s) = 5.45664 6.14427 5.81064
#
# Compressibility (1/GPa) = 0.03425838
#
# Stress axis : x y z
#
# Youngs Moduli (GPa) = 42.93259 44.44629 92.60550
#
# Poissons Ratio (x) = -0.04051 0.55222
# Poissons Ratio (y) = -0.03913 0.56620
# Poissons Ratio (z) = 0.25601 0.27175
#
# Static dielectric constant tensor:
#      x y z
#    x 1.709020 0.000000 0.000000 
#    y 0.000000 1.756090 0.000000 
#    z 0.000000 0.000000 1.705740 
# 
# From -- ./inp_files/4674.got.cif
#   From: 2010.05.17/outbox.cif.g08.bks.cpg/sg16_3_cif.got.tgz:4674.got - 2010.06.03 22:28:35.
