data_PCOD9309461
_publ_section_title
;
Structure prediction by ZEFSAII (Michael W. Deem and Ramdas Pophale) SiO2 
 PCOD9309461
Probable space group: C 2/C
;
_chemical_formula_sum "Si O2"
_cell_formula_units_Z 28
_cell_length_a 9.000000
_cell_length_b 27.000000
_cell_length_c 18.000000
_cell_angle_alpha 90.000000
_cell_angle_beta 140.000000
_cell_angle_gamma 90.000000
_cell_volume 2811.553005
_symmetry_space_group_name_H-M "C 2/C"
_symmetry_group_IT_number 15
_symmetry_cell_setting 'monoclinic'
loop_
_space_group_symop_operation_xyz
x,y,z
-x,y,1/2-z
-x,-y,-z
x,-y,1/2+z
1/2+x,1/2+y,z
1/2-x,1/2+y,1/2-z
1/2-x,1/2-y,-z
1/2+x,1/2-y,1/2+z
loop_
_atom_site_type_symbol
_atom_site_label
_atom_site_fract_x
_atom_site_fract_y
_atom_site_fract_z
Si Si1 0.762223 0.771523 0.700996
Si Si2 0.409106 0.452037 0.854984
Si Si3 0.287575 0.062999 0.726252
Si Si4 0.472162 0.270996 0.539469
Si Si5 0.063107 0.877350 0.503071
Si Si6 0.069319 0.619541 0.131652
Si Si7 0.554855 0.946333 0.484957
O O1 0.567484 0.750791 0.563209
O O2 0.713938 0.830086 0.682026
O O3 0.000000 0.758529 0.750000
O O4 0.822422 0.761070 0.815486
O O5 0.337326 0.509525 0.827872
O O6 0.221966 0.420941 0.735167
O O7 0.415411 0.426175 0.937574
O O8 0.670962 0.446761 0.926484
O O9 0.500000 0.063982 0.750000
O O10 0.401261 0.064532 0.852442
O O11 0.112068 0.106452 0.630829
O O12 0.250000 0.250000 0.500000
O O13 0.483141 0.330030 0.522806
O O14 0.323413 0.867763 0.574870
O O15 0.014735 0.595575 0.031142
O O16 0.500000 0.000000 0.500000
#
# Coordination Sequence:
#
# PCOD9309461 Si02
#       7
#     8   8   8   8   8   8   8
#     4  10  22  43  70  99 135 180 236 297 362 436
#     4  12  24  44  70  99 141 189 238 284 349 434
#     4  12  26  43  69 101 144 190 245 297 357 426
#     4  10  24  44  70 101 135 180 238 299 366 439
#     4  12  26  45  70 101 141 184 236 293 361 433
#     4  12  25  42  71 101 139 186 238 289 359 426
#     4  12  26  43  66 103 143 189 239 297 355 420
#
# _framework density 9.9589090000000002
#
# number of rings (size 3 to 8) (size 9 to 14) (size 15 to 20)
#    0.000    0.571    4.286    3.857    2.000    5.143 
#    0.000    0.000    0.000    0.000    0.000    0.000 
#    0.000    0.000    0.000    0.000    0.000    0.000 
#
# Total GULP energy -156038.322204 kJ/mol
# GULP energy per Si atom -5572.797222 kJ/mol
# Density = 0.993624 g / cm^3
# Si number density = 9.958909 Si / 1000 Ang^3
#
#
#
# Elastic Constant Matrix: (Units=GPa)
#
#
# Indices 1 2 3 4 5 6 
#
# 1 53.4153 -1.8589 36.2164 0.0004 -5.1856 0.0000
# 2 -1.8589 65.7456 36.1381 -0.0002 -9.4101 -0.0001
# 3 36.2164 36.1381 161.5428 0.0014 -35.4571 0.0003
# 4 0.0004 -0.0002 0.0014 45.1694 0.0005 -8.8618
# 5 -5.1856 -9.4101 -35.4571 0.0005 43.4229 0.0001
# 6 0.0000 -0.0001 0.0003 -8.8618 0.0001 37.9298
#
#
#
# Elastic Compliance Matrix: (Units=1/GPa)
#
#
# Indices 1 2 3 4 5 6 
#
# 1 0.023042 0.003939 -0.006403 0.000000 -0.001623 0.000000
# 2 0.003939 0.018034 -0.004820 0.000000 0.000443 0.000000
# 3 -0.006403 -0.004820 0.010121 0.000000 0.006455 0.000000
# 4 0.000000 0.000000 0.000000 0.023202 -0.000001 0.005421
# 5 -0.001623 0.000443 0.006455 -0.000001 0.028202 0.000000
# 6 0.000000 0.000000 0.000000 0.005421 0.000000 0.027631
#
#
# Mechanical properties :
#
#
# Convention : Reuss Voigt Hill
#
# Bulk Modulus (GPa) = 27.30144 46.85498 37.07821
# Shear Modulus (GPa) = 31.84462 39.31830 35.58146
#
# Velocity S-wave (km/s) = 4.00284 4.44782 4.23118
# Velocity P-wave (km/s) = 5.92456 7.06772 6.52124
#
# Compressibility (1/GPa) = 0.03662811
#
# Stress axis : x y z
#
# Youngs Moduli (GPa) = 43.39850 55.44954 98.80405
#
# Poissons Ratio (x) = -0.21841 0.63267
# Poissons Ratio (y) = -0.17094 0.47627
# Poissons Ratio (z) = 0.27789 0.26729
#
# Static dielectric constant tensor:
#      x y z
#    x 1.738990 0.000000 -0.022570 
#    y 0.000000 1.700610 0.000000 
#    z -0.022570 0.000000 1.783390 
# 
# From -- ./inp_files/193907.got.cif
#   From: 2010.05.17/outbox.ucp.g08.bks.cvg/sg15_97_cif.got.tgz:193907.got - 2010.06.11 12:40:34.
