data_PCOD9309271
_publ_section_title
;
Structure prediction by ZEFSAII (Michael W. Deem and Ramdas Pophale) SiO2 
 PCOD9309271
Probable space group: C 2/C
;
_chemical_formula_sum "Si O2"
_cell_formula_units_Z 30
_cell_length_a 15.000000
_cell_length_b 24.000000
_cell_length_c 9.000000
_cell_angle_alpha 90.000000
_cell_angle_beta 110.000000
_cell_angle_gamma 90.000000
_cell_volume 3044.604091
_symmetry_space_group_name_H-M "C 2/C"
_symmetry_group_IT_number 15
_symmetry_cell_setting 'monoclinic'
loop_
_space_group_symop_operation_xyz
x,y,z
-x,y,1/2-z
-x,-y,-z
x,-y,1/2+z
1/2+x,1/2+y,z
1/2-x,1/2+y,1/2-z
1/2-x,1/2-y,-z
1/2+x,1/2-y,1/2+z
loop_
_atom_site_type_symbol
_atom_site_label
_atom_site_fract_x
_atom_site_fract_y
_atom_site_fract_z
Si Si1 0.500000 0.561478 0.250000
Si Si2 0.565728 0.746073 0.148976
Si Si3 0.764555 0.634753 0.378369
Si Si4 0.593847 0.629871 0.045265
Si Si5 0.268415 0.304521 0.326258
Si Si6 0.697880 0.525920 0.491950
Si Si7 0.070316 0.290272 0.644721
Si Si8 0.188223 0.079764 0.817075
O O1 0.521484 0.597198 0.112780
O O2 0.594534 0.528597 0.351025
O O3 0.500000 0.726951 0.250000
O O4 0.569213 0.695143 0.033623
O O5 0.670047 0.770047 0.245082
O O6 0.502685 0.792144 0.033551
O O7 0.687851 0.629980 0.202641
O O8 0.732373 0.675169 0.499780
O O9 0.763075 0.574247 0.456540
O O10 0.857290 0.658908 0.349314
O O11 0.608326 0.603637 0.890017
O O12 0.357928 0.264098 0.333228
O O13 0.270993 0.361097 0.225902
O O14 0.680498 0.543225 0.656475
O O15 0.735684 0.465084 0.460553
O O16 0.000000 0.290906 0.750000
#
# Coordination Sequence:
#
# PCOD9309271 Si02
#       8
#     4   8   8   8   8   8   8   8
#     4  10  22  38  62  94 126 174 226 270 330 418
#     4  12  23  40  69  99 136 182 225 271 343 410
#     4  10  21  42  66  87 137 179 222 271 337 399
#     4  11  22  36  63  93 132 177 213 271 338 399
#     4  11  24  45  65  99 141 180 226 286 332 412
#     4  10  23  43  63  93 127 180 229 281 345 395
#     4  12  25  38  62 103 136 179 222 276 342 406
#     4  11  25  42  66  92 128 183 225 282 342 404
#
# _framework density 9.8534980000000001
#
# number of rings (size 3 to 8) (size 9 to 14) (size 15 to 20)
#    0.000    1.067    3.333    3.600    5.600    3.733 
#    1.200    0.000    0.000    1.600    0.000    0.000 
#    0.000    0.000    0.000    0.000    0.000    0.000 
#
# Total GULP energy -167108.992982 kJ/mol
# GULP energy per Si atom -5570.299766 kJ/mol
# Density = 0.983107 g / cm^3
# Si number density = 9.853498 Si / 1000 Ang^3
#
#
#
# Elastic Constant Matrix: (Units=GPa)
#
#
# Indices 1 2 3 4 5 6 
#
# 1 125.0545 46.5136 39.2335 0.0000 -21.1992 0.0000
# 2 46.5136 110.7543 22.3030 0.0000 -12.9465 0.0000
# 3 39.2335 22.3030 71.0277 0.0000 -17.9030 0.0000
# 4 0.0000 0.0000 0.0000 38.5722 0.0000 -12.0217
# 5 -21.1992 -12.9465 -17.9030 0.0000 43.6279 0.0000
# 6 0.0000 0.0000 0.0000 -12.0217 0.0000 33.3341
#
#
#
# Elastic Compliance Matrix: (Units=1/GPa)
#
#
# Indices 1 2 3 4 5 6 
#
# 1 0.011103 -0.003479 -0.004396 0.000000 0.002559 0.000000
# 2 -0.003479 0.010858 -0.001229 0.000000 0.001027 0.000000
# 3 -0.004396 -0.001229 0.018139 0.000000 0.004943 0.000000
# 4 0.000000 0.000000 0.000000 0.029208 0.000000 0.010534
# 5 0.002559 0.001027 0.004943 0.000000 0.026498 0.000000
# 6 0.000000 0.000000 0.000000 0.010534 0.000000 0.033798
#
#
# Mechanical properties :
#
#
# Convention : Reuss Voigt Hill
#
# Bulk Modulus (GPa) = 45.67666 58.10408 51.89037
# Shear Modulus (GPa) = 32.23554 36.35927 34.29740
#
# Velocity S-wave (km/s) = 4.04882 4.30000 4.17630
# Velocity P-wave (km/s) = 6.71457 7.36215 7.04581
#
# Compressibility (1/GPa) = 0.02189302
#
# Stress axis : x y z
#
# Youngs Moduli (GPa) = 90.06320 92.10221 55.13039
#
# Poissons Ratio (x) = 0.32040 0.24234
# Poissons Ratio (y) = 0.31331 0.06774
# Poissons Ratio (z) = 0.39590 0.11318
#
# Static dielectric constant tensor:
#      x y z
#    x 1.713020 0.000000 -0.004210 
#    y 0.000000 1.767720 0.000000 
#    z -0.004210 0.000000 1.716720 
# 
# From -- ./inp_files/42710.got.cif
#   From: 2010.05.17/outbox.ucp.g08.bks.cvg/sg15_22_cif.got.tgz:42710.got - 2010.06.11 12:40:34.
