data_PCOD9309688
_publ_section_title
;
Structure prediction by ZEFSAII (Michael W. Deem and Ramdas Pophale) SiO2 
 PCOD9309688
Probable space group: C 2/C
;
_chemical_formula_sum "Si O2"
_cell_formula_units_Z 28
_cell_length_a 15.000000
_cell_length_b 12.000000
_cell_length_c 15.000000
_cell_angle_alpha 90.000000
_cell_angle_beta 90.000000
_cell_angle_gamma 90.000000
_cell_volume 2700.000000
_symmetry_space_group_name_H-M "C 2/C"
_symmetry_group_IT_number 15
_symmetry_cell_setting 'monoclinic'
loop_
_space_group_symop_operation_xyz
x,y,z
-x,y,1/2-z
-x,-y,-z
x,-y,1/2+z
1/2+x,1/2+y,z
1/2-x,1/2+y,1/2-z
1/2-x,1/2-y,-z
1/2+x,1/2-y,1/2+z
loop_
_atom_site_type_symbol
_atom_site_label
_atom_site_fract_x
_atom_site_fract_y
_atom_site_fract_z
Si Si1 0.988675 0.363099 0.507723
Si Si2 0.419867 0.250310 0.182694
Si Si3 0.633346 0.312947 0.937712
Si Si4 0.752858 0.713062 0.725800
Si Si5 0.528039 0.516228 0.851573
Si Si6 0.669776 0.539056 0.596337
Si Si7 0.177387 0.232787 0.079860
O O1 0.952020 0.333931 0.606910
O O2 0.911877 0.299800 0.449367
O O3 0.000000 0.500000 0.500000
O O4 0.078167 0.290721 0.482559
O O5 0.500000 0.266102 0.250000
O O6 0.336043 0.220157 0.243911
O O7 0.406369 0.376316 0.143490
O O8 0.689938 0.270305 0.852549
O O9 0.566483 0.407519 0.898759
O O10 0.691872 0.383120 0.010315
O O11 0.719470 0.595716 0.681264
O O12 0.801020 0.714924 0.822332
O O13 0.500000 0.488458 0.750000
O O14 0.436370 0.557322 0.895023
O O15 0.676658 0.403918 0.589999
O O16 0.250000 0.250000 0.000000
#
# Coordination Sequence:
#
# PCOD9309688 Si02
#       7
#     8   8   8   8   8   8   8
#     4  12  27  51  71 107 151 198 244 303 381 453
#     4  11  22  47  74 104 141 198 245 299 372 446
#     4  12  26  44  77 112 146 186 250 312 374 435
#     4  12  27  44  72 117 151 189 249 312 376 434
#     4  11  20  41  78 105 135 185 253 301 353 437
#     4  12  24  47  77 108 144 196 251 308 361 451
#     4  12  28  49  76 107 153 197 249 304 379 445
#
# _framework density 10.370369999999999
#
# number of rings (size 3 to 8) (size 9 to 14) (size 15 to 20)
#    0.000    0.286    7.143    2.571    2.000    0.000 
#    7.714    0.000    0.000    0.000    0.000    0.000 
#    0.000    0.000    0.000    0.000    0.000    0.000 
#
# Total GULP energy -156278.233795 kJ/mol
# GULP energy per Si atom -5581.365493 kJ/mol
# Density = 1.034677 g / cm^3
# Si number density = 10.370370 Si / 1000 Ang^3
#
#
#
# Elastic Constant Matrix: (Units=GPa)
#
#
# Indices 1 2 3 4 5 6 
#
# 1 86.1187 32.7936 44.6388 0.0000 -12.7180 0.0000
# 2 32.7936 179.2728 66.8267 0.0000 2.4608 0.0000
# 3 44.6388 66.8267 150.4248 0.0000 -7.9406 0.0000
# 4 0.0000 0.0000 0.0000 41.2576 0.0000 -0.4194
# 5 -12.7180 2.4608 -7.9406 0.0000 47.6590 0.0000
# 6 0.0000 0.0000 0.0000 -0.4194 0.0000 35.2589
#
#
#
# Elastic Compliance Matrix: (Units=1/GPa)
#
#
# Indices 1 2 3 4 5 6 
#
# 1 0.014445 -0.001386 -0.003494 0.000000 0.003344 0.000000
# 2 -0.001386 0.006852 -0.002695 0.000000 -0.001173 0.000000
# 3 -0.003494 -0.002695 0.008919 0.000000 0.000693 0.000000
# 4 0.000000 0.000000 0.000000 0.024241 0.000000 0.000288
# 5 0.003344 -0.001173 0.000693 0.000000 0.022051 0.000000
# 6 0.000000 0.000000 0.000000 0.000288 0.000000 0.028365
#
#
# Mechanical properties :
#
#
# Convention : Reuss Voigt Hill
#
# Bulk Modulus (GPa) = 66.37579 78.25937 72.31758
# Shear Modulus (GPa) = 39.98609 42.93892 41.46251
#
# Velocity S-wave (km/s) = 4.39555 4.55496 4.47596
# Velocity P-wave (km/s) = 7.60482 8.09182 7.85210
#
# Compressibility (1/GPa) = 0.01506573
#
# Stress axis : x y z
#
# Youngs Moduli (GPa) = 69.22994 145.93889 112.12591
#
# Poissons Ratio (x) = 0.20221 0.39181
# Poissons Ratio (y) = 0.09593 0.30216
# Poissons Ratio (z) = 0.24192 0.39328
#
# Static dielectric constant tensor:
#      x y z
#    x 1.830280 0.000000 0.003950 
#    y 0.000000 1.753960 0.000000 
#    z 0.003950 0.000000 1.804480 
# 
# From -- ./inp_files/152584.got.cif
#   From: 2010.05.17/outbox.ucp.g08.bks.cvg/sg15_77_cif.got.tgz:152584.got - 2010.06.11 12:40:34.
