data_PCOD9309972
_publ_section_title
;
Structure prediction by ZEFSAII (Michael W. Deem and Ramdas Pophale) SiO2 
 PCOD9309972
Probable space group: P 2 2 2
;
_chemical_formula_sum "Si O2"
_cell_formula_units_Z 28
_cell_length_a 15.874457
_cell_length_b 8.708656
_cell_length_c 12.091090
_cell_angle_alpha 90.000000
_cell_angle_beta 90.000000
_cell_angle_gamma 90.000000
_cell_volume 1671.534976
_symmetry_space_group_name_H-M "P 2 2 2"
_symmetry_group_IT_number 16
_symmetry_cell_setting 'orthorhombic'
loop_
_space_group_symop_operation_xyz
x,y,z
-x,-y,z
x,-y,-z
-x,y,-z
loop_
_atom_site_type_symbol
_atom_site_label
_atom_site_fract_x
_atom_site_fract_y
_atom_site_fract_z
Si Si1 0.098260 0.187165 0.500000
Si Si2 0.678684 0.316364 0.871177
Si Si3 0.165029 0.185897 0.737589
Si Si4 1.000000 0.186981 0.126081
Si Si5 0.678684 0.316364 0.128824
Si Si6 0.500000 0.823903 0.865983
Si Si7 0.165028 0.185898 0.262411
O O1 0.145713 0.234367 0.611782
O O2 0.145713 0.234368 0.388218
O O3 0.000000 0.236512 0.500000
O O4 0.095969 0.000000 0.500000
O O5 0.679911 0.500000 0.869651
O O6 0.586693 0.258219 0.834002
O O7 0.751505 0.251171 0.793436
O O8 0.692033 0.266521 0.000000
O O9 0.248496 0.251170 0.793435
O O10 0.083994 0.233976 0.809855
O O11 0.169512 1.000000 0.739621
O O12 0.083993 0.233977 0.190146
O O13 0.000000 0.000000 0.125445
O O14 0.000000 0.240520 0.000000
O O15 0.586692 0.258220 0.165998
O O16 0.500000 0.000000 0.828589
O O17 0.500000 0.822612 0.000000
#
# Coordination Sequence:
#
# PCOD9309972 Si02
#       7
#     4   4   4   4   4   4   4
#     4   9  16  30  51  74  97 128 173 221 260 290
#     4  10  20  33  49  73 106 138 165 199 250 306
#     4  10  18  30  50  73  99 131 171 214 252 295
#     4   9  16  25  42  70  99 127 162 205 248 290
#     4  10  20  33  49  73 106 138 165 199 250 306
#     4   9  17  31  53  78 101 128 165 205 245 297
#     4  10  18  30  50  73  99 131 171 214 252 295
#
# _framework density 16.751071
#
# number of rings (size 3 to 8) (size 9 to 14) (size 15 to 20)
#    0.000    2.429    1.429    2.143    0.000    4.571 
#    0.000    1.429    0.000    4.286    0.000    6.000 
#    0.000    0.000    0.000    0.000    0.000    0.000 
#
# Total GULP energy -156139.701654 kJ/mol
# GULP energy per Si atom -5576.417916 kJ/mol
# Density = 1.671294 g / cm^3
# Si number density = 16.751071 Si / 1000 Ang^3
#
#
#
# Elastic Constant Matrix: (Units=GPa)
#
#
# Indices 1 2 3 4 5 6 
#
# 1 187.8941 40.8225 97.7130 0.0000 0.0000 0.0000
# 2 40.8225 28.9914 31.1018 0.0000 0.0000 0.0000
# 3 97.7130 31.1018 141.1954 0.0000 0.0000 0.0000
# 4 0.0000 0.0000 0.0000 13.2826 0.0000 0.0000
# 5 0.0000 0.0000 0.0000 0.0000 3.0261 0.0000
# 6 0.0000 0.0000 0.0000 0.0000 0.0000 -40.7027
#
#
#
# Elastic Compliance Matrix: (Units=1/GPa)
#
#
# Indices 1 2 3 4 5 6 
#
# 1 0.009666 -0.008426 -0.004834 0.000000 0.000000 0.000000
# 2 -0.008426 0.052511 -0.005736 0.000000 0.000000 0.000000
# 3 -0.004834 -0.005736 0.011691 0.000000 0.000000 0.000000
# 4 0.000000 0.000000 0.000000 0.075287 0.000000 0.000000
# 5 0.000000 0.000000 0.000000 0.000000 0.330460 0.000000
# 6 0.000000 0.000000 0.000000 0.000000 0.000000 -0.024568
#
#
# Mechanical properties :
#
#
# Convention : Reuss Voigt Hill
#
# Bulk Modulus (GPa) = 27.87252 77.48393 52.67822
# Shear Modulus (GPa) = 9.90108 7.68410 8.79259
#
# Velocity S-wave (km/s) = 2.43383 2.14411 2.29355
# Velocity P-wave (km/s) = 4.95716 7.24473 6.20724
#
# Compressibility (1/GPa) = 0.03587763
#
# Stress axis : x y z
#
# Youngs Moduli (GPa) = 103.45097 19.04376 85.53686
#
# Poissons Ratio (x) = 0.16046 0.41345
# Poissons Ratio (y) = 0.87165 0.49062
# Poissons Ratio (z) = 0.50004 0.10923
#
# Static dielectric constant tensor:
#      x y z
#    x 1.539990 0.000000 0.000000 
#    y 0.000000 1.565450 0.000000 
#    z 0.000000 0.000000 1.558070 
# 
# From -- ./inp_files/7120.got.cif
#   From: 2010.05.17/outbox.cif.g08.bks.cpg/sg16_4_cif.got.tgz:7120.got - 2010.06.03 22:28:35.
