data_PCOD9309737
_publ_section_title
;
Structure prediction by ZEFSAII (Michael W. Deem and Ramdas Pophale) SiO2 
 PCOD9309737
Probable space group: C 2/C
;
_chemical_formula_sum "Si O2"
_cell_formula_units_Z 24
_cell_length_a 27.000000
_cell_length_b 12.000000
_cell_length_c 21.000000
_cell_angle_alpha 90.000000
_cell_angle_beta 20.000000
_cell_angle_gamma 90.000000
_cell_volume 2327.105055
_symmetry_space_group_name_H-M "C 2/C"
_symmetry_group_IT_number 15
_symmetry_cell_setting 'monoclinic'
loop_
_space_group_symop_operation_xyz
x,y,z
-x,y,1/2-z
-x,-y,-z
x,-y,1/2+z
1/2+x,1/2+y,z
1/2-x,1/2+y,1/2-z
1/2-x,1/2-y,-z
1/2+x,1/2-y,1/2+z
loop_
_atom_site_type_symbol
_atom_site_label
_atom_site_fract_x
_atom_site_fract_y
_atom_site_fract_z
Si Si1 0.146126 0.632688 0.429658
Si Si2 0.981627 0.681661 0.133426
Si Si3 0.946711 0.910011 0.239549
Si Si4 0.358322 0.949478 0.963452
Si Si5 0.404111 0.216116 0.644629
Si Si6 0.268240 0.971188 0.811687
O O1 0.100724 0.556703 0.543379
O O2 0.288978 0.687801 0.283958
O O3 0.179042 0.569778 0.322449
O O4 0.024877 0.719656 0.553314
O O5 0.925330 0.780843 0.245678
O O6 0.855527 0.594269 0.263379
O O7 0.126011 0.640760 0.997518
O O8 0.029065 0.722998 0.006667
O O9 0.792159 0.957406 0.395909
O O10 0.000000 0.920893 0.250000
O O11 0.095011 0.953476 0.025971
O O12 0.500000 0.925287 0.750000
O O13 0.321912 0.098029 0.751314
#
# Coordination Sequence:
#
# PCOD9309737 Si02
#       6
#     8   8   8   8   8   8
#     4  11  24  43  70 100 132 180 221 282 325 399
#     4  11  21  43  68 101 137 176 212 274 345 401
#     4  12  27  41  68 104 136 174 226 280 328 407
#     4  12  26  45  66  93 138 182 224 268 345 392
#     4  11  23  41  70 103 137 170 226 273 336 393
#     4  11  22  43  68 101 141 170 220 276 338 393
#
# _framework density 10.313243
#
# number of rings (size 3 to 8) (size 9 to 14) (size 15 to 20)
#    0.000    0.667    5.000    3.500    4.667    2.667 
#    0.000    1.667    0.000    0.000    0.000    0.000 
#    0.000    0.000    0.000    0.000    0.000    0.000 
#
# Total GULP energy -133707.637523 kJ/mol
# GULP energy per Si atom -5571.151563 kJ/mol
# Density = 1.028977 g / cm^3
# Si number density = 10.313243 Si / 1000 Ang^3
#
#
#
# Elastic Constant Matrix: (Units=GPa)
#
#
# Indices 1 2 3 4 5 6 
#
# 1 140.2122 -5.8178 18.4111 0.0000 -18.8139 0.0000
# 2 -5.8178 -52.8382 -17.9904 -0.0001 37.5057 0.0001
# 3 18.4111 -17.9904 57.9577 0.0001 -20.2327 -0.0001
# 4 0.0000 -0.0001 0.0001 25.5480 0.0000 -4.1749
# 5 -18.8139 37.5057 -20.2327 0.0000 21.8567 0.0000
# 6 0.0000 0.0001 -0.0001 -4.1749 0.0000 29.5619
#
#
#
# Elastic Compliance Matrix: (Units=1/GPa)
#
#
# Indices 1 2 3 4 5 6 
#
# 1 0.007725 0.001618 -0.000886 0.000000 0.003053 0.000000
# 2 0.001618 -0.007704 0.003244 0.000000 0.017616 0.000000
# 3 -0.000886 0.003244 0.024131 0.000000 0.016008 0.000000
# 4 0.000000 0.000000 0.000000 0.040067 0.000000 0.005659
# 5 0.003053 0.017616 0.016008 0.000000 0.032970 0.000000
# 6 0.000000 0.000000 0.000000 0.005659 0.000000 0.034626
#
#
# Mechanical properties :
#
#
# Convention : Reuss Voigt Hill
#
# Bulk Modulus (GPa) = 31.14823 14.94859 23.04841
# Shear Modulus (GPa) = 37.15717 25.44192 31.29955
#
# Velocity S-wave (km/s) = 4.24893 3.51587 3.89966
# Velocity P-wave (km/s) = 6.26140 4.87287 5.61025
#
# Compressibility (1/GPa) = 0.03210455
#
# Stress axis : x y z
#
# Youngs Moduli (GPa) = 129.44700 -129.80063 41.44094
#
# Poissons Ratio (x) = 0.21003 0.03672
# Poissons Ratio (y) = -0.20946 -0.13445
# Poissons Ratio (z) = 0.11469 0.42111
#
# Static dielectric constant tensor:
#      x y z
#    x 1.709630 0.000000 0.003390 
#    y 0.000000 1.831920 0.000000 
#    z 0.003390 0.000000 1.793630 
# 
# From -- ./inp_files/66428.got.cif
#   From: 2010.05.17/outbox.ucp.g08.bks.cvg/sg15_34_cif.got.tgz:66428.got - 2010.06.11 12:40:34.
