data_PCOD9309128
_publ_section_title
;
Structure prediction by ZEFSAII (Michael W. Deem and Ramdas Pophale) SiO2 
 PCOD9309128
Probable space group: C 2/C
;
_chemical_formula_sum "Si O2"
_cell_formula_units_Z 24
_cell_length_a 15.000000
_cell_length_b 30.000000
_cell_length_c 15.000000
_cell_angle_alpha 90.000000
_cell_angle_beta 20.000000
_cell_angle_gamma 90.000000
_cell_volume 2308.635967
_symmetry_space_group_name_H-M "C 2/C"
_symmetry_group_IT_number 15
_symmetry_cell_setting 'monoclinic'
loop_
_space_group_symop_operation_xyz
x,y,z
-x,y,1/2-z
-x,-y,-z
x,-y,1/2+z
1/2+x,1/2+y,z
1/2-x,1/2+y,1/2-z
1/2-x,1/2-y,-z
1/2+x,1/2-y,1/2+z
loop_
_atom_site_type_symbol
_atom_site_label
_atom_site_fract_x
_atom_site_fract_y
_atom_site_fract_z
Si Si1 0.289297 0.085686 0.786389
Si Si2 0.500000 0.141303 0.750000
Si Si3 0.213518 0.901244 0.977852
Si Si4 0.786164 0.003537 0.525249
Si Si5 0.767373 0.373008 0.734824
Si Si6 0.000000 0.797229 0.750000
Si Si7 0.804371 0.227178 0.246988
O O1 0.456632 0.109561 0.706644
O O2 0.235174 0.035504 0.869407
O O3 0.479487 0.096220 0.524378
O O4 0.004445 0.107738 0.047561
O O5 0.756801 0.171394 0.503592
O O6 0.500000 0.901960 0.750000
O O7 0.222868 0.871704 0.881806
O O8 0.145195 0.952521 0.015451
O O9 0.000000 0.886809 0.250000
O O10 0.500000 0.003780 0.750000
O O11 0.000000 0.018842 0.250000
O O12 0.796943 0.322959 0.670742
O O13 0.898794 0.769620 0.760947
O O14 0.569572 0.260724 0.446662
#
# Coordination Sequence:
#
# PCOD9309128 Si02
#       7
#     8   4   8   8   8   4   8
#     4  12  22  36  60  92 129 168 202 242 292 348
#     4  12  20  35  56  86 130 170 200 234 276 355
#     4  10  23  45  67  89 118 158 204 256 322 371
#     4  10  21  36  60  90 126 168 203 243 292 354
#     4  12  25  41  64  91 121 159 207 260 306 359
#     4  12  22  39  58  86 124 174 208 226 286 357
#     4  12  24  40  59  88 124 161 200 249 298 356
#
# _framework density 10.395749
#
# number of rings (size 3 to 8) (size 9 to 14) (size 15 to 20)
#    0.000    0.667    4.167    4.500    1.167    1.333 
#    0.000    0.000    0.000    3.000    0.000    0.000 
#    0.000    0.000    0.000    0.000    0.000    0.000 
#
# Total GULP energy -134162.145624 kJ/mol
# GULP energy per Si atom -5590.089401 kJ/mol
# Density = 1.037209 g / cm^3
# Si number density = 10.395749 Si / 1000 Ang^3
#
#
#
# Elastic Constant Matrix: (Units=GPa)
#
#
# Indices 1 2 3 4 5 6 
#
# 1 31.8650 11.6614 0.2420 1.0972 8.0567 0.6203
# 2 11.6614 29.1044 4.5182 0.0871 -1.3157 0.2892
# 3 0.2420 4.5182 128.7371 2.5059 7.5848 2.0008
# 4 1.0972 0.0871 2.5059 171.0338 1.0427 101.7377
# 5 8.0567 -1.3157 7.5848 1.0427 25.2147 1.0560
# 6 0.6203 0.2892 2.0008 101.7377 1.0560 97.7254
#
#
#
# Elastic Compliance Matrix: (Units=1/GPa)
#
#
# Indices 1 2 3 4 5 6 
#
# 1 0.041466 -0.017492 0.001397 -0.000367 -0.014580 0.000299
# 2 -0.017492 0.042049 -0.001936 0.000279 0.008369 -0.000355
# 3 0.001397 -0.001936 0.008009 -0.000071 -0.002951 -0.000062
# 4 -0.000367 0.000279 -0.000071 0.015361 0.000188 -0.015990
# 5 -0.014580 0.008369 -0.002951 0.000188 0.045658 -0.000560
# 6 0.000299 -0.000355 -0.000062 -0.015990 -0.000560 0.026886
#
#
# Mechanical properties :
#
#
# Convention : Reuss Voigt Hill
#
# Bulk Modulus (GPa) = 18.02990 24.72773 21.37882
# Shear Modulus (GPa) = 21.36937 70.34711 45.85824
#
# Velocity S-wave (km/s) = 3.20940 5.82306 4.70150
# Velocity P-wave (km/s) = 4.73543 7.55842 6.30690
#
# Compressibility (1/GPa) = 0.05546341
#
# Stress axis : x y z
#
# Youngs Moduli (GPa) = 24.11586 23.78152 124.85490
#
# Poissons Ratio (x) = 0.41600 -0.17448
# Poissons Ratio (y) = 0.42185 0.24171
# Poissons Ratio (z) = -0.03370 0.04604
#
# Static dielectric constant tensor:
#      x y z
#    x 1.745440 -0.000040 0.046780 
#    y -0.000040 1.730090 0.000060 
#    z 0.046780 0.000060 1.779720 
# 
# From -- ./inp_files/157668.got.cif
#   From: 2010.05.17/outbox.ucp.g08.bks.cvg/sg15_79_cif.got.tgz:157668.got - 2010.06.11 12:40:34.
