data_PCOD9309132
_publ_section_title
;
Structure prediction by ZEFSAII (Michael W. Deem and Ramdas Pophale) SiO2 
 PCOD9309132
Probable space group: C 2/C
;
_chemical_formula_sum "Si O2"
_cell_formula_units_Z 28
_cell_length_a 18.000000
_cell_length_b 9.000000
_cell_length_c 24.000000
_cell_angle_alpha 90.000000
_cell_angle_beta 130.000000
_cell_angle_gamma 90.000000
_cell_volume 2978.380795
_symmetry_space_group_name_H-M "C 2/C"
_symmetry_group_IT_number 15
_symmetry_cell_setting 'monoclinic'
loop_
_space_group_symop_operation_xyz
x,y,z
-x,y,1/2-z
-x,-y,-z
x,-y,1/2+z
1/2+x,1/2+y,z
1/2-x,1/2+y,1/2-z
1/2-x,1/2-y,-z
1/2+x,1/2-y,1/2+z
loop_
_atom_site_type_symbol
_atom_site_label
_atom_site_fract_x
_atom_site_fract_y
_atom_site_fract_z
Si Si1 0.063103 0.711067 0.690383
Si Si2 0.646313 0.247660 0.856519
Si Si3 0.093066 0.389060 0.648988
Si Si4 0.743602 0.066094 0.422439
Si Si5 0.731619 0.709963 0.186730
Si Si6 0.796705 0.494441 0.401851
Si Si7 0.618860 0.786072 0.957533
O O1 0.113581 0.716692 0.776102
O O2 0.062850 0.544314 0.664661
O O3 0.132468 0.794129 0.677218
O O4 0.951542 0.759509 0.651954
O O5 0.714043 0.394565 0.885333
O O6 0.708957 0.104962 0.907582
O O7 0.180911 0.322976 0.728294
O O8 0.128565 0.416632 0.602359
O O9 0.996666 0.290026 0.601587
O O10 0.759628 0.105292 0.364344
O O11 0.663010 0.162141 0.418847
O O12 0.838389 0.127584 0.501115
O O13 0.740925 0.871251 0.161118
O O14 0.845270 0.404292 0.477043
#
# Coordination Sequence:
#
# PCOD9309132 Si02
#       7
#     8   8   8   8   8   8   8
#     4  10  21  36  65  95 118 159 212 259 320 374
#     4  11  20  39  66  92 126 163 203 264 323 369
#     4  11  19  39  68  91 123 171 212 260 313 378
#     4  10  21  40  66  89 128 167 217 254 303 383
#     4  10  21  39  67  94 121 162 214 268 306 371
#     4  10  23  39  64  95 131 162 207 269 317 374
#     4  10  22  40  63  94 126 173 218 250 308 385
#
# _framework density 9.4010809999999996
#
# number of rings (size 3 to 8) (size 9 to 14) (size 15 to 20)
#    0.000    1.714    4.286    0.429    0.000    1.143 
#    0.000    9.286    0.000    0.000    0.000    0.000 
#    0.000    0.000    0.000    0.000    0.000    0.000 
#
# Total GULP energy -156121.191557 kJ/mol
# GULP energy per Si atom -5575.756841 kJ/mol
# Density = 0.937968 g / cm^3
# Si number density = 9.401081 Si / 1000 Ang^3
#
#
#
# Elastic Constant Matrix: (Units=GPa)
#
#
# Indices 1 2 3 4 5 6 
#
# 1 173.6917 32.6475 39.9837 0.0000 -2.1004 0.0000
# 2 32.6475 50.5942 9.3403 0.0000 7.5988 0.0000
# 3 39.9837 9.3403 59.6207 0.0000 -2.8492 0.0000
# 4 0.0000 0.0000 0.0000 29.7595 0.0000 0.5234
# 5 -2.1004 7.5988 -2.8492 0.0000 39.3986 0.0000
# 6 0.0000 0.0000 0.0000 0.5234 0.0000 37.0439
#
#
#
# Elastic Compliance Matrix: (Units=1/GPa)
#
#
# Indices 1 2 3 4 5 6 
#
# 1 0.007566 -0.004210 -0.004371 0.000000 0.000899 0.000000
# 2 -0.004210 0.023403 -0.001073 0.000000 -0.004816 0.000000
# 3 -0.004371 -0.001073 0.019940 0.000000 0.001416 0.000000
# 4 0.000000 0.000000 0.000000 0.033611 0.000000 -0.000475
# 5 0.000899 -0.004816 0.001416 0.000000 0.026461 0.000000
# 6 0.000000 0.000000 0.000000 -0.000475 0.000000 0.027002
#
#
# Mechanical properties :
#
#
# Convention : Reuss Voigt Hill
#
# Bulk Modulus (GPa) = 31.64561 49.76107 40.70334
# Shear Modulus (GPa) = 29.79290 34.70274 32.24782
#
# Velocity S-wave (km/s) = 3.98495 4.30080 4.14588
# Velocity P-wave (km/s) = 6.16770 7.15441 6.67930
#
# Compressibility (1/GPa) = 0.03159996
#
# Stress axis : x y z
#
# Youngs Moduli (GPa) = 132.17306 42.72915 50.15029
#
# Poissons Ratio (x) = 0.17990 0.21923
# Poissons Ratio (y) = 0.55647 0.05381
# Poissons Ratio (z) = 0.57778 0.04585
#
# Static dielectric constant tensor:
#      x y z
#    x 1.668110 0.000000 0.011190 
#    y 0.000000 1.678300 0.000000 
#    z 0.011190 0.000000 1.645200 
# 
# From -- ./inp_files/276637.got.cif
#   From: 2010.05.17/outbox.ucp.g08.bks.cvg/sg15_139_cif.got.tgz:276637.got - 2010.06.11 12:40:34.
