data_PCOD9309723
_publ_section_title
;
Structure prediction by ZEFSAII (Michael W. Deem and Ramdas Pophale) SiO2 
 PCOD9309723
Probable space group: C 2/C
;
_chemical_formula_sum "Si O2"
_cell_formula_units_Z 24
_cell_length_a 12.000000
_cell_length_b 21.000000
_cell_length_c 27.000000
_cell_angle_alpha 90.000000
_cell_angle_beta 160.000000
_cell_angle_gamma 90.000000
_cell_volume 2327.105055
_symmetry_space_group_name_H-M "C 2/C"
_symmetry_group_IT_number 15
_symmetry_cell_setting 'monoclinic'
loop_
_space_group_symop_operation_xyz
x,y,z
-x,y,1/2-z
-x,-y,-z
x,-y,1/2+z
1/2+x,1/2+y,z
1/2-x,1/2+y,1/2-z
1/2-x,1/2-y,-z
1/2+x,1/2-y,1/2+z
loop_
_atom_site_type_symbol
_atom_site_label
_atom_site_fract_x
_atom_site_fract_y
_atom_site_fract_z
Si Si1 0.645148 0.176104 0.621123
Si Si2 0.785265 0.155443 0.493426
Si Si3 0.241250 0.692451 0.305066
Si Si4 0.114348 0.282082 0.589837
Si Si5 0.740081 0.965759 0.303189
Si Si6 0.730542 0.582961 0.508280
O O1 0.669779 0.234181 0.671580
O O2 0.479133 0.212036 0.506208
O O3 0.440232 0.115054 0.551927
O O4 0.000000 0.156576 0.750000
O O5 0.470547 0.159020 0.326091
O O6 0.619352 0.169185 0.477419
O O7 0.016056 0.214145 0.572615
O O8 0.001499 0.091949 0.580787
O O9 0.529186 0.645469 0.441485
O O10 0.000000 0.699289 0.250000
O O11 0.500000 0.293849 0.750000
O O12 0.500000 0.976206 0.250000
O O13 0.492933 0.945146 0.156350
O O14 0.961947 0.028236 0.385723
#
# Coordination Sequence:
#
# PCOD9309723 Si02
#       6
#     8   8   8   8   8   8
#     4  11  23  44  66  99 133 175 229 284 341 400
#     4  11  23  41  67  99 139 175 226 275 341 403
#     4  11  21  40  65  98 134 169 221 283 341 398
#     4  11  23  39  65 101 137 174 222 280 339 402
#     4  12  26  45  69 100 140 181 231 278 339 413
#     4  12  26  43  68  96 135 185 227 278 342 404
#
# _framework density 10.313243
#
# number of rings (size 3 to 8) (size 9 to 14) (size 15 to 20)
#    0.000    0.667    3.333    6.000    4.667    0.000 
#    0.000    4.167    0.000    0.000    0.000    0.000 
#    0.000    0.000    0.000    0.000    0.000    0.000 
#
# Total GULP energy -134073.974639 kJ/mol
# GULP energy per Si atom -5586.415610 kJ/mol
# Density = 1.028977 g / cm^3
# Si number density = 10.313243 Si / 1000 Ang^3
#
#
#
# Elastic Constant Matrix: (Units=GPa)
#
#
# Indices 1 2 3 4 5 6 
#
# 1 68.8539 49.1384 48.4158 -0.0011 18.6119 -0.0018
# 2 49.1384 135.0662 53.6469 0.0124 30.1871 0.0136
# 3 48.4158 53.6469 135.0978 0.0868 17.4456 -0.0639
# 4 -0.0011 0.0124 0.0868 51.8033 0.0112 19.3348
# 5 18.6119 30.1871 17.4456 0.0112 45.6416 0.0063
# 6 -0.0018 0.0136 -0.0639 19.3348 0.0063 23.2422
#
#
#
# Elastic Compliance Matrix: (Units=1/GPa)
#
#
# Indices 1 2 3 4 5 6 
#
# 1 0.023459 -0.005393 -0.005776 0.000023 -0.003791 -0.000029
# 2 -0.005393 0.011112 -0.001909 0.000008 -0.004421 -0.000018
# 3 -0.005776 -0.001909 0.010270 -0.000040 -0.000308 0.000062
# 4 0.000023 0.000008 -0.000040 0.027996 -0.000003 -0.023290
# 5 -0.003791 -0.004421 -0.000308 -0.000003 0.026497 -0.000003
# 6 -0.000029 -0.000018 0.000062 -0.023290 -0.000003 0.062400
#
#
# Mechanical properties :
#
#
# Convention : Reuss Voigt Hill
#
# Bulk Modulus (GPa) = 53.51979 71.26890 62.39435
# Shear Modulus (GPa) = 25.75759 36.65854 31.20806
#
# Velocity S-wave (km/s) = 3.53762 4.22032 3.89396
# Velocity P-wave (km/s) = 6.53374 7.64037 7.10862
#
# Compressibility (1/GPa) = 0.01868468
#
# Stress axis : x y z
#
# Youngs Moduli (GPa) = 42.62843 89.99269 97.37277
#
# Poissons Ratio (x) = 0.48533 0.56241
# Poissons Ratio (y) = 0.22989 0.18589
# Poissons Ratio (z) = 0.24622 0.17180
#
# Static dielectric constant tensor:
#      x y z
#    x 1.790460 0.000010 -0.074960 
#    y 0.000010 1.729150 -0.000050 
#    z -0.074960 -0.000050 1.861770 
# 
# From -- ./inp_files/293825.got.cif
#   From: 2010.05.17/outbox.ucp.g08.bks.cvg/sg15_147_cif.got.tgz:293825.got - 2010.06.11 12:40:34.
