data_PCOD9309611
_publ_section_title
;
Structure prediction by ZEFSAII (Michael W. Deem and Ramdas Pophale) SiO2 
 PCOD9309611
Probable space group: C 2/C
;
_chemical_formula_sum "Si O2"
_cell_formula_units_Z 26
_cell_length_a 12.000000
_cell_length_b 18.000000
_cell_length_c 15.000000
_cell_angle_alpha 90.000000
_cell_angle_beta 60.000000
_cell_angle_gamma 90.000000
_cell_volume 2805.922308
_symmetry_space_group_name_H-M "C 2/C"
_symmetry_group_IT_number 15
_symmetry_cell_setting 'monoclinic'
loop_
_space_group_symop_operation_xyz
x,y,z
-x,y,1/2-z
-x,-y,-z
x,-y,1/2+z
1/2+x,1/2+y,z
1/2-x,1/2+y,1/2-z
1/2-x,1/2-y,-z
1/2+x,1/2-y,1/2+z
loop_
_atom_site_type_symbol
_atom_site_label
_atom_site_fract_x
_atom_site_fract_y
_atom_site_fract_z
Si Si1 0.702851 0.927618 0.170545
Si Si2 0.415989 0.336802 0.193161
Si Si3 0.372089 0.050601 0.153537
Si Si4 0.782132 0.199634 0.227136
Si Si5 0.325463 0.967980 0.986496
Si Si6 0.674572 0.677894 0.495305
Si Si7 0.500000 0.207294 0.750000
O O1 0.826799 0.897634 0.177375
O O2 0.612399 0.855404 0.182970
O O3 0.644036 0.989981 0.260776
O O4 0.717763 0.973393 0.072552
O O5 0.500000 0.355798 0.250000
O O6 0.320395 0.266969 0.245540
O O7 0.527076 0.313805 0.080846
O O8 0.291605 0.127767 0.199272
O O9 0.527122 0.061093 0.086182
O O10 0.326250 0.009993 0.081017
O O11 0.816414 0.172532 0.114513
O O12 0.909891 0.236432 0.224665
O O13 0.234808 0.895931 0.015937
O O14 0.750000 0.750000 0.500000
#
# Coordination Sequence:
#
# PCOD9309611 Si02
#       7
#     8   8   8   8   8   8   4
#     4  11  22  44  69  94 140 182 225 287 351 410
#     4  11  24  42  66 100 136 181 227 288 345 411
#     4  11  23  42  67 101 132 177 237 286 336 420
#     4  11  25  44  70 100 139 182 227 294 341 414
#     4  11  24  40  72  99 131 187 235 285 346 417
#     4  12  24  41  68 100 135 179 235 281 348 409
#     4  10  24  44  68  96 140 184 220 282 360 404
#
# _framework density 9.2661149999999992
#
# number of rings (size 3 to 8) (size 9 to 14) (size 15 to 20)
#    0.000    0.923    4.615    1.846    2.154    3.077 
#    4.154    3.077    0.000    0.000    0.000    0.000 
#    0.000    0.000    0.000    0.000    0.000    0.000 
#
# Total GULP energy -144873.852927 kJ/mol
# GULP energy per Si atom -5572.071266 kJ/mol
# Density = 0.924503 g / cm^3
# Si number density = 9.266115 Si / 1000 Ang^3
#
#
#
# Elastic Constant Matrix: (Units=GPa)
#
#
# Indices 1 2 3 4 5 6 
#
# 1 132.9987 31.9289 23.0965 0.0000 7.0239 0.0000
# 2 31.9289 89.6974 9.4187 0.0000 10.1052 0.0000
# 3 23.0965 9.4187 76.0820 0.0000 12.8033 0.0000
# 4 0.0000 0.0000 0.0000 31.8684 0.0000 -1.7027
# 5 7.0239 10.1052 12.8033 0.0000 36.3907 0.0000
# 6 0.0000 0.0000 0.0000 -1.7027 0.0000 42.0758
#
#
#
# Elastic Compliance Matrix: (Units=1/GPa)
#
#
# Indices 1 2 3 4 5 6 
#
# 1 0.008588 -0.002812 -0.002244 0.000000 -0.000087 0.000000
# 2 -0.002812 0.012493 -0.000213 0.000000 -0.002851 0.000000
# 3 -0.002244 -0.000213 0.014635 0.000000 -0.004657 0.000000
# 4 0.000000 0.000000 0.000000 0.031447 0.000000 0.001273
# 5 -0.000087 -0.002851 -0.004657 0.000000 0.029927 0.000000
# 6 0.000000 0.000000 0.000000 0.001273 0.000000 0.023818
#
#
# Mechanical properties :
#
#
# Convention : Reuss Voigt Hill
#
# Bulk Modulus (GPa) = 39.71733 47.51850 43.61792
# Shear Modulus (GPa) = 35.75538 37.68925 36.72232
#
# Velocity S-wave (km/s) = 4.39722 4.51456 4.45628
# Velocity P-wave (km/s) = 6.87450 7.27129 7.07568
#
# Compressibility (1/GPa) = 0.02517792
#
# Stress axis : x y z
#
# Youngs Moduli (GPa) = 116.43861 80.04456 68.32893
#
# Poissons Ratio (x) = 0.22505 0.15336
# Poissons Ratio (y) = 0.32738 0.01457
# Poissons Ratio (z) = 0.26134 0.01707
#
# Static dielectric constant tensor:
#      x y z
#    x 1.639790 0.000000 -0.001360 
#    y 0.000000 1.632950 0.000000 
#    z -0.001360 0.000000 1.678830 
# 
# From -- ./inp_files/145500.got.cif
#   From: 2010.05.17/outbox.ucp.g08.bks.cvg/sg15_73_cif.got.tgz:145500.got - 2010.06.11 12:40:34.
