data_PCOD9309491
_publ_section_title
;
Structure prediction by ZEFSAII (Michael W. Deem and Ramdas Pophale) SiO2 
 PCOD9309491
Probable space group: C 2/C
;
_chemical_formula_sum "Si O2"
_cell_formula_units_Z 28
_cell_length_a 15.000000
_cell_length_b 30.000000
_cell_length_c 12.000000
_cell_angle_alpha 90.000000
_cell_angle_beta 30.000000
_cell_angle_gamma 90.000000
_cell_volume 2700.000000
_symmetry_space_group_name_H-M "C 2/C"
_symmetry_group_IT_number 15
_symmetry_cell_setting 'monoclinic'
loop_
_space_group_symop_operation_xyz
x,y,z
-x,y,1/2-z
-x,-y,-z
x,-y,1/2+z
1/2+x,1/2+y,z
1/2-x,1/2+y,1/2-z
1/2-x,1/2-y,-z
1/2+x,1/2-y,1/2+z
loop_
_atom_site_type_symbol
_atom_site_label
_atom_site_fract_x
_atom_site_fract_y
_atom_site_fract_z
Si Si1 0.500000 0.074167 0.750000
Si Si2 0.144863 0.312813 0.394306
Si Si3 0.777656 0.363038 0.819576
Si Si4 0.675059 0.380254 0.477584
Si Si5 0.993269 0.781598 0.389336
Si Si6 0.276736 0.456104 0.263592
Si Si7 0.000000 0.075891 0.750000
Si Si8 0.124390 0.451788 0.886121
O O1 0.665894 0.103065 0.614208
O O2 0.553467 0.043991 0.588076
O O3 0.240216 0.337824 0.184367
O O4 0.053828 0.263081 0.488549
O O5 0.314442 0.302954 0.290101
O O6 0.980828 0.344213 0.615531
O O7 0.795774 0.402005 0.707583
O O8 0.655887 0.319669 0.928012
O O9 0.661685 0.391835 0.034171
O O10 0.653976 0.419388 0.403611
O O11 0.500000 0.373880 0.750000
O O12 0.000000 0.769839 0.250000
O O13 0.393662 0.448761 0.254964
O O14 0.267310 0.507336 0.223239
O O15 0.053984 0.450049 0.501582
#
# Coordination Sequence:
#
# PCOD9309491 Si02
#       8
#     4   8   8   8   8   8   4   8
#     4  10  22  46  74 102 138 214 248 326 370 442
#     4  12  26  47  76 108 151 196 252 323 377 474
#     4  12  26  47  72 112 154 201 254 312 390 470
#     4  11  26  48  79 106 151 204 266 314 386 455
#     4  12  27  45  76 113 151 203 248 312 407 471
#     4  10  24  49  72 116 151 208 255 322 387 459
#     4  12  28  42  76 120 162 198 254 328 394 466
#     4  10  24  47  77 105 157 206 268 310 390 459
#
# _framework density 10.370369999999999
#
# number of rings (size 3 to 8) (size 9 to 14) (size 15 to 20)
#    0.000    0.857    5.000    1.286    4.000    5.714 
#    2.571    0.714    1.571    0.000    0.000    0.000 
#    0.000    0.000    0.000    0.000    0.000    0.000 
#
# Total GULP energy -155900.234586 kJ/mol
# GULP energy per Si atom -5567.865521 kJ/mol
# Density = 1.034677 g / cm^3
# Si number density = 10.370370 Si / 1000 Ang^3
#
#
#
# Elastic Constant Matrix: (Units=GPa)
#
#
# Indices 1 2 3 4 5 6 
#
# 1 134.2114 36.8392 45.2394 0.0000 -19.5848 0.0000
# 2 36.8392 161.1900 52.2107 0.0000 3.5375 0.0000
# 3 45.2394 52.2107 154.6370 0.0000 -9.7620 0.0001
# 4 0.0000 0.0000 0.0000 44.7259 0.0000 0.0344
# 5 -19.5848 3.5375 -9.7620 0.0000 39.1667 0.0000
# 6 0.0000 0.0000 0.0001 0.0344 0.0000 31.8620
#
#
#
# Elastic Compliance Matrix: (Units=1/GPa)
#
#
# Indices 1 2 3 4 5 6 
#
# 1 0.009133 -0.001574 -0.001873 0.000000 0.004242 0.000000
# 2 -0.001574 0.007296 -0.002128 0.000000 -0.001976 0.000000
# 3 -0.001873 -0.002128 0.007809 0.000000 0.001202 0.000000
# 4 0.000000 0.000000 0.000000 0.022358 0.000000 -0.000024
# 5 0.004242 -0.001976 0.001202 0.000000 0.028131 0.000000
# 6 0.000000 0.000000 0.000000 -0.000024 0.000000 0.031385
#
#
# Mechanical properties :
#
#
# Convention : Reuss Voigt Hill
#
# Bulk Modulus (GPa) = 76.39667 79.84635 78.12151
# Shear Modulus (GPa) = 41.10985 44.20085 42.65535
#
# Velocity S-wave (km/s) = 4.45689 4.62141 4.53989
# Velocity P-wave (km/s) = 7.96236 8.18886 8.07641
#
# Compressibility (1/GPa) = 0.01308958
#
# Stress axis : x y z
#
# Youngs Moduli (GPa) = 109.48994 137.05907 128.05878
#
# Poissons Ratio (x) = 0.21571 0.23982
# Poissons Ratio (y) = 0.17232 0.27248
# Poissons Ratio (z) = 0.20505 0.29163
#
# Static dielectric constant tensor:
#      x y z
#    x 1.781200 0.000000 -0.003970 
#    y 0.000000 1.799270 0.000000 
#    z -0.003970 0.000000 1.824740 
# 
# From -- ./inp_files/101776.got.cif
#   From: 2010.05.17/outbox.ucp.g08.bks.cvg/sg15_51_cif.got.tgz:101776.got - 2010.06.11 12:40:34.
