data_PCOD9309421
_publ_section_title
;
Structure prediction by ZEFSAII (Michael W. Deem and Ramdas Pophale) SiO2 
 PCOD9309421
Probable space group: C 2/C
;
_chemical_formula_sum "Si O2"
_cell_formula_units_Z 28
_cell_length_a 12.000000
_cell_length_b 30.000000
_cell_length_c 9.000000
_cell_angle_alpha 90.000000
_cell_angle_beta 60.000000
_cell_angle_gamma 90.000000
_cell_volume 2805.922308
_symmetry_space_group_name_H-M "C 2/C"
_symmetry_group_IT_number 15
_symmetry_cell_setting 'monoclinic'
loop_
_space_group_symop_operation_xyz
x,y,z
-x,y,1/2-z
-x,-y,-z
x,-y,1/2+z
1/2+x,1/2+y,z
1/2-x,1/2+y,1/2-z
1/2-x,1/2-y,-z
1/2+x,1/2-y,1/2+z
loop_
_atom_site_type_symbol
_atom_site_label
_atom_site_fract_x
_atom_site_fract_y
_atom_site_fract_z
Si Si1 0.235802 0.299419 0.951283
Si Si2 0.123829 0.626890 0.755534
Si Si3 0.368388 0.946862 0.740566
Si Si4 0.605126 0.413451 0.450467
Si Si5 0.500000 0.343234 0.750000
Si Si6 0.229367 0.010174 0.064200
Si Si7 0.500000 0.452934 0.250000
Si Si8 0.061191 0.347641 0.861721
O O1 0.375075 0.314398 0.803272
O O2 0.141214 0.307990 0.878608
O O3 0.250000 0.250000 0.000000
O O4 0.175673 0.332872 0.116861
O O5 0.252442 0.599415 0.706580
O O6 0.000000 0.605058 0.750000
O O7 0.056201 0.641191 0.950653
O O8 0.500000 0.949781 0.750000
O O9 0.340090 0.970770 0.599521
O O10 0.357237 0.893875 0.713671
O O11 0.277007 0.974651 0.911095
O O12 0.544519 0.373959 0.585618
O O13 0.648755 0.451243 0.537414
O O14 0.496826 0.423758 0.399965
O O15 0.119323 0.983127 0.221418
O O16 0.000000 0.334540 0.750000
#
# Coordination Sequence:
#
# PCOD9309421 Si02
#       8
#     8   8   8   8   4   8   4   8
#     4  10  22  41  72  99 125 162 208 265 326 406
#     4   9  20  41  64  92 122 166 206 264 330 389
#     4  11  25  40  64  93 127 171 223 274 325 375
#     4  11  24  40  63  85 130 173 218 268 321 375
#     4  10  23  40  68  98 122 168 220 260 324 401
#     4  12  24  41  57  89 129 170 224 275 314 369
#     4  12  27  38  56  84 126 180 218 268 316 375
#     4  10  23  40  67  95 132 169 211 265 330 382
#
# _framework density 9.9788940000000004
#
# number of rings (size 3 to 8) (size 9 to 14) (size 15 to 20)
#    0.000    1.429    1.429    3.857   11.000    1.714 
#    0.000    0.714    6.286    0.000    0.000    0.000 
#    0.000    0.000    0.000    0.000    0.000    0.000 
#
# Total GULP energy -155913.134428 kJ/mol
# GULP energy per Si atom -5568.326230 kJ/mol
# Density = 0.995618 g / cm^3
# Si number density = 9.978894 Si / 1000 Ang^3
#
#
#
# Elastic Constant Matrix: (Units=GPa)
#
#
# Indices 1 2 3 4 5 6 
#
# 1 115.2325 56.0524 47.8050 0.0000 23.9175 0.0000
# 2 56.0524 77.2414 17.7588 0.0000 -5.4570 0.0000
# 3 47.8050 17.7588 56.8577 0.0000 8.0573 0.0000
# 4 0.0000 0.0000 0.0000 41.4834 0.0000 -6.7068
# 5 23.9175 -5.4570 8.0573 0.0000 34.0805 0.0000
# 6 0.0000 0.0000 0.0000 -6.7068 0.0000 35.3027
#
#
#
# Elastic Compliance Matrix: (Units=1/GPa)
#
#
# Indices 1 2 3 4 5 6 
#
# 1 0.027218 -0.017662 -0.014755 0.000000 -0.018441 0.000000
# 2 -0.017662 0.025795 0.004606 0.000000 0.015437 0.000000
# 3 -0.014755 0.004606 0.027918 0.000000 0.004492 0.000000
# 4 0.000000 0.000000 0.000000 0.024870 0.000000 0.004725
# 5 -0.018441 0.015437 0.004492 0.000000 0.043694 0.000000
# 6 0.000000 0.000000 0.000000 0.004725 0.000000 0.029224
#
#
# Mechanical properties :
#
#
# Convention : Reuss Voigt Hill
#
# Bulk Modulus (GPa) = 39.51128 54.72932 47.12030
# Shear Modulus (GPa) = 20.59488 30.68769 25.64128
#
# Velocity S-wave (km/s) = 3.21584 3.92552 3.58827
# Velocity P-wave (km/s) = 5.79907 6.93025 6.38974
#
# Compressibility (1/GPa) = 0.02530923
#
# Stress axis : x y z
#
# Youngs Moduli (GPa) = 36.73994 38.76687 35.81895
#
# Poissons Ratio (x) = 0.68471 0.52850
# Poissons Ratio (y) = 0.64891 -0.16498
# Poissons Ratio (z) = 0.54209 -0.17855
#
# Static dielectric constant tensor:
#      x y z
#    x 1.779440 0.000000 0.016840 
#    y 0.000000 1.748430 0.000000 
#    z 0.016840 0.000000 1.763670 
# 
# From -- ./inp_files/35609.got.cif
#   From: 2010.05.17/outbox.ucp.g08.bks.cvg/sg15_18_cif.got.tgz:35609.got - 2010.06.11 12:40:34.
