data_PCOD9309280
_publ_section_title
;
Structure prediction by ZEFSAII (Michael W. Deem and Ramdas Pophale) SiO2 
 PCOD9309280
Probable space group: C 2/C
;
_chemical_formula_sum "Si O2"
_cell_formula_units_Z 24
_cell_length_a 18.000000
_cell_length_b 9.000000
_cell_length_c 30.000000
_cell_angle_alpha 90.000000
_cell_angle_beta 150.000000
_cell_angle_gamma 90.000000
_cell_volume 2430.000000
_symmetry_space_group_name_H-M "C 2/C"
_symmetry_group_IT_number 15
_symmetry_cell_setting 'monoclinic'
loop_
_space_group_symop_operation_xyz
x,y,z
-x,y,1/2-z
-x,-y,-z
x,-y,1/2+z
1/2+x,1/2+y,z
1/2-x,1/2+y,1/2-z
1/2-x,1/2-y,-z
1/2+x,1/2-y,1/2+z
loop_
_atom_site_type_symbol
_atom_site_label
_atom_site_fract_x
_atom_site_fract_y
_atom_site_fract_z
Si Si1 0.554595 0.160553 0.926044
Si Si2 0.776547 0.941690 0.465201
Si Si3 0.823049 0.692612 0.154484
Si Si4 0.262709 0.338461 0.788163
Si Si5 0.556631 0.889351 0.990631
Si Si6 0.060173 0.860100 0.127109
O O1 0.647800 0.121093 0.930417
O O2 0.395193 0.236621 0.837208
O O3 0.636609 0.286793 0.999191
O O4 0.544879 0.002327 0.943947
O O5 0.709192 0.043143 0.391001
O O6 0.902883 0.052095 0.552613
O O7 0.754641 0.675107 0.168020
O O8 0.724854 0.828486 0.083737
O O9 0.000000 0.718929 0.250000
O O10 0.114358 0.264068 0.690495
O O11 0.317515 0.507802 0.809112
O O12 0.463452 0.739039 0.930281
O O13 0.500000 0.000000 0.000000
#
# Coordination Sequence:
#
# PCOD9309280 Si02
#       6
#     8   8   8   8   8   8
#     4  10  21  42  69  92 127 165 221 256 326 384
#     4   9  23  43  65  92 126 174 209 268 318 391
#     4  11  26  40  63  95 134 166 216 266 328 375
#     4  11  23  41  65  96 128 168 217 270 318 389
#     4  11  23  41  66  92 125 171 212 263 318 385
#     4  10  24  39  66  93 127 170 215 263 323 380
#
# _framework density 9.8765429999999999
#
# number of rings (size 3 to 8) (size 9 to 14) (size 15 to 20)
#    0.000    1.667    1.667    1.000    9.333    3.333 
#    0.000    0.833    0.000    0.000    0.000    0.000 
#    0.000    0.000    0.000    0.000    0.000    0.000 
#
# Total GULP energy -133631.728997 kJ/mol
# GULP energy per Si atom -5567.988708 kJ/mol
# Density = 0.985406 g / cm^3
# Si number density = 9.876543 Si / 1000 Ang^3
#
#
#
# Elastic Constant Matrix: (Units=GPa)
#
#
# Indices 1 2 3 4 5 6 
#
# 1 47.8957 35.2252 4.8645 0.0000 4.6684 0.0000
# 2 35.2252 162.6138 67.8026 0.0000 3.3534 -0.0001
# 3 4.8645 67.8026 74.6723 0.0000 2.5529 0.0000
# 4 0.0000 0.0000 0.0000 40.0798 0.0000 0.3058
# 5 4.6684 3.3534 2.5529 0.0000 21.7308 0.0000
# 6 0.0000 -0.0001 0.0000 0.3058 0.0000 35.7395
#
#
#
# Elastic Compliance Matrix: (Units=1/GPa)
#
#
# Indices 1 2 3 4 5 6 
#
# 1 0.026755 -0.008104 0.005793 0.000000 -0.005178 0.000000
# 2 -0.008104 0.012356 -0.010729 0.000000 0.001095 0.000000
# 3 0.005793 -0.010729 0.022834 0.000000 -0.002271 0.000000
# 4 0.000000 0.000000 0.000000 0.024952 0.000000 -0.000213
# 5 -0.005178 0.001095 -0.002271 0.000000 0.047228 0.000000
# 6 0.000000 0.000000 0.000000 -0.000213 0.000000 0.027982
#
#
# Mechanical properties :
#
#
# Convention : Reuss Voigt Hill
#
# Bulk Modulus (GPa) = 27.88262 55.66293 41.77278
# Shear Modulus (GPa) = 24.98229 31.32931 28.15580
#
# Velocity S-wave (km/s) = 3.56016 3.98684 3.77953
# Velocity P-wave (km/s) = 5.57188 7.03091 6.34348
#
# Compressibility (1/GPa) = 0.03586463
#
# Stress axis : x y z
#
# Youngs Moduli (GPa) = 37.37572 80.93351 43.79488
#
# Poissons Ratio (x) = 0.65590 -0.25369
# Poissons Ratio (y) = 0.30290 0.46986
# Poissons Ratio (z) = -0.21651 0.86830
#
# Static dielectric constant tensor:
#      x y z
#    x 1.816570 0.000000 0.036570 
#    y 0.000000 1.672200 0.000000 
#    z 0.036570 0.000000 1.778540 
# 
# From -- ./inp_files/315626.got.cif
#   From: 2010.05.17/outbox.ucp.g08.bks.cvg/sg15_158_cif.got.tgz:315626.got - 2010.06.11 12:40:34.
