data_PCOD9309748
_publ_section_title
;
Structure prediction by ZEFSAII (Michael W. Deem and Ramdas Pophale) SiO2 
 PCOD9309748
Probable space group: C 2/C
;
_chemical_formula_sum "Si O2"
_cell_formula_units_Z 32
_cell_length_a 21.000000
_cell_length_b 21.000000
_cell_length_c 9.000000
_cell_angle_alpha 90.000000
_cell_angle_beta 100.000000
_cell_angle_gamma 90.000000
_cell_volume 3908.701972
_symmetry_space_group_name_H-M "C 2/C"
_symmetry_group_IT_number 15
_symmetry_cell_setting 'monoclinic'
loop_
_space_group_symop_operation_xyz
x,y,z
-x,y,1/2-z
-x,-y,-z
x,-y,1/2+z
1/2+x,1/2+y,z
1/2-x,1/2+y,1/2-z
1/2-x,1/2-y,-z
1/2+x,1/2-y,1/2+z
loop_
_atom_site_type_symbol
_atom_site_label
_atom_site_fract_x
_atom_site_fract_y
_atom_site_fract_z
Si Si1 0.844111 0.421968 0.150621
Si Si2 0.449977 0.844963 0.596046
Si Si3 0.660544 0.056679 0.502364
Si Si4 0.243274 0.155118 0.430625
Si Si5 0.150073 0.233303 0.567756
Si Si6 0.454416 0.177681 0.608143
Si Si7 0.849050 0.239752 0.594567
Si Si8 0.742441 0.647203 0.095045
O O1 0.842822 0.438426 0.322463
O O2 0.901918 0.372056 0.147114
O O3 0.850705 0.485868 0.058665
O O4 0.779237 0.387967 0.065641
O O5 0.500000 0.841891 0.750000
O O6 0.395512 0.898661 0.590239
O O7 0.495070 0.858805 0.474885
O O8 0.412153 0.777811 0.565834
O O9 0.728921 0.087305 0.481276
O O10 0.175693 0.179271 0.468408
O O11 0.292498 0.214172 0.421650
O O12 0.237656 0.126991 0.264334
O O13 0.085361 0.268857 0.493886
O O14 0.143606 0.213894 0.735631
O O15 0.500000 0.207783 0.750000
O O16 0.795475 0.296415 0.587659
O O17 0.822481 0.182906 0.482873
#
# Coordination Sequence:
#
# PCOD9309748 Si02
#       8
#     8   8   8   8   8   8   8   8
#     4  11  23  36  51  69  97 133 173 212 248 289
#     4  11  22  35  50  71 102 138 170 203 241 294
#     4  11  23  36  51  69  97 133 173 212 247 290
#     4   9  18  31  50  71  92 121 160 207 255 293
#     4   9  17  30  49  69  96 124 158 204 250 294
#     4  11  22  35  48  72 103 136 172 203 244 291
#     4   9  17  30  49  70  94 125 159 202 251 293
#     4   9  18  31  50  71  92 120 162 206 254 296
#
# _framework density 8.1868610000000004
#
# number of rings (size 3 to 8) (size 9 to 14) (size 15 to 20)
#    0.000    2.000    2.500    1.500    5.250    4.000 
#    0.000    0.000    0.000    0.000    0.000    0.000 
#    0.000    2.000    0.000    0.125    0.000    0.125 
#
# Total GULP energy -178187.848304 kJ/mol
# GULP energy per Si atom -5568.370260 kJ/mol
# Density = 0.816823 g / cm^3
# Si number density = 8.186861 Si / 1000 Ang^3
#
#
#
# Elastic Constant Matrix: (Units=GPa)
#
#
# Indices 1 2 3 4 5 6 
#
# 1 18.0804 27.5084 14.5371 0.0000 0.7921 0.0000
# 2 27.5084 20.1565 15.6925 0.0000 6.8757 0.0000
# 3 14.5371 15.6925 68.8232 0.0000 6.9198 0.0000
# 4 0.0000 0.0000 0.0000 23.5012 0.0000 -4.9983
# 5 0.7921 6.8757 6.9198 0.0000 19.4717 0.0000
# 6 0.0000 0.0000 0.0000 -4.9983 0.0000 6.3221
#
#
#
# Elastic Compliance Matrix: (Units=1/GPa)
#
#
# Indices 1 2 3 4 5 6 
#
# 1 -0.040935 0.066172 -0.004417 0.000000 -0.020131 0.000000
# 2 0.066172 -0.040670 -0.006095 0.000000 0.013835 0.000000
# 3 -0.004417 -0.006095 0.017234 0.000000 -0.003793 0.000000
# 4 0.000000 0.000000 0.000000 0.051152 0.000000 0.040441
# 5 -0.020131 0.013835 -0.003793 0.000000 0.048638 0.000000
# 6 0.000000 0.000000 0.000000 0.040441 0.000000 0.190148
#
#
# Mechanical properties :
#
#
# Convention : Reuss Voigt Hill
#
# Bulk Modulus (GPa) = 21.30012 24.72621 23.01316
# Shear Modulus (GPa) = 38.49220 13.14715 25.81967
#
# Velocity S-wave (km/s) = 4.85382 2.83670 3.97532
# Velocity P-wave (km/s) = 6.66706 5.08557 5.92928
#
# Compressibility (1/GPa) = 0.04694810
#
# Stress axis : x y z
#
# Youngs Moduli (GPa) = -24.42883 -24.58805 58.02450
#
# Poissons Ratio (x) = 1.62704 0.25632
# Poissons Ratio (y) = 1.61651 0.35365
# Poissons Ratio (z) = -0.10791 -0.14986
#
# Static dielectric constant tensor:
#      x y z
#    x 1.556430 0.000000 0.027060 
#    y 0.000000 1.535550 0.000000 
#    z 0.027060 0.000000 1.799190 
# 
# From -- ./inp_files/57547.got.cif
#   From: 2010.05.17/outbox.ucp.g08.bks.cvg/sg15_29_cif.got.tgz:57547.got - 2010.06.11 12:40:34.
