data_PCOD9309589
_publ_section_title
;
Structure prediction by ZEFSAII (Michael W. Deem and Ramdas Pophale) SiO2 
 PCOD9309589
Probable space group: C 2/C
;
_chemical_formula_sum "Si O2"
_cell_formula_units_Z 32
_cell_length_a 21.000000
_cell_length_b 18.000000
_cell_length_c 24.000000
_cell_angle_alpha 90.000000
_cell_angle_beta 160.000000
_cell_angle_gamma 90.000000
_cell_volume 3102.806740
_symmetry_space_group_name_H-M "C 2/C"
_symmetry_group_IT_number 15
_symmetry_cell_setting 'monoclinic'
loop_
_space_group_symop_operation_xyz
x,y,z
-x,y,1/2-z
-x,-y,-z
x,-y,1/2+z
1/2+x,1/2+y,z
1/2-x,1/2+y,1/2-z
1/2-x,1/2-y,-z
1/2+x,1/2-y,1/2+z
loop_
_atom_site_type_symbol
_atom_site_label
_atom_site_fract_x
_atom_site_fract_y
_atom_site_fract_z
Si Si1 0.877530 0.581858 0.593286
Si Si2 0.857588 0.340252 0.418138
Si Si3 0.939779 0.541836 0.071088
Si Si4 0.676603 0.920430 0.612286
Si Si5 0.960093 0.162868 0.132305
Si Si6 0.429141 0.692287 0.906780
Si Si7 0.165272 0.690265 0.791829
Si Si8 0.336488 0.557448 0.361747
O O1 0.852104 0.497663 0.552364
O O2 0.683043 0.624096 0.442769
O O3 0.000000 0.584381 0.750000
O O4 0.016929 0.623539 0.664868
O O5 0.858619 0.384467 0.476867
O O6 0.665824 0.338999 0.226901
O O7 0.008677 0.371077 0.497589
O O8 0.941958 0.260866 0.501003
O O9 0.162634 0.549195 0.260251
O O10 0.900129 0.484236 0.989082
O O11 0.758323 0.952595 0.736178
O O12 0.851170 0.881624 0.725599
O O13 0.038110 0.243730 0.211615
O O14 0.832355 0.171881 0.971732
O O15 0.261727 0.710838 0.812662
O O16 0.565405 0.635701 0.049490
O O17 0.500000 0.500000 0.500000
#
# Coordination Sequence:
#
# PCOD9309589 Si02
#       8
#     8   8   8   8   8   8   8   8
#     4  10  24  42  59  84 118 171 221 260 308 368
#     4  11  22  37  58  93 126 160 203 252 322 378
#     4  11  24  40  57  83 126 164 211 267 308 367
#     4  11  21  37  55  89 121 166 204 252 312 375
#     4  11  23  37  60  84 124 169 218 244 304 363
#     4  12  21  37  65  96 128 164 201 251 321 393
#     4  11  21  38  57  88 126 165 205 257 299 372
#     4  11  21  36  60  89 124 165 199 253 325 379
#
# _framework density 10.313243
#
# number of rings (size 3 to 8) (size 9 to 14) (size 15 to 20)
#    0.000    1.000    2.500    7.125    3.500    0.500 
#    0.000    0.000    0.000    0.000    0.000    3.500 
#    0.000    0.125    0.000    0.000    0.000    0.000 
#
# Total GULP energy -178683.450761 kJ/mol
# GULP energy per Si atom -5583.857836 kJ/mol
# Density = 1.028977 g / cm^3
# Si number density = 10.313243 Si / 1000 Ang^3
#
#
#
# Elastic Constant Matrix: (Units=GPa)
#
#
# Indices 1 2 3 4 5 6 
#
# 1 26.4835 34.2639 13.4617 0.0174 5.5886 0.0122
# 2 34.2639 68.6063 13.3485 -0.0124 -4.4853 -0.0022
# 3 13.4617 13.3485 83.8109 -0.0159 -4.0201 0.0056
# 4 0.0174 -0.0124 -0.0159 53.1481 -0.0065 7.0316
# 5 5.5886 -4.4853 -4.0201 -0.0065 11.1755 0.0081
# 6 0.0122 -0.0022 0.0056 7.0316 0.0081 32.6100
#
#
#
# Elastic Compliance Matrix: (Units=1/GPa)
#
#
# Indices 1 2 3 4 5 6 
#
# 1 0.368016 -0.193813 -0.041517 -0.000208 -0.276758 -0.000030
# 2 -0.193813 0.117423 0.019677 0.000113 0.151127 0.000015
# 3 -0.041517 0.019677 0.017137 0.000028 0.034824 -0.000001
# 4 -0.000208 0.000113 0.000028 0.019368 0.000174 -0.004176
# 5 -0.276758 0.151127 0.034824 0.000174 0.301063 -0.000005
# 6 -0.000030 0.000015 -0.000001 -0.004176 -0.000005 0.031566
#
#
# Mechanical properties :
#
#
# Convention : Reuss Voigt Hill
#
# Bulk Modulus (GPa) = 14.03121 33.44990 23.74055
# Shear Modulus (GPa) = 3.81785 27.24184 15.52985
#
# Velocity S-wave (km/s) = 1.36197 3.63812 2.74689
# Velocity P-wave (km/s) = 3.04804 5.82237 4.64707
#
# Compressibility (1/GPa) = 0.07126970
#
# Stress axis : x y z
#
# Youngs Moduli (GPa) = 2.71727 8.51620 58.35487
#
# Poissons Ratio (x) = 1.65055 2.42275
# Poissons Ratio (y) = 0.52664 -1.14828
# Poissons Ratio (z) = 0.11281 -0.16758
#
# Static dielectric constant tensor:
#      x y z
#    x 1.764510 -0.000010 -0.027620 
#    y -0.000010 1.791140 -0.000030 
#    z -0.027620 -0.000030 1.684290 
# 
# From -- ./inp_files/280535.got.cif
#   From: 2010.05.17/outbox.ucp.g08.bks.cvg/sg15_141_cif.got.tgz:280535.got - 2010.06.11 12:40:34.
