data_PCOD9309228
_publ_section_title
;
Structure prediction by ZEFSAII (Michael W. Deem and Ramdas Pophale) SiO2 
 PCOD9309228
Probable space group: C 2/C
;
_chemical_formula_sum "Si O2"
_cell_formula_units_Z 26
_cell_length_a 9.000000
_cell_length_b 21.000000
_cell_length_c 30.000000
_cell_angle_alpha 90.000000
_cell_angle_beta 30.000000
_cell_angle_gamma 90.000000
_cell_volume 2835.000000
_symmetry_space_group_name_H-M "C 2/C"
_symmetry_group_IT_number 15
_symmetry_cell_setting 'monoclinic'
loop_
_space_group_symop_operation_xyz
x,y,z
-x,y,1/2-z
-x,-y,-z
x,-y,1/2+z
1/2+x,1/2+y,z
1/2-x,1/2+y,1/2-z
1/2-x,1/2-y,-z
1/2+x,1/2-y,1/2+z
loop_
_atom_site_type_symbol
_atom_site_label
_atom_site_fract_x
_atom_site_fract_y
_atom_site_fract_z
Si Si1 0.679322 0.366445 0.308422
Si Si2 0.861392 0.591149 0.152061
Si Si3 0.000000 0.176594 0.750000
Si Si4 0.564531 0.234095 0.092820
Si Si5 0.920444 0.776747 0.591186
Si Si6 0.265934 0.077431 0.351278
Si Si7 0.248215 0.470691 0.469053
O O1 0.621108 0.359112 0.267018
O O2 0.620984 0.295935 0.343631
O O3 0.434653 0.415470 0.393508
O O4 0.000000 0.384784 0.250000
O O5 0.500000 0.575429 0.250000
O O6 0.886986 0.667319 0.135216
O O7 0.040426 0.577068 0.152434
O O8 0.054456 0.556505 0.062020
O O9 0.251672 0.225186 0.666347
O O10 0.784326 0.224093 0.077145
O O11 0.750000 0.250000 0.000000
O O12 0.873217 0.850660 0.618594
O O13 0.250000 0.750000 0.500000
O O14 0.500000 0.066463 0.250000
O O15 0.997519 0.024577 0.418780
O O16 0.000000 0.500000 0.500000
#
# Coordination Sequence:
#
# PCOD9309228 Si02
#       7
#     8   8   4   8   8   8   8
#     4  11  25  46  72 102 141 182 231 290 348 415
#     4  11  24  45  71  99 134 180 231 288 347 414
#     4  10  24  46  68 110 136 172 238 286 356 412
#     4  10  21  40  67 102 131 170 228 288 349 407
#     4  10  23  39  69 100 134 177 222 291 349 403
#     4  11  24  45  68  99 136 184 232 279 345 419
#     4  12  27  47  66  99 139 185 231 280 345 416
#
# _framework density 9.1710759999999993
#
# number of rings (size 3 to 8) (size 9 to 14) (size 15 to 20)
#    0.000    1.231    2.308    2.308    6.462    1.231 
#    6.923    0.000    0.000    0.000    0.000    0.000 
#    0.000    0.000    0.000    0.000    0.000    0.000 
#
# Total GULP energy -144736.222313 kJ/mol
# GULP energy per Si atom -5566.777781 kJ/mol
# Density = 0.915020 g / cm^3
# Si number density = 9.171076 Si / 1000 Ang^3
#
#
#
# Elastic Constant Matrix: (Units=GPa)
#
#
# Indices 1 2 3 4 5 6 
#
# 1 130.5178 50.4676 71.3964 -0.0139 6.9128 0.0312
# 2 50.4676 115.3516 62.3190 0.0031 -6.8709 0.0003
# 3 71.3964 62.3190 175.8012 0.1036 -2.1784 0.0040
# 4 -0.0139 0.0031 0.1036 42.9703 -0.0241 -2.2924
# 5 6.9128 -6.8709 -2.1784 -0.0241 51.5698 -0.0492
# 6 0.0312 0.0003 0.0040 -2.2924 -0.0492 40.0659
#
#
#
# Elastic Compliance Matrix: (Units=1/GPa)
#
#
# Indices 1 2 3 4 5 6 
#
# 1 0.010754 -0.003031 -0.003317 0.000010 -0.001985 -0.000010
# 2 -0.003031 0.011660 -0.002880 0.000006 0.001838 0.000005
# 3 -0.003317 -0.002880 0.008061 -0.000020 0.000402 0.000001
# 4 0.000010 0.000006 -0.000020 0.023343 0.000011 0.001336
# 5 -0.001985 0.001838 0.000402 0.000011 0.019919 0.000027
# 6 -0.000010 0.000005 0.000001 0.001336 0.000027 0.025035
#
#
# Mechanical properties :
#
#
# Convention : Reuss Voigt Hill
#
# Bulk Modulus (GPa) = 83.19995 87.78187 85.49091
# Shear Modulus (GPa) = 41.24187 42.75369 41.99778
#
# Velocity S-wave (km/s) = 4.74695 4.83318 4.79026
# Velocity P-wave (km/s) = 8.68926 8.89427 8.79236
#
# Compressibility (1/GPa) = 0.01201924
#
# Stress axis : x y z
#
# Youngs Moduli (GPa) = 92.99182 85.75971 124.04809
#
# Poissons Ratio (x) = 0.25992 0.41153
# Poissons Ratio (y) = 0.28184 0.35724
# Poissons Ratio (z) = 0.30850 0.24697
#
# Static dielectric constant tensor:
#      x y z
#    x 1.684270 0.000000 -0.002830 
#    y 0.000000 1.664270 -0.000020 
#    z -0.002830 -0.000020 1.649430 
# 
# From -- ./inp_files/308965.got.cif
#   From: 2010.05.17/outbox.ucp.g08.bks.cvg/sg15_155_cif.got.tgz:308965.got - 2010.06.11 12:40:34.
