data_PCOD9309606
_publ_section_title
;
Structure prediction by ZEFSAII (Michael W. Deem and Ramdas Pophale) SiO2 
 PCOD9309606
Probable space group: C 2/C
;
_chemical_formula_sum "Si O2"
_cell_formula_units_Z 24
_cell_length_a 15.000000
_cell_length_b 27.000000
_cell_length_c 9.000000
_cell_angle_alpha 90.000000
_cell_angle_beta 40.000000
_cell_angle_gamma 90.000000
_cell_volume 2342.960837
_symmetry_space_group_name_H-M "C 2/C"
_symmetry_group_IT_number 15
_symmetry_cell_setting 'monoclinic'
loop_
_space_group_symop_operation_xyz
x,y,z
-x,y,1/2-z
-x,-y,-z
x,-y,1/2+z
1/2+x,1/2+y,z
1/2-x,1/2+y,1/2-z
1/2-x,1/2-y,-z
1/2+x,1/2-y,1/2+z
loop_
_atom_site_type_symbol
_atom_site_label
_atom_site_fract_x
_atom_site_fract_y
_atom_site_fract_z
Si Si1 0.255225 0.928176 0.962649
Si Si2 0.227366 0.971809 0.668145
Si Si3 0.500000 0.909532 0.250000
Si Si4 0.333327 0.643893 0.701440
Si Si5 0.598005 0.745151 0.760638
Si Si6 0.493373 0.856128 0.954343
Si Si7 0.500000 0.579137 0.250000
O O1 0.214955 0.955780 0.858476
O O2 0.400097 0.897968 0.748780
O O3 0.152053 0.886743 0.162273
O O4 0.256426 0.970741 0.089160
O O5 0.364279 0.943174 0.438411
O O6 0.096016 0.953295 0.738809
O O7 0.515735 0.874071 0.367850
O O8 0.395461 0.699192 0.633897
O O9 0.403450 0.613342 0.478479
O O10 0.165949 0.646268 0.896589
O O11 0.500000 0.730534 0.750000
O O12 0.750000 0.750000 0.500000
O O13 0.553125 0.800431 0.866928
#
# Coordination Sequence:
#
# PCOD9309606 Si02
#       7
#     8   8   4   8   8   8   4
#     4  11  25  44  76 101 143 186 236 289 351 418
#     4  11  26  44  70 109 142 185 237 288 352 419
#     4  10  24  43  72 104 142 183 234 290 346 426
#     4  12  26  46  73 103 145 188 232 292 359 416
#     4  12  24  44  72 110 140 180 239 293 353 421
#     4  11  23  47  73 105 141 185 235 295 351 422
#     4  12  28  49  68 106 150 185 230 294 354 422
#
# _framework density 10.243449
#
# number of rings (size 3 to 8) (size 9 to 14) (size 15 to 20)
#    0.000    0.667    5.000    1.500    4.667    4.667 
#    0.000    1.667    0.000    0.000    0.000    0.000 
#    0.000    0.000    0.000    0.000    0.000    0.000 
#
# Total GULP energy -134039.599065 kJ/mol
# GULP energy per Si atom -5584.983294 kJ/mol
# Density = 1.022013 g / cm^3
# Si number density = 10.243449 Si / 1000 Ang^3
#
#
#
# Elastic Constant Matrix: (Units=GPa)
#
#
# Indices 1 2 3 4 5 6 
#
# 1 94.4806 40.6944 17.9720 0.0000 -8.6825 0.0000
# 2 40.6944 158.6944 37.7419 0.0000 4.0536 0.0000
# 3 17.9720 37.7419 74.0411 0.0000 8.6969 0.0000
# 4 0.0000 0.0000 0.0000 31.9569 0.0000 11.0155
# 5 -8.6825 4.0536 8.6969 0.0000 36.1202 0.0000
# 6 0.0000 0.0000 0.0000 11.0155 0.0000 40.0117
#
#
#
# Elastic Compliance Matrix: (Units=1/GPa)
#
#
# Indices 1 2 3 4 5 6 
#
# 1 0.012544 -0.002826 -0.002054 0.000000 0.003827 0.000000
# 2 -0.002826 0.007808 -0.003202 0.000000 -0.000785 0.000000
# 3 -0.002054 -0.003202 0.016108 0.000000 -0.004013 0.000000
# 4 0.000000 0.000000 0.000000 0.034573 0.000000 -0.009518
# 5 0.003827 -0.000785 -0.004013 0.000000 0.029659 0.000000
# 6 0.000000 0.000000 0.000000 -0.009518 0.000000 0.027613
#
#
# Mechanical properties :
#
#
# Convention : Reuss Voigt Hill
#
# Bulk Modulus (GPa) = 49.26996 57.78143 53.52569
# Shear Modulus (GPa) = 33.06153 37.00494 35.03324
#
# Velocity S-wave (km/s) = 4.02156 4.25464 4.13974
# Velocity P-wave (km/s) = 6.75763 7.23887 7.00239
#
# Compressibility (1/GPa) = 0.02029634
#
# Stress axis : x y z
#
# Youngs Moduli (GPa) = 79.72136 128.08049 62.08119
#
# Poissons Ratio (x) = 0.36195 0.12750
# Poissons Ratio (y) = 0.22529 0.19877
# Poissons Ratio (z) = 0.16373 0.41008
#
# Static dielectric constant tensor:
#      x y z
#    x 1.760790 0.000000 0.023390 
#    y 0.000000 1.750520 0.000000 
#    z 0.023390 0.000000 1.732960 
# 
# From -- ./inp_files/43851.got.cif
#   From: 2010.05.17/outbox.ucp.g08.bks.cvg/sg15_22_cif.got.tgz:43851.got - 2010.06.11 12:40:34.
