data_PCOD9309407
_publ_section_title
;
Structure prediction by ZEFSAII (Michael W. Deem and Ramdas Pophale) SiO2 
 PCOD9309407
Probable space group: C 2/C
;
_chemical_formula_sum "Si O2"
_cell_formula_units_Z 32
_cell_length_a 18.000000
_cell_length_b 15.000000
_cell_length_c 18.000000
_cell_angle_alpha 90.000000
_cell_angle_beta 40.000000
_cell_angle_gamma 90.000000
_cell_volume 3123.947783
_symmetry_space_group_name_H-M "C 2/C"
_symmetry_group_IT_number 15
_symmetry_cell_setting 'monoclinic'
loop_
_space_group_symop_operation_xyz
x,y,z
-x,y,1/2-z
-x,-y,-z
x,-y,1/2+z
1/2+x,1/2+y,z
1/2-x,1/2+y,1/2-z
1/2-x,1/2-y,-z
1/2+x,1/2-y,1/2+z
loop_
_atom_site_type_symbol
_atom_site_label
_atom_site_fract_x
_atom_site_fract_y
_atom_site_fract_z
Si Si1 0.220013 0.425071 0.398799
Si Si2 0.738921 0.092198 0.169405
Si Si3 0.629973 0.586145 0.163075
Si Si4 0.621367 0.867980 0.315170
Si Si5 0.677478 0.410043 0.456937
Si Si6 0.647862 0.257409 0.143459
Si Si7 0.995188 0.484414 0.844131
Si Si8 0.578190 0.334308 0.854158
O O1 0.287035 0.516572 0.360459
O O2 0.171327 0.411285 0.353068
O O3 0.313949 0.349364 0.346862
O O4 0.112380 0.430819 0.539609
O O5 0.692748 0.177405 0.160465
O O6 0.825407 0.117452 0.169142
O O7 0.802157 0.016587 0.070603
O O8 0.615553 0.051147 0.286110
O O9 0.500000 0.547605 0.250000
O O10 0.606898 0.659547 0.244051
O O11 0.682986 0.609612 0.041558
O O12 0.723570 0.869404 0.173491
O O13 0.508373 0.915217 0.365103
O O14 0.584316 0.769443 0.367573
O O15 0.548243 0.377582 0.534693
O O16 0.500000 0.252974 0.250000
O O17 0.750000 0.250000 0.000000
O O18 0.000000 0.481146 0.750000
#
# Coordination Sequence:
#
# PCOD9309407 Si02
#       8
#     8   8   8   8   8   8   8   8
#     4  12  23  43  66 101 134 174 229 276 339 407
#     4  11  22  44  63  97 132 176 225 271 344 405
#     4  10  22  41  66  95 127 173 225 274 327 399
#     4  11  25  43  65 101 132 176 224 276 343 398
#     4  10  23  42  68  92 133 177 223 276 337 401
#     4  12  25  41  68 102 141 180 220 280 341 413
#     4  11  24  43  68  94 136 182 226 277 335 404
#     4  11  24  43  66  98 132 174 225 277 340 401
#
# _framework density 10.243449
#
# number of rings (size 3 to 8) (size 9 to 14) (size 15 to 20)
#    0.000    1.000    1.250    6.750    0.000    7.000 
#    0.000    0.000    0.000    0.000    0.000    0.000 
#    0.000    0.000    0.000    0.000    0.000    0.000 
#
# Total GULP energy -178360.826502 kJ/mol
# GULP energy per Si atom -5573.775828 kJ/mol
# Density = 1.022013 g / cm^3
# Si number density = 10.243449 Si / 1000 Ang^3
#
#
#
# Elastic Constant Matrix: (Units=GPa)
#
#
# Indices 1 2 3 4 5 6 
#
# 1 131.5364 43.5627 48.7560 0.0000 -10.3153 0.0000
# 2 43.5627 54.2556 17.3253 0.0000 -15.3274 0.0000
# 3 48.7560 17.3253 111.8471 0.0000 -1.8857 0.0000
# 4 0.0000 0.0000 0.0000 26.6945 0.0000 -5.7283
# 5 -10.3153 -15.3274 -1.8857 0.0000 39.7904 0.0000
# 6 0.0000 0.0000 0.0000 -5.7283 0.0000 45.3622
#
#
#
# Elastic Compliance Matrix: (Units=1/GPa)
#
#
# Indices 1 2 3 4 5 6 
#
# 1 0.011750 -0.008301 -0.003842 0.000000 -0.000334 0.000000
# 2 -0.008301 0.027658 -0.000523 0.000000 0.008477 0.000000
# 3 -0.003842 -0.000523 0.010685 0.000000 -0.000691 0.000000
# 4 0.000000 0.000000 0.000000 0.038504 0.000000 0.004862
# 5 -0.000334 0.008477 -0.000691 0.000000 0.028278 0.000000
# 6 0.000000 0.000000 0.000000 0.004862 0.000000 0.022659
#
#
# Mechanical properties :
#
#
# Convention : Reuss Voigt Hill
#
# Bulk Modulus (GPa) = 40.38567 57.43637 48.91102
# Shear Modulus (GPa) = 28.88194 34.90244 31.89219
#
# Velocity S-wave (km/s) = 3.75877 4.13200 3.94980
# Velocity P-wave (km/s) = 6.21237 7.13170 6.68785
#
# Compressibility (1/GPa) = 0.02476126
#
# Stress axis : x y z
#
# Youngs Moduli (GPa) = 85.10989 36.15536 93.59195
#
# Poissons Ratio (x) = 0.30014 0.35954
# Poissons Ratio (y) = 0.70654 0.04892
# Poissons Ratio (z) = 0.32695 0.01890
#
# Static dielectric constant tensor:
#      x y z
#    x 1.720690 0.000000 0.010690 
#    y 0.000000 1.843950 0.000000 
#    z 0.010690 0.000000 1.763440 
# 
# From -- ./inp_files/211396.got.cif
#   From: 2010.05.17/outbox.ucp.g08.bks.cvg/sg15_106_cif.got.tgz:211396.got - 2010.06.11 12:40:34.
