data_PCOD9309465
_publ_section_title
;
Structure prediction by ZEFSAII (Michael W. Deem and Ramdas Pophale) SiO2 
 PCOD9309465
Probable space group: C 2/C
;
_chemical_formula_sum "Si O2"
_cell_formula_units_Z 24
_cell_length_a 21.000000
_cell_length_b 12.000000
_cell_length_c 27.000000
_cell_angle_alpha 90.000000
_cell_angle_beta 20.000000
_cell_angle_gamma 90.000000
_cell_volume 2327.105055
_symmetry_space_group_name_H-M "C 2/C"
_symmetry_group_IT_number 15
_symmetry_cell_setting 'monoclinic'
loop_
_space_group_symop_operation_xyz
x,y,z
-x,y,1/2-z
-x,-y,-z
x,-y,1/2+z
1/2+x,1/2+y,z
1/2-x,1/2+y,1/2-z
1/2-x,1/2-y,-z
1/2+x,1/2-y,1/2+z
loop_
_atom_site_type_symbol
_atom_site_label
_atom_site_fract_x
_atom_site_fract_y
_atom_site_fract_z
Si Si1 0.365299 0.276587 0.747030
Si Si2 0.470435 0.728932 0.829891
Si Si3 0.712271 0.062190 0.185922
Si Si4 0.998142 0.017922 0.310715
Si Si5 0.031328 0.870068 0.526242
Si Si6 0.420146 0.912395 0.362529
O O1 0.344250 0.399496 0.784844
O O2 0.464807 0.298478 0.621829
O O3 0.509981 0.211547 0.677115
O O4 0.174420 0.205820 0.889182
O O5 0.500000 0.723475 0.750000
O O6 0.614874 0.823439 0.740958
O O7 0.518054 0.607239 0.815927
O O8 0.250000 0.750000 0.000000
O O9 0.846146 0.090924 0.133460
O O10 0.530749 0.983783 0.323144
O O11 0.848867 0.983952 0.052079
O O12 0.000000 0.017387 0.250000
O O13 0.796369 0.063916 0.474993
O O14 0.500000 0.945131 0.250000
#
# Coordination Sequence:
#
# PCOD9309465 Si02
#       6
#     8   8   8   8   8   8
#     4  11  22  41  65  98 127 167 216 259 323 372
#     4  11  24  39  63  94 124 162 212 261 321 375
#     4  10  22  44  64  89 126 175 211 251 313 391
#     4  11  22  37  59  99 130 156 205 274 321 367
#     4  10  24  43  67  90 127 174 216 256 306 389
#     4  11  21  39  69  97 128 167 210 267 325 379
#
# _framework density 10.313243
#
# number of rings (size 3 to 8) (size 9 to 14) (size 15 to 20)
#    0.000    1.333    1.667    4.500    2.333    1.333 
#    6.000    0.833    0.000    0.000    0.000    0.000 
#    0.000    0.000    0.000    0.000    0.000    0.000 
#
# Total GULP energy -133782.770830 kJ/mol
# GULP energy per Si atom -5574.282118 kJ/mol
# Density = 1.028977 g / cm^3
# Si number density = 10.313243 Si / 1000 Ang^3
#
#
#
# Elastic Constant Matrix: (Units=GPa)
#
#
# Indices 1 2 3 4 5 6 
#
# 1 51.5334 21.9118 43.6426 -0.1470 -9.6102 0.0203
# 2 21.9118 138.8047 27.7334 -0.0402 -15.7248 0.0027
# 3 43.6426 27.7334 89.9049 0.2325 5.7996 -0.0345
# 4 -0.1470 -0.0402 0.2325 -283.6287 0.0171 32.3660
# 5 -9.6102 -15.7248 5.7996 0.0171 40.1367 -0.0010
# 6 0.0203 0.0027 -0.0345 32.3660 -0.0010 29.4946
#
#
#
# Elastic Compliance Matrix: (Units=1/GPa)
#
#
# Indices 1 2 3 4 5 6 
#
# 1 0.037889 -0.000920 -0.018846 -0.000035 0.011435 -0.000009
# 2 -0.000920 0.008183 -0.002292 -0.000002 0.003317 0.000000
# 3 -0.018846 -0.002292 0.021528 0.000028 -0.008521 0.000007
# 4 -0.000035 -0.000002 0.000028 -0.003133 -0.000012 0.003438
# 5 0.011435 0.003317 -0.008521 -0.000012 0.030184 -0.000004
# 6 -0.000009 0.000000 0.000007 0.003438 -0.000004 0.030131
#
#
# Mechanical properties :
#
#
# Convention : Reuss Voigt Hill
#
# Bulk Modulus (GPa) = 42.58198 51.86872 47.22535
# Shear Modulus (GPa) = 28.29249 -30.33581 -1.02166
#
# Velocity S-wave (km/s) = 3.70761 -3.83916 -0.70455
# Velocity P-wave (km/s) = 6.24641 2.35564 4.72052
#
# Compressibility (1/GPa) = 0.02348411
#
# Stress axis : x y z
#
# Youngs Moduli (GPa) = 26.39297 122.20081 46.45150
#
# Poissons Ratio (x) = 0.11246 0.87543
# Poissons Ratio (y) = 0.02429 0.10645
# Poissons Ratio (z) = 0.49740 0.28003
#
# Static dielectric constant tensor:
#      x y z
#    x 1.747910 0.000010 0.016540 
#    y 0.000010 1.844450 0.000010 
#    z 0.016540 0.000010 1.698090 
# 
# From -- ./inp_files/300925.got.cif
#   From: 2010.05.17/outbox.ucp.g08.bks.cvg/sg15_151_cif.got.tgz:300925.got - 2010.06.11 12:40:34.
