data_PCOD9309414
_publ_section_title
;
Structure prediction by ZEFSAII (Michael W. Deem and Ramdas Pophale) SiO2 
 PCOD9309414
Probable space group: C 2/C
;
_chemical_formula_sum "Si O2"
_cell_formula_units_Z 28
_cell_length_a 12.000000
_cell_length_b 15.000000
_cell_length_c 15.000000
_cell_angle_alpha 90.000000
_cell_angle_beta 90.000000
_cell_angle_gamma 90.000000
_cell_volume 2700.000000
_symmetry_space_group_name_H-M "C 2/C"
_symmetry_group_IT_number 15
_symmetry_cell_setting 'monoclinic'
loop_
_space_group_symop_operation_xyz
x,y,z
-x,y,1/2-z
-x,-y,-z
x,-y,1/2+z
1/2+x,1/2+y,z
1/2-x,1/2+y,1/2-z
1/2-x,1/2-y,-z
1/2+x,1/2-y,1/2+z
loop_
_atom_site_type_symbol
_atom_site_label
_atom_site_fract_x
_atom_site_fract_y
_atom_site_fract_z
Si Si1 0.722665 0.394208 0.329598
Si Si2 0.543806 0.897541 0.520248
Si Si3 0.036790 0.326266 0.155823
Si Si4 0.978514 0.134011 0.395019
Si Si5 0.789332 0.066619 0.057849
Si Si6 0.869718 0.941450 0.359538
Si Si7 0.956055 0.211415 0.589469
O O1 0.845600 0.371340 0.361656
O O2 0.685292 0.474765 0.392577
O O3 0.703463 0.427562 0.228761
O O4 0.649041 0.307159 0.348321
O O5 0.547743 0.852651 0.422187
O O6 0.662137 0.904877 0.569648
O O7 0.478789 0.816812 0.572997
O O8 0.500000 0.000000 0.500000
O O9 0.000000 0.362530 0.250000
O O10 0.052552 0.219920 0.162236
O O11 0.112520 0.130270 0.407233
O O12 0.935222 0.163757 0.493208
O O13 0.934663 0.037650 0.361133
O O14 0.803207 0.056208 0.951919
O O15 0.948460 0.853399 0.368439
#
# Coordination Sequence:
#
# PCOD9309414 Si02
#       7
#     8   8   8   8   8   8   8
#     4  12  23  41  71  96 139 180 227 283 341 396
#     4  11  24  44  67  93 139 181 216 278 345 405
#     4  11  26  42  62 100 137 174 230 282 337 414
#     4  10  22  41  69  96 135 170 232 285 332 398
#     4  11  22  42  72  96 131 188 223 271 351 400
#     4  11  22  41  68 106 136 173 231 292 327 403
#     4  10  22  41  67  99 129 171 232 276 334 404
#
# _framework density 10.370369999999999
#
# number of rings (size 3 to 8) (size 9 to 14) (size 15 to 20)
#    0.000    1.143    4.286    2.143    2.000    9.714 
#    0.000    1.429    0.000    0.000    0.000    0.000 
#    0.000    0.000    0.000    0.000    0.000    0.000 
#
# Total GULP energy -156056.842836 kJ/mol
# GULP energy per Si atom -5573.458673 kJ/mol
# Density = 1.034677 g / cm^3
# Si number density = 10.370370 Si / 1000 Ang^3
#
#
#
# Elastic Constant Matrix: (Units=GPa)
#
#
# Indices 1 2 3 4 5 6 
#
# 1 24.4801 12.8339 2.9027 0.0000 7.0473 0.0000
# 2 12.8339 120.2012 0.6947 0.0000 -0.4012 0.0000
# 3 2.9027 0.6947 46.7278 0.0000 7.2181 0.0000
# 4 0.0000 0.0000 0.0000 16.9293 0.0000 6.2760
# 5 7.0473 -0.4012 7.2181 0.0000 24.5789 0.0000
# 6 0.0000 0.0000 0.0000 6.2760 0.0000 29.5518
#
#
#
# Elastic Compliance Matrix: (Units=1/GPa)
#
#
# Indices 1 2 3 4 5 6 
#
# 1 0.047501 -0.005112 -0.000794 0.000000 -0.013470 0.000000
# 2 -0.005112 0.008871 -0.000066 0.000000 0.001630 0.000000
# 3 -0.000794 -0.000066 0.022433 0.000000 -0.006361 0.000000
# 4 0.000000 0.000000 0.000000 0.064117 0.000000 -0.013617
# 5 -0.013470 0.001630 -0.006361 0.000000 0.046442 0.000000
# 6 0.000000 0.000000 0.000000 -0.013617 0.000000 0.036731
#
#
# Mechanical properties :
#
#
# Convention : Reuss Voigt Hill
#
# Bulk Modulus (GPa) = 14.95632 24.91909 19.93770
# Shear Modulus (GPa) = 19.20658 25.87719 22.54189
#
# Velocity S-wave (km/s) = 3.04638 3.53604 3.30030
# Velocity P-wave (km/s) = 4.42726 5.35837 4.91491
#
# Compressibility (1/GPa) = 0.06686135
#
# Stress axis : x y z
#
# Youngs Moduli (GPa) = 21.05204 112.72647 44.57621
#
# Poissons Ratio (x) = 0.57627 0.03540
# Poissons Ratio (y) = 0.10762 0.00295
# Poissons Ratio (z) = 0.01672 0.00745
#
# Static dielectric constant tensor:
#      x y z
#    x 1.877790 0.000000 -0.044690 
#    y 0.000000 1.727790 0.000000 
#    z -0.044690 0.000000 1.779910 
# 
# From -- ./inp_files/144254.got.cif
#   From: 2010.05.17/outbox.ucp.g08.bks.cvg/sg15_73_cif.got.tgz:144254.got - 2010.06.11 12:40:34.
