data_PCOD9309290
_publ_section_title
;
Structure prediction by ZEFSAII (Michael W. Deem and Ramdas Pophale) SiO2 
 PCOD9309290
Probable space group: C 2/C
;
_chemical_formula_sum "Si O2"
_cell_formula_units_Z 32
_cell_length_a 27.000000
_cell_length_b 12.000000
_cell_length_c 15.000000
_cell_angle_alpha 90.000000
_cell_angle_beta 40.000000
_cell_angle_gamma 90.000000
_cell_volume 3123.947783
_symmetry_space_group_name_H-M "C 2/C"
_symmetry_group_IT_number 15
_symmetry_cell_setting 'monoclinic'
loop_
_space_group_symop_operation_xyz
x,y,z
-x,y,1/2-z
-x,-y,-z
x,-y,1/2+z
1/2+x,1/2+y,z
1/2-x,1/2+y,1/2-z
1/2-x,1/2-y,-z
1/2+x,1/2-y,1/2+z
loop_
_atom_site_type_symbol
_atom_site_label
_atom_site_fract_x
_atom_site_fract_y
_atom_site_fract_z
Si Si1 0.936943 0.382869 0.147523
Si Si2 0.588982 0.130037 0.326678
Si Si3 0.289078 0.978281 0.583659
Si Si4 0.976828 0.829298 0.181338
Si Si5 0.367126 0.816957 0.062876
Si Si6 0.843285 0.003672 0.887033
Si Si7 0.259993 0.380997 0.668168
Si Si8 0.664337 0.754618 0.075207
O O1 0.930793 0.510094 0.188772
O O2 0.881295 0.376682 0.137699
O O3 0.900871 0.299411 0.267604
O O4 0.023364 0.357886 0.994334
O O5 0.579013 0.228196 0.269380
O O6 0.673779 0.131259 0.249651
O O7 0.349838 0.080721 0.516978
O O8 0.225673 0.001840 0.592816
O O9 0.244804 0.961054 0.738898
O O10 0.327729 0.856694 0.507539
O O11 0.921805 0.938771 0.238399
O O12 0.000000 0.848335 0.250000
O O13 0.059692 0.771359 0.036995
O O14 0.294188 0.736469 0.154151
O O15 0.854431 0.877259 0.909962
O O16 0.812614 0.074552 0.014140
O O17 0.750000 0.750000 0.000000
#
# Coordination Sequence:
#
# PCOD9309290 Si02
#       8
#     8   8   8   8   8   8   8   8
#     4  10  21  43  66  98 135 182 221 299 343 416
#     4  10  22  40  69  99 139 174 230 294 355 399
#     4  11  25  40  73 108 132 191 236 288 358 419
#     4  11  24  43  67 100 140 186 227 288 351 416
#     4  11  23  41  69  97 145 177 238 284 354 413
#     4  11  25  46  69 102 145 186 231 293 355 427
#     4  12  24  42  70 103 142 179 237 298 347 422
#     4  10  22  42  70  95 138 182 235 277 354 419
#
# _framework density 10.243449
#
# number of rings (size 3 to 8) (size 9 to 14) (size 15 to 20)
#    0.000    1.250    2.500    3.750    5.250    1.000 
#    0.000    8.750    0.000    0.000    0.000    0.000 
#    0.000    0.000    0.000    0.000    0.000    0.000 
#
# Total GULP energy -178243.185047 kJ/mol
# GULP energy per Si atom -5570.099533 kJ/mol
# Density = 1.022013 g / cm^3
# Si number density = 10.243449 Si / 1000 Ang^3
#
#
#
# Elastic Constant Matrix: (Units=GPa)
#
#
# Indices 1 2 3 4 5 6 
#
# 1 59.6119 14.0493 23.0948 0.0000 0.4291 0.0000
# 2 14.0493 121.5911 35.2418 0.0000 -13.7310 0.0000
# 3 23.0948 35.2418 57.1410 0.0000 -20.5529 0.0000
# 4 0.0000 0.0000 0.0000 38.1269 0.0000 -2.5402
# 5 0.4291 -13.7310 -20.5529 0.0000 25.8173 0.0000
# 6 0.0000 0.0000 0.0000 -2.5402 0.0000 33.8419
#
#
#
# Elastic Compliance Matrix: (Units=1/GPa)
#
#
# Indices 1 2 3 4 5 6 
#
# 1 0.021676 -0.000066 -0.012418 0.000000 -0.010281 0.000000
# 2 -0.000066 0.010021 -0.005936 0.000000 0.000605 0.000000
# 3 -0.012418 -0.005936 0.035198 0.000000 0.025070 0.000000
# 4 0.000000 0.000000 0.000000 0.026360 0.000000 0.001979
# 5 -0.010281 0.000605 0.025070 0.000000 0.059184 0.000000
# 6 0.000000 0.000000 0.000000 0.001979 0.000000 0.029698
#
#
# Mechanical properties :
#
#
# Convention : Reuss Voigt Hill
#
# Bulk Modulus (GPa) = 33.27320 42.56843 37.92081
# Shear Modulus (GPa) = 21.83464 30.62112 26.22788
#
# Velocity S-wave (km/s) = 3.26818 3.87029 3.58191
# Velocity P-wave (km/s) = 5.52429 6.38715 5.97132
#
# Compressibility (1/GPa) = 0.03005422
#
# Stress axis : x y z
#
# Youngs Moduli (GPa) = 46.13459 99.79323 28.41099
#
# Poissons Ratio (x) = 0.00663 0.35280
# Poissons Ratio (y) = 0.00306 0.16864
# Poissons Ratio (z) = 0.57289 0.59235
#
# Static dielectric constant tensor:
#      x y z
#    x 1.731090 0.000000 -0.001190 
#    y 0.000000 1.805710 0.000000 
#    z -0.001190 0.000000 1.785770 
# 
# From -- ./inp_files/177810.got.cif
#   From: 2010.05.17/outbox.ucp.g08.bks.cvg/sg15_89_cif.got.tgz:177810.got - 2010.06.11 12:40:34.
