data_PCOD9309192
_publ_section_title
;
Structure prediction by ZEFSAII (Michael W. Deem and Ramdas Pophale) SiO2 
 PCOD9309192
Probable space group: C 2/C
;
_chemical_formula_sum "Si O2"
_cell_formula_units_Z 20
_cell_length_a 21.000000
_cell_length_b 9.000000
_cell_length_c 30.000000
_cell_angle_alpha 90.000000
_cell_angle_beta 20.000000
_cell_angle_gamma 90.000000
_cell_volume 1939.254213
_symmetry_space_group_name_H-M "C 2/C"
_symmetry_group_IT_number 15
_symmetry_cell_setting 'monoclinic'
loop_
_space_group_symop_operation_xyz
x,y,z
-x,y,1/2-z
-x,-y,-z
x,-y,1/2+z
1/2+x,1/2+y,z
1/2-x,1/2+y,1/2-z
1/2-x,1/2-y,-z
1/2+x,1/2-y,1/2+z
loop_
_atom_site_type_symbol
_atom_site_label
_atom_site_fract_x
_atom_site_fract_y
_atom_site_fract_z
Si Si1 0.730954 0.415083 0.717988
Si Si2 0.204766 0.884570 0.497594
Si Si3 0.774842 0.752320 0.687749
Si Si4 0.190258 0.825722 0.406318
Si Si5 0.470116 0.905991 0.717037
O O1 0.508293 0.432524 0.865001
O O2 0.819138 0.577725 0.662215
O O3 0.789333 0.317505 0.722490
O O4 0.768671 0.319419 0.649357
O O5 0.250000 0.750000 0.500000
O O6 0.246801 0.820215 0.420819
O O7 0.334090 0.022857 0.425381
O O8 0.616187 0.774490 0.755036
O O9 0.966777 0.838929 0.550454
O O10 0.318164 0.963363 0.307282
O O11 0.500000 0.873736 0.750000
#
# Coordination Sequence:
#
# PCOD9309192 Si02
#       5
#     8   8   8   8   8
#     4  11  23  40  63  91 120 162 201 251 298 359
#     4  10  21  39  64  89 120 161 199 245 304 357
#     4  11  24  40  62  92 124 158 204 249 302 354
#     4  10  21  40  64  88 118 163 203 244 302 360
#     4  10  21  40  61  88 125 161 199 248 300 358
#
# _framework density 10.313243
#
# number of rings (size 3 to 8) (size 9 to 14) (size 15 to 20)
#    0.000    1.600    2.000    2.400    2.800    4.000 
#    3.600    0.000    0.000    0.000    0.000    0.000 
#    0.000    0.000    0.000    0.000    0.000    0.000 
#
# Total GULP energy -111564.591038 kJ/mol
# GULP energy per Si atom -5578.229552 kJ/mol
# Density = 1.028977 g / cm^3
# Si number density = 10.313243 Si / 1000 Ang^3
#
#
#
# Elastic Constant Matrix: (Units=GPa)
#
#
# Indices 1 2 3 4 5 6 
#
# 1 58.0072 36.6866 28.4212 0.0042 -23.1156 0.0021
# 2 36.6866 65.6068 -0.5128 0.0216 5.6901 0.0149
# 3 28.4212 -0.5128 51.1841 0.0478 0.5013 0.0418
# 4 0.0042 0.0216 0.0478 16.0595 0.0242 -12.8976
# 5 -23.1156 5.6901 0.5013 0.0242 16.8875 0.0227
# 6 0.0021 0.0149 0.0418 -12.8976 0.0227 37.4608
#
#
#
# Elastic Compliance Matrix: (Units=1/GPa)
#
#
# Indices 1 2 3 4 5 6 
#
# 1 -0.045877 0.032321 0.026528 0.000008 -0.074475 0.000008
# 2 0.032321 -0.007067 -0.018480 -0.000028 0.047170 -0.000017
# 3 0.026528 -0.018480 0.004207 -0.000108 0.042413 -0.000062
# 4 0.000008 -0.000028 -0.000108 0.086067 -0.000139 0.029633
# 5 -0.074475 0.047170 0.042413 -0.000139 -0.059878 -0.000074
# 6 0.000008 -0.000017 -0.000062 0.029633 -0.000074 0.036897
#
#
# Mechanical properties :
#
#
# Convention : Reuss Voigt Hill
#
# Bulk Modulus (GPa) = 31.24953 33.77647 32.51300
# Shear Modulus (GPa) = -89.73202 21.42844 -34.15179
#
# Velocity S-wave (km/s) = -6.60286 3.22666 -4.07347
# Velocity P-wave (km/s) = 6.55341 5.50388 2.51541
#
# Compressibility (1/GPa) = 0.03200048
#
# Stress axis : x y z
#
# Youngs Moduli (GPa) = -21.79726 -141.51118 237.70753
#
# Poissons Ratio (x) = 4.57374 -6.30582
# Poissons Ratio (y) = 0.70450 4.39272
# Poissons Ratio (z) = 0.57823 -2.61506
#
# Static dielectric constant tensor:
#      x y z
#    x 1.719920 0.000000 0.044680 
#    y 0.000000 1.720560 0.000010 
#    z 0.044680 0.000010 1.800620 
# 
# From -- ./inp_files/166026.got.cif
#   From: 2010.05.17/outbox.ucp.g08.bks.cvg/sg15_84_cif.got.tgz:166026.got - 2010.06.11 12:40:34.
