data_PCOD9309859
_publ_section_title
;
Structure prediction by ZEFSAII (Michael W. Deem and Ramdas Pophale) SiO2 
 PCOD9309859
Probable space group: C 2/C
;
_chemical_formula_sum "Si O2"
_cell_formula_units_Z 24
_cell_length_a 12.000000
_cell_length_b 12.000000
_cell_length_c 18.000000
_cell_angle_alpha 90.000000
_cell_angle_beta 80.000000
_cell_angle_gamma 90.000000
_cell_volume 2552.621696
_symmetry_space_group_name_H-M "C 2/C"
_symmetry_group_IT_number 15
_symmetry_cell_setting 'monoclinic'
loop_
_space_group_symop_operation_xyz
x,y,z
-x,y,1/2-z
-x,-y,-z
x,-y,1/2+z
1/2+x,1/2+y,z
1/2-x,1/2+y,1/2-z
1/2-x,1/2-y,-z
1/2+x,1/2-y,1/2+z
loop_
_atom_site_type_symbol
_atom_site_label
_atom_site_fract_x
_atom_site_fract_y
_atom_site_fract_z
Si Si1 0.470887 0.056885 0.081852
Si Si2 0.029122 0.012972 0.585243
Si Si3 0.662040 0.755516 0.580137
Si Si4 0.789440 0.145588 0.354930
Si Si5 0.713541 0.425153 0.818015
Si Si6 0.094271 0.614290 0.678430
O O1 0.558407 0.159164 0.080072
O O2 0.341230 0.105896 0.107565
O O3 0.512616 0.958867 0.133187
O O4 0.500000 0.000000 0.000000
O O5 0.094640 0.133892 0.594355
O O6 0.122226 0.924921 0.605033
O O7 0.000000 0.000000 0.500000
O O8 0.906858 0.979075 0.638516
O O9 0.750000 0.750000 0.500000
O O10 0.736907 0.819160 0.637720
O O11 0.800272 0.114450 0.265912
O O12 0.833297 0.275820 0.356529
O O13 0.809873 0.522873 0.808850
O O14 0.000000 0.652244 0.750000
#
# Coordination Sequence:
#
# PCOD9309859 Si02
#       6
#     8   8   8   8   8   8
#     4  11  26  45  72 104 140 185 242 295 365 432
#     4  12  26  44  70 105 145 188 246 295 364 443
#     4  11  24  45  74 101 143 188 231 305 361 431
#     4  12  27  45  73 104 141 192 241 300 367 435
#     4  11  25  47  71 106 141 188 244 295 371 435
#     4  11  24  46  73 101 142 182 236 306 358 438
#
# _framework density 9.4020980000000005
#
# number of rings (size 3 to 8) (size 9 to 14) (size 15 to 20)
#    0.000    0.667    3.333    3.500    7.000    3.333 
#    3.000    0.000    0.000    0.000    0.000    0.000 
#    0.000    0.000    0.000    0.000    0.000    0.000 
#
# Total GULP energy -133663.929800 kJ/mol
# GULP energy per Si atom -5569.330408 kJ/mol
# Density = 0.938070 g / cm^3
# Si number density = 9.402098 Si / 1000 Ang^3
#
#
#
# Elastic Constant Matrix: (Units=GPa)
#
#
# Indices 1 2 3 4 5 6 
#
# 1 185.2646 55.2525 55.8438 0.0000 -14.3088 0.0000
# 2 55.2525 170.4786 36.6282 0.0000 9.5608 0.0000
# 3 55.8438 36.6282 106.6942 0.0000 -2.9994 0.0000
# 4 0.0000 0.0000 0.0000 33.2944 0.0000 -2.7464
# 5 -14.3088 9.5608 -2.9994 0.0000 50.2597 0.0000
# 6 0.0000 0.0000 0.0000 -2.7464 0.0000 53.9603
#
#
#
# Elastic Compliance Matrix: (Units=1/GPa)
#
#
# Indices 1 2 3 4 5 6 
#
# 1 0.006986 -0.001740 -0.002999 0.000000 0.002141 0.000000
# 2 -0.001740 0.006857 -0.001497 0.000000 -0.001889 0.000000
# 3 -0.002999 -0.001497 0.011459 0.000000 0.000115 0.000000
# 4 0.000000 0.000000 0.000000 0.030162 0.000000 0.001535
# 5 0.002141 -0.001889 0.000115 0.000000 0.020872 0.000000
# 6 0.000000 0.000000 0.000000 0.001535 0.000000 0.018610
#
#
# Mechanical properties :
#
#
# Convention : Reuss Voigt Hill
#
# Bulk Modulus (GPa) = 77.93246 84.20959 81.07102
# Shear Modulus (GPa) = 44.76493 48.48374 46.62433
#
# Velocity S-wave (km/s) = 4.88441 5.08325 4.98482
# Velocity P-wave (km/s) = 8.56412 8.90686 8.73717
#
# Compressibility (1/GPa) = 0.01283162
#
# Stress axis : x y z
#
# Youngs Moduli (GPa) = 143.14590 145.83172 87.26599
#
# Poissons Ratio (x) = 0.25373 0.26170
# Poissons Ratio (y) = 0.24905 0.13060
# Poissons Ratio (z) = 0.42928 0.21824
#
# Static dielectric constant tensor:
#      x y z
#    x 1.650140 0.000000 0.010570 
#    y 0.000000 1.683350 0.000000 
#    z 0.010570 0.000000 1.705540 
# 
# From -- ./inp_files/195991.got.cif
#   From: 2010.05.17/outbox.ucp.g08.bks.cvg/sg15_98_cif.got.tgz:195991.got - 2010.06.11 12:40:34.
