data_PCOD9309621
_publ_section_title
;
Structure prediction by ZEFSAII (Michael W. Deem and Ramdas Pophale) SiO2 
 PCOD9309621
Probable space group: C 2/C
;
_chemical_formula_sum "Si O2"
_cell_formula_units_Z 28
_cell_length_a 12.000000
_cell_length_b 15.000000
_cell_length_c 30.000000
_cell_angle_alpha 90.000000
_cell_angle_beta 30.000000
_cell_angle_gamma 90.000000
_cell_volume 2700.000000
_symmetry_space_group_name_H-M "C 2/C"
_symmetry_group_IT_number 15
_symmetry_cell_setting 'monoclinic'
loop_
_space_group_symop_operation_xyz
x,y,z
-x,y,1/2-z
-x,-y,-z
x,-y,1/2+z
1/2+x,1/2+y,z
1/2-x,1/2+y,1/2-z
1/2-x,1/2-y,-z
1/2+x,1/2-y,1/2+z
loop_
_atom_site_type_symbol
_atom_site_label
_atom_site_fract_x
_atom_site_fract_y
_atom_site_fract_z
Si Si1 0.897560 0.080112 0.365744
Si Si2 0.861883 0.703535 0.343763
Si Si3 0.135050 0.434494 0.043136
Si Si4 0.896455 0.390387 0.659866
Si Si5 0.237425 0.249919 0.145195
Si Si6 0.298813 0.602081 0.854468
Si Si7 0.430383 0.395696 0.017620
O O1 0.841095 0.071774 0.437435
O O2 0.808204 0.174512 0.377333
O O3 0.151937 0.075548 0.260030
O O4 0.780747 0.991566 0.386154
O O5 0.843365 0.806812 0.365570
O O6 0.621354 0.657556 0.424920
O O7 0.000000 0.703261 0.250000
O O8 0.986444 0.644419 0.336736
O O9 0.209644 0.396088 0.064254
O O10 0.039693 0.533148 0.086197
O O11 0.930469 0.382539 0.092158
O O12 0.866675 0.307352 0.637278
O O13 0.370474 0.335739 0.081395
O O14 0.000000 0.274811 0.250000
O O15 0.500000 0.591646 0.750000
O O16 0.500000 0.500000 0.000000
#
# Coordination Sequence:
#
# PCOD9309621 Si02
#       7
#     8   8   8   8   8   8   8
#     4  11  22  43  72 104 135 180 236 287 341 407
#     4  11  26  44  67 100 143 178 227 289 343 414
#     4  12  24  42  72  96 138 189 220 287 348 400
#     4  11  23  46  70 100 139 180 235 282 341 412
#     4  10  24  45  72 100 136 178 234 286 339 412
#     4  11  22  41  70 103 134 173 237 291 338 401
#     4  12  27  46  63 102 141 181 227 281 347 412
#
# _framework density 10.370369999999999
#
# number of rings (size 3 to 8) (size 9 to 14) (size 15 to 20)
#    0.000    0.857    4.286    2.571    2.000    9.143 
#    2.571    0.000    0.000    0.000    0.000    0.000 
#    0.000    0.000    0.000    0.000    0.000    0.000 
#
# Total GULP energy -156395.289353 kJ/mol
# GULP energy per Si atom -5585.546048 kJ/mol
# Density = 1.034677 g / cm^3
# Si number density = 10.370370 Si / 1000 Ang^3
#
#
#
# Elastic Constant Matrix: (Units=GPa)
#
#
# Indices 1 2 3 4 5 6 
#
# 1 56.8298 1.0520 19.5413 -0.0026 -0.7509 -0.0015
# 2 1.0520 100.8183 50.8745 0.0078 8.2963 -0.0029
# 3 19.5413 50.8745 96.4913 -0.0298 12.4235 0.0062
# 4 -0.0026 0.0078 -0.0298 28.2437 0.0118 5.3472
# 5 -0.7509 8.2963 12.4235 0.0118 29.8150 -0.0002
# 6 -0.0015 -0.0029 0.0062 5.3472 -0.0002 29.6365
#
#
#
# Elastic Compliance Matrix: (Units=1/GPa)
#
#
# Indices 1 2 3 4 5 6 
#
# 1 0.019461 0.002383 -0.005469 -0.000006 0.002106 0.000003
# 2 0.002383 0.013826 -0.007698 -0.000013 -0.000580 0.000005
# 3 -0.005469 -0.007698 0.016137 0.000022 -0.004720 -0.000008
# 4 -0.000006 -0.000013 0.000022 0.036658 -0.000020 -0.006614
# 5 0.002106 -0.000580 -0.004720 -0.000020 0.035721 0.000005
# 6 0.000003 0.000005 -0.000008 -0.006614 0.000005 0.034935
#
#
# Mechanical properties :
#
#
# Convention : Reuss Voigt Hill
#
# Bulk Modulus (GPa) = 35.89687 44.11947 40.00817
# Shear Modulus (GPa) = 26.65362 29.71715 28.18539
#
# Velocity S-wave (km/s) = 3.58870 3.78933 3.69038
# Velocity P-wave (km/s) = 5.87509 6.36109 6.12291
#
# Compressibility (1/GPa) = 0.02785758
#
# Stress axis : x y z
#
# Youngs Moduli (GPa) = 51.38585 72.32711 61.96750
#
# Poissons Ratio (x) = -0.17238 0.33889
# Poissons Ratio (y) = -0.12247 0.47701
# Poissons Ratio (z) = 0.28102 0.55676
#
# Static dielectric constant tensor:
#      x y z
#    x 1.774570 0.000000 -0.034650 
#    y 0.000000 1.721960 0.000000 
#    z -0.034650 0.000000 1.748180 
# 
# From -- ./inp_files/311334.got.cif
#   From: 2010.05.17/outbox.ucp.g08.bks.cvg/sg15_156_cif.got.tgz:311334.got - 2010.06.11 12:40:34.
