data_PCOD9309392
_publ_section_title
;
Structure prediction by ZEFSAII (Michael W. Deem and Ramdas Pophale) SiO2 
 PCOD9309392
Probable space group: C 2/C
;
_chemical_formula_sum "Si O2"
_cell_formula_units_Z 22
_cell_length_a 9.000000
_cell_length_b 18.000000
_cell_length_c 15.000000
_cell_angle_alpha 90.000000
_cell_angle_beta 120.000000
_cell_angle_gamma 90.000000
_cell_volume 2104.441731
_symmetry_space_group_name_H-M "C 2/C"
_symmetry_group_IT_number 15
_symmetry_cell_setting 'monoclinic'
loop_
_space_group_symop_operation_xyz
x,y,z
-x,y,1/2-z
-x,-y,-z
x,-y,1/2+z
1/2+x,1/2+y,z
1/2-x,1/2+y,1/2-z
1/2-x,1/2-y,-z
1/2+x,1/2-y,1/2+z
loop_
_atom_site_type_symbol
_atom_site_label
_atom_site_fract_x
_atom_site_fract_y
_atom_site_fract_z
Si Si1 0.753201 0.223309 0.101373
Si Si2 0.133854 0.997051 0.666407
Si Si3 0.240054 0.495725 0.988237
Si Si4 0.500000 0.387428 0.750000
Si Si5 0.980585 0.622120 0.976406
Si Si6 0.667668 0.141563 0.748428
O O1 0.773871 0.289776 0.175633
O O2 0.911256 0.167152 0.154696
O O3 0.750000 0.250000 0.000000
O O4 0.579970 0.178941 0.067871
O O5 0.243859 0.980901 0.611885
O O6 0.191552 0.077683 0.715343
O O7 0.933963 0.994186 0.580158
O O8 0.145129 0.938099 0.748699
O O9 0.123796 0.567132 0.976046
O O10 0.152845 0.427926 0.012000
O O11 0.890883 0.663046 0.867384
O O12 0.500000 0.111149 0.750000
#
# Coordination Sequence:
#
# PCOD9309392 Si02
#       6
#     8   8   8   4   8   8
#     4  12  23  42  66  97 133 181 224 270 331 413
#     4  11  23  41  68 103 131 171 223 283 333 396
#     4  10  22  40  69  97 134 167 222 281 337 383
#     4  12  24  40  72 100 128 172 234 268 328 404
#     4  11  22  43  67  98 130 178 221 276 328 409
#     4  12  23  40  67  99 133 173 220 277 335 398
#
# _framework density 10.454079
#
# number of rings (size 3 to 8) (size 9 to 14) (size 15 to 20)
#    0.000    0.727    6.364    1.091    5.091    0.000 
#    0.000    0.909    8.000    0.000    0.000    0.000 
#    0.000    0.000    0.000    0.000    0.000    0.000 
#
# Total GULP energy -122861.407754 kJ/mol
# GULP energy per Si atom -5584.609443 kJ/mol
# Density = 1.043028 g / cm^3
# Si number density = 10.454079 Si / 1000 Ang^3
#
#
#
# Elastic Constant Matrix: (Units=GPa)
#
#
# Indices 1 2 3 4 5 6 
#
# 1 75.7217 43.0175 46.0133 0.0000 -14.8420 0.0000
# 2 43.0175 126.0029 69.2209 0.0000 -4.0238 0.0000
# 3 46.0133 69.2209 80.4153 0.0000 -1.1936 0.0000
# 4 0.0000 0.0000 0.0000 40.7325 0.0000 -0.5869
# 5 -14.8420 -4.0238 -1.1936 0.0000 -9.9201 0.0000
# 6 0.0000 0.0000 0.0000 -0.5869 0.0000 9.8964
#
#
#
# Elastic Compliance Matrix: (Units=1/GPa)
#
#
# Indices 1 2 3 4 5 6 
#
# 1 0.014558 -0.001660 -0.007201 0.000000 -0.020241 0.000000
# 2 -0.001660 0.015044 -0.012031 0.000000 -0.002170 0.000000
# 3 -0.007201 -0.012031 0.027096 0.000000 0.012394 0.000000
# 4 0.000000 0.000000 0.000000 0.024571 0.000000 0.001457
# 5 -0.020241 -0.002170 0.012394 0.000000 -0.071133 0.000000
# 6 0.000000 0.000000 0.000000 0.001457 0.000000 0.101134
#
#
# Mechanical properties :
#
#
# Convention : Reuss Voigt Hill
#
# Bulk Modulus (GPa) = 67.06069 66.51593 66.78831
# Shear Modulus (GPa) = 31.64012 16.40096 24.02054
#
# Velocity S-wave (km/s) = 3.89432 2.80380 3.39316
# Velocity P-wave (km/s) = 7.23634 6.50878 6.88218
#
# Compressibility (1/GPa) = 0.01491187
#
# Stress axis : x y z
#
# Youngs Moduli (GPa) = 68.69046 66.47382 36.90515
#
# Poissons Ratio (x) = 0.11038 0.26576
# Poissons Ratio (y) = 0.11406 0.44402
# Poissons Ratio (z) = 0.49465 0.79978
#
# Static dielectric constant tensor:
#      x y z
#    x 1.719200 0.000000 0.019110 
#    y 0.000000 1.734020 0.000000 
#    z 0.019110 0.000000 1.792930 
# 
# From -- ./inp_files/134938.got.cif
#   From: 2010.05.17/outbox.ucp.g08.bks.cvg/sg15_68_cif.got.tgz:134938.got - 2010.06.11 12:40:34.
