data_PCOD9309830
_publ_section_title
;
Structure prediction by ZEFSAII (Michael W. Deem and Ramdas Pophale) SiO2 
 PCOD9309830
Probable space group: C 2/C
;
_chemical_formula_sum "Si O2"
_cell_formula_units_Z 24
_cell_length_a 12.000000
_cell_length_b 21.000000
_cell_length_c 12.000000
_cell_angle_alpha 90.000000
_cell_angle_beta 50.000000
_cell_angle_gamma 90.000000
_cell_volume 2316.518396
_symmetry_space_group_name_H-M "C 2/C"
_symmetry_group_IT_number 15
_symmetry_cell_setting 'monoclinic'
loop_
_space_group_symop_operation_xyz
x,y,z
-x,y,1/2-z
-x,-y,-z
x,-y,1/2+z
1/2+x,1/2+y,z
1/2-x,1/2+y,1/2-z
1/2-x,1/2-y,-z
1/2+x,1/2-y,1/2+z
loop_
_atom_site_type_symbol
_atom_site_label
_atom_site_fract_x
_atom_site_fract_y
_atom_site_fract_z
Si Si1 0.169438 0.092577 0.106709
Si Si2 0.346395 0.966796 0.072810
Si Si3 0.617583 0.839445 0.578466
Si Si4 0.651161 0.276326 0.717583
Si Si5 0.793907 0.864052 0.166123
Si Si6 0.918793 0.795550 0.487588
O O1 0.230852 0.162159 0.110003
O O2 0.000000 0.090372 0.250000
O O3 0.245049 0.027458 0.103055
O O4 0.178702 0.100416 0.967976
O O5 0.285976 0.918003 0.207781
O O6 0.373836 0.912728 0.962410
O O7 0.500000 0.000000 0.000000
O O8 0.500000 0.835172 0.750000
O O9 0.779832 0.818399 0.508061
O O10 0.563771 0.781086 0.534538
O O11 0.500000 0.267083 0.750000
O O12 0.720668 0.205715 0.685942
O O13 0.615996 0.303828 0.861161
O O14 0.941580 0.838490 0.129965
#
# Coordination Sequence:
#
# PCOD9309830 Si02
#       6
#     8   8   8   8   8   8
#     4  11  27  47  72 109 141 194 247 304 369 441
#     4  12  32  47  72 108 149 199 240 304 383 442
#     4  11  27  47  74 105 152 190 246 308 362 448
#     4  11  23  45  74 111 142 186 246 307 358 437
#     4  12  26  46  80 103 151 192 246 313 361 445
#     4  11  24  46  77 112 138 194 252 301 369 426
#
# _framework density 10.360374999999999
#
# number of rings (size 3 to 8) (size 9 to 14) (size 15 to 20)
#    0.000    0.667    5.000    1.500   14.000    0.667 
#    0.000    0.000    0.000    0.000    0.000    0.000 
#    0.000    0.000    0.000    0.000    0.000    0.000 
#
# Total GULP energy -133824.188782 kJ/mol
# GULP energy per Si atom -5576.007866 kJ/mol
# Density = 1.033679 g / cm^3
# Si number density = 10.360375 Si / 1000 Ang^3
#
#
#
# Elastic Constant Matrix: (Units=GPa)
#
#
# Indices 1 2 3 4 5 6 
#
# 1 74.2443 56.6229 11.0559 0.0000 -17.2526 0.0000
# 2 56.6229 177.4194 12.2661 0.0000 -22.5048 0.0000
# 3 11.0559 12.2661 41.0853 0.0000 -2.8343 0.0000
# 4 0.0000 0.0000 0.0000 54.8095 0.0000 -2.5249
# 5 -17.2526 -22.5048 -2.8343 0.0000 26.2915 0.0000
# 6 0.0000 0.0000 0.0000 -2.5249 0.0000 37.2966
#
#
#
# Elastic Compliance Matrix: (Units=1/GPa)
#
#
# Indices 1 2 3 4 5 6 
#
# 1 0.019699 -0.005012 -0.003233 0.000000 0.008288 0.000000
# 2 -0.005012 0.007694 -0.000726 0.000000 0.003219 0.000000
# 3 -0.003233 -0.000726 0.025426 0.000000 -0.000002 0.000000
# 4 0.000000 0.000000 0.000000 0.018302 0.000000 0.001239
# 5 0.008288 0.003219 -0.000002 0.000000 0.046229 0.000000
# 6 0.000000 0.000000 0.000000 0.001239 0.000000 0.026896
#
#
# Mechanical properties :
#
#
# Convention : Reuss Voigt Hill
#
# Bulk Modulus (GPa) = 28.67212 50.29319 39.48266
# Shear Modulus (GPa) = 28.76631 37.86646 33.31638
#
# Velocity S-wave (km/s) = 3.73001 4.27952 4.01418
# Velocity P-wave (km/s) = 5.69369 6.98167 6.37031
#
# Compressibility (1/GPa) = 0.03487708
#
# Stress axis : x y z
#
# Youngs Moduli (GPa) = 50.76455 129.96315 39.32940
#
# Poissons Ratio (x) = 0.65138 0.12714
# Poissons Ratio (y) = 0.25443 0.02857
# Poissons Ratio (z) = 0.16411 0.09441
#
# Static dielectric constant tensor:
#      x y z
#    x 1.773830 0.000000 0.022520 
#    y 0.000000 1.712610 0.000000 
#    z 0.022520 0.000000 1.763680 
# 
# From -- ./inp_files/89384.got.cif
#   From: 2010.05.17/outbox.ucp.g08.bks.cvg/sg15_45_cif.got.tgz:89384.got - 2010.06.11 12:40:34.
