data_PCOD9309601
_publ_section_title
;
Structure prediction by ZEFSAII (Michael W. Deem and Ramdas Pophale) SiO2 
 PCOD9309601
Probable space group: C 2/C
;
_chemical_formula_sum "Si O2"
_cell_formula_units_Z 22
_cell_length_a 15.000000
_cell_length_b 9.000000
_cell_length_c 18.000000
_cell_angle_alpha 90.000000
_cell_angle_beta 120.000000
_cell_angle_gamma 90.000000
_cell_volume 2104.441731
_symmetry_space_group_name_H-M "C 2/C"
_symmetry_group_IT_number 15
_symmetry_cell_setting 'monoclinic'
loop_
_space_group_symop_operation_xyz
x,y,z
-x,y,1/2-z
-x,-y,-z
x,-y,1/2+z
1/2+x,1/2+y,z
1/2-x,1/2+y,1/2-z
1/2-x,1/2-y,-z
1/2+x,1/2-y,1/2+z
loop_
_atom_site_type_symbol
_atom_site_label
_atom_site_fract_x
_atom_site_fract_y
_atom_site_fract_z
Si Si1 0.652288 0.727241 0.903494
Si Si2 0.000000 0.231928 0.250000
Si Si3 0.565515 0.960253 0.404138
Si Si4 0.668132 0.506781 0.772544
Si Si5 0.879325 0.582850 0.416551
Si Si6 0.466740 0.600587 0.917709
O O1 0.670756 0.646844 0.831735
O O2 0.567118 0.625771 0.908734
O O3 0.598712 0.889507 0.875440
O O4 0.750000 0.750000 0.000000
O O5 0.043086 0.333196 0.335273
O O6 0.090803 0.121511 0.265608
O O7 0.645507 0.943070 0.506526
O O8 0.462311 0.977216 0.410877
O O9 0.779732 0.435298 0.824764
O O10 0.626224 0.548608 0.673968
O O11 0.930601 0.742801 0.434263
O O12 0.500000 0.500000 0.000000
#
# Coordination Sequence:
#
# PCOD9309601 Si02
#       6
#     8   4   8   8   8   8
#     4  11  23  45  71  96 132 179 225 278 347 406
#     4  12  26  40  68  96 140 172 228 280 328 400
#     4  10  24  45  66  96 132 177 222 277 337 403
#     4  12  25  44  66 105 134 177 228 282 339 406
#     4  10  24  43  68  96 133 174 227 272 336 407
#     4  11  25  44  68  97 141 178 222 281 338 404
#
# _framework density 10.454079
#
# number of rings (size 3 to 8) (size 9 to 14) (size 15 to 20)
#    0.000    1.091    3.636    1.091    7.636    3.636 
#    0.000    0.000    0.000    0.000    0.000    0.000 
#    0.000    0.000    0.000    0.000    0.000    0.000 
#
# Total GULP energy -122805.325443 kJ/mol
# GULP energy per Si atom -5582.060247 kJ/mol
# Density = 1.043028 g / cm^3
# Si number density = 10.454079 Si / 1000 Ang^3
#
#
#
# Elastic Constant Matrix: (Units=GPa)
#
#
# Indices 1 2 3 4 5 6 
#
# 1 12.5837 -1.5099 -4.2848 0.0000 11.3481 0.0000
# 2 -1.5099 73.0559 39.5283 0.0000 -16.3719 0.0000
# 3 -4.2848 39.5283 137.3506 0.0000 5.2977 0.0000
# 4 0.0000 0.0000 0.0000 49.7816 0.0000 3.0840
# 5 11.3481 -16.3719 5.2977 0.0000 39.8922 0.0000
# 6 0.0000 0.0000 0.0000 3.0840 0.0000 8.8229
#
#
#
# Elastic Compliance Matrix: (Units=1/GPa)
#
#
# Indices 1 2 3 4 5 6 
#
# 1 0.115481 -0.010587 0.008126 0.000000 -0.038275 0.000000
# 2 -0.010587 0.019624 -0.006438 0.000000 0.011920 0.000000
# 3 0.008126 -0.006438 0.009627 0.000000 -0.006232 0.000000
# 4 0.000000 0.000000 0.000000 0.020532 0.000000 -0.007177
# 5 -0.038275 0.011920 -0.006232 0.000000 0.041676 0.000000
# 6 0.000000 0.000000 0.000000 -0.007177 0.000000 0.115850
#
#
# Mechanical properties :
#
#
# Convention : Reuss Voigt Hill
#
# Bulk Modulus (GPa) = 7.87809 32.27304 20.07556
# Shear Modulus (GPa) = 13.05824 32.31647 22.68736
#
# Velocity S-wave (km/s) = 2.50182 3.93573 3.29765
# Velocity P-wave (km/s) = 3.48161 6.01019 4.91141
#
# Compressibility (1/GPa) = 0.12693428
#
# Stress axis : x y z
#
# Youngs Moduli (GPa) = 8.65940 50.95820 103.87220
#
# Poissons Ratio (x) = 0.53951 -0.84405
# Poissons Ratio (y) = 0.09168 0.66869
# Poissons Ratio (z) = -0.07036 0.32805
#
# Static dielectric constant tensor:
#      x y z
#    x 1.859520 0.000000 0.092590 
#    y 0.000000 1.891360 0.000000 
#    z 0.092590 0.000000 1.957000 
# 
# From -- ./inp_files/159467.got.cif
#   From: 2010.05.17/outbox.ucp.g08.bks.cvg/sg15_80_cif.got.tgz:159467.got - 2010.06.11 12:40:34.
