data_PCOD9309050
_publ_section_title
;
Structure prediction by ZEFSAII (Michael W. Deem and Ramdas Pophale) SiO2 
 PCOD9309050
Probable space group: C 2/C
;
_chemical_formula_sum "Si O2"
_cell_formula_units_Z 24
_cell_length_a 18.000000
_cell_length_b 18.000000
_cell_length_c 15.000000
_cell_angle_alpha 90.000000
_cell_angle_beta 150.000000
_cell_angle_gamma 90.000000
_cell_volume 2430.000000
_symmetry_space_group_name_H-M "C 2/C"
_symmetry_group_IT_number 15
_symmetry_cell_setting 'monoclinic'
loop_
_space_group_symop_operation_xyz
x,y,z
-x,y,1/2-z
-x,-y,-z
x,-y,1/2+z
1/2+x,1/2+y,z
1/2-x,1/2+y,1/2-z
1/2-x,1/2-y,-z
1/2+x,1/2-y,1/2+z
loop_
_atom_site_type_symbol
_atom_site_label
_atom_site_fract_x
_atom_site_fract_y
_atom_site_fract_z
Si Si1 0.342440 0.132328 0.537366
Si Si2 0.863335 0.193659 0.039619
Si Si3 0.226049 0.063185 0.234348
Si Si4 0.201215 0.329521 0.046605
Si Si5 0.148728 0.332501 0.790425
Si Si6 0.375170 0.404362 0.381041
O O1 0.500000 0.120056 0.750000
O O2 0.233106 0.132591 0.507726
O O3 0.320265 0.219371 0.484506
O O4 0.301845 0.081837 0.409631
O O5 0.000000 0.199626 0.250000
O O6 0.869517 0.160728 0.947813
O O7 0.295672 0.115329 0.231013
O O8 0.223936 0.977295 0.201385
O O9 0.050160 0.079071 0.059053
O O10 0.272209 0.247718 0.129415
O O11 0.307583 0.379055 0.217197
O O12 0.192067 0.358489 0.935451
O O13 0.030004 0.325988 0.900650
#
# Coordination Sequence:
#
# PCOD9309050 Si02
#       6
#     8   8   8   8   8   8
#     4  10  22  38  63  93 119 159 206 259 308 361
#     4  10  20  40  63  87 123 160 204 255 305 365
#     4  11  24  41  59  93 127 166 208 248 313 377
#     4  10  22  41  65  92 120 162 208 262 311 362
#     4  10  22  41  65  92 122 158 211 260 308 365
#     4  11  24  40  62  89 128 170 204 251 311 373
#
# _framework density 9.8765429999999999
#
# number of rings (size 3 to 8) (size 9 to 14) (size 15 to 20)
#    0.000    1.667    1.667    2.000    2.333    4.000 
#    3.000    0.000    0.000    0.000    0.000    0.000 
#    0.000    0.000    0.000    0.000    0.000    0.000 
#
# Total GULP energy -133668.420787 kJ/mol
# GULP energy per Si atom -5569.517533 kJ/mol
# Density = 0.985406 g / cm^3
# Si number density = 9.876543 Si / 1000 Ang^3
#
#
#
# Elastic Constant Matrix: (Units=GPa)
#
#
# Indices 1 2 3 4 5 6 
#
# 1 38.6041 1.3950 12.2457 0.0000 -11.4531 0.0000
# 2 1.3950 34.8929 9.4710 0.0000 -18.3544 0.0000
# 3 12.2457 9.4710 107.6725 0.0000 -20.9796 0.0000
# 4 0.0000 0.0000 0.0000 39.8567 0.0000 15.8801
# 5 -11.4531 -18.3544 -20.9796 0.0000 21.6089 0.0000
# 6 0.0000 0.0000 0.0000 15.8801 0.0000 22.9862
#
#
#
# Elastic Compliance Matrix: (Units=1/GPa)
#
#
# Indices 1 2 3 4 5 6 
#
# 1 0.034647 0.015401 0.001026 0.000000 0.032441 0.000000
# 2 0.015401 0.060887 0.005624 0.000000 0.065340 0.000000
# 3 0.001026 0.005624 0.011979 0.000000 0.016951 0.000000
# 4 0.000000 0.000000 0.000000 0.034619 0.000000 -0.023917
# 5 0.032441 0.065340 0.016951 0.000000 0.135427 0.000000
# 6 0.000000 0.000000 0.000000 -0.023917 0.000000 0.060027
#
#
# Mechanical properties :
#
#
# Convention : Reuss Voigt Hill
#
# Bulk Modulus (GPa) = 6.59571 25.26588 15.93080
# Shear Modulus (GPa) = 14.53393 27.42753 20.98073
#
# Velocity S-wave (km/s) = 2.71547 3.73033 3.26260
# Velocity P-wave (km/s) = 3.63016 5.60111 4.71966
#
# Compressibility (1/GPa) = 0.15161363
#
# Stress axis : x y z
#
# Youngs Moduli (GPa) = 28.86291 16.42386 83.48070
#
# Poissons Ratio (x) = -0.25294 -0.08564
# Poissons Ratio (y) = -0.44451 -0.46949
# Poissons Ratio (z) = -0.02961 -0.09237
#
# Static dielectric constant tensor:
#      x y z
#    x 1.716670 0.000000 0.157930 
#    y 0.000000 1.734990 0.000000 
#    z 0.157930 0.000000 1.180760 
# 
# From -- ./inp_files/70548.got.cif
#   From: 2010.05.17/outbox.ucp.g08.bks.cvg/sg15_36_cif.got.tgz:70548.got - 2010.06.11 12:40:34.
