data_PCOD9309303
_publ_section_title
;
Structure prediction by ZEFSAII (Michael W. Deem and Ramdas Pophale) SiO2 
 PCOD9309303
Probable space group: C 2/C
;
_chemical_formula_sum "Si O2"
_cell_formula_units_Z 24
_cell_length_a 9.000000
_cell_length_b 27.000000
_cell_length_c 15.000000
_cell_angle_alpha 90.000000
_cell_angle_beta 40.000000
_cell_angle_gamma 90.000000
_cell_volume 2342.960837
_symmetry_space_group_name_H-M "C 2/C"
_symmetry_group_IT_number 15
_symmetry_cell_setting 'monoclinic'
loop_
_space_group_symop_operation_xyz
x,y,z
-x,y,1/2-z
-x,-y,-z
x,-y,1/2+z
1/2+x,1/2+y,z
1/2-x,1/2+y,1/2-z
1/2-x,1/2-y,-z
1/2+x,1/2-y,1/2+z
loop_
_atom_site_type_symbol
_atom_site_label
_atom_site_fract_x
_atom_site_fract_y
_atom_site_fract_z
Si Si1 0.675820 0.854941 0.470171
Si Si2 0.196096 0.099401 0.238928
Si Si3 0.260418 0.746982 0.101533
Si Si4 0.514875 0.649059 0.988861
Si Si5 0.500000 0.563352 0.750000
Si Si6 0.621782 0.992251 0.345346
Si Si7 0.500000 0.912873 0.250000
O O1 0.405647 0.863957 0.613233
O O2 0.704059 0.805634 0.395715
O O3 0.838700 0.855299 0.484751
O O4 0.784911 0.901731 0.370445
O O5 0.076157 0.120739 0.382192
O O6 0.000000 0.093105 0.250000
O O7 0.332614 0.049008 0.203383
O O8 0.464067 0.708229 0.033374
O O9 0.000000 0.731149 0.250000
O O10 0.250000 0.750000 0.000000
O O11 0.769271 0.623539 0.853175
O O12 0.613781 0.528039 0.770347
O O13 0.499524 0.952006 0.335307
O O14 0.500000 0.000000 0.500000
#
# Coordination Sequence:
#
# PCOD9309303 Si02
#       7
#     8   8   8   8   4   8   4
#     4  11  23  43  74 101 138 185 236 288 357 427
#     4  12  26  44  69 102 145 184 238 300 355 421
#     4  10  21  43  74 103 134 182 234 288 352 431
#     4  11  25  45  68 103 141 182 240 292 359 425
#     4  12  22  42  70 100 138 182 234 284 348 430
#     4  12  26  44  68 101 142 191 235 293 359 422
#     4  12  28  44  70 106 144 188 240 302 354 422
#
# _framework density 10.243449
#
# number of rings (size 3 to 8) (size 9 to 14) (size 15 to 20)
#    0.000    0.667    5.000    3.500    2.333    0.667 
#    1.500    0.833    0.000    0.000    0.000    0.000 
#    0.000    0.000    0.000    0.000    0.000    0.000 
#
# Total GULP energy -133677.327634 kJ/mol
# GULP energy per Si atom -5569.888651 kJ/mol
# Density = 1.022013 g / cm^3
# Si number density = 10.243449 Si / 1000 Ang^3
#
#
#
# Elastic Constant Matrix: (Units=GPa)
#
#
# Indices 1 2 3 4 5 6 
#
# 1 92.4500 32.3583 26.9964 0.0000 -14.0439 0.0000
# 2 32.3583 141.6318 37.5577 0.0000 -6.9444 0.0000
# 3 26.9964 37.5577 125.0181 0.0000 -13.2296 0.0000
# 4 0.0000 0.0000 0.0000 34.4900 0.0000 -3.0165
# 5 -14.0439 -6.9444 -13.2296 0.0000 39.1285 0.0000
# 6 0.0000 0.0000 0.0000 -3.0165 0.0000 35.0324
#
#
#
# Elastic Compliance Matrix: (Units=1/GPa)
#
#
# Indices 1 2 3 4 5 6 
#
# 1 0.012641 -0.002270 -0.001670 0.000000 0.003570 0.000000
# 2 -0.002270 0.008093 -0.001945 0.000000 -0.000036 0.000000
# 3 -0.001670 -0.001945 0.009172 0.000000 0.002157 0.000000
# 4 0.000000 0.000000 0.000000 0.029214 0.000000 0.002516
# 5 0.003570 -0.000036 0.002157 0.000000 0.027561 0.000000
# 6 0.000000 0.000000 0.000000 0.002516 0.000000 0.028762
#
#
# Mechanical properties :
#
#
# Convention : Reuss Voigt Hill
#
# Bulk Modulus (GPa) = 55.13875 61.43607 58.28741
# Shear Modulus (GPa) = 37.52113 39.20935 38.36524
#
# Velocity S-wave (km/s) = 4.28421 4.37953 4.33213
# Velocity P-wave (km/s) = 7.17253 7.45834 7.31683
#
# Compressibility (1/GPa) = 0.01813607
#
# Stress axis : x y z
#
# Youngs Moduli (GPa) = 79.10666 123.56019 109.02805
#
# Poissons Ratio (x) = 0.28051 0.18207
# Poissons Ratio (y) = 0.17959 0.21205
# Poissons Ratio (z) = 0.13211 0.24032
#
# Static dielectric constant tensor:
#      x y z
#    x 1.733480 0.000000 0.034220 
#    y 0.000000 1.902000 0.000000 
#    z 0.034220 0.000000 1.759900 
# 
# From -- ./inp_files/138977.got.cif
#   From: 2010.05.17/outbox.ucp.g08.bks.cvg/sg15_70_cif.got.tgz:138977.got - 2010.06.11 12:40:34.
