data_PCOD9309557
_publ_section_title
;
Structure prediction by ZEFSAII (Michael W. Deem and Ramdas Pophale) SiO2 
 PCOD9309557
Probable space group: C 2/C
;
_chemical_formula_sum "Si O2"
_cell_formula_units_Z 32
_cell_length_a 24.000000
_cell_length_b 18.000000
_cell_length_c 15.000000
_cell_angle_alpha 90.000000
_cell_angle_beta 150.000000
_cell_angle_gamma 90.000000
_cell_volume 3240.000000
_symmetry_space_group_name_H-M "C 2/C"
_symmetry_group_IT_number 15
_symmetry_cell_setting 'monoclinic'
loop_
_space_group_symop_operation_xyz
x,y,z
-x,y,1/2-z
-x,-y,-z
x,-y,1/2+z
1/2+x,1/2+y,z
1/2-x,1/2+y,1/2-z
1/2-x,1/2-y,-z
1/2+x,1/2-y,1/2+z
loop_
_atom_site_type_symbol
_atom_site_label
_atom_site_fract_x
_atom_site_fract_y
_atom_site_fract_z
Si Si1 0.270526 0.012955 0.222505
Si Si2 0.239162 0.185115 0.414226
Si Si3 0.227407 0.980003 0.959662
Si Si4 0.080262 0.748242 0.441355
Si Si5 0.470896 0.459546 0.550466
Si Si6 0.618238 0.929042 0.961343
Si Si7 0.488643 0.300012 0.502966
Si Si8 0.811708 0.315413 0.817305
O O1 0.306183 0.097345 0.291067
O O2 0.347633 0.964815 0.396148
O O3 0.274811 0.996072 0.123461
O O4 0.139654 0.997943 0.063778
O O5 0.250000 0.250000 0.500000
O O6 0.266899 0.102282 0.485140
O O7 0.301877 0.199125 0.409043
O O8 0.110024 0.188858 0.211304
O O9 0.089919 0.971249 0.768281
O O10 0.282295 0.040906 0.967593
O O11 0.102462 0.659252 0.460178
O O12 0.203367 0.782558 0.617306
O O13 0.000000 0.770546 0.250000
O O14 0.015361 0.782207 0.436907
O O15 0.500000 0.500000 0.500000
O O16 0.435249 0.375939 0.469102
O O17 0.500000 0.951818 0.750000
O O18 0.419892 0.228659 0.437234
#
# Coordination Sequence:
#
# PCOD9309557 Si02
#       8
#     8   8   8   8   8   8   8   8
#     4  12  25  43  71 101 138 179 229 286 345 426
#     4  10  23  44  66  97 136 170 229 284 333 420
#     4  11  25  43  69 103 132 183 231 289 359 394
#     4  10  24  44  64  96 133 176 231 276 334 422
#     4  11  21  44  73 100 137 171 230 294 347 408
#     4  11  25  46  66  94 139 184 233 281 336 423
#     4  10  24  41  69  98 132 177 224 284 348 398
#     4  11  24  44  65 102 136 173 227 280 348 403
#
# _framework density 9.8765429999999999
#
# number of rings (size 3 to 8) (size 9 to 14) (size 15 to 20)
#    0.000    1.250    2.500    2.625    8.750    4.500 
#    0.000    0.000    0.000    0.000    0.000    0.000 
#    0.000    0.000    0.000    0.000    0.000    0.000 
#
# Total GULP energy -178339.015275 kJ/mol
# GULP energy per Si atom -5573.094227 kJ/mol
# Density = 0.985406 g / cm^3
# Si number density = 9.876543 Si / 1000 Ang^3
#
#
#
# Elastic Constant Matrix: (Units=GPa)
#
#
# Indices 1 2 3 4 5 6 
#
# 1 57.4819 21.8103 38.7850 0.0000 -14.6374 0.0000
# 2 21.8103 62.9838 8.7583 0.0000 -16.1448 0.0000
# 3 38.7850 8.7583 49.0781 0.0000 -35.8555 0.0000
# 4 0.0000 0.0000 0.0000 45.0579 0.0000 -1.1026
# 5 -14.6374 -16.1448 -35.8555 0.0000 40.8239 0.0000
# 6 0.0000 0.0000 0.0000 -1.1026 0.0000 31.1010
#
#
#
# Elastic Compliance Matrix: (Units=1/GPa)
#
#
# Indices 1 2 3 4 5 6 
#
# 1 0.285339 -0.124754 -0.459159 0.000000 -0.350306 0.000000
# 2 -0.124754 0.072750 0.206363 0.000000 0.165288 0.000000
# 3 -0.459159 0.206363 0.797457 0.000000 0.617382 0.000000
# 4 0.000000 0.000000 0.000000 0.022213 0.000000 0.000787
# 5 -0.350306 0.165288 0.617382 0.000000 0.506504 0.000000
# 6 0.000000 0.000000 0.000000 0.000787 0.000000 0.032181
#
#
# Mechanical properties :
#
#
# Convention : Reuss Voigt Hill
#
# Bulk Modulus (GPa) = 2.49722 34.25013 18.37368
# Shear Modulus (GPa) = 1.91937 30.07592 15.99764
#
# Velocity S-wave (km/s) = 0.98681 3.90628 2.84893
# Velocity P-wave (km/s) = 1.60167 6.14183 4.48818
#
# Compressibility (1/GPa) = 0.40044557
#
# Stress axis : x y z
#
# Youngs Moduli (GPa) = 3.50460 13.74572 1.25399
#
# Poissons Ratio (x) = 1.71483 0.57578
# Poissons Ratio (y) = 0.43721 -0.25878
# Poissons Ratio (z) = 1.60917 -2.83661
#
# Static dielectric constant tensor:
#      x y z
#    x 1.811010 0.000000 -0.002400 
#    y 0.000000 1.788510 0.000000 
#    z -0.002400 0.000000 1.705450 
# 
# From -- ./inp_files/174251.got.cif
#   From: 2010.05.17/outbox.ucp.g08.bks.cvg/sg15_88_cif.got.tgz:174251.got - 2010.06.11 12:40:34.
