data_PCOD9309458
_publ_section_title
;
Structure prediction by ZEFSAII (Michael W. Deem and Ramdas Pophale) SiO2 
 PCOD9309458
Probable space group: C 2/C
;
_chemical_formula_sum "Si O2"
_cell_formula_units_Z 24
_cell_length_a 24.000000
_cell_length_b 9.000000
_cell_length_c 12.000000
_cell_angle_alpha 90.000000
_cell_angle_beta 70.000000
_cell_angle_gamma 90.000000
_cell_volume 2435.683273
_symmetry_space_group_name_H-M "C 2/C"
_symmetry_group_IT_number 15
_symmetry_cell_setting 'monoclinic'
loop_
_space_group_symop_operation_xyz
x,y,z
-x,y,1/2-z
-x,-y,-z
x,-y,1/2+z
1/2+x,1/2+y,z
1/2-x,1/2+y,1/2-z
1/2-x,1/2-y,-z
1/2+x,1/2-y,1/2+z
loop_
_atom_site_type_symbol
_atom_site_label
_atom_site_fract_x
_atom_site_fract_y
_atom_site_fract_z
Si Si1 0.069218 0.716457 0.336319
Si Si2 0.687247 0.885641 0.630397
Si Si3 0.500000 0.023828 0.750000
Si Si4 0.903171 0.098060 0.464733
Si Si5 0.824628 0.809358 0.588107
Si Si6 0.500000 0.542620 0.750000
Si Si7 0.871065 0.689505 0.800239
O O1 0.133297 0.663239 0.248602
O O2 0.080028 0.779175 0.452952
O O3 0.017797 0.592116 0.340546
O O4 0.048640 0.855823 0.276842
O O5 0.753369 0.851803 0.634797
O O6 0.674495 0.802833 0.520200
O O7 0.674619 0.061422 0.630272
O O8 0.439179 0.124374 0.780324
O O9 0.965325 0.045588 0.368793
O O10 0.867544 0.171629 0.386286
O O11 0.865147 0.956695 0.536520
O O12 0.851967 0.736898 0.685200
#
# Coordination Sequence:
#
# PCOD9309458 Si02
#       7
#     8   8   4   8   8   4   8
#     4  10  22  43  68  98 142 190 233 301 353 417
#     4  10  25  48  70 104 143 192 242 298 361 425
#     4   9  23  46  66 102 138 182 240 286 360 428
#     4  12  25  41  70 108 142 187 238 295 362 422
#     4  11  26  46  73 103 148 187 247 300 356 430
#     4  11  21  42  64 106 140 184 238 290 362 422
#     4  11  26  45  72 105 140 190 241 287 366 431
#
# _framework density 9.8534980000000001
#
# number of rings (size 3 to 8) (size 9 to 14) (size 15 to 20)
#    0.000    1.333    1.667    2.000    7.000    4.000 
#    0.000    0.000    0.000    0.000    0.000    0.000 
#    0.000    0.000    0.000    0.000    0.000    0.000 
#
# Total GULP energy -133738.907397 kJ/mol
# GULP energy per Si atom -5572.454475 kJ/mol
# Density = 0.983107 g / cm^3
# Si number density = 9.853498 Si / 1000 Ang^3
#
#
#
# Elastic Constant Matrix: (Units=GPa)
#
#
# Indices 1 2 3 4 5 6 
#
# 1 146.7641 37.5808 43.1804 0.0000 9.6670 0.0000
# 2 37.5808 106.1237 39.8541 0.0000 6.7414 0.0000
# 3 43.1804 39.8541 84.7728 0.0000 19.3991 0.0000
# 4 0.0000 0.0000 0.0000 43.2984 0.0000 7.5606
# 5 9.6670 6.7414 19.3991 0.0000 47.7910 0.0000
# 6 0.0000 0.0000 0.0000 7.5606 0.0000 36.1848
#
#
#
# Elastic Compliance Matrix: (Units=1/GPa)
#
#
# Indices 1 2 3 4 5 6 
#
# 1 0.008241 -0.001631 -0.003420 0.000000 -0.000049 0.000000
# 2 -0.001631 0.011783 -0.004855 0.000000 0.000638 0.000000
# 3 -0.003420 -0.004855 0.017093 0.000000 -0.005562 0.000000
# 4 0.000000 0.000000 0.000000 0.023970 0.000000 -0.005008
# 5 -0.000049 0.000638 -0.005562 0.000000 0.023102 0.000000
# 6 0.000000 0.000000 0.000000 -0.005008 0.000000 0.028682
#
#
# Mechanical properties :
#
#
# Convention : Reuss Voigt Hill
#
# Bulk Modulus (GPa) = 57.78303 64.32126 61.05214
# Shear Modulus (GPa) = 36.11382 39.92452 38.01917
#
# Velocity S-wave (km/s) = 4.28546 4.50589 4.39706
# Velocity P-wave (km/s) = 7.33973 7.73178 7.53830
#
# Compressibility (1/GPa) = 0.01730612
#
# Stress axis : x y z
#
# Youngs Moduli (GPa) = 121.35081 84.86653 58.50245
#
# Poissons Ratio (x) = 0.13841 0.20005
# Poissons Ratio (y) = 0.19791 0.28403
# Poissons Ratio (z) = 0.41497 0.41203
#
# Static dielectric constant tensor:
#      x y z
#    x 1.677580 0.000000 -0.013790 
#    y 0.000000 1.765280 0.000000 
#    z -0.013790 0.000000 1.711100 
# 
# From -- ./inp_files/116304.got.cif
#   From: 2010.05.17/outbox.ucp.g08.bks.cvg/sg15_59_cif.got.tgz:116304.got - 2010.06.11 12:40:34.
