data_PCOD9309335
_publ_section_title
;
Structure prediction by ZEFSAII (Michael W. Deem and Ramdas Pophale) SiO2 
 PCOD9309335
Probable space group: C 2/C
;
_chemical_formula_sum "Si O2"
_cell_formula_units_Z 26
_cell_length_a 12.000000
_cell_length_b 27.000000
_cell_length_c 9.000000
_cell_angle_alpha 90.000000
_cell_angle_beta 60.000000
_cell_angle_gamma 90.000000
_cell_volume 2525.330077
_symmetry_space_group_name_H-M "C 2/C"
_symmetry_group_IT_number 15
_symmetry_cell_setting 'monoclinic'
loop_
_space_group_symop_operation_xyz
x,y,z
-x,y,1/2-z
-x,-y,-z
x,-y,1/2+z
1/2+x,1/2+y,z
1/2-x,1/2+y,1/2-z
1/2-x,1/2-y,-z
1/2+x,1/2-y,1/2+z
loop_
_atom_site_type_symbol
_atom_site_label
_atom_site_fract_x
_atom_site_fract_y
_atom_site_fract_z
Si Si1 0.616215 0.294814 0.786117
Si Si2 0.500000 0.519038 0.750000
Si Si3 0.404136 0.440876 0.584825
Si Si4 0.000000 0.630950 0.750000
Si Si5 0.317384 0.121523 0.122284
Si Si6 0.500000 0.832728 0.750000
Si Si7 0.328631 0.191904 0.636099
Si Si8 0.946562 0.855298 0.122606
O O1 0.500000 0.284546 0.750000
O O2 0.722175 0.332230 0.648742
O O3 0.689883 0.246651 0.789955
O O4 0.541232 0.316775 0.978461
O O5 0.432582 0.486355 0.671160
O O6 0.608369 0.546100 0.580120
O O7 0.280708 0.415752 0.736071
O O8 0.528252 0.403839 0.496245
O O9 0.106370 0.604172 0.575654
O O10 0.070742 0.665382 0.821998
O O11 0.416377 0.137056 0.185941
O O12 0.606455 0.806270 0.571694
O O13 0.196585 0.162769 0.751227
O O14 0.000000 0.864641 0.250000
#
# Coordination Sequence:
#
# PCOD9309335 Si02
#       8
#     8   4   8   4   8   4   8   8
#     4  11  24  38  58  86 121 167 217 274 302 345
#     4  10  22  40  72 100 126 148 194 266 324 384
#     4  10  22  42  66 103 121 156 200 256 331 363
#     4  10  22  38  59  87 112 176 204 252 298 358
#     4  10  23  41  63  88 128 163 214 251 307 381
#     4  10  24  40  55  87 118 178 202 254 298 376
#     4  11  23  38  58  83 124 167 219 256 303 363
#     4  11  24  38  62  90 124 164 205 260 310 369
#
# _framework density 10.295684
#
# number of rings (size 3 to 8) (size 9 to 14) (size 15 to 20)
#    0.000    1.538    1.538    2.769   11.846    2.462 
#    0.000    0.000    0.000    2.769    0.000    0.000 
#    0.000    0.000    0.000    0.000    0.000    0.000 
#
# Total GULP energy -144865.859853 kJ/mol
# GULP energy per Si atom -5571.763840 kJ/mol
# Density = 1.027225 g / cm^3
# Si number density = 10.295684 Si / 1000 Ang^3
#
#
#
# Elastic Constant Matrix: (Units=GPa)
#
#
# Indices 1 2 3 4 5 6 
#
# 1 54.5141 14.4504 38.2304 0.0000 -10.5820 0.0000
# 2 14.4504 57.3735 56.5832 0.0000 -7.3664 0.0000
# 3 38.2304 56.5832 202.6977 0.0000 -13.9756 0.0000
# 4 0.0000 0.0000 0.0000 15.0593 0.0000 0.0075
# 5 -10.5820 -7.3664 -13.9756 0.0000 37.6741 0.0000
# 6 0.0000 0.0000 0.0000 0.0075 0.0000 5.9427
#
#
#
# Elastic Compliance Matrix: (Units=1/GPa)
#
#
# Indices 1 2 3 4 5 6 
#
# 1 0.022045 -0.001618 -0.003388 0.000000 0.004619 0.000000
# 2 -0.001618 0.024361 -0.006361 0.000000 0.001949 0.000000
# 3 -0.003388 -0.006361 0.007386 0.000000 0.000545 0.000000
# 4 0.000000 0.000000 0.000000 0.066404 0.000000 -0.000084
# 5 0.004619 0.001949 0.000545 0.000000 0.028424 0.000000
# 6 0.000000 0.000000 0.000000 -0.000084 0.000000 0.168274
#
#
# Mechanical properties :
#
#
# Convention : Reuss Voigt Hill
#
# Bulk Modulus (GPa) = 32.19794 59.23483 45.71638
# Shear Modulus (GPa) = 14.28656 25.42331 19.85493
#
# Velocity S-wave (km/s) = 2.63689 3.51758 3.10858
# Velocity P-wave (km/s) = 4.99415 6.73254 5.92742
#
# Compressibility (1/GPa) = 0.03105789
#
# Stress axis : x y z
#
# Youngs Moduli (GPa) = 45.36129 41.05000 135.40025
#
# Poissons Ratio (x) = 0.06644 0.45869
# Poissons Ratio (y) = 0.07341 0.86123
# Poissons Ratio (z) = 0.15367 0.26110
#
# Static dielectric constant tensor:
#      x y z
#    x 1.720530 0.000000 0.002030 
#    y 0.000000 1.839600 0.000000 
#    z 0.002030 0.000000 1.800550 
# 
# From -- ./inp_files/34136.got.cif
#   From: 2010.05.17/outbox.ucp.g08.bks.cvg/sg15_18_cif.got.tgz:34136.got - 2010.06.11 12:40:34.
