data_PCOD9309246
_publ_section_title
;
Structure prediction by ZEFSAII (Michael W. Deem and Ramdas Pophale) SiO2 
 PCOD9309246
Probable space group: C 2/C
;
_chemical_formula_sum "Si O2"
_cell_formula_units_Z 24
_cell_length_a 30.000000
_cell_length_b 9.000000
_cell_length_c 18.000000
_cell_angle_alpha 90.000000
_cell_angle_beta 150.000000
_cell_angle_gamma 90.000000
_cell_volume 2430.000000
_symmetry_space_group_name_H-M "C 2/C"
_symmetry_group_IT_number 15
_symmetry_cell_setting 'monoclinic'
loop_
_space_group_symop_operation_xyz
x,y,z
-x,y,1/2-z
-x,-y,-z
x,-y,1/2+z
1/2+x,1/2+y,z
1/2-x,1/2+y,1/2-z
1/2-x,1/2-y,-z
1/2+x,1/2-y,1/2+z
loop_
_atom_site_type_symbol
_atom_site_label
_atom_site_fract_x
_atom_site_fract_y
_atom_site_fract_z
Si Si1 0.261593 0.619395 0.204695
Si Si2 0.413408 0.369094 0.675785
Si Si3 0.899616 0.450390 0.130749
Si Si4 0.251821 0.037556 0.658951
Si Si5 0.663772 0.168977 0.339617
Si Si6 0.413900 0.462808 0.329019
O O1 0.278654 0.795699 0.222135
O O2 0.264784 0.563057 0.293172
O O3 0.330606 0.531594 0.252642
O O4 0.165198 0.575718 0.032418
O O5 0.500000 0.360164 0.750000
O O6 0.386307 0.201576 0.657832
O O7 0.338447 0.440658 0.516979
O O8 0.425091 0.461713 0.765854
O O9 0.878398 0.588803 0.150883
O O10 0.000000 0.461560 0.250000
O O11 0.314336 0.953389 0.691027
O O12 0.750000 0.250000 0.500000
O O13 0.603757 0.291296 0.212943
O O14 0.500000 0.500000 0.500000
#
# Coordination Sequence:
#
# PCOD9309246 Si02
#       6
#     8   8   8   8   8   8
#     4  11  23  41  65  98 131 171 226 276 339 402
#     4  10  21  41  64  94 131 173 219 271 342 401
#     4  10  23  42  67  93 129 175 219 276 338 411
#     4  11  23  40  68  92 129 178 216 276 336 404
#     4  12  23  43  66  95 132 177 223 274 341 408
#     4  12  25  41  65  96 133 172 223 281 335 401
#
# _framework density 9.8765429999999999
#
# number of rings (size 3 to 8) (size 9 to 14) (size 15 to 20)
#    0.000    1.000    3.333    3.000    0.000    7.333 
#    0.000    2.500    0.000    0.000    0.000    0.000 
#    0.000    0.000    0.000    0.000    0.000    0.000 
#
# Total GULP energy -134030.489365 kJ/mol
# GULP energy per Si atom -5584.603724 kJ/mol
# Density = 0.985406 g / cm^3
# Si number density = 9.876543 Si / 1000 Ang^3
#
#
#
# Elastic Constant Matrix: (Units=GPa)
#
#
# Indices 1 2 3 4 5 6 
#
# 1 86.7697 53.2123 40.9366 0.0000 -18.0749 0.0000
# 2 53.2123 115.6879 97.7428 0.0000 -28.9796 0.0000
# 3 40.9366 97.7428 84.1563 0.0000 14.6857 0.0000
# 4 0.0000 0.0000 0.0000 26.0353 0.0000 -7.7427
# 5 -18.0749 -28.9796 14.6857 0.0000 11.4150 0.0000
# 6 0.0000 0.0000 0.0000 -7.7427 0.0000 38.6888
#
#
#
# Elastic Compliance Matrix: (Units=1/GPa)
#
#
# Indices 1 2 3 4 5 6 
#
# 1 0.016291 -0.008617 0.001804 0.000000 0.001600 0.000000
# 2 -0.008617 0.000342 0.007767 0.000000 -0.022767 0.000000
# 3 0.001804 0.007767 -0.002520 0.000000 0.025816 0.000000
# 4 0.000000 0.000000 0.000000 0.040840 0.000000 0.008173
# 5 0.001600 -0.022767 0.025816 0.000000 -0.000874 0.000000
# 6 0.000000 0.000000 0.000000 0.008173 0.000000 0.027483
#
#
# Mechanical properties :
#
#
# Convention : Reuss Voigt Hill
#
# Bulk Modulus (GPa) = 62.41800 74.48858 68.45329
# Shear Modulus (GPa) = 58.82693 21.54265 40.18479
#
# Velocity S-wave (km/s) = 5.46313 3.30600 4.51528
# Velocity P-wave (km/s) = 8.45353 7.23634 7.86850
#
# Compressibility (1/GPa) = 0.01602102
#
# Stress axis : x y z
#
# Youngs Moduli (GPa) = 61.38257 2920.52128 -396.76479
#
# Poissons Ratio (x) = 25.16507 0.71571
# Poissons Ratio (y) = 0.52891 3.08153
# Poissons Ratio (z) = -0.11073 -22.68262
#
# Static dielectric constant tensor:
#      x y z
#    x 1.662810 0.000000 0.032390 
#    y 0.000000 1.779880 0.000000 
#    z 0.032390 0.000000 1.685930 
# 
# From -- ./inp_files/176876.got.cif
#   From: 2010.05.17/outbox.ucp.g08.bks.cvg/sg15_89_cif.got.tgz:176876.got - 2010.06.11 12:40:34.
