data_PCOD9309995
_publ_section_title
;
Structure prediction by ZEFSAII (Michael W. Deem and Ramdas Pophale) SiO2 
 PCOD9309995
Probable space group: P 2 2 2
;
_chemical_formula_sum "Si O2"
_cell_formula_units_Z 16
_cell_length_a 10.670597
_cell_length_b 7.715861
_cell_length_c 8.994470
_cell_angle_alpha 90.000000
_cell_angle_beta 90.000000
_cell_angle_gamma 90.000000
_cell_volume 740.540289
_symmetry_space_group_name_H-M "P 2 2 2"
_symmetry_group_IT_number 16
_symmetry_cell_setting 'orthorhombic'
loop_
_space_group_symop_operation_xyz
x,y,z
-x,-y,z
x,-y,-z
-x,y,-z
loop_
_atom_site_type_symbol
_atom_site_label
_atom_site_fract_x
_atom_site_fract_y
_atom_site_fract_z
Si Si1 0.000000 0.000000 0.500000
Si Si2 0.666176 0.148652 0.247956
Si Si3 0.500000 0.000000 0.000000
Si Si4 0.839125 0.174107 0.746914
Si Si5 0.000000 0.000000 0.000000
Si Si6 0.849846 0.533353 0.823831
Si Si7 0.500000 0.000000 0.500000
O O1 0.080032 0.123890 0.395345
O O2 0.776199 0.293769 0.228657
O O3 0.582697 0.129782 0.396281
O O4 0.579447 0.130995 0.103404
O O5 0.731229 0.962952 0.247444
O O6 0.790593 0.367447 0.744334
O O7 0.921485 0.126711 0.893296
O O8 0.000000 0.500000 0.792725
O O9 0.834270 0.500000 0.000000
#
# Coordination Sequence:
#
# PCOD9309995 Si02
#       7
#     1   4   1   4   1   4   1
#     4  10  22  38  62  96 140 184 210 262 342 416
#     4  11  23  44  68  94 131 177 231 284 332 392
#     4  10  22  42  70  96 132 184 234 280 326 394
#     4  11  21  39  63  95 134 172 219 270 336 404
#     4  10  18  34  66 100 140 176 202 270 350 416
#     4  11  22  38  68 107 138 168 216 281 351 412
#     4  10  26  50  66  88 136 192 238 276 322 390
#
# _framework density 21.605846
#
# number of rings (size 3 to 8) (size 9 to 14) (size 15 to 20)
#    0.000    1.250    0.000    9.000    0.000    0.000 
#    0.000   25.000    0.000    6.000    0.000    0.000 
#    0.000    0.000    0.000    0.000    0.000    0.000 
#
# Total GULP energy -89293.710565 kJ/mol
# GULP energy per Si atom -5580.856910 kJ/mol
# Density = 2.155667 g / cm^3
# Si number density = 21.605846 Si / 1000 Ang^3
#
#
#
# Elastic Constant Matrix: (Units=GPa)
#
#
# Indices 1 2 3 4 5 6 
#
# 1 111.5328 46.9940 55.8033 0.0000 0.0000 0.0000
# 2 46.9940 144.8700 20.5933 0.0000 0.0000 0.0000
# 3 55.8033 20.5933 118.9845 0.0000 0.0000 0.0000
# 4 0.0000 0.0000 0.0000 -1.3602 0.0000 0.0000
# 5 0.0000 0.0000 0.0000 0.0000 -25.1796 0.0000
# 6 0.0000 0.0000 0.0000 0.0000 0.0000 3.6980
#
#
#
# Elastic Compliance Matrix: (Units=1/GPa)
#
#
# Indices 1 2 3 4 5 6 
#
# 1 0.013246 -0.003500 -0.005606 0.000000 0.000000 0.000000
# 2 -0.003500 0.008002 0.000257 0.000000 0.000000 0.000000
# 3 -0.005606 0.000257 0.010989 0.000000 0.000000 0.000000
# 4 0.000000 0.000000 0.000000 -0.735203 0.000000 0.000000
# 5 0.000000 0.000000 0.000000 0.000000 -0.039715 0.000000
# 6 0.000000 0.000000 0.000000 0.000000 0.000000 0.270413
#
#
# Mechanical properties :
#
#
# Convention : Reuss Voigt Hill
#
# Bulk Modulus (GPa) = 68.78868 69.12981 68.95925
# Shear Modulus (GPa) = -11.11797 12.23143 0.55673
#
# Velocity S-wave (km/s) = -2.27090 2.38190 0.50817
# Velocity P-wave (km/s) = 5.00311 6.29523 5.68599
#
# Compressibility (1/GPa) = 0.01453727
#
# Stress axis : x y z
#
# Youngs Moduli (GPa) = 75.49636 124.97565 90.99622
#
# Poissons Ratio (x) = 0.43739 0.51017
# Poissons Ratio (y) = 0.26422 -0.02334
# Poissons Ratio (z) = 0.42327 -0.03206
#
# Static dielectric constant tensor:
#      x y z
#    x 1.938310 0.000000 0.000000 
#    y 0.000000 1.805410 0.000000 
#    z 0.000000 0.000000 2.134200 
# 
# From -- ./inp_files/3489.got.cif
#   From: 2010.05.17/outbox.cif.g08.bks.cpg/sg16_2_cif.got.tgz:3489.got - 2010.06.03 22:28:35.
