data_PCOD9309822
_publ_section_title
;
Structure prediction by ZEFSAII (Michael W. Deem and Ramdas Pophale) SiO2 
 PCOD9309822
Probable space group: C 2/C
;
_chemical_formula_sum "Si O2"
_cell_formula_units_Z 28
_cell_length_a 15.000000
_cell_length_b 18.000000
_cell_length_c 21.000000
_cell_angle_alpha 90.000000
_cell_angle_beta 30.000000
_cell_angle_gamma 90.000000
_cell_volume 2835.000000
_symmetry_space_group_name_H-M "C 2/C"
_symmetry_group_IT_number 15
_symmetry_cell_setting 'monoclinic'
loop_
_space_group_symop_operation_xyz
x,y,z
-x,y,1/2-z
-x,-y,-z
x,-y,1/2+z
1/2+x,1/2+y,z
1/2-x,1/2+y,1/2-z
1/2-x,1/2-y,-z
1/2+x,1/2-y,1/2+z
loop_
_atom_site_type_symbol
_atom_site_label
_atom_site_fract_x
_atom_site_fract_y
_atom_site_fract_z
Si Si1 0.564852 0.835419 0.892033
Si Si2 0.430020 0.388268 0.616570
Si Si3 0.457958 0.460972 0.172067
Si Si4 0.970692 0.603971 0.940206
Si Si5 0.799180 0.546994 0.547561
Si Si6 0.373343 0.311069 0.889517
Si Si7 0.850914 0.839682 0.146344
O O1 0.721224 0.865528 0.748343
O O2 0.607624 0.747987 0.873601
O O3 0.546343 0.867484 0.976197
O O4 0.379441 0.871584 0.982567
O O5 0.438684 0.474416 0.631553
O O6 0.501310 0.343668 0.633853
O O7 0.558117 0.367367 0.477124
O O8 0.298022 0.460364 0.323193
O O9 0.641624 0.470375 0.095828
O O10 0.452596 0.383504 0.138805
O O11 0.140367 0.638213 0.794766
O O12 0.956592 0.514454 0.946281
O O13 0.776851 0.629370 0.035334
O O14 0.500000 0.290902 0.750000
O O15 0.250000 0.250000 0.000000
#
# Coordination Sequence:
#
# PCOD9309822 Si02
#       7
#     8   8   8   8   8   8   8
#     4  12  23  43  70  99 129 180 224 271 325 400
#     4  12  25  43  65  96 142 169 219 278 332 395
#     4  11  23  46  69 100 131 176 224 277 328 395
#     4  12  23  44  68  98 132 177 228 264 328 411
#     4  11  23  44  75  96 127 179 232 268 324 403
#     4  12  24  39  64  98 139 177 218 278 334 398
#     4  12  27  42  67 102 136 173 219 278 341 385
#
# _framework density 9.8765429999999999
#
# number of rings (size 3 to 8) (size 9 to 14) (size 15 to 20)
#    0.000    0.286    5.714    4.286    2.000    0.571 
#    0.000    2.143    0.000    0.000    0.000    0.000 
#    0.000    0.000    0.000    0.000    0.000    0.000 
#
# Total GULP energy -156108.256450 kJ/mol
# GULP energy per Si atom -5575.294873 kJ/mol
# Density = 0.985406 g / cm^3
# Si number density = 9.876543 Si / 1000 Ang^3
#
#
#
# Elastic Constant Matrix: (Units=GPa)
#
#
# Indices 1 2 3 4 5 6 
#
# 1 51.8805 28.3428 32.3942 0.0000 5.5173 0.0003
# 2 28.3428 112.5805 51.3509 0.0009 -3.3209 0.0015
# 3 32.3942 51.3509 178.9805 0.0073 12.5191 0.0012
# 4 0.0000 0.0009 0.0073 42.6579 -0.0022 -1.6910
# 5 5.5173 -3.3209 12.5191 -0.0022 37.0217 -0.0008
# 6 0.0003 0.0015 0.0012 -1.6910 -0.0008 22.0104
#
#
#
# Elastic Compliance Matrix: (Units=1/GPa)
#
#
# Indices 1 2 3 4 5 6 
#
# 1 0.023971 -0.004885 -0.002721 0.000000 -0.003091 0.000000
# 2 -0.004885 0.011355 -0.002556 0.000000 0.002611 0.000000
# 3 -0.002721 -0.002556 0.006966 -0.000001 -0.002179 0.000000
# 4 0.000000 0.000000 -0.000001 0.023514 0.000002 0.001806
# 5 -0.003091 0.002611 -0.002179 0.000002 0.028443 0.000001
# 6 0.000000 0.000000 0.000000 0.001806 0.000001 0.045572
#
#
# Mechanical properties :
#
#
# Convention : Reuss Voigt Hill
#
# Bulk Modulus (GPa) = 45.52155 63.06859 54.29507
# Shear Modulus (GPa) = 29.85635 35.76155 32.80895
#
# Velocity S-wave (km/s) = 3.89199 4.25953 4.07990
# Velocity P-wave (km/s) = 6.57967 7.49595 7.05271
#
# Compressibility (1/GPa) = 0.02196762
#
# Stress axis : x y z
#
# Youngs Moduli (GPa) = 41.71639 88.06341 143.56329
#
# Poissons Ratio (x) = 0.43019 0.39063
# Poissons Ratio (y) = 0.20379 0.36701
# Poissons Ratio (z) = 0.11351 0.22513
#
# Static dielectric constant tensor:
#      x y z
#    x 1.764240 0.000000 -0.041140 
#    y 0.000000 1.755620 0.000000 
#    z -0.041140 0.000000 1.695470 
# 
# From -- ./inp_files/48990.got.cif
#   From: 2010.05.17/outbox.ucp.g08.bks.cvg/sg15_25_cif.got.tgz:48990.got - 2010.06.11 12:40:34.
