data_PCOD9309017
_publ_section_title
;
Structure prediction by ZEFSAII (Michael W. Deem and Ramdas Pophale) SiO2 
 PCOD9309017
Probable space group: C 2/C
;
_chemical_formula_sum "Si O2"
_cell_formula_units_Z 32
_cell_length_a 21.000000
_cell_length_b 24.000000
_cell_length_c 18.000000
_cell_angle_alpha 90.000000
_cell_angle_beta 20.000000
_cell_angle_gamma 90.000000
_cell_volume 3102.806740
_symmetry_space_group_name_H-M "C 2/C"
_symmetry_group_IT_number 15
_symmetry_cell_setting 'monoclinic'
loop_
_space_group_symop_operation_xyz
x,y,z
-x,y,1/2-z
-x,-y,-z
x,-y,1/2+z
1/2+x,1/2+y,z
1/2-x,1/2+y,1/2-z
1/2-x,1/2-y,-z
1/2+x,1/2-y,1/2+z
loop_
_atom_site_type_symbol
_atom_site_label
_atom_site_fract_x
_atom_site_fract_y
_atom_site_fract_z
Si Si1 0.018895 0.304818 0.549658
Si Si2 0.101521 0.820301 0.952739
Si Si3 0.983623 0.585216 0.358127
Si Si4 0.673229 0.819054 0.221545
Si Si5 0.414396 0.423854 0.424469
Si Si6 0.109062 0.395949 0.055867
Si Si7 0.352025 0.498816 0.233384
Si Si8 0.415296 0.691078 0.206859
O O1 0.819693 0.316495 0.731379
O O2 0.051434 0.350496 0.577928
O O3 0.021675 0.239452 0.567363
O O4 0.157501 0.314156 0.328623
O O5 0.078899 0.823130 0.888492
O O6 0.037735 0.874139 0.069423
O O7 0.000000 0.579954 0.250000
O O8 0.819703 0.546795 0.574041
O O9 0.190635 0.570333 0.162265
O O10 0.543749 0.868234 0.331931
O O11 0.609308 0.758059 0.262136
O O12 0.891270 0.826002 0.967652
O O13 0.500000 0.410073 0.250000
O O14 0.513584 0.479117 0.346868
O O15 0.000000 0.415892 0.250000
O O16 0.240559 0.443387 0.873371
O O17 0.245407 0.344284 0.925922
O O18 0.500000 0.500000 0.000000
#
# Coordination Sequence:
#
# PCOD9309017 Si02
#       8
#     8   8   8   8   8   8   8   8
#     4  10  21  36  69 103 146 186 231 285 342 421
#     4  10  20  38  66 109 140 184 239 281 337 426
#     4  11  25  46  70 105 146 186 228 296 360 416
#     4  11  22  42  72 105 144 191 233 286 357 428
#     4  11  25  45  74 101 144 191 230 288 366 418
#     4  12  28  48  69 106 142 179 245 303 356 436
#     4  12  29  50  75  98 136 189 247 300 352 428
#     4  11  21  43  71 101 147 187 229 288 356 424
#
# _framework density 10.313243
#
# number of rings (size 3 to 8) (size 9 to 14) (size 15 to 20)
#    0.000    1.000    3.750    3.375    7.000    3.000 
#    0.000    2.500    0.000    0.000    0.000    0.000 
#    0.000    0.000    0.000    0.000    0.000    0.000 
#
# Total GULP energy -178802.569670 kJ/mol
# GULP energy per Si atom -5587.580302 kJ/mol
# Density = 1.028977 g / cm^3
# Si number density = 10.313243 Si / 1000 Ang^3
#
#
#
# Elastic Constant Matrix: (Units=GPa)
#
#
# Indices 1 2 3 4 5 6 
#
# 1 65.0726 33.9639 32.5034 -0.0160 -9.0312 0.0115
# 2 33.9639 107.1599 37.1025 -0.0017 -2.2559 0.0353
# 3 32.5034 37.1025 134.5002 -0.0265 -9.0864 0.0554
# 4 -0.0160 -0.0017 -0.0265 43.9302 0.0329 -0.7658
# 5 -9.0312 -2.2559 -9.0864 0.0329 46.3112 -0.0256
# 6 0.0115 0.0353 0.0554 -0.7658 -0.0256 31.6526
#
#
#
# Elastic Compliance Matrix: (Units=1/GPa)
#
#
# Indices 1 2 3 4 5 6 
#
# 1 0.020109 -0.005194 -0.003222 0.000003 0.003036 0.000007
# 2 -0.005194 0.011659 -0.002018 -0.000002 -0.000841 -0.000008
# 3 -0.003222 -0.002018 0.008838 0.000003 0.001008 -0.000011
# 4 0.000003 -0.000002 0.000003 0.022773 -0.000015 0.000551
# 5 0.003036 -0.000841 0.001008 -0.000015 0.022342 0.000016
# 6 0.000007 -0.000008 -0.000011 0.000551 0.000016 0.031606
#
#
# Mechanical properties :
#
#
# Convention : Reuss Voigt Hill
#
# Bulk Modulus (GPa) = 50.66063 57.09692 53.87877
# Shear Modulus (GPa) = 34.53652 37.92301 36.22977
#
# Velocity S-wave (km/s) = 4.09635 4.29249 4.19557
# Velocity P-wave (km/s) = 6.85476 7.23248 7.04615
#
# Compressibility (1/GPa) = 0.01973919
#
# Stress axis : x y z
#
# Youngs Moduli (GPa) = 49.72882 85.77043 113.14582
#
# Poissons Ratio (x) = 0.44550 0.36451
# Poissons Ratio (y) = 0.25830 0.22830
# Poissons Ratio (z) = 0.16021 0.17307
#
# Static dielectric constant tensor:
#      x y z
#    x 1.734990 -0.000030 -0.000290 
#    y -0.000030 1.749530 0.000060 
#    z -0.000290 0.000060 1.772170 
# 
# From -- ./inp_files/216958.got.cif
#   From: 2010.05.17/outbox.ucp.g08.bks.cvg/sg15_109_cif.got.tgz:216958.got - 2010.06.11 12:40:34.
