data_PCOD9309815
_publ_section_title
;
Structure prediction by ZEFSAII (Michael W. Deem and Ramdas Pophale) SiO2 
 PCOD9309815
Probable space group: C 2/C
;
_chemical_formula_sum "Si O2"
_cell_formula_units_Z 30
_cell_length_a 12.000000
_cell_length_b 30.000000
_cell_length_c 18.000000
_cell_angle_alpha 90.000000
_cell_angle_beta 150.000000
_cell_angle_gamma 90.000000
_cell_volume 3240.000000
_symmetry_space_group_name_H-M "C 2/C"
_symmetry_group_IT_number 15
_symmetry_cell_setting 'monoclinic'
loop_
_space_group_symop_operation_xyz
x,y,z
-x,y,1/2-z
-x,-y,-z
x,-y,1/2+z
1/2+x,1/2+y,z
1/2-x,1/2+y,1/2-z
1/2-x,1/2-y,-z
1/2+x,1/2-y,1/2+z
loop_
_atom_site_type_symbol
_atom_site_label
_atom_site_fract_x
_atom_site_fract_y
_atom_site_fract_z
Si Si1 0.000000 0.652375 0.750000
Si Si2 0.500802 0.452474 0.606205
Si Si3 0.432294 0.911590 0.071018
Si Si4 0.455473 0.294102 0.478641
Si Si5 0.576817 0.554737 0.614929
Si Si6 0.383866 0.118794 0.373651
Si Si7 0.779886 0.634273 0.071131
Si Si8 0.349384 0.286386 0.741120
O O1 0.937694 0.625439 0.639382
O O2 0.773098 0.678183 0.640465
O O3 0.297287 0.437995 0.542909
O O4 0.526727 0.506286 0.622033
O O5 0.438388 0.444859 0.483677
O O6 0.720157 0.421318 0.748708
O O7 0.665335 0.936753 0.217699
O O8 0.445073 0.895172 0.993321
O O9 0.633477 0.324021 0.528979
O O10 0.539828 0.281085 0.611679
O O11 0.357234 0.248614 0.384993
O O12 0.399569 0.593591 0.535157
O O13 0.589809 0.132345 0.435681
O O14 0.237920 0.163187 0.302389
O O15 0.000000 0.627679 0.250000
O O16 0.500000 0.281837 0.750000
#
# Coordination Sequence:
#
# PCOD9309815 Si02
#       8
#     4   8   8   8   8   8   8   8
#     4  12  22  46  74 100 142 176 234 290 360 418
#     4  11  23  44  69 104 136 186 237 294 358 420
#     4  12  24  44  71 103 138 182 241 301 343 422
#     4  12  26  44  74 104 140 185 230 301 347 422
#     4  11  24  41  74  99 134 190 238 285 358 431
#     4  12  27  45  73 100 146 191 233 298 362 422
#     4  12  24  50  68  96 146 193 228 287 363 425
#     4  12  25  44  73 110 139 181 239 291 355 416
#
# _framework density 9.2592590000000001
#
# number of rings (size 3 to 8) (size 9 to 14) (size 15 to 20)
#    0.000    0.267    6.000    3.200    3.733    1.600 
#    2.400    0.000    0.000    0.000    0.000    0.000 
#    0.000    0.000    0.000    0.000    0.000    0.000 
#
# Total GULP energy -167038.561814 kJ/mol
# GULP energy per Si atom -5567.952060 kJ/mol
# Density = 0.923818 g / cm^3
# Si number density = 9.259259 Si / 1000 Ang^3
#
#
#
# Elastic Constant Matrix: (Units=GPa)
#
#
# Indices 1 2 3 4 5 6 
#
# 1 147.1560 34.6302 34.0357 -0.0002 2.2386 0.0000
# 2 34.6302 110.0763 43.1261 0.0000 -1.2282 0.0000
# 3 34.0357 43.1261 96.5675 -0.0009 -2.9541 0.0002
# 4 -0.0002 0.0000 -0.0009 30.9007 -0.0001 3.3549
# 5 2.2386 -1.2282 -2.9541 -0.0001 49.7058 -0.0001
# 6 0.0000 0.0000 0.0002 3.3549 -0.0001 34.3887
#
#
#
# Elastic Compliance Matrix: (Units=1/GPa)
#
#
# Indices 1 2 3 4 5 6 
#
# 1 0.007646 -0.001635 -0.001980 0.000000 -0.000502 0.000000
# 2 -0.001635 0.011361 -0.004495 0.000000 0.000087 0.000000
# 3 -0.001980 -0.004495 0.013084 0.000000 0.000756 0.000000
# 4 0.000000 0.000000 0.000000 0.032708 0.000000 -0.003191
# 5 -0.000502 0.000087 0.000756 0.000000 0.020188 0.000000
# 6 0.000000 0.000000 0.000000 -0.003191 0.000000 0.029391
#
#
# Mechanical properties :
#
#
# Convention : Reuss Voigt Hill
#
# Bulk Modulus (GPa) = 63.00877 64.15377 63.58127
# Shear Modulus (GPa) = 36.79512 39.13287 37.96400
#
# Velocity S-wave (km/s) = 4.46234 4.60192 4.53267
# Velocity P-wave (km/s) = 7.78772 7.93442 7.86141
#
# Compressibility (1/GPa) = 0.01587081
#
# Stress axis : x y z
#
# Youngs Moduli (GPa) = 130.78858 88.02039 76.43120
#
# Poissons Ratio (x) = 0.14394 0.15133
# Poissons Ratio (y) = 0.21388 0.34353
# Poissons Ratio (z) = 0.25895 0.39562
#
# Static dielectric constant tensor:
#      x y z
#    x 1.656950 0.000000 -0.014610 
#    y 0.000000 1.693780 0.000000 
#    z -0.014610 0.000000 1.666440 
# 
# From -- ./inp_files/201426.got.cif
#   From: 2010.05.17/outbox.ucp.g08.bks.cvg/sg15_101_cif.got.tgz:201426.got - 2010.06.11 12:40:34.
