data_PCOD9309209
_publ_section_title
;
Structure prediction by ZEFSAII (Michael W. Deem and Ramdas Pophale) SiO2 
 PCOD9309209
Probable space group: C 2/C
;
_chemical_formula_sum "Si O2"
_cell_formula_units_Z 24
_cell_length_a 12.000000
_cell_length_b 24.000000
_cell_length_c 9.000000
_cell_angle_alpha 90.000000
_cell_angle_beta 70.000000
_cell_angle_gamma 90.000000
_cell_volume 2435.683273
_symmetry_space_group_name_H-M "C 2/C"
_symmetry_group_IT_number 15
_symmetry_cell_setting 'monoclinic'
loop_
_space_group_symop_operation_xyz
x,y,z
-x,y,1/2-z
-x,-y,-z
x,-y,1/2+z
1/2+x,1/2+y,z
1/2-x,1/2+y,1/2-z
1/2-x,1/2-y,-z
1/2+x,1/2-y,1/2+z
loop_
_atom_site_type_symbol
_atom_site_label
_atom_site_fract_x
_atom_site_fract_y
_atom_site_fract_z
Si Si1 0.884482 0.747891 0.232836
Si Si2 0.867160 0.626209 0.371512
Si Si3 0.785772 0.649723 0.733263
Si Si4 0.349721 0.556856 0.171651
Si Si5 0.118673 0.065253 0.987332
Si Si6 0.109471 0.269991 0.101377
O O1 0.849933 0.690632 0.329486
O O2 0.781015 0.793036 0.282665
O O3 0.000000 0.775396 0.250000
O O4 0.930918 0.729301 0.048931
O O5 0.847772 0.624110 0.559169
O O6 0.763040 0.589188 0.344512
O O7 0.000000 0.611074 0.250000
O O8 0.692005 0.610146 0.859375
O O9 0.872240 0.672147 0.822289
O O10 0.345730 0.559949 0.353943
O O11 0.357083 0.493497 0.106779
O O12 0.478170 0.580044 0.058311
O O13 0.000000 0.241807 0.250000
O O14 0.250000 0.250000 0.000000
#
# Coordination Sequence:
#
# PCOD9309209 Si02
#       6
#     8   8   8   8   8   8
#     4  10  22  39  60  91 127 172 216 263 317 380
#     4  11  23  40  62  91 130 171 213 260 320 386
#     4  11  23  39  62  93 127 170 214 262 327 379
#     4  10  22  43  68  93 132 158 218 269 325 383
#     4  10  22  42  67  98 120 169 210 275 326 381
#     4  10  21  40  59  84 125 168 214 265 318 384
#
# _framework density 9.8534980000000001
#
# number of rings (size 3 to 8) (size 9 to 14) (size 15 to 20)
#    0.000    1.667    0.000    4.500    2.333    2.667 
#   18.000    4.167    0.000    0.000    0.000    0.000 
#    0.000    0.000    0.000    0.000    0.000    0.000 
#
# Total GULP energy -133694.953570 kJ/mol
# GULP energy per Si atom -5570.623065 kJ/mol
# Density = 0.983107 g / cm^3
# Si number density = 9.853498 Si / 1000 Ang^3
#
#
#
# Elastic Constant Matrix: (Units=GPa)
#
#
# Indices 1 2 3 4 5 6 
#
# 1 113.9477 43.1696 60.9750 0.0000 -21.0365 0.0000
# 2 43.1696 59.3485 35.6455 0.0000 -17.1169 0.0000
# 3 60.9750 35.6455 196.1095 0.0000 -15.5558 0.0000
# 4 0.0000 0.0000 0.0000 37.7548 0.0000 -3.4646
# 5 -21.0365 -17.1169 -15.5558 0.0000 38.0842 0.0000
# 6 0.0000 0.0000 0.0000 -3.4646 0.0000 35.5821
#
#
#
# Elastic Compliance Matrix: (Units=1/GPa)
#
#
# Indices 1 2 3 4 5 6 
#
# 1 0.013550 -0.007388 -0.002625 0.000000 0.003092 0.000000
# 2 -0.007388 0.025157 -0.001759 0.000000 0.006507 0.000000
# 3 -0.002625 -0.001759 0.006260 0.000000 0.000316 0.000000
# 4 0.000000 0.000000 0.000000 0.026725 0.000000 0.002602
# 5 0.003092 0.006507 0.000316 0.000000 0.031019 0.000000
# 6 0.000000 0.000000 0.000000 0.002602 0.000000 0.028357
#
#
# Mechanical properties :
#
#
# Convention : Reuss Voigt Hill
#
# Bulk Modulus (GPa) = 46.67885 72.10956 59.39420
# Shear Modulus (GPa) = 30.91074 37.59194 34.25134
#
# Velocity S-wave (km/s) = 3.96475 4.37228 4.17349
# Velocity P-wave (km/s) = 6.68557 7.88412 7.30945
#
# Compressibility (1/GPa) = 0.02142298
#
# Stress axis : x y z
#
# Youngs Moduli (GPa) = 73.79805 39.75015 159.73816
#
# Poissons Ratio (x) = 0.29368 0.41931
# Poissons Ratio (y) = 0.54523 0.28103
# Poissons Ratio (z) = 0.19372 0.06993
#
# Static dielectric constant tensor:
#      x y z
#    x 1.832520 0.000000 0.032160 
#    y 0.000000 1.680160 0.000000 
#    z 0.032160 0.000000 1.714370 
# 
# From -- ./inp_files/32557.got.cif
#   From: 2010.05.17/outbox.ucp.g08.bks.cvg/sg15_17_cif.got.tgz:32557.got - 2010.06.11 12:40:34.
