data_PCOD9309963
_publ_section_title
;
Structure prediction by ZEFSAII (Michael W. Deem and Ramdas Pophale) SiO2 
 PCOD9309963
Probable space group: P 2 2 2
;
_chemical_formula_sum "Si O2"
_cell_formula_units_Z 32
_cell_length_a 9.146946
_cell_length_b 20.157715
_cell_length_c 7.476945
_cell_angle_alpha 90.000000
_cell_angle_beta 90.000000
_cell_angle_gamma 90.000000
_cell_volume 1378.610563
_symmetry_space_group_name_H-M "P 2 2 2"
_symmetry_group_IT_number 16
_symmetry_cell_setting 'orthorhombic'
loop_
_space_group_symop_operation_xyz
x,y,z
-x,-y,z
x,-y,-z
-x,y,-z
loop_
_atom_site_type_symbol
_atom_site_label
_atom_site_fract_x
_atom_site_fract_y
_atom_site_fract_z
Si Si1 0.507568 0.214229 0.222573
Si Si2 0.483385 0.422565 0.781035
Si Si3 0.227331 0.856011 0.385449
Si Si4 0.983682 0.245384 0.742297
Si Si5 0.174683 0.995985 0.291820
Si Si6 0.742824 0.322935 0.116163
Si Si7 0.764841 0.865237 0.187792
Si Si8 0.282906 0.675498 0.699793
O O1 0.616090 0.173857 0.345486
O O2 0.620413 0.264479 0.124466
O O3 0.393441 0.162324 0.135772
O O4 0.396788 0.264465 0.318320
O O5 0.500000 0.500000 0.743031
O O6 0.329910 0.381829 0.765034
O O7 0.612595 0.387348 0.667122
O O8 0.500000 0.415714 0.000000
O O9 0.218359 0.867707 0.596187
O O10 0.095094 0.807034 0.343207
O O11 0.211457 0.919493 0.255969
O O12 0.879338 0.194316 0.859577
O O13 0.867766 0.291558 0.631841
O O14 0.100019 0.296890 0.824449
O O15 0.218690 0.055715 0.159305
O O16 0.231405 0.000000 0.500000
O O17 0.000000 0.000000 0.301523
O O18 0.756752 0.338485 0.907474
#
# Coordination Sequence:
#
# PCOD9309963 Si02
#       8
#     4   4   4   4   4   4   4   4
#     4   9  18  28  43  66  89 119 149 176 220 268
#     4   8  14  27  47  67  91 120 140 168 219 264
#     4  10  18  29  44  66  93 114 142 184 227 275
#     4  10  18  27  44  67  89 121 150 174 216 262
#     4   9  16  27  43  61  86 118 141 174 235 283
#     4   9  17  30  46  67  93 116 148 182 208 253
#     4  10  18  29  44  66  93 114 142 184 227 275
#     4   9  17  30  46  67  93 116 148 182 208 253
#
# _framework density 23.211773999999998
#
# number of rings (size 3 to 8) (size 9 to 14) (size 15 to 20)
#    0.000    2.750    1.250    2.250    0.000    0.500 
#    0.000    2.500    0.000    3.000    0.000   61.250 
#    0.000  236.000    0.000    0.000    0.000    0.000 
#
# Total GULP energy -178180.364224 kJ/mol
# GULP energy per Si atom -5568.136382 kJ/mol
# Density = 2.315894 g / cm^3
# Si number density = 23.211774 Si / 1000 Ang^3
#
#
#
# Elastic Constant Matrix: (Units=GPa)
#
#
# Indices 1 2 3 4 5 6 
#
# 1 185.1755 69.5028 21.2420 0.0000 0.0000 0.0000
# 2 69.5028 178.5021 16.6794 0.0000 0.0000 0.0000
# 3 21.2420 16.6794 44.0894 0.0000 0.0000 0.0000
# 4 0.0000 0.0000 0.0000 10.8046 0.0000 0.0000
# 5 0.0000 0.0000 0.0000 0.0000 31.6870 0.0000
# 6 0.0000 0.0000 0.0000 0.0000 0.0000 26.5166
#
#
#
# Elastic Compliance Matrix: (Units=1/GPa)
#
#
# Indices 1 2 3 4 5 6 
#
# 1 0.006536 -0.002333 -0.002266 0.000000 0.000000 0.000000
# 2 -0.002333 0.006640 -0.001388 0.000000 0.000000 0.000000
# 3 -0.002266 -0.001388 0.024298 0.000000 0.000000 0.000000
# 4 0.000000 0.000000 0.000000 0.092553 0.000000 0.000000
# 5 0.000000 0.000000 0.000000 0.000000 0.031559 0.000000
# 6 0.000000 0.000000 0.000000 0.000000 0.000000 0.037712
#
#
# Mechanical properties :
#
#
# Convention : Reuss Voigt Hill
#
# Bulk Modulus (GPa) = 39.21641 69.17949 54.19795
# Shear Modulus (GPa) = 22.75073 33.82449 28.28761
#
# Velocity S-wave (km/s) = 3.13411 3.82149 3.49474
# Velocity P-wave (km/s) = 5.47984 7.02424 6.29955
#
# Compressibility (1/GPa) = 0.02549953
#
# Stress axis : x y z
#
# Youngs Moduli (GPa) = 152.99969 150.59543 41.15531
#
# Poissons Ratio (x) = 0.35136 0.09327
# Poissons Ratio (y) = 0.35697 0.05712
# Poissons Ratio (z) = 0.34675 0.20903
#
# Static dielectric constant tensor:
#      x y z
#    x 1.861900 0.000000 0.000000 
#    y 0.000000 1.957840 0.000000 
#    z 0.000000 0.000000 2.121550 
# 
# From -- ./inp_files/6666.got.cif
#   From: 2010.05.17/outbox.cif.g08.bks.cpg/sg16_4_cif.got.tgz:6666.got - 2010.06.03 22:28:35.
