data_PCOD9309239
_publ_section_title
;
Structure prediction by ZEFSAII (Michael W. Deem and Ramdas Pophale) SiO2 
 PCOD9309239
Probable space group: C 2/C
;
_chemical_formula_sum "Si O2"
_cell_formula_units_Z 32
_cell_length_a 24.000000
_cell_length_b 18.000000
_cell_length_c 15.000000
_cell_angle_alpha 90.000000
_cell_angle_beta 30.000000
_cell_angle_gamma 90.000000
_cell_volume 3240.000000
_symmetry_space_group_name_H-M "C 2/C"
_symmetry_group_IT_number 15
_symmetry_cell_setting 'monoclinic'
loop_
_space_group_symop_operation_xyz
x,y,z
-x,y,1/2-z
-x,-y,-z
x,-y,1/2+z
1/2+x,1/2+y,z
1/2-x,1/2+y,1/2-z
1/2-x,1/2-y,-z
1/2+x,1/2-y,1/2+z
loop_
_atom_site_type_symbol
_atom_site_label
_atom_site_fract_x
_atom_site_fract_y
_atom_site_fract_z
Si Si1 0.369473 0.552064 0.403851
Si Si2 0.092640 0.302871 0.695092
Si Si3 0.010082 0.390299 0.976032
Si Si4 0.130612 0.007315 0.791129
Si Si5 0.845959 0.218183 0.428255
Si Si6 0.194663 0.505800 0.783276
Si Si7 0.941484 0.745837 0.969582
Si Si8 0.161399 0.177672 0.719858
O O1 0.500000 0.540833 0.250000
O O2 0.352458 0.541925 0.321296
O O3 0.330864 0.635031 0.484305
O O4 0.285072 0.501462 0.578047
O O5 0.071997 0.363214 0.800646
O O6 0.087610 0.224111 0.752530
O O7 0.211640 0.308377 0.483237
O O8 0.000000 0.310872 0.750000
O O9 0.098010 0.444103 0.904535
O O10 0.003223 0.321683 0.053530
O O11 0.888966 0.422823 0.115188
O O12 0.226500 0.999791 0.736544
O O13 0.140144 0.091549 0.745706
O O14 0.000000 0.000000 0.000000
O O15 0.750000 0.250000 0.500000
O O16 0.869429 0.270965 0.480877
O O17 0.955726 0.210051 0.214965
O O18 0.868825 0.791291 0.140812
#
# Coordination Sequence:
#
# PCOD9309239 Si02
#       8
#     8   8   8   8   8   8   8   8
#     4  12  23  42  62  93 133 168 214 263 330 393
#     4  10  21  41  66  93 123 164 214 266 321 379
#     4  10  23  43  65  94 127 170 218 266 325 386
#     4  12  24  40  64  93 129 172 210 261 325 393
#     4  11  23  39  64  91 124 165 215 268 319 377
#     4  11  24  43  65  93 133 171 216 269 322 394
#     4  10  21  41  62  90 126 162 212 268 321 379
#     4  10  22  40  61  92 126 159 214 258 319 383
#
# _framework density 9.8765429999999999
#
# number of rings (size 3 to 8) (size 9 to 14) (size 15 to 20)
#    0.000    1.250    2.500    3.750    1.750    2.500 
#    6.750    1.250    0.000    0.000    0.000    0.000 
#    0.000    0.000    0.000    0.000    0.000    0.000 
#
# Total GULP energy -178382.542093 kJ/mol
# GULP energy per Si atom -5574.454440 kJ/mol
# Density = 0.985406 g / cm^3
# Si number density = 9.876543 Si / 1000 Ang^3
#
#
#
# Elastic Constant Matrix: (Units=GPa)
#
#
# Indices 1 2 3 4 5 6 
#
# 1 134.7505 31.1799 28.8070 0.0000 -5.4472 0.0000
# 2 31.1799 54.0350 8.7537 0.0000 -1.7854 0.0000
# 3 28.8070 8.7537 82.7443 0.0000 6.3211 0.0000
# 4 0.0000 0.0000 0.0000 27.2712 0.0000 -2.2751
# 5 -5.4472 -1.7854 6.3211 0.0000 37.7074 0.0000
# 6 0.0000 0.0000 0.0000 -2.2751 0.0000 14.9655
#
#
#
# Elastic Compliance Matrix: (Units=1/GPa)
#
#
# Indices 1 2 3 4 5 6 
#
# 1 0.009197 -0.004799 -0.002814 0.000000 0.001573 0.000000
# 2 -0.004799 0.021391 -0.000625 0.000000 0.000424 0.000000
# 3 -0.002814 -0.000625 0.013335 0.000000 -0.002672 0.000000
# 4 0.000000 0.000000 0.000000 0.037140 0.000000 0.005646
# 5 0.001573 0.000424 -0.002672 0.000000 0.027215 0.000000
# 6 0.000000 0.000000 0.000000 0.005646 0.000000 0.067679
#
#
# Mechanical properties :
#
#
# Convention : Reuss Voigt Hill
#
# Bulk Modulus (GPa) = 36.43356 45.44568 40.93962
# Shear Modulus (GPa) = 24.80385 29.50809 27.15597
#
# Velocity S-wave (km/s) = 3.54742 3.86922 3.71181
# Velocity P-wave (km/s) = 5.93831 6.55881 6.25626
#
# Compressibility (1/GPa) = 0.02744722
#
# Stress axis : x y z
#
# Youngs Moduli (GPa) = 108.73370 46.74894 74.98846
#
# Poissons Ratio (x) = 0.22434 0.21104
# Poissons Ratio (y) = 0.52181 0.04684
# Poissons Ratio (z) = 0.30601 0.02920
#
# Static dielectric constant tensor:
#      x y z
#    x 1.691460 0.000000 0.004580 
#    y 0.000000 1.725900 0.000000 
#    z 0.004580 0.000000 1.653820 
# 
# From -- ./inp_files/174216.got.cif
#   From: 2010.05.17/outbox.ucp.g08.bks.cvg/sg15_88_cif.got.tgz:174216.got - 2010.06.11 12:40:34.
