data_PCOD9309346
_publ_section_title
;
Structure prediction by ZEFSAII (Michael W. Deem and Ramdas Pophale) SiO2 
 PCOD9309346
Probable space group: C 2/C
;
_chemical_formula_sum "Si O2"
_cell_formula_units_Z 28
_cell_length_a 12.000000
_cell_length_b 27.000000
_cell_length_c 9.000000
_cell_angle_alpha 90.000000
_cell_angle_beta 70.000000
_cell_angle_gamma 90.000000
_cell_volume 2740.143682
_symmetry_space_group_name_H-M "C 2/C"
_symmetry_group_IT_number 15
_symmetry_cell_setting 'monoclinic'
loop_
_space_group_symop_operation_xyz
x,y,z
-x,y,1/2-z
-x,-y,-z
x,-y,1/2+z
1/2+x,1/2+y,z
1/2-x,1/2+y,1/2-z
1/2-x,1/2-y,-z
1/2+x,1/2-y,1/2+z
loop_
_atom_site_type_symbol
_atom_site_label
_atom_site_fract_x
_atom_site_fract_y
_atom_site_fract_z
Si Si1 0.993778 0.873039 0.590168
Si Si2 0.089738 0.215032 0.577118
Si Si3 0.334392 0.191798 0.638580
Si Si4 0.112396 0.474196 0.299466
Si Si5 0.410755 0.901553 0.927449
Si Si6 0.758026 0.924943 0.743662
Si Si7 0.267728 0.882185 0.426691
O O1 0.949167 0.834632 0.488710
O O2 0.899706 0.917237 0.665499
O O3 0.000000 0.847409 0.750000
O O4 0.125675 0.887128 0.480896
O O5 0.209531 0.201088 0.611723
O O6 0.102265 0.256754 0.440879
O O7 0.000000 0.230956 0.750000
O O8 0.406947 0.147994 0.525349
O O9 0.309953 0.167783 0.816236
O O10 0.071617 0.447680 0.470194
O O11 0.201504 0.520178 0.287341
O O12 0.175168 0.429354 0.181159
O O13 0.000000 0.488770 0.250000
O O14 0.500000 0.898882 0.750000
O O15 0.287765 0.907221 0.895746
O O16 0.712291 0.890711 0.903821
#
# Coordination Sequence:
#
# PCOD9309346 Si02
#       7
#     8   8   8   8   8   8   8
#     4  10  22  41  64  92 131 173 215 268 330 385
#     4  11  20  40  68  93 129 168 214 267 323 390
#     4  10  22  38  63  98 123 166 216 265 327 386
#     4  11  24  42  65  96 132 174 223 273 329 384
#     4  11  22  38  61  93 128 171 217 267 328 384
#     4  11  22  39  63  90 129 173 218 271 322 388
#     4  10  22  42  63  94 132 170 215 268 327 387
#
# _framework density 10.218442
#
# number of rings (size 3 to 8) (size 9 to 14) (size 15 to 20)
#    0.000    1.429    2.857    2.571    0.000    2.286 
#    0.000   10.000    0.000    0.000    0.000    0.000 
#    0.000    0.000    0.000    0.000    0.000    0.000 
#
# Total GULP energy -156125.425235 kJ/mol
# GULP energy per Si atom -5575.908044 kJ/mol
# Density = 1.019518 g / cm^3
# Si number density = 10.218442 Si / 1000 Ang^3
#
#
#
# Elastic Constant Matrix: (Units=GPa)
#
#
# Indices 1 2 3 4 5 6 
#
# 1 70.9785 28.9574 32.6399 0.0000 -5.5363 0.0000
# 2 28.9574 99.1635 27.6864 0.0000 -5.4695 0.0000
# 3 32.6399 27.6864 117.1659 0.0000 -8.2057 0.0000
# 4 0.0000 0.0000 0.0000 34.0937 0.0000 -0.1290
# 5 -5.5363 -5.4695 -8.2057 0.0000 41.7523 0.0000
# 6 0.0000 0.0000 0.0000 -0.1290 0.0000 21.1715
#
#
#
# Elastic Compliance Matrix: (Units=1/GPa)
#
#
# Indices 1 2 3 4 5 6 
#
# 1 0.017585 -0.003994 -0.003882 0.000000 0.001046 0.000000
# 2 -0.003994 0.011739 -0.001613 0.000000 0.000691 0.000000
# 3 -0.003882 -0.001613 0.010085 0.000000 0.001256 0.000000
# 4 0.000000 0.000000 0.000000 0.029332 0.000000 0.000179
# 5 0.001046 0.000691 0.001256 0.000000 0.024427 0.000000
# 6 0.000000 0.000000 0.000000 0.000179 0.000000 0.047234
#
#
# Mechanical properties :
#
#
# Convention : Reuss Voigt Hill
#
# Bulk Modulus (GPa) = 48.94192 51.76393 50.35293
# Shear Modulus (GPa) = 30.08614 32.60511 31.34563
#
# Velocity S-wave (km/s) = 3.84102 3.99859 3.92060
# Velocity P-wave (km/s) = 6.60841 6.83388 6.72209
#
# Compressibility (1/GPa) = 0.02043238
#
# Stress axis : x y z
#
# Youngs Moduli (GPa) = 56.86766 85.18601 99.15300
#
# Poissons Ratio (x) = 0.34020 0.38489
# Poissons Ratio (y) = 0.22710 0.15993
# Poissons Ratio (z) = 0.22075 0.13741
#
# Static dielectric constant tensor:
#      x y z
#    x 1.815600 0.000000 -0.003710 
#    y 0.000000 1.718750 0.000000 
#    z -0.003710 0.000000 1.745580 
# 
# From -- ./inp_files/34180.got.cif
#   From: 2010.05.17/outbox.ucp.g08.bks.cvg/sg15_18_cif.got.tgz:34180.got - 2010.06.11 12:40:34.
