data_PCOD9309332
_publ_section_title
;
Structure prediction by ZEFSAII (Michael W. Deem and Ramdas Pophale) SiO2 
 PCOD9309332
Probable space group: C 2/C
;
_chemical_formula_sum "Si O2"
_cell_formula_units_Z 32
_cell_length_a 18.000000
_cell_length_b 12.000000
_cell_length_c 15.000000
_cell_angle_alpha 90.000000
_cell_angle_beta 90.000000
_cell_angle_gamma 90.000000
_cell_volume 3240.000000
_symmetry_space_group_name_H-M "C 2/C"
_symmetry_group_IT_number 15
_symmetry_cell_setting 'monoclinic'
loop_
_space_group_symop_operation_xyz
x,y,z
-x,y,1/2-z
-x,-y,-z
x,-y,1/2+z
1/2+x,1/2+y,z
1/2-x,1/2+y,1/2-z
1/2-x,1/2-y,-z
1/2+x,1/2-y,1/2+z
loop_
_atom_site_type_symbol
_atom_site_label
_atom_site_fract_x
_atom_site_fract_y
_atom_site_fract_z
Si Si1 0.492350 0.384637 0.641215
Si Si2 0.815673 0.599259 0.485655
Si Si3 0.058161 0.237442 0.528812
Si Si4 0.848866 0.883260 0.814447
Si Si5 0.422086 0.371561 0.108128
Si Si6 0.133011 0.139915 0.704628
Si Si7 0.270616 0.621228 0.493958
Si Si8 0.278613 0.747193 0.152456
O O1 0.500000 0.372990 0.750000
O O2 0.442209 0.310412 0.573204
O O3 0.578782 0.355751 0.625272
O O4 0.467485 0.510762 0.616682
O O5 0.899091 0.644322 0.464634
O O6 0.792898 0.469923 0.483183
O O7 0.758570 0.656308 0.414555
O O8 0.803261 0.655895 0.583205
O O9 0.101897 0.165189 0.605108
O O10 0.973447 0.218385 0.557922
O O11 0.831938 0.806887 0.728118
O O12 0.860847 0.008363 0.780911
O O13 0.785870 0.893454 0.888639
O O14 0.412470 0.324803 0.208427
O O15 0.343869 0.395210 0.057449
O O16 0.211902 0.198966 0.708437
O O17 0.250000 0.750000 0.500000
#
# Coordination Sequence:
#
# PCOD9309332 Si02
#       8
#     8   8   8   8   8   8   8   8
#     4  12  22  34  62  98 133 168 214 287 346 403
#     4  10  23  41  64  93 132 175 226 270 356 408
#     4  11  22  38  60  96 133 175 217 280 347 419
#     4  12  21  38  59  97 133 167 225 278 344 396
#     4  12  22  38  63  98 135 175 226 279 344 400
#     4  11  21  37  60  96 135 176 220 277 340 405
#     4  12  26  44  66  94 133 180 230 287 343 419
#     4  10  22  37  64  93 132 174 214 279 332 415
#
# _framework density 9.8765429999999999
#
# number of rings (size 3 to 8) (size 9 to 14) (size 15 to 20)
#    0.000    0.750    5.000    3.750    3.500    0.000 
#    0.000    0.625    0.000    0.000    0.000    0.875 
#    0.000    0.000    0.000    0.000    0.000    0.000 
#
# Total GULP energy -178236.435379 kJ/mol
# GULP energy per Si atom -5569.888606 kJ/mol
# Density = 0.985406 g / cm^3
# Si number density = 9.876543 Si / 1000 Ang^3
#
#
#
# Elastic Constant Matrix: (Units=GPa)
#
#
# Indices 1 2 3 4 5 6 
#
# 1 89.6355 55.2477 43.0121 0.0000 19.8349 0.0000
# 2 55.2477 101.7568 26.0250 0.0000 11.6770 0.0000
# 3 43.0121 26.0250 115.9727 0.0000 15.6577 0.0000
# 4 0.0000 0.0000 0.0000 23.1959 0.0000 8.0307
# 5 19.8349 11.6770 15.6577 0.0000 44.2302 0.0000
# 6 0.0000 0.0000 0.0000 8.0307 0.0000 32.1742
#
#
#
# Elastic Compliance Matrix: (Units=1/GPa)
#
#
# Indices 1 2 3 4 5 6 
#
# 1 0.020193 -0.009178 -0.004762 0.000000 -0.004947 0.000000
# 2 -0.009178 0.014772 0.000063 0.000000 0.000194 0.000000
# 3 -0.004762 0.000063 0.010595 0.000000 -0.001632 0.000000
# 4 0.000000 0.000000 0.000000 0.047189 0.000000 -0.011778
# 5 -0.004947 0.000194 -0.001632 0.000000 0.025354 0.000000
# 6 0.000000 0.000000 0.000000 -0.011778 0.000000 0.034021
#
#
# Mechanical properties :
#
#
# Convention : Reuss Voigt Hill
#
# Bulk Modulus (GPa) = 56.15998 61.77050 58.96524
# Shear Modulus (GPa) = 26.90886 32.12540 29.51713
#
# Velocity S-wave (km/s) = 3.69489 4.03718 3.86982
# Velocity P-wave (km/s) = 6.83342 7.28498 7.06281
#
# Compressibility (1/GPa) = 0.01780627
#
# Stress axis : x y z
#
# Youngs Moduli (GPa) = 49.52269 67.69503 94.38448
#
# Poissons Ratio (x) = 0.62130 0.44943
# Poissons Ratio (y) = 0.45452 -0.00593
# Poissons Ratio (z) = 0.23581 -0.00425
#
# Static dielectric constant tensor:
#      x y z
#    x 1.866570 0.000000 -0.147210 
#    y 0.000000 1.713060 0.000000 
#    z -0.147210 0.000000 1.819610 
# 
# From -- ./inp_files/161355.got.cif
#   From: 2010.05.17/outbox.ucp.g08.bks.cvg/sg15_81_cif.got.tgz:161355.got - 2010.06.11 12:40:34.
