data_PCOD9309117
_publ_section_title
;
Structure prediction by ZEFSAII (Michael W. Deem and Ramdas Pophale) SiO2 
 PCOD9309117
Probable space group: C 2/C
;
_chemical_formula_sum "Si O2"
_cell_formula_units_Z 30
_cell_length_a 15.000000
_cell_length_b 24.000000
_cell_length_c 18.000000
_cell_angle_alpha 90.000000
_cell_angle_beta 30.000000
_cell_angle_gamma 90.000000
_cell_volume 3240.000000
_symmetry_space_group_name_H-M "C 2/C"
_symmetry_group_IT_number 15
_symmetry_cell_setting 'monoclinic'
loop_
_space_group_symop_operation_xyz
x,y,z
-x,y,1/2-z
-x,-y,-z
x,-y,1/2+z
1/2+x,1/2+y,z
1/2-x,1/2+y,1/2-z
1/2-x,1/2-y,-z
1/2+x,1/2-y,1/2+z
loop_
_atom_site_type_symbol
_atom_site_label
_atom_site_fract_x
_atom_site_fract_y
_atom_site_fract_z
Si Si1 0.746101 0.432592 0.405594
Si Si2 0.961231 0.728720 0.007202
Si Si3 0.845254 0.079269 0.198339
Si Si4 0.379866 0.188425 0.762810
Si Si5 0.298505 0.452084 0.892811
Si Si6 0.225157 0.313810 0.711570
Si Si7 0.500000 0.125043 0.250000
Si Si8 0.522333 0.026520 0.343501
O O1 0.537934 0.447671 0.543846
O O2 0.808164 0.375035 0.323198
O O3 0.748885 0.424803 0.493452
O O4 0.871244 0.482228 0.285602
O O5 0.791083 0.769718 0.115585
O O6 0.907706 0.696479 0.122158
O O7 0.009450 0.697055 0.894526
O O8 0.143726 0.761940 0.893763
O O9 0.811851 0.086506 0.310570
O O10 0.850176 0.137090 0.151775
O O11 0.675815 0.047188 0.288087
O O12 0.500000 0.199647 0.750000
O O13 0.500000 0.476743 0.750000
O O14 0.142225 0.496966 0.997233
O O15 0.131839 0.335557 0.703096
O O16 0.445292 0.079541 0.353003
#
# Coordination Sequence:
#
# PCOD9309117 Si02
#       8
#     8   8   8   8   8   8   4   8
#     4  11  21  37  58  88 120 165 198 244 303 372
#     4  10  23  42  61  88 123 153 210 260 296 370
#     4  10  22  37  59  86 120 163 199 251 306 357
#     4  11  22  38  59  88 122 161 201 245 307 361
#     4  10  21  36  55  85 122 156 198 243 295 361
#     4  10  22  42  65  89 121 157 205 257 313 358
#     4  10  22  40  70  86 120 160 202 254 316 352
#     4  11  20  39  61  86 121 157 206 246 301 370
#
# _framework density 9.2592590000000001
#
# number of rings (size 3 to 8) (size 9 to 14) (size 15 to 20)
#    0.000    1.600    2.667    2.000    3.733    0.533 
#    0.000    0.000    5.867    0.000    0.000    0.000 
#    0.000    0.000    0.000    0.000    0.000    0.000 
#
# Total GULP energy -167119.826720 kJ/mol
# GULP energy per Si atom -5570.660891 kJ/mol
# Density = 0.923818 g / cm^3
# Si number density = 9.259259 Si / 1000 Ang^3
#
#
#
# Elastic Constant Matrix: (Units=GPa)
#
#
# Indices 1 2 3 4 5 6 
#
# 1 101.2013 29.4700 33.1000 0.0068 2.5700 -0.0115
# 2 29.4700 50.8705 18.7883 -0.0008 -1.4383 0.0137
# 3 33.1000 18.7883 107.4868 0.0159 -1.1845 -0.0094
# 4 0.0068 -0.0008 0.0159 29.0106 0.0034 -2.5360
# 5 2.5700 -1.4383 -1.1845 0.0034 26.1864 0.0004
# 6 -0.0115 0.0137 -0.0094 -2.5360 0.0004 29.0436
#
#
#
# Elastic Compliance Matrix: (Units=1/GPa)
#
#
# Indices 1 2 3 4 5 6 
#
# 1 0.012700 -0.006366 -0.002817 -0.000001 -0.001723 0.000007
# 2 -0.006366 0.024231 -0.002255 0.000002 0.001854 -0.000015
# 3 -0.002817 -0.002255 0.010572 -0.000005 0.000631 0.000003
# 4 -0.000001 0.000002 -0.000005 0.034735 -0.000005 0.003033
# 5 -0.001723 0.001854 0.000631 -0.000005 0.038487 -0.000002
# 6 0.000007 -0.000015 0.000003 0.003033 -0.000002 0.034696
#
#
# Mechanical properties :
#
#
# Convention : Reuss Voigt Hill
#
# Bulk Modulus (GPa) = 40.60472 46.91947 43.76210
# Shear Modulus (GPa) = 26.80882 28.72815 27.76849
#
# Velocity S-wave (km/s) = 3.80896 3.94295 3.87654
# Velocity P-wave (km/s) = 6.42794 6.79122 6.61208
#
# Compressibility (1/GPa) = 0.02462768
#
# Stress axis : x y z
#
# Youngs Moduli (GPa) = 78.73903 41.27008 94.58860
#
# Poissons Ratio (x) = 0.26271 0.26648
# Poissons Ratio (y) = 0.50122 0.21327
# Poissons Ratio (z) = 0.22183 0.09305
#
# Static dielectric constant tensor:
#      x y z
#    x 1.677690 -0.000010 -0.017790 
#    y -0.000010 1.651960 0.000020 
#    z -0.017790 0.000020 1.614860 
# 
# From -- ./inp_files/42209.got.cif
#   From: 2010.05.17/outbox.ucp.g08.bks.cvg/sg15_22_cif.got.tgz:42209.got - 2010.06.11 12:40:34.
