data_PCOD9309351
_publ_section_title
;
Structure prediction by ZEFSAII (Michael W. Deem and Ramdas Pophale) SiO2 
 PCOD9309351
Probable space group: C 2/C
;
_chemical_formula_sum "Si O2"
_cell_formula_units_Z 22
_cell_length_a 15.000000
_cell_length_b 18.000000
_cell_length_c 24.000000
_cell_angle_alpha 90.000000
_cell_angle_beta 20.000000
_cell_angle_gamma 90.000000
_cell_volume 2216.290529
_symmetry_space_group_name_H-M "C 2/C"
_symmetry_group_IT_number 15
_symmetry_cell_setting 'monoclinic'
loop_
_space_group_symop_operation_xyz
x,y,z
-x,y,1/2-z
-x,-y,-z
x,-y,1/2+z
1/2+x,1/2+y,z
1/2-x,1/2+y,1/2-z
1/2-x,1/2-y,-z
1/2+x,1/2-y,1/2+z
loop_
_atom_site_type_symbol
_atom_site_label
_atom_site_fract_x
_atom_site_fract_y
_atom_site_fract_z
Si Si1 0.574272 0.859992 0.022730
Si Si2 0.187494 0.654116 0.942293
Si Si3 0.599318 0.991019 0.568855
Si Si4 0.510619 0.470113 0.056588
Si Si5 0.000000 0.742351 0.750000
Si Si6 0.864312 0.193555 0.636432
O O1 0.797073 0.798245 0.897647
O O2 0.461761 0.871581 0.026599
O O3 0.333269 0.824188 0.197668
O O4 0.683735 0.936826 0.983470
O O5 0.500000 0.665395 0.750000
O O6 0.155716 0.588290 0.006497
O O7 0.037496 0.732270 0.043068
O O8 0.762239 0.993615 0.532266
O O9 0.284068 0.005216 0.752409
O O10 0.534833 0.381059 0.035146
O O11 0.500000 0.500000 0.000000
O O12 0.178083 0.699272 0.690635
#
# Coordination Sequence:
#
# PCOD9309351 Si02
#       6
#     8   8   8   8   4   8
#     4  10  23  40  65 100 131 174 220 272 341 400
#     4  11  24  42  68 100 136 176 221 283 340 404
#     4  11  25  42  69  98 137 176 225 283 333 410
#     4  11  26  44  68  97 134 182 228 277 339 404
#     4  10  22  38  70  94 130 172 216 286 324 406
#     4  10  24  42  63  97 133 176 223 274 339 403
#
# _framework density 9.9264960000000002
#
# number of rings (size 3 to 8) (size 9 to 14) (size 15 to 20)
#    0.000    1.455    0.000    3.818   11.455    7.273 
#    0.000    0.000    0.000    0.000    0.000    0.000 
#    0.000    0.000    0.000    0.000    0.000    0.000 
#
# Total GULP energy -122656.898151 kJ/mol
# GULP energy per Si atom -5575.313552 kJ/mol
# Density = 0.990390 g / cm^3
# Si number density = 9.926496 Si / 1000 Ang^3
#
#
#
# Elastic Constant Matrix: (Units=GPa)
#
#
# Indices 1 2 3 4 5 6 
#
# 1 131.1919 56.5513 14.1932 -0.1529 -21.6145 -0.1890
# 2 56.5513 136.4391 35.0212 0.1598 1.9723 -0.0407
# 3 14.1932 35.0212 51.1128 -0.2398 -9.5638 -0.2081
# 4 -0.1529 0.1598 -0.2398 10.8271 0.1304 -5.6338
# 5 -21.6145 1.9723 -9.5638 0.1304 39.2363 0.1360
# 6 -0.1890 -0.0407 -0.2081 -5.6338 0.1360 36.9736
#
#
#
# Elastic Compliance Matrix: (Units=1/GPa)
#
#
# Indices 1 2 3 4 5 6 
#
# 1 0.010641 -0.004925 0.001639 0.000216 0.006508 0.000067
# 2 -0.004925 0.011330 -0.007347 -0.000388 -0.005072 -0.000094
# 3 0.001639 -0.007347 0.025550 0.000725 0.007497 0.000227
# 4 0.000216 -0.000388 0.000725 0.100345 -0.000071 0.015295
# 5 0.006508 -0.005072 0.007497 -0.000071 0.031154 -0.000056
# 6 0.000067 -0.000094 0.000227 0.015295 -0.000056 0.029379
#
#
# Mechanical properties :
#
#
# Convention : Reuss Voigt Hill
#
# Bulk Modulus (GPa) = 38.08784 58.91946 48.50365
# Shear Modulus (GPa) = 20.97162 31.60593 26.28877
#
# Velocity S-wave (km/s) = 3.25367 3.99431 3.64286
# Velocity P-wave (km/s) = 5.77423 7.14248 6.49449
#
# Compressibility (1/GPa) = 0.02625510
#
# Stress axis : x y z
#
# Youngs Moduli (GPa) = 93.97779 88.25917 39.13843
#
# Poissons Ratio (x) = 0.43471 -0.06415
# Poissons Ratio (y) = 0.46288 0.28754
# Poissons Ratio (z) = -0.15403 0.64842
#
# Static dielectric constant tensor:
#      x y z
#    x 1.709360 0.000010 0.061500 
#    y 0.000010 1.696910 0.000340 
#    z 0.061500 0.000340 1.666940 
# 
# From -- ./inp_files/274773.got.cif
#   From: 2010.05.17/outbox.ucp.g08.bks.cvg/sg15_138_cif.got.tgz:274773.got - 2010.06.11 12:40:34.
