data_PCOD9309825
_publ_section_title
;
Structure prediction by ZEFSAII (Michael W. Deem and Ramdas Pophale) SiO2 
 PCOD9309825
Probable space group: C 2/C
;
_chemical_formula_sum "Si O2"
_cell_formula_units_Z 24
_cell_length_a 18.000000
_cell_length_b 9.000000
_cell_length_c 30.000000
_cell_angle_alpha 90.000000
_cell_angle_beta 30.000000
_cell_angle_gamma 90.000000
_cell_volume 2430.000000
_symmetry_space_group_name_H-M "C 2/C"
_symmetry_group_IT_number 15
_symmetry_cell_setting 'monoclinic'
loop_
_space_group_symop_operation_xyz
x,y,z
-x,y,1/2-z
-x,-y,-z
x,-y,1/2+z
1/2+x,1/2+y,z
1/2-x,1/2+y,1/2-z
1/2-x,1/2-y,-z
1/2+x,1/2-y,1/2+z
loop_
_atom_site_type_symbol
_atom_site_label
_atom_site_fract_x
_atom_site_fract_y
_atom_site_fract_z
Si Si1 0.036194 0.500177 0.867517
Si Si2 0.691743 0.500455 0.204126
Si Si3 0.045021 0.833522 0.118677
Si Si4 0.464858 0.385436 0.059358
Si Si5 0.895973 0.667510 0.759593
Si Si6 0.179788 0.399898 0.457702
O O1 0.183488 0.491002 0.821633
O O2 0.047126 0.597314 0.816967
O O3 0.991428 0.335963 0.874381
O O4 0.908784 0.531539 0.970608
O O5 0.577227 0.382171 0.282318
O O6 0.605080 0.655187 0.244266
O O7 0.752543 0.455996 0.123919
O O8 0.198027 0.848569 0.068219
O O9 0.013781 0.920481 0.086706
O O10 0.284536 0.367257 0.147551
O O11 0.500000 0.500000 0.000000
O O12 0.563097 0.232535 0.004124
O O13 0.000000 0.627455 0.750000
#
# Coordination Sequence:
#
# PCOD9309825 Si02
#       6
#     8   8   8   8   8   8
#     4  11  23  45  69  95 135 180 219 279 334 392
#     4  12  23  48  66 102 136 179 220 276 339 405
#     4  11  24  45  72  98 133 180 233 267 333 413
#     4  11  25  43  67 104 133 170 230 283 332 397
#     4  12  27  43  65 101 139 171 223 281 344 392
#     4  11  25  44  74  97 135 182 231 272 332 413
#
# _framework density 9.8765429999999999
#
# number of rings (size 3 to 8) (size 9 to 14) (size 15 to 20)
#    0.000    0.667    5.000    4.000    7.000    1.333 
#    0.000    1.667    0.000    0.000    0.000    0.000 
#    0.000    0.000    0.000    0.000    0.000    0.000 
#
# Total GULP energy -133637.008084 kJ/mol
# GULP energy per Si atom -5568.208670 kJ/mol
# Density = 0.985406 g / cm^3
# Si number density = 9.876543 Si / 1000 Ang^3
#
#
#
# Elastic Constant Matrix: (Units=GPa)
#
#
# Indices 1 2 3 4 5 6 
#
# 1 210.4564 42.9701 67.1413 0.0000 4.6593 0.0002
# 2 42.9701 57.7943 48.9726 -0.0001 19.8764 0.0003
# 3 67.1413 48.9726 133.5052 -0.0002 19.6082 -0.0001
# 4 0.0000 -0.0001 -0.0002 35.7389 0.0000 13.8121
# 5 4.6593 19.8764 19.6082 0.0000 61.9996 -0.0001
# 6 0.0002 0.0003 -0.0001 13.8121 -0.0001 36.2592
#
#
#
# Elastic Compliance Matrix: (Units=1/GPa)
#
#
# Indices 1 2 3 4 5 6 
#
# 1 0.006023 -0.003158 -0.002048 0.000000 0.001207 0.000000
# 2 -0.003158 0.028604 -0.007962 0.000000 -0.006415 0.000000
# 3 -0.002048 -0.007962 0.011581 0.000000 -0.000956 0.000000
# 4 0.000000 0.000000 0.000000 0.032811 0.000000 -0.012499
# 5 0.001207 -0.006415 -0.000956 0.000000 0.018397 0.000000
# 6 0.000000 0.000000 0.000000 -0.012499 0.000000 0.032340
#
#
# Mechanical properties :
#
#
# Convention : Reuss Voigt Hill
#
# Bulk Modulus (GPa) = 50.32245 79.99155 65.15700
# Shear Modulus (GPa) = 30.72828 42.97767 36.85297
#
# Velocity S-wave (km/s) = 3.94841 4.66955 4.32404
# Velocity P-wave (km/s) = 6.80571 8.34605 7.61493
#
# Compressibility (1/GPa) = 0.01987185
#
# Stress axis : x y z
#
# Youngs Moduli (GPa) = 166.03054 34.96065 86.34526
#
# Poissons Ratio (x) = 0.11041 0.17683
# Poissons Ratio (y) = 0.52433 0.68749
# Poissons Ratio (z) = 0.34002 0.27836
#
# Static dielectric constant tensor:
#      x y z
#    x 1.713690 0.000000 -0.012190 
#    y 0.000000 1.717740 0.000000 
#    z -0.012190 0.000000 1.784680 
# 
# From -- ./inp_files/315613.got.cif
#   From: 2010.05.17/outbox.ucp.g08.bks.cvg/sg15_158_cif.got.tgz:315613.got - 2010.06.11 12:40:34.
