data_PCOD9309942
_publ_section_title
;
Structure prediction by ZEFSAII (Michael W. Deem and Ramdas Pophale) SiO2 
 PCOD9309942
Probable space group: P 2 2 2
;
_chemical_formula_sum "Si O2"
_cell_formula_units_Z 25
_cell_length_a 6.546090
_cell_length_b 13.771654
_cell_length_c 14.427103
_cell_angle_alpha 90.000000
_cell_angle_beta 90.000000
_cell_angle_gamma 90.000000
_cell_volume 1300.610355
_symmetry_space_group_name_H-M "P 2 2 2"
_symmetry_group_IT_number 16
_symmetry_cell_setting 'orthorhombic'
loop_
_space_group_symop_operation_xyz
x,y,z
-x,-y,z
x,-y,-z
-x,y,-z
loop_
_atom_site_type_symbol
_atom_site_label
_atom_site_fract_x
_atom_site_fract_y
_atom_site_fract_z
Si Si1 0.500000 0.320487 0.000000
Si Si2 0.000000 0.213176 0.500000
Si Si3 0.445637 0.105923 0.200487
Si Si4 0.613897 0.151368 0.591519
Si Si5 0.275010 0.296898 0.830536
Si Si6 0.672038 0.331448 0.381483
Si Si7 0.882218 0.796691 0.086082
Si Si8 0.500000 0.500000 0.500000
O O1 0.603378 0.362306 0.093634
O O2 0.306996 0.260187 0.039354
O O3 0.149292 0.152724 0.434077
O O4 0.145404 0.276405 0.565983
O O5 0.434326 0.102532 0.311592
O O6 0.606663 0.191727 0.174698
O O7 0.225358 0.135500 0.160571
O O8 0.500000 0.000000 0.163139
O O9 0.500000 0.113407 0.500000
O O10 0.526895 0.261628 0.605754
O O11 0.283621 0.339178 0.727447
O O12 0.046038 0.273804 0.864693
O O13 0.631666 0.431320 0.433418
O O14 0.000000 0.845667 0.000000
#
# Coordination Sequence:
#
# PCOD9309942 Si02
#       8
#     2   2   4   4   4   4   4   1
#     4   8  16  32  57  77 100 134 186 224 266 321
#     4  10  16  33  54  73 100 148 174 216 265 317
#     4  10  20  32  48  72 105 141 181 226 271 316
#     4   9  18  34  51  72 100 141 182 220 264 313
#     4   9  18  34  53  75 104 142 179 222 273 313
#     4  10  20  33  53  78 113 140 170 216 265 327
#     4   9  17  33  52  75 102 137 182 227 270 323
#     4  12  20  38  52  86 120 132 172 210 268 330
#
# _framework density 19.221744000000001
#
# number of rings (size 3 to 8) (size 9 to 14) (size 15 to 20)
#    0.000    2.560    2.400    0.960    0.000    1.280 
#    0.000   18.400    0.000    9.120    0.000    0.000 
#    0.000    0.000    0.000    0.000    0.000    0.000 
#
# Total GULP energy -139203.932050 kJ/mol
# GULP energy per Si atom -5568.157282 kJ/mol
# Density = 1.917799 g / cm^3
# Si number density = 19.221744 Si / 1000 Ang^3
#
#
#
# Elastic Constant Matrix: (Units=GPa)
#
#
# Indices 1 2 3 4 5 6 
#
# 1 102.2186 9.1745 23.9187 0.0000 0.0000 0.0000
# 2 9.1745 39.4057 7.8248 0.0000 0.0000 0.0000
# 3 23.9187 7.8248 129.4235 0.0000 0.0000 0.0000
# 4 0.0000 0.0000 0.0000 -34.4064 0.0000 0.0000
# 5 0.0000 0.0000 0.0000 0.0000 27.7683 0.0000
# 6 0.0000 0.0000 0.0000 0.0000 0.0000 -1.0574
#
#
#
# Elastic Compliance Matrix: (Units=1/GPa)
#
#
# Indices 1 2 3 4 5 6 
#
# 1 0.010388 -0.002062 -0.001795 0.000000 0.000000 0.000000
# 2 -0.002062 0.026095 -0.001197 0.000000 0.000000 0.000000
# 3 -0.001795 -0.001197 0.008131 0.000000 0.000000 0.000000
# 4 0.000000 0.000000 0.000000 -0.029064 0.000000 0.000000
# 5 0.000000 0.000000 0.000000 0.000000 0.036012 0.000000
# 6 0.000000 0.000000 0.000000 0.000000 0.000000 -0.945730
#
#
# Mechanical properties :
#
#
# Convention : Reuss Voigt Hill
#
# Bulk Modulus (GPa) = 28.98057 39.20932 34.09495
# Shear Modulus (GPa) = -5.73027 13.80289 4.03631
#
# Velocity S-wave (km/s) = -1.72847 2.68262 1.45066
# Velocity P-wave (km/s) = 3.33560 5.48069 4.53675
#
# Compressibility (1/GPa) = 0.03450588
#
# Stress axis : x y z
#
# Youngs Moduli (GPa) = 96.26406 38.32189 122.99102
#
# Poissons Ratio (x) = 0.07902 0.22079
# Poissons Ratio (y) = 0.19851 0.14717
# Poissons Ratio (z) = 0.17281 0.04585
#
# Static dielectric constant tensor:
#      x y z
#    x 1.673420 0.000000 0.000000 
#    y 0.000000 1.661000 0.000000 
#    z 0.000000 0.000000 1.714120 
# 
# From -- ./inp_files/7615.got.cif
#   From: 2010.05.17/outbox.cif.g08.bks.cpg/sg16_4_cif.got.tgz:7615.got - 2010.06.03 22:28:35.
