data_PCOD9309156
_publ_section_title
;
Structure prediction by ZEFSAII (Michael W. Deem and Ramdas Pophale) SiO2 
 PCOD9309156
Probable space group: C 2/C
;
_chemical_formula_sum "Si O2"
_cell_formula_units_Z 28
_cell_length_a 15.000000
_cell_length_b 21.000000
_cell_length_c 18.000000
_cell_angle_alpha 90.000000
_cell_angle_beta 150.000000
_cell_angle_gamma 90.000000
_cell_volume 2835.000000
_symmetry_space_group_name_H-M "C 2/C"
_symmetry_group_IT_number 15
_symmetry_cell_setting 'monoclinic'
loop_
_space_group_symop_operation_xyz
x,y,z
-x,y,1/2-z
-x,-y,-z
x,-y,1/2+z
1/2+x,1/2+y,z
1/2-x,1/2+y,1/2-z
1/2-x,1/2-y,-z
1/2+x,1/2-y,1/2+z
loop_
_atom_site_type_symbol
_atom_site_label
_atom_site_fract_x
_atom_site_fract_y
_atom_site_fract_z
Si Si1 0.668878 0.567335 0.322061
Si Si2 0.770758 0.809592 0.735758
Si Si3 0.814759 0.537456 0.841938
Si Si4 0.515081 0.927544 0.349917
Si Si5 0.412863 0.729857 0.491337
Si Si6 0.561724 0.216948 0.876799
Si Si7 0.368703 0.339835 0.221035
O O1 0.500000 0.585717 0.250000
O O2 0.722391 0.626285 0.307353
O O3 0.658098 0.509280 0.256051
O O4 0.808991 0.542637 0.485942
O O5 0.582815 0.773386 0.589369
O O6 0.924655 0.763533 0.816291
O O7 0.826420 0.813009 0.862956
O O8 0.847147 0.549164 0.777520
O O9 0.763269 0.604968 0.842854
O O10 0.000000 0.500000 0.000000
O O11 0.500000 0.935365 0.250000
O O12 0.551373 0.854025 0.400305
O O13 0.501131 0.687368 0.619923
O O14 0.256495 0.780900 0.396895
O O15 0.500000 0.205267 0.750000
O O16 0.750000 0.250000 0.000000
O O17 0.500000 0.362052 0.250000
#
# Coordination Sequence:
#
# PCOD9309156 Si02
#       7
#     8   8   8   8   8   8   8
#     4  11  22  37  57  84 117 158 202 248 294 352
#     4  11  20  36  57  87 125 162 202 255 317 377
#     4  10  22  41  61  83 118 165 205 243 298 369
#     4  10  21  38  59  82 112 152 194 240 301 366
#     4  10  22  37  62  92 121 159 205 262 325 379
#     4  11  20  30  51  84 116 146 184 239 303 366
#     4  11  22  41  65  92 124 162 209 265 321 377
#
# _framework density 9.8765429999999999
#
# number of rings (size 3 to 8) (size 9 to 14) (size 15 to 20)
#    0.000    1.429    0.000    8.143    0.000    3.429 
#    0.000    5.714    0.000    4.286    0.000    0.000 
#    0.000    0.000    0.000    0.000    0.000    0.000 
#
# Total GULP energy -155918.169161 kJ/mol
# GULP energy per Si atom -5568.506041 kJ/mol
# Density = 0.985406 g / cm^3
# Si number density = 9.876543 Si / 1000 Ang^3
#
#
#
# Elastic Constant Matrix: (Units=GPa)
#
#
# Indices 1 2 3 4 5 6 
#
# 1 124.3000 42.3030 29.7048 0.0037 -5.1654 0.0033
# 2 42.3030 68.9208 14.5776 0.0043 -19.8319 0.0089
# 3 29.7048 14.5776 86.4068 0.0200 -7.7720 0.0177
# 4 0.0037 0.0043 0.0200 22.0207 -0.0029 10.5732
# 5 -5.1654 -19.8319 -7.7720 -0.0029 27.3374 -0.0005
# 6 0.0033 0.0089 0.0177 10.5732 -0.0005 45.8959
#
#
#
# Elastic Compliance Matrix: (Units=1/GPa)
#
#
# Indices 1 2 3 4 5 6 
#
# 1 0.011079 -0.007352 -0.002935 0.000001 -0.004074 0.000001
# 2 -0.007352 0.023541 -0.000034 0.000001 0.015679 -0.000004
# 3 -0.002935 -0.000034 0.012865 -0.000010 0.003078 -0.000003
# 4 0.000001 0.000001 -0.000010 0.051060 0.000003 -0.011763
# 5 -0.004074 0.015679 0.003078 0.000003 0.048059 -0.000004
# 6 0.000001 -0.000004 -0.000003 -0.011763 -0.000004 0.024498
#
#
# Mechanical properties :
#
#
# Convention : Reuss Voigt Hill
#
# Bulk Modulus (GPa) = 37.25342 50.31092 43.78217
# Shear Modulus (GPa) = 24.91392 31.92030 28.41711
#
# Velocity S-wave (km/s) = 3.55529 4.02427 3.79702
# Velocity P-wave (km/s) = 5.97946 6.86427 6.43708
#
# Compressibility (1/GPa) = 0.02684317
#
# Stress axis : x y z
#
# Youngs Moduli (GPa) = 90.25923 42.47972 77.73188
#
# Poissons Ratio (x) = 0.31231 0.22814
# Poissons Ratio (y) = 0.66358 0.00263
# Poissons Ratio (z) = 0.26490 0.00144
#
# Static dielectric constant tensor:
#      x y z
#    x 1.725260 -0.000240 0.005870 
#    y -0.000240 1.474870 0.000550 
#    z 0.005870 0.000550 1.670340 
# 
# From -- ./inp_files/207007.got.cif
#   From: 2010.05.17/outbox.ucp.g08.bks.cvg/sg15_104_cif.got.tgz:207007.got - 2010.06.11 12:40:34.
