data_PCOD9309191
_publ_section_title
;
Structure prediction by ZEFSAII (Michael W. Deem and Ramdas Pophale) SiO2 
 PCOD9309191
Probable space group: C 2/C
;
_chemical_formula_sum "Si O2"
_cell_formula_units_Z 20
_cell_length_a 12.000000
_cell_length_b 18.000000
_cell_length_c 18.000000
_cell_angle_alpha 90.000000
_cell_angle_beta 30.000000
_cell_angle_gamma 90.000000
_cell_volume 1944.000000
_symmetry_space_group_name_H-M "C 2/C"
_symmetry_group_IT_number 15
_symmetry_cell_setting 'monoclinic'
loop_
_space_group_symop_operation_xyz
x,y,z
-x,y,1/2-z
-x,-y,-z
x,-y,1/2+z
1/2+x,1/2+y,z
1/2-x,1/2+y,1/2-z
1/2-x,1/2-y,-z
1/2+x,1/2-y,1/2+z
loop_
_atom_site_type_symbol
_atom_site_label
_atom_site_fract_x
_atom_site_fract_y
_atom_site_fract_z
Si Si1 0.435698 0.485905 0.620088
Si Si2 0.810525 0.406323 0.129256
Si Si3 0.315240 0.152989 0.288691
Si Si4 0.392423 0.235831 0.491514
Si Si5 0.770155 0.050142 0.421959
O O1 0.500000 0.500000 0.500000
O O2 0.348703 0.557766 0.715906
O O3 0.246937 0.422997 0.717845
O O4 0.653195 0.456761 0.538030
O O5 0.789713 0.469058 0.077159
O O6 0.775851 0.328526 0.108507
O O7 0.056037 0.402823 0.023752
O O8 0.500000 0.143781 0.250000
O O9 0.389059 0.204586 0.176045
O O10 0.114662 0.192707 0.450460
O O11 0.250000 0.250000 0.500000
O O12 0.000000 0.075153 0.250000
#
# Coordination Sequence:
#
# PCOD9309191 Si02
#       5
#     8   8   8   8   8
#     4  11  25  36  63  95 134 169 229 268 323 390
#     4  10  21  39  64  88 126 170 214 274 322 385
#     4  10  23  39  61  93 129 168 212 275 324 385
#     4  10  22  38  64  89 128 165 212 263 335 385
#     4   9  19  36  61  88 118 163 219 260 326 379
#
# _framework density 10.288066000000001
#
# number of rings (size 3 to 8) (size 9 to 14) (size 15 to 20)
#    0.000    2.000    0.000    3.600   11.200    5.600 
#    0.000    1.000    0.000    0.000    0.000    0.000 
#    0.000    0.000    0.000    0.000    0.000    0.000 
#
# Total GULP energy -111413.258131 kJ/mol
# GULP energy per Si atom -5570.662907 kJ/mol
# Density = 1.026465 g / cm^3
# Si number density = 10.288066 Si / 1000 Ang^3
#
#
#
# Elastic Constant Matrix: (Units=GPa)
#
#
# Indices 1 2 3 4 5 6 
#
# 1 148.4903 24.5027 42.1250 -0.0300 13.9869 0.0142
# 2 24.5027 53.3680 27.2444 0.0018 18.2179 0.0177
# 3 42.1250 27.2444 75.8670 -0.1414 10.5910 -0.0017
# 4 -0.0300 0.0018 -0.1414 33.7459 0.0761 11.2389
# 5 13.9869 18.2179 10.5910 0.0761 41.6253 -0.0259
# 6 0.0142 0.0177 -0.0017 11.2389 -0.0259 23.1888
#
#
#
# Elastic Compliance Matrix: (Units=1/GPa)
#
#
# Indices 1 2 3 4 5 6 
#
# 1 0.008172 -0.001375 -0.003882 -0.000005 -0.001156 -0.000003
# 2 -0.001375 0.026267 -0.007391 -0.000003 -0.009153 -0.000028
# 3 -0.003882 -0.007391 0.017996 0.000083 -0.000040 -0.000031
# 4 -0.000005 -0.000003 0.000083 0.035338 -0.000093 -0.017127
# 5 -0.001156 -0.009153 -0.000040 -0.000093 0.028429 0.000085
# 6 -0.000003 -0.000028 -0.000031 -0.017127 0.000085 0.051426
#
#
# Mechanical properties :
#
#
# Convention : Reuss Voigt Hill
#
# Bulk Modulus (GPa) = 36.84876 51.71884 44.28380
# Shear Modulus (GPa) = 24.75609 31.96888 28.36248
#
# Velocity S-wave (km/s) = 3.47240 3.94596 3.71673
# Velocity P-wave (km/s) = 5.83302 6.77870 6.32356
#
# Compressibility (1/GPa) = 0.02713795
#
# Stress axis : x y z
#
# Youngs Moduli (GPa) = 122.37559 38.07029 55.56677
#
# Poissons Ratio (x) = 0.05236 0.21571
# Poissons Ratio (y) = 0.16831 0.41071
# Poissons Ratio (z) = 0.47506 0.28139
#
# Static dielectric constant tensor:
#      x y z
#    x 1.689930 0.000040 0.002560 
#    y 0.000040 1.850190 0.000050 
#    z 0.002560 0.000050 1.846850 
# 
# From -- ./inp_files/199670.got.cif
#   From: 2010.05.17/outbox.ucp.g08.bks.cvg/sg15_100_cif.got.tgz:199670.got - 2010.06.11 12:40:34.
