data_PCOD9309740
_publ_section_title
;
Structure prediction by ZEFSAII (Michael W. Deem and Ramdas Pophale) SiO2 
 PCOD9309740
Probable space group: C 2/C
;
_chemical_formula_sum "Si O2"
_cell_formula_units_Z 20
_cell_length_a 15.000000
_cell_length_b 15.000000
_cell_length_c 9.000000
_cell_angle_alpha 90.000000
_cell_angle_beta 70.000000
_cell_angle_gamma 90.000000
_cell_volume 1902.877557
_symmetry_space_group_name_H-M "C 2/C"
_symmetry_group_IT_number 15
_symmetry_cell_setting 'monoclinic'
loop_
_space_group_symop_operation_xyz
x,y,z
-x,y,1/2-z
-x,-y,-z
x,-y,1/2+z
1/2+x,1/2+y,z
1/2-x,1/2+y,1/2-z
1/2-x,1/2-y,-z
1/2+x,1/2-y,1/2+z
loop_
_atom_site_type_symbol
_atom_site_label
_atom_site_fract_x
_atom_site_fract_y
_atom_site_fract_z
Si Si1 0.934025 0.939922 0.643966
Si Si2 0.151878 0.303035 0.076478
Si Si3 0.052151 0.258922 0.442756
Si Si4 0.101917 0.409458 0.626979
Si Si5 0.784825 0.534330 0.147570
O O1 0.921915 0.845120 0.569381
O O2 0.829135 0.974939 0.756862
O O3 0.000000 0.922479 0.750000
O O4 0.000000 0.000000 0.500000
O O5 0.110771 0.295984 0.266358
O O6 0.060510 0.272767 0.029377
O O7 0.250000 0.250000 0.000000
O O8 0.187748 0.398508 0.001454
O O9 0.078536 0.311143 0.577431
O O10 0.153560 0.451975 0.451600
O O11 0.171982 0.424005 0.725834
O O12 0.000000 0.445863 0.750000
#
# Coordination Sequence:
#
# PCOD9309740 Si02
#       5
#     8   8   8   8   8
#     4  12  26  50  72 101 141 185 240 293 355 427
#     4  11  21  43  72  98 138 183 234 284 352 418
#     4  11  24  43  71 102 139 183 233 296 346 420
#     4  12  26  43  69 108 147 183 237 295 357 422
#     4  12  25  45  72 105 143 192 235 291 362 425
#
# _framework density 10.510398
#
# number of rings (size 3 to 8) (size 9 to 14) (size 15 to 20)
#    0.000    0.400    6.000    3.000    2.800    3.200 
#    0.000    0.000    0.000    0.000    0.000    0.000 
#    0.000    0.000    0.000    0.000    0.000    0.000 
#
# Total GULP energy -111602.907925 kJ/mol
# GULP energy per Si atom -5580.145396 kJ/mol
# Density = 1.048648 g / cm^3
# Si number density = 10.510398 Si / 1000 Ang^3
#
#
#
# Elastic Constant Matrix: (Units=GPa)
#
#
# Indices 1 2 3 4 5 6 
#
# 1 137.3353 19.4457 50.9378 0.0000 -35.9049 0.0000
# 2 19.4457 110.3208 52.4192 0.0000 -10.7211 0.0000
# 3 50.9378 52.4192 124.0673 0.0000 -26.2659 0.0000
# 4 0.0000 0.0000 0.0000 40.5028 0.0000 -4.5662
# 5 -35.9049 -10.7211 -26.2659 0.0000 60.7748 0.0000
# 6 0.0000 0.0000 0.0000 -4.5662 0.0000 25.5481
#
#
#
# Elastic Compliance Matrix: (Units=1/GPa)
#
#
# Indices 1 2 3 4 5 6 
#
# 1 0.009528 0.000206 -0.003081 0.000000 0.004334 0.000000
# 2 0.000206 0.011346 -0.004875 0.000000 0.000016 0.000000
# 3 -0.003081 -0.004875 0.011907 0.000000 0.002466 0.000000
# 4 0.000000 0.000000 0.000000 0.025197 0.000000 0.004504
# 5 0.004334 0.000016 0.002466 0.000000 0.020083 0.000000
# 6 0.000000 0.000000 0.000000 0.004504 0.000000 0.039947
#
#
# Mechanical properties :
#
#
# Convention : Reuss Voigt Hill
#
# Bulk Modulus (GPa) = 57.86947 68.59208 63.23077
# Shear Modulus (GPa) = 35.90168 41.95985 38.93077
#
# Velocity S-wave (km/s) = 4.13717 4.47263 4.30817
# Velocity P-wave (km/s) = 7.10007 7.70545 7.40895
#
# Compressibility (1/GPa) = 0.01728027
#
# Stress axis : x y z
#
# Youngs Moduli (GPa) = 104.95134 88.13621 83.98489
#
# Poissons Ratio (x) = -0.01814 0.25880
# Poissons Ratio (y) = -0.02160 0.40941
# Poissons Ratio (z) = 0.32340 0.42965
#
# Static dielectric constant tensor:
#      x y z
#    x 1.784780 0.000000 0.007690 
#    y 0.000000 1.984470 0.000000 
#    z 0.007690 0.000000 1.732890 
# 
# From -- ./inp_files/37861.got.cif
#   From: 2010.05.17/outbox.ucp.g08.bks.cvg/sg15_19_cif.got.tgz:37861.got - 2010.06.11 12:40:34.
