data_PCOD9309231
_publ_section_title
;
Structure prediction by ZEFSAII (Michael W. Deem and Ramdas Pophale) SiO2 
 PCOD9309231
Probable space group: C 2/C
;
_chemical_formula_sum "Si O2"
_cell_formula_units_Z 24
_cell_length_a 12.000000
_cell_length_b 12.000000
_cell_length_c 24.000000
_cell_angle_alpha 90.000000
_cell_angle_beta 50.000000
_cell_angle_gamma 90.000000
_cell_volume 2647.449595
_symmetry_space_group_name_H-M "C 2/C"
_symmetry_group_IT_number 15
_symmetry_cell_setting 'monoclinic'
loop_
_space_group_symop_operation_xyz
x,y,z
-x,y,1/2-z
-x,-y,-z
x,-y,1/2+z
1/2+x,1/2+y,z
1/2-x,1/2+y,1/2-z
1/2-x,1/2-y,-z
1/2+x,1/2-y,1/2+z
loop_
_atom_site_type_symbol
_atom_site_label
_atom_site_fract_x
_atom_site_fract_y
_atom_site_fract_z
Si Si1 0.111414 0.809474 0.763894
Si Si2 0.432633 0.274194 0.124841
Si Si3 0.418623 0.138032 0.893880
Si Si4 0.084536 0.399148 0.662375
Si Si5 0.390647 0.544490 0.124734
Si Si6 0.086851 0.218814 0.995912
O O1 0.270207 0.773468 0.690305
O O2 0.125705 0.900661 0.808539
O O3 0.000000 0.843476 0.750000
O O4 0.034135 0.705207 0.819300
O O5 0.536042 0.208308 0.138137
O O6 0.421006 0.411836 0.126078
O O7 0.472675 0.251239 0.046699
O O8 0.434549 0.178810 0.953337
O O9 0.439753 0.009123 0.869040
O O10 0.256161 0.184474 0.932624
O O11 0.249041 0.422428 0.632748
O O12 0.000000 0.395221 0.750000
O O13 0.516457 0.611121 0.050027
#
# Coordination Sequence:
#
# PCOD9309231 Si02
#       6
#     8   8   8   8   8   8
#     4  11  21  40  66  90 122 173 218 278 325 393
#     4  12  24  40  69  96 129 171 224 267 337 397
#     4  10  21  40  68  89 130 172 222 264 334 398
#     4  12  24  42  67  97 129 173 218 272 333 394
#     4  11  24  43  62  92 139 167 213 277 335 392
#     4  10  22  41  64  96 126 176 217 268 331 401
#
# _framework density 9.0653279999999992
#
# number of rings (size 3 to 8) (size 9 to 14) (size 15 to 20)
#    0.000    1.000    5.000    2.000    0.000    2.000 
#    0.000    0.000    0.000    0.000    0.000    0.000 
#    0.000    0.000    0.000    0.000    0.000    0.000 
#
# Total GULP energy -133687.983232 kJ/mol
# GULP energy per Si atom -5570.332635 kJ/mol
# Density = 0.904470 g / cm^3
# Si number density = 9.065328 Si / 1000 Ang^3
#
#
#
# Elastic Constant Matrix: (Units=GPa)
#
#
# Indices 1 2 3 4 5 6 
#
# 1 116.0781 59.6144 29.7300 0.0000 27.5711 0.0000
# 2 59.6144 131.6108 38.6422 0.0000 22.2515 0.0000
# 3 29.7300 38.6422 98.4135 0.0000 30.1709 0.0000
# 4 0.0000 0.0000 0.0000 28.4607 0.0000 7.4730
# 5 27.5711 22.2515 30.1709 0.0000 43.5269 0.0000
# 6 0.0000 0.0000 0.0000 7.4730 0.0000 30.9785
#
#
#
# Elastic Compliance Matrix: (Units=1/GPa)
#
#
# Indices 1 2 3 4 5 6 
#
# 1 0.012295 -0.004595 -0.000308 0.000000 -0.005225 0.000000
# 2 -0.004595 0.010545 -0.002530 0.000000 -0.000727 0.000000
# 3 -0.000308 -0.002530 0.013703 0.000000 -0.008010 0.000000
# 4 0.000000 0.000000 0.000000 0.037512 0.000000 -0.009049
# 5 -0.005225 -0.000727 -0.008010 0.000000 0.032208 0.000000
# 6 0.000000 0.000000 0.000000 -0.009049 0.000000 0.034463
#
#
# Mechanical properties :
#
#
# Convention : Reuss Voigt Hill
#
# Bulk Modulus (GPa) = 46.13033 66.89729 56.51381
# Shear Modulus (GPa) = 30.70909 35.13426 32.92168
#
# Velocity S-wave (km/s) = 4.12000 4.40686 4.26585
# Velocity P-wave (km/s) = 6.93766 7.92915 7.44991
#
# Compressibility (1/GPa) = 0.02167771
#
# Stress axis : x y z
#
# Youngs Moduli (GPa) = 81.33482 94.83002 72.97566
#
# Poissons Ratio (x) = 0.43576 0.02247
# Poissons Ratio (y) = 0.37375 0.18460
# Poissons Ratio (z) = 0.02505 0.23988
#
# Static dielectric constant tensor:
#      x y z
#    x 1.677910 0.000000 -0.011350 
#    y 0.000000 1.632530 0.000000 
#    z -0.011350 0.000000 1.633640 
# 
# From -- ./inp_files/196227.got.cif
#   From: 2010.05.17/outbox.ucp.g08.bks.cvg/sg15_99_cif.got.tgz:196227.got - 2010.06.11 12:40:34.
