data_PCOD9309054
_publ_section_title
;
Structure prediction by ZEFSAII (Michael W. Deem and Ramdas Pophale) SiO2 
 PCOD9309054
Probable space group: C 2/C
;
_chemical_formula_sum "Si O2"
_cell_formula_units_Z 24
_cell_length_a 18.000000
_cell_length_b 15.000000
_cell_length_c 18.000000
_cell_angle_alpha 90.000000
_cell_angle_beta 30.000000
_cell_angle_gamma 90.000000
_cell_volume 2430.000000
_symmetry_space_group_name_H-M "C 2/C"
_symmetry_group_IT_number 15
_symmetry_cell_setting 'monoclinic'
loop_
_space_group_symop_operation_xyz
x,y,z
-x,y,1/2-z
-x,-y,-z
x,-y,1/2+z
1/2+x,1/2+y,z
1/2-x,1/2+y,1/2-z
1/2-x,1/2-y,-z
1/2+x,1/2-y,1/2+z
loop_
_atom_site_type_symbol
_atom_site_label
_atom_site_fract_x
_atom_site_fract_y
_atom_site_fract_z
Si Si1 0.144873 0.668407 0.076845
Si Si2 0.699639 0.309065 0.474402
Si Si3 0.896414 0.635016 0.558868
Si Si4 0.834065 0.471833 0.427315
Si Si5 0.307244 0.947939 0.626933
Si Si6 0.878997 0.779014 0.691491
O O1 0.212840 0.573715 0.041114
O O2 0.000000 0.682697 0.250000
O O3 0.250000 0.750000 0.000000
O O4 0.099070 0.654785 0.031577
O O5 0.750000 0.250000 0.500000
O O6 0.723159 0.409013 0.479649
O O7 0.793899 0.284490 0.321716
O O8 0.538380 0.283880 0.589229
O O9 0.785316 0.551319 0.667593
O O10 0.867882 0.727468 0.624215
O O11 0.049430 0.594125 0.457116
O O12 0.833975 0.447325 0.514737
O O13 0.000000 0.460576 0.250000
O O14 0.180495 0.878991 0.757355
#
# Coordination Sequence:
#
# PCOD9309054 Si02
#       6
#     8   8   8   8   8   8
#     4  10  24  44  66  91 117 165 212 260 310 364
#     4  12  22  36  62  95 132 163 203 254 317 377
#     4  10  22  42  65  87 126 164 210 250 312 377
#     4  10  20  40  64  92 126 164 210 251 311 377
#     4  10  21  40  64  89 122 173 203 252 308 372
#     4  12  23  39  60  98 128 167 206 258 316 373
#
# _framework density 9.8765429999999999
#
# number of rings (size 3 to 8) (size 9 to 14) (size 15 to 20)
#    0.000    1.333    3.333    2.500    2.333    1.333 
#    6.000    0.833    0.000    0.000    0.000    0.000 
#    0.000    0.000    0.000    0.000    0.000    0.000 
#
# Total GULP energy -133840.539033 kJ/mol
# GULP energy per Si atom -5576.689126 kJ/mol
# Density = 0.985406 g / cm^3
# Si number density = 9.876543 Si / 1000 Ang^3
#
#
#
# Elastic Constant Matrix: (Units=GPa)
#
#
# Indices 1 2 3 4 5 6 
#
# 1 51.7811 62.6377 49.1529 0.0004 -0.4062 0.0003
# 2 62.6377 155.0294 77.6934 0.0007 6.0803 0.0001
# 3 49.1529 77.6934 57.1887 0.0011 3.9676 0.0001
# 4 0.0004 0.0007 0.0011 22.4230 -0.0008 -4.9014
# 5 -0.4062 6.0803 3.9676 -0.0008 9.8352 -0.0002
# 6 0.0003 0.0001 0.0001 -4.9014 -0.0002 39.7260
#
#
#
# Elastic Compliance Matrix: (Units=1/GPa)
#
#
# Indices 1 2 3 4 5 6 
#
# 1 0.129711 0.010138 -0.128799 0.000006 0.051048 0.000000
# 2 0.010138 0.021023 -0.037449 0.000001 0.002529 0.000000
# 3 -0.128799 -0.037449 0.182946 -0.000008 -0.055969 -0.000001
# 4 0.000006 0.000001 -0.000008 0.045833 0.000007 0.005655
# 5 0.051048 0.002529 -0.055969 0.000007 0.124799 0.000001
# 6 0.000000 0.000000 -0.000001 0.005655 0.000001 0.025870
#
#
# Mechanical properties :
#
#
# Convention : Reuss Voigt Hill
#
# Bulk Modulus (GPa) = 46.59970 71.44080 59.02025
# Shear Modulus (GPa) = 5.88543 19.36451 12.62497
#
# Velocity S-wave (km/s) = 1.72799 3.13442 2.53086
# Velocity P-wave (km/s) = 5.25582 7.02459 6.20357
#
# Compressibility (1/GPa) = 0.02145936
#
# Stress axis : x y z
#
# Youngs Moduli (GPa) = 7.70947 47.56677 5.46609
#
# Poissons Ratio (x) = -0.48221 0.70402
# Poissons Ratio (y) = -0.07816 0.20470
# Poissons Ratio (z) = 0.99297 1.78135
#
# Static dielectric constant tensor:
#      x y z
#    x 1.665480 0.000000 0.012660 
#    y 0.000000 1.807380 0.000000 
#    z 0.012660 0.000000 1.703160 
# 
# From -- ./inp_files/66429.got.cif
#   From: 2010.05.17/outbox.ucp.g08.bks.cvg/sg15_34_cif.got.tgz:66429.got - 2010.06.11 12:40:34.
