data_PCOD9309229
_publ_section_title
;
Structure prediction by ZEFSAII (Michael W. Deem and Ramdas Pophale) SiO2 
 PCOD9309229
Probable space group: C 2/C
;
_chemical_formula_sum "Si O2"
_cell_formula_units_Z 24
_cell_length_a 15.000000
_cell_length_b 9.000000
_cell_length_c 27.000000
_cell_angle_alpha 90.000000
_cell_angle_beta 140.000000
_cell_angle_gamma 90.000000
_cell_volume 2342.960837
_symmetry_space_group_name_H-M "C 2/C"
_symmetry_group_IT_number 15
_symmetry_cell_setting 'monoclinic'
loop_
_space_group_symop_operation_xyz
x,y,z
-x,y,1/2-z
-x,-y,-z
x,-y,1/2+z
1/2+x,1/2+y,z
1/2-x,1/2+y,1/2-z
1/2-x,1/2-y,-z
1/2+x,1/2-y,1/2+z
loop_
_atom_site_type_symbol
_atom_site_label
_atom_site_fract_x
_atom_site_fract_y
_atom_site_fract_z
Si Si1 0.850765 0.352194 0.846194
Si Si2 0.257743 0.058358 0.044598
Si Si3 0.974910 0.854318 0.796841
Si Si4 0.903705 0.853313 0.464799
Si Si5 0.059797 0.163082 0.878061
Si Si6 0.528161 0.142711 0.913605
O O1 0.689520 0.363705 0.768506
O O2 0.882778 0.258136 0.910008
O O3 0.908281 0.520791 0.871441
O O4 0.922760 0.256640 0.833064
O O5 0.332613 0.209358 0.093813
O O6 0.235756 0.939340 0.078364
O O7 0.343098 0.969400 0.039195
O O8 0.120596 0.107281 0.956763
O O9 0.017832 0.740280 0.858931
O O10 0.000000 0.811689 0.750000
O O11 0.039018 0.017937 0.835785
O O12 0.953041 0.753585 0.532364
O O13 0.000000 0.000000 0.500000
#
# Coordination Sequence:
#
# PCOD9309229 Si02
#       6
#     8   8   8   8   8   8
#     4  11  24  42  65  96 132 170 219 265 335 394
#     4  10  21  40  67  89 130 164 222 266 326 377
#     4  12  25  42  64  94 133 176 219 266 335 394
#     4  12  22  39  66 101 126 167 218 273 324 389
#     4  10  22  43  63  93 129 175 211 274 323 386
#     4  11  24  41  66  93 131 173 215 274 324 389
#
# _framework density 10.243449
#
# number of rings (size 3 to 8) (size 9 to 14) (size 15 to 20)
#    0.000    1.000    3.333    3.000    2.333    1.333 
#    0.000    8.333    0.000    0.000    0.000    0.000 
#    0.000    0.000    0.000    0.000    0.000    0.000 
#
# Total GULP energy -133883.399281 kJ/mol
# GULP energy per Si atom -5578.474970 kJ/mol
# Density = 1.022013 g / cm^3
# Si number density = 10.243449 Si / 1000 Ang^3
#
#
#
# Elastic Constant Matrix: (Units=GPa)
#
#
# Indices 1 2 3 4 5 6 
#
# 1 32.1574 20.3849 19.5571 0.0000 -2.1030 0.0000
# 2 20.3849 156.6722 42.1566 0.0000 -11.0856 0.0000
# 3 19.5571 42.1566 64.5384 0.0000 -2.1655 0.0000
# 4 0.0000 0.0000 0.0000 27.2747 0.0000 3.0713
# 5 -2.1030 -11.0856 -2.1655 0.0000 38.1574 0.0000
# 6 0.0000 0.0000 0.0000 3.0713 0.0000 26.2316
#
#
#
# Elastic Compliance Matrix: (Units=1/GPa)
#
#
# Indices 1 2 3 4 5 6 
#
# 1 0.038817 -0.002219 -0.010283 0.000000 0.000911 0.000000
# 2 -0.002219 0.008021 -0.004501 0.000000 0.001952 0.000000
# 3 -0.010283 -0.004501 0.021529 0.000000 -0.000653 0.000000
# 4 0.000000 0.000000 0.000000 0.037154 0.000000 -0.004350
# 5 0.000911 0.001952 -0.000653 0.000000 0.026788 0.000000
# 6 0.000000 0.000000 0.000000 -0.004350 0.000000 0.038631
#
#
# Mechanical properties :
#
#
# Convention : Reuss Voigt Hill
#
# Bulk Modulus (GPa) = 29.10304 46.39612 37.74958
# Shear Modulus (GPa) = 23.10545 29.75070 26.42808
#
# Velocity S-wave (km/s) = 3.36194 3.81488 3.59555
# Velocity P-wave (km/s) = 5.41357 6.48848 5.97524
#
# Compressibility (1/GPa) = 0.03436067
#
# Stress axis : x y z
#
# Youngs Moduli (GPa) = 25.76189 124.67566 46.44928
#
# Poissons Ratio (x) = 0.27669 0.47762
# Poissons Ratio (y) = 0.05717 0.20908
# Poissons Ratio (z) = 0.26490 0.56119
#
# Static dielectric constant tensor:
#      x y z
#    x 1.867050 0.000000 0.086280 
#    y 0.000000 1.694810 0.000000 
#    z 0.086280 0.000000 1.737310 
# 
# From -- ./inp_files/295440.got.cif
#   From: 2010.05.17/outbox.ucp.g08.bks.cvg/sg15_148_cif.got.tgz:295440.got - 2010.06.11 12:40:34.
