data_PCOD9309769
_publ_section_title
;
Structure prediction by ZEFSAII (Michael W. Deem and Ramdas Pophale) SiO2 
 PCOD9309769
Probable space group: C 2/C
;
_chemical_formula_sum "Si O2"
_cell_formula_units_Z 24
_cell_length_a 27.000000
_cell_length_b 12.000000
_cell_length_c 15.000000
_cell_angle_alpha 90.000000
_cell_angle_beta 30.000000
_cell_angle_gamma 90.000000
_cell_volume 2430.000000
_symmetry_space_group_name_H-M "C 2/C"
_symmetry_group_IT_number 15
_symmetry_cell_setting 'monoclinic'
loop_
_space_group_symop_operation_xyz
x,y,z
-x,y,1/2-z
-x,-y,-z
x,-y,1/2+z
1/2+x,1/2+y,z
1/2-x,1/2+y,1/2-z
1/2-x,1/2-y,-z
1/2+x,1/2-y,1/2+z
loop_
_atom_site_type_symbol
_atom_site_label
_atom_site_fract_x
_atom_site_fract_y
_atom_site_fract_z
Si Si1 0.216370 0.570580 0.055529
Si Si2 0.434403 0.788712 0.595735
Si Si3 0.198221 0.895995 0.279307
Si Si4 0.885639 0.067440 0.945991
Si Si5 0.599416 0.199533 0.979849
Si Si6 0.487681 0.963150 0.169113
O O1 0.152170 0.672959 0.199280
O O2 0.126564 0.480143 0.184158
O O3 0.256166 0.581459 0.891489
O O4 0.308452 0.553548 0.982087
O O5 0.390920 0.688552 0.604721
O O6 0.534652 0.760892 0.494996
O O7 0.458388 0.890587 0.491015
O O8 0.159378 0.000098 0.398738
O O9 0.285872 0.839055 0.201491
O O10 0.896420 0.198150 0.956734
O O11 0.000000 0.029812 0.750000
O O12 0.540352 0.084854 0.094152
O O13 0.500000 0.914487 0.250000
#
# Coordination Sequence:
#
# PCOD9309769 Si02
#       6
#     8   8   8   8   8   8
#     4  11  23  43  69  95 129 176 226 266 314 391
#     4  11  24  41  68 102 133 170 220 276 326 384
#     4  12  25  43  68 100 135 172 218 270 332 392
#     4  12  27  44  66  99 137 173 215 274 335 389
#     4  11  23  42  69  96 131 174 224 266 319 392
#     4  11  22  41  70 101 130 171 225 274 320 384
#
# _framework density 9.8765429999999999
#
# number of rings (size 3 to 8) (size 9 to 14) (size 15 to 20)
#    0.000    0.667    3.333    6.000    2.333    3.333 
#    0.000    0.000    0.000   11.000    0.000    0.000 
#    0.000    0.000    0.000    0.000    0.000    0.000 
#
# Total GULP energy -133965.187328 kJ/mol
# GULP energy per Si atom -5581.882805 kJ/mol
# Density = 0.985406 g / cm^3
# Si number density = 9.876543 Si / 1000 Ang^3
#
#
#
# Elastic Constant Matrix: (Units=GPa)
#
#
# Indices 1 2 3 4 5 6 
#
# 1 170.6667 28.3911 49.3319 0.0000 -26.9699 0.0000
# 2 28.3911 66.7896 43.0916 0.0000 1.6038 0.0000
# 3 49.3319 43.0916 103.5656 0.0000 -4.9082 0.0000
# 4 0.0000 0.0000 0.0000 26.0308 0.0000 -7.3550
# 5 -26.9699 1.6038 -4.9082 0.0000 45.0084 0.0000
# 6 0.0000 0.0000 0.0000 -7.3550 0.0000 26.0526
#
#
#
# Elastic Compliance Matrix: (Units=1/GPa)
#
#
# Indices 1 2 3 4 5 6 
#
# 1 0.007598 -0.001544 -0.002773 0.000000 0.004306 0.000000
# 2 -0.001544 0.020906 -0.008084 0.000000 -0.002552 0.000000
# 3 -0.002773 -0.008084 0.014349 0.000000 0.000191 0.000000
# 4 0.000000 0.000000 0.000000 0.041746 0.000000 0.011786
# 5 0.004306 -0.002552 0.000191 0.000000 0.024910 0.000000
# 6 0.000000 0.000000 0.000000 0.011786 0.000000 0.041711
#
#
# Mechanical properties :
#
#
# Convention : Reuss Voigt Hill
#
# Bulk Modulus (GPa) = 55.39768 64.73901 60.06835
# Shear Modulus (GPa) = 27.46674 34.09885 30.78279
#
# Velocity S-wave (km/s) = 3.73299 4.15933 3.95191
# Velocity P-wave (km/s) = 6.83273 7.47743 7.16234
#
# Compressibility (1/GPa) = 0.01805130
#
# Stress axis : x y z
#
# Youngs Moduli (GPa) = 131.61138 47.83400 69.69157
#
# Poissons Ratio (x) = 0.07387 0.19323
# Poissons Ratio (y) = 0.20326 0.56337
# Poissons Ratio (z) = 0.36491 0.38668
#
# Static dielectric constant tensor:
#      x y z
#    x 1.701570 0.000000 -0.002930 
#    y 0.000000 1.706910 0.000000 
#    z -0.002930 0.000000 1.713630 
# 
# From -- ./inp_files/177730.got.cif
#   From: 2010.05.17/outbox.ucp.g08.bks.cvg/sg15_89_cif.got.tgz:177730.got - 2010.06.11 12:40:34.
