data_PCOD9309703
_publ_section_title
;
Structure prediction by ZEFSAII (Michael W. Deem and Ramdas Pophale) SiO2 
 PCOD9309703
Probable space group: C 2/C
;
_chemical_formula_sum "Si O2"
_cell_formula_units_Z 24
_cell_length_a 21.000000
_cell_length_b 15.000000
_cell_length_c 12.000000
_cell_angle_alpha 90.000000
_cell_angle_beta 40.000000
_cell_angle_gamma 90.000000
_cell_volume 2429.737165
_symmetry_space_group_name_H-M "C 2/C"
_symmetry_group_IT_number 15
_symmetry_cell_setting 'monoclinic'
loop_
_space_group_symop_operation_xyz
x,y,z
-x,y,1/2-z
-x,-y,-z
x,-y,1/2+z
1/2+x,1/2+y,z
1/2-x,1/2+y,1/2-z
1/2-x,1/2-y,-z
1/2+x,1/2-y,1/2+z
loop_
_atom_site_type_symbol
_atom_site_label
_atom_site_fract_x
_atom_site_fract_y
_atom_site_fract_z
Si Si1 0.000000 0.739782 0.250000
Si Si2 0.000000 0.168463 0.250000
Si Si3 0.270168 0.935109 0.721542
Si Si4 0.203247 0.739301 0.438063
Si Si5 0.176356 0.641551 0.900476
Si Si6 0.184395 0.870689 0.068844
Si Si7 0.587585 0.537743 0.311927
O O1 0.090264 0.803433 0.176070
O O2 0.935085 0.676008 0.420213
O O3 0.044951 0.113054 0.291130
O O4 0.905004 0.219182 0.421175
O O5 0.317919 0.860702 0.577725
O O6 0.164091 0.936593 0.804310
O O7 0.313748 0.036642 0.652456
O O8 0.251075 0.893038 0.869921
O O9 0.250000 0.750000 0.500000
O O10 0.275562 0.794014 0.257505
O O11 0.244298 0.653338 0.921786
O O12 0.136185 0.964527 0.167416
O O13 0.500000 0.500000 0.500000
#
# Coordination Sequence:
#
# PCOD9309703 Si02
#       7
#     4   4   8   8   8   8   8
#     4  12  23  43  70 104 144 190 236 286 352 422
#     4  12  23  41  68 100 136 182 234 276 360 414
#     4  11  24  45  68  98 145 182 227 299 346 414
#     4  12  26  46  68 103 144 184 229 294 352 420
#     4  11  27  45  73 102 145 183 237 290 357 421
#     4  11  23  44  70 101 137 182 235 293 347 407
#     4  11  21  37  68 103 130 172 235 291 348 406
#
# _framework density 9.8776119999999992
#
# number of rings (size 3 to 8) (size 9 to 14) (size 15 to 20)
#    0.000    0.667    3.333    6.000    2.333    2.000 
#    0.000    0.833    0.000    0.000    0.000    0.000 
#    0.000    0.000    0.000    0.000    0.000    0.000 
#
# Total GULP energy -133847.421098 kJ/mol
# GULP energy per Si atom -5576.975879 kJ/mol
# Density = 0.985513 g / cm^3
# Si number density = 9.877612 Si / 1000 Ang^3
#
#
#
# Elastic Constant Matrix: (Units=GPa)
#
#
# Indices 1 2 3 4 5 6 
#
# 1 68.8237 35.2364 31.6545 0.0000 13.8466 0.0000
# 2 35.2364 79.1376 23.3833 0.0000 5.8759 0.0000
# 3 31.6545 23.3833 107.6443 0.0000 1.6356 0.0000
# 4 0.0000 0.0000 0.0000 60.2981 0.0000 -11.7247
# 5 13.8466 5.8759 1.6356 0.0000 39.5196 0.0000
# 6 0.0000 0.0000 0.0000 -11.7247 0.0000 37.1511
#
#
#
# Elastic Compliance Matrix: (Units=1/GPa)
#
#
# Indices 1 2 3 4 5 6 
#
# 1 0.022019 -0.007959 -0.004650 0.000000 -0.006339 0.000000
# 2 -0.007959 0.016522 -0.001254 0.000000 0.000384 0.000000
# 3 -0.004650 -0.001254 0.010909 0.000000 0.001364 0.000000
# 4 0.000000 0.000000 0.000000 0.017669 0.000000 0.005576
# 5 -0.006339 0.000384 0.001364 0.000000 0.027411 0.000000
# 6 0.000000 0.000000 0.000000 0.005576 0.000000 0.028677
#
#
# Mechanical properties :
#
#
# Convention : Reuss Voigt Hill
#
# Bulk Modulus (GPa) = 46.03387 48.46159 47.24773
# Shear Modulus (GPa) = 31.61058 38.41584 35.01321
#
# Velocity S-wave (km/s) = 4.00448 4.41454 4.21450
# Velocity P-wave (km/s) = 6.68834 7.11115 6.90298
#
# Compressibility (1/GPa) = 0.02172314
#
# Stress axis : x y z
#
# Youngs Moduli (GPa) = 45.41561 60.52415 91.66820
#
# Poissons Ratio (x) = 0.48174 0.42623
# Poissons Ratio (y) = 0.36149 0.11498
# Poissons Ratio (z) = 0.21117 0.07592
#
# Static dielectric constant tensor:
#      x y z
#    x 1.894060 0.000000 0.096740 
#    y 0.000000 1.338670 0.000000 
#    z 0.096740 0.000000 1.699320 
# 
# From -- ./inp_files/96238.got.cif
#   From: 2010.05.17/outbox.ucp.g08.bks.cvg/sg15_49_cif.got.tgz:96238.got - 2010.06.11 12:40:34.
