data_PCOD9309109
_publ_section_title
;
Structure prediction by ZEFSAII (Michael W. Deem and Ramdas Pophale) SiO2 
 PCOD9309109
Probable space group: C 2/C
;
_chemical_formula_sum "Si O2"
_cell_formula_units_Z 28
_cell_length_a 15.000000
_cell_length_b 24.000000
_cell_length_c 24.000000
_cell_angle_alpha 90.000000
_cell_angle_beta 160.000000
_cell_angle_gamma 90.000000
_cell_volume 2955.054038
_symmetry_space_group_name_H-M "C 2/C"
_symmetry_group_IT_number 15
_symmetry_cell_setting 'monoclinic'
loop_
_space_group_symop_operation_xyz
x,y,z
-x,y,1/2-z
-x,-y,-z
x,-y,1/2+z
1/2+x,1/2+y,z
1/2-x,1/2+y,1/2-z
1/2-x,1/2-y,-z
1/2+x,1/2-y,1/2+z
loop_
_atom_site_type_symbol
_atom_site_label
_atom_site_fract_x
_atom_site_fract_y
_atom_site_fract_z
Si Si1 0.795858 0.667412 0.314766
Si Si2 0.243426 0.571427 0.130965
Si Si3 0.191635 0.487234 0.196937
Si Si4 0.411665 0.089726 0.286101
Si Si5 0.682739 0.293631 0.128619
Si Si6 0.231487 0.803503 0.028557
Si Si7 0.074245 0.902575 0.485137
O O1 0.885135 0.624532 0.414229
O O2 0.907549 0.644751 0.322389
O O3 0.829741 0.732012 0.351376
O O4 0.484558 0.657362 0.124834
O O5 0.500000 0.590003 0.250000
O O6 0.316308 0.523802 0.219496
O O7 0.039256 0.546127 0.968075
O O8 0.081581 0.535049 0.172316
O O9 0.371641 0.444896 0.337565
O O10 0.664638 0.092681 0.397016
O O11 0.156177 0.084449 0.097041
O O12 0.632924 0.288057 0.032834
O O13 0.513122 0.338214 0.062030
O O14 0.970736 0.321732 0.296575
O O15 0.250000 0.750000 0.000000
#
# Coordination Sequence:
#
# PCOD9309109 Si02
#       7
#     8   8   8   8   8   8   8
#     4  10  21  37  60  86 126 157 196 248 303 355
#     4  10  22  36  61  89 116 156 200 248 306 355
#     4  10  22  41  59  87 119 156 207 250 299 364
#     4  10  22  42  61  86 121 160 199 258 300 354
#     4  10  21  35  58  92 120 159 201 239 301 369
#     4   9  19  35  55  84 126 156 192 245 289 355
#     4  11  22  39  64  88 120 160 202 248 306 358
#
# _framework density 9.4752919999999996
#
# number of rings (size 3 to 8) (size 9 to 14) (size 15 to 20)
#    0.000    2.000    1.429    1.286    6.000    1.714 
#    0.000    1.429    0.000    0.000    0.000    0.000 
#    0.000    0.000    0.000    0.000    0.000    0.000 
#
# Total GULP energy -155910.068394 kJ/mol
# GULP energy per Si atom -5568.216728 kJ/mol
# Density = 0.945373 g / cm^3
# Si number density = 9.475292 Si / 1000 Ang^3
#
#
#
# Elastic Constant Matrix: (Units=GPa)
#
#
# Indices 1 2 3 4 5 6 
#
# 1 91.3798 43.0343 39.3765 0.0265 -14.9213 -0.0042
# 2 43.0343 106.2830 46.3360 -0.0180 -16.6206 -0.0233
# 3 39.3765 46.3360 54.3899 0.0093 -17.5875 -0.0183
# 4 0.0265 -0.0180 0.0093 25.7931 0.0257 -4.0057
# 5 -14.9213 -16.6206 -17.5875 0.0257 19.7823 -0.0094
# 6 -0.0042 -0.0233 -0.0183 -4.0057 -0.0094 26.5617
#
#
#
# Elastic Compliance Matrix: (Units=1/GPa)
#
#
# Indices 1 2 3 4 5 6 
#
# 1 0.016326 -0.002263 -0.009157 -0.000019 0.002272 -0.000008
# 2 -0.002263 0.015325 -0.010955 0.000017 0.001429 0.000009
# 3 -0.009157 -0.010955 0.040895 -0.000030 0.020247 0.000020
# 4 -0.000019 0.000017 -0.000030 0.039700 -0.000075 0.005987
# 5 0.002272 0.001429 0.020247 -0.000075 0.071465 0.000030
# 6 -0.000008 0.000009 0.000020 0.005987 0.000030 0.038551
#
#
# Mechanical properties :
#
#
# Convention : Reuss Voigt Hill
#
# Bulk Modulus (GPa) = 35.97692 56.61627 46.29660
# Shear Modulus (GPa) = 18.09783 22.64781 20.37282
#
# Velocity S-wave (km/s) = 3.09366 3.46077 3.28235
# Velocity P-wave (km/s) = 5.63798 6.77568 6.23284
#
# Compressibility (1/GPa) = 0.02779560
#
# Stress axis : x y z
#
# Youngs Moduli (GPa) = 61.25258 65.25434 24.45295
#
# Poissons Ratio (x) = 0.14767 0.22391
# Poissons Ratio (y) = 0.13862 0.26788
# Poissons Ratio (z) = 0.56088 0.71487
#
# Static dielectric constant tensor:
#      x y z
#    x 1.683520 0.000000 -0.026340 
#    y 0.000000 1.633450 -0.000030 
#    z -0.026340 -0.000030 1.711020 
# 
# From -- ./inp_files/275246.got.cif
#   From: 2010.05.17/outbox.ucp.g08.bks.cvg/sg15_138_cif.got.tgz:275246.got - 2010.06.11 12:40:34.
