data_PCOD9309951
_publ_section_title
;
Structure prediction by ZEFSAII (Michael W. Deem and Ramdas Pophale) SiO2 
 PCOD9309951
Probable space group: P 2 2 2
;
_chemical_formula_sum "Si O2"
_cell_formula_units_Z 25
_cell_length_a 7.232809
_cell_length_b 5.390307
_cell_length_c 27.849881
_cell_angle_alpha 90.000000
_cell_angle_beta 90.000000
_cell_angle_gamma 90.000000
_cell_volume 1085.785009
_symmetry_space_group_name_H-M "P 2 2 2"
_symmetry_group_IT_number 16
_symmetry_cell_setting 'orthorhombic'
loop_
_space_group_symop_operation_xyz
x,y,z
-x,-y,z
x,-y,-z
-x,y,-z
loop_
_atom_site_type_symbol
_atom_site_label
_atom_site_fract_x
_atom_site_fract_y
_atom_site_fract_z
Si Si1 0.310071 0.227549 0.089199
Si Si2 0.284812 0.986737 0.721049
Si Si3 0.273825 0.280599 0.872768
Si Si4 0.724298 0.518891 0.767306
Si Si5 0.777405 0.005676 0.608878
Si Si6 0.500000 0.000000 0.000000
Si Si7 0.225314 0.498370 0.555592
O O1 0.217775 0.494476 0.092506
O O2 0.502722 0.253484 0.119582
O O3 0.374256 0.160390 0.035735
O O4 0.208182 0.992581 0.112579
O O5 0.210383 0.260326 0.732567
O O6 0.500000 0.000000 0.735164
O O7 0.207683 0.752139 0.750774
O O8 0.273638 0.952866 0.664201
O O9 0.228662 0.381130 0.820167
O O10 0.500000 0.500000 0.765217
O O11 0.713419 0.245353 0.579555
O O12 0.715915 0.745637 0.585286
O O13 0.000000 0.000000 0.606889
O O14 0.280963 0.500000 0.500000
O O15 0.000000 0.500000 0.556271
#
# Coordination Sequence:
#
# PCOD9309951 Si02
#       7
#     4   4   4   4   4   1   4
#     4   9  16  21  33  46  70  97 140 176 223 252
#     4  10  21  30  45  66  88 118 142 183 220 251
#     4   9  15  23  34  49  66  98 133 180 218 240
#     4  10  17  27  42  58  82 106 147 182 224 241
#     4  10  19  33  50  69  95 117 141 175 218 263
#     4   8  16  22  28  46  68  98 132 190 218 254
#     4   9  17  30  52  75  90 111 146 181 208 247
#
# _framework density 23.024818
#
# number of rings (size 3 to 8) (size 9 to 14) (size 15 to 20)
#    0.000    2.720    1.600    2.400    4.480    7.040 
#    0.000    0.000    0.000    2.880    0.000    0.000 
#    0.000    0.000    0.000    0.000    0.000    0.000 
#
# Total GULP energy -139542.126589 kJ/mol
# GULP energy per Si atom -5581.685064 kJ/mol
# Density = 2.297241 g / cm^3
# Si number density = 23.024818 Si / 1000 Ang^3
#
#
#
# Elastic Constant Matrix: (Units=GPa)
#
#
# Indices 1 2 3 4 5 6 
#
# 1 84.9670 4.6469 -15.5652 0.0000 0.0000 0.0000
# 2 4.6469 233.5780 77.8206 0.0000 0.0000 0.0000
# 3 -15.5652 77.8206 149.3618 0.0000 0.0000 0.0000
# 4 0.0000 0.0000 0.0000 77.2257 0.0000 0.0000
# 5 0.0000 0.0000 0.0000 0.0000 4.5427 0.0000
# 6 0.0000 0.0000 0.0000 0.0000 0.0000 -21.4404
#
#
#
# Elastic Compliance Matrix: (Units=1/GPa)
#
#
# Indices 1 2 3 4 5 6 
#
# 1 0.012121 -0.000801 0.001680 0.000000 0.000000 0.000000
# 2 -0.000801 0.005233 -0.002810 0.000000 0.000000 0.000000
# 3 0.001680 -0.002810 0.008334 0.000000 0.000000 0.000000
# 4 0.000000 0.000000 0.000000 0.012949 0.000000 0.000000
# 5 0.000000 0.000000 0.000000 0.000000 0.220133 0.000000
# 6 0.000000 0.000000 0.000000 0.000000 0.000000 -0.046641
#
#
# Mechanical properties :
#
#
# Convention : Reuss Voigt Hill
#
# Bulk Modulus (GPa) = 45.81407 66.85682 56.33544
# Shear Modulus (GPa) = 22.39467 38.79923 30.59695
#
# Velocity S-wave (km/s) = 3.12209 4.10946 3.64932
# Velocity P-wave (km/s) = 5.73912 7.18448 6.50208
#
# Compressibility (1/GPa) = 0.02182736
#
# Stress axis : x y z
#
# Youngs Moduli (GPa) = 82.50184 191.07930 119.98388
#
# Poissons Ratio (x) = 0.15306 -0.20163
# Poissons Ratio (y) = 0.06609 0.33718
# Poissons Ratio (z) = -0.13864 0.53697
#
# Static dielectric constant tensor:
#      x y z
#    x 1.671970 0.000000 0.000000 
#    y 0.000000 1.846990 0.000000 
#    z 0.000000 0.000000 1.815900 
# 
# From -- ./inp_files/9552.got.cif
#   From: 2010.05.17/outbox.cif.g08.bks.cpg/sg16_5_cif.got.tgz:9552.got - 2010.06.03 22:28:35.
