data_PCOD9309636
_publ_section_title
;
Structure prediction by ZEFSAII (Michael W. Deem and Ramdas Pophale) SiO2 
 PCOD9309636
Probable space group: C 2/C
;
_chemical_formula_sum "Si O2"
_cell_formula_units_Z 24
_cell_length_a 15.000000
_cell_length_b 18.000000
_cell_length_c 18.000000
_cell_angle_alpha 90.000000
_cell_angle_beta 150.000000
_cell_angle_gamma 90.000000
_cell_volume 2430.000000
_symmetry_space_group_name_H-M "C 2/C"
_symmetry_group_IT_number 15
_symmetry_cell_setting 'monoclinic'
loop_
_space_group_symop_operation_xyz
x,y,z
-x,y,1/2-z
-x,-y,-z
x,-y,1/2+z
1/2+x,1/2+y,z
1/2-x,1/2+y,1/2-z
1/2-x,1/2-y,-z
1/2+x,1/2-y,1/2+z
loop_
_atom_site_type_symbol
_atom_site_label
_atom_site_fract_x
_atom_site_fract_y
_atom_site_fract_z
Si Si1 0.809481 0.331408 0.068931
Si Si2 0.999734 0.417795 0.082045
Si Si3 0.794689 0.207909 0.783860
Si Si4 0.038538 0.839552 0.590176
Si Si5 0.054962 0.287312 0.869818
Si Si6 0.610691 0.922204 0.666166
O O1 0.856887 0.379913 0.032099
O O2 0.000000 0.328383 0.250000
O O3 0.750000 0.250000 0.000000
O O4 0.635871 0.361255 0.988262
O O5 0.171016 0.364418 0.194624
O O6 0.059238 0.496786 0.158101
O O7 0.911727 0.427109 0.938437
O O8 0.665026 0.275193 0.715872
O O9 0.900631 0.229523 0.785492
O O10 0.952410 0.198325 0.956183
O O11 0.183027 0.900987 0.671043
O O12 0.000000 0.316564 0.750000
O O13 0.021539 0.357094 0.900554
O O14 0.250000 0.250000 0.000000
#
# Coordination Sequence:
#
# PCOD9309636 Si02
#       6
#     8   8   8   8   8   8
#     4  12  24  38  64 100 126 161 212 264 313 377
#     4  11  23  43  62  91 131 166 210 256 316 383
#     4  11  21  39  66  91 123 166 207 259 316 374
#     4  11  21  40  63  96 126 165 209 256 319 373
#     4  11  22  40  64  90 118 159 214 262 301 364
#     4  10  25  43  63  88 129 174 206 260 321 373
#
# _framework density 9.8765429999999999
#
# number of rings (size 3 to 8) (size 9 to 14) (size 15 to 20)
#    0.000    1.000    3.333    5.000    2.333    1.333 
#    3.000    0.000    0.000    0.000    0.000    0.000 
#    0.000    0.000    0.000    0.000    0.000    0.000 
#
# Total GULP energy -133912.636550 kJ/mol
# GULP energy per Si atom -5579.693190 kJ/mol
# Density = 0.985406 g / cm^3
# Si number density = 9.876543 Si / 1000 Ang^3
#
#
#
# Elastic Constant Matrix: (Units=GPa)
#
#
# Indices 1 2 3 4 5 6 
#
# 1 116.2789 31.6161 31.4014 0.0001 27.8816 -0.0011
# 2 31.6161 90.3753 20.1601 0.0070 21.3006 0.0022
# 3 31.4014 20.1601 78.6614 0.0126 22.4399 0.0053
# 4 0.0001 0.0070 0.0126 22.3641 0.0021 1.5910
# 5 27.8816 21.3006 22.4399 0.0021 46.7975 0.0002
# 6 -0.0011 0.0022 0.0053 1.5910 0.0002 25.4291
#
#
#
# Elastic Compliance Matrix: (Units=1/GPa)
#
#
# Indices 1 2 3 4 5 6 
#
# 1 0.010925 -0.002246 -0.002572 0.000002 -0.004254 0.000001
# 2 -0.002246 0.013084 -0.001320 -0.000003 -0.003984 -0.000001
# 3 -0.002572 -0.001320 0.015604 -0.000008 -0.005349 -0.000003
# 4 0.000002 -0.000003 -0.000008 0.044914 0.000002 -0.002810
# 5 -0.004254 -0.003984 -0.005349 0.000002 0.028281 0.000001
# 6 0.000001 -0.000001 -0.000003 -0.002810 0.000001 0.039501
#
#
# Mechanical properties :
#
#
# Convention : Reuss Voigt Hill
#
# Bulk Modulus (GPa) = 36.58088 50.18565 43.38327
# Shear Modulus (GPa) = 28.78557 32.39403 30.58980
#
# Velocity S-wave (km/s) = 3.82156 4.05402 3.93951
# Velocity P-wave (km/s) = 6.16699 6.88296 6.53478
#
# Compressibility (1/GPa) = 0.02733668
#
# Stress axis : x y z
#
# Youngs Moduli (GPa) = 91.53158 76.42825 64.08707
#
# Poissons Ratio (x) = 0.17163 0.16485
# Poissons Ratio (y) = 0.20555 0.08461
# Poissons Ratio (z) = 0.23545 0.10090
#
# Static dielectric constant tensor:
#      x y z
#    x 1.719460 0.000000 -0.043400 
#    y 0.000000 1.731940 -0.000010 
#    z -0.043400 -0.000010 1.698750 
# 
# From -- ./inp_files/206495.got.cif
#   From: 2010.05.17/outbox.ucp.g08.bks.cvg/sg15_104_cif.got.tgz:206495.got - 2010.06.11 12:40:34.
