data_PCOD9309008
_publ_section_title
;
Structure prediction by ZEFSAII (Michael W. Deem and Ramdas Pophale) SiO2 
 PCOD9309008
Probable space group: C 2/C
;
_chemical_formula_sum "Si O2"
_cell_formula_units_Z 24
_cell_length_a 12.000000
_cell_length_b 15.000000
_cell_length_c 27.000000
_cell_angle_alpha 90.000000
_cell_angle_beta 30.000000
_cell_angle_gamma 90.000000
_cell_volume 2430.000000
_symmetry_space_group_name_H-M "C 2/C"
_symmetry_group_IT_number 15
_symmetry_cell_setting 'monoclinic'
loop_
_space_group_symop_operation_xyz
x,y,z
-x,y,1/2-z
-x,-y,-z
x,-y,1/2+z
1/2+x,1/2+y,z
1/2-x,1/2+y,1/2-z
1/2-x,1/2-y,-z
1/2+x,1/2-y,1/2+z
loop_
_atom_site_type_symbol
_atom_site_label
_atom_site_fract_x
_atom_site_fract_y
_atom_site_fract_z
Si Si1 0.212500 0.978136 0.451610
Si Si2 0.559799 0.509589 0.621259
Si Si3 0.755701 0.895680 0.869900
Si Si4 0.610578 0.899450 0.819528
Si Si5 0.978871 0.207666 0.891864
Si Si6 0.279446 0.196573 0.868237
O O1 0.292888 0.880030 0.403783
O O2 0.405149 0.052429 0.371899
O O3 0.000000 0.000000 0.500000
O O4 0.140938 0.982537 0.535883
O O5 0.732156 0.473359 0.595441
O O6 0.330419 0.454032 0.718885
O O7 0.536218 0.616792 0.633555
O O8 0.592485 0.909294 0.886432
O O9 0.729921 0.797912 0.904168
O O10 0.000000 0.893281 0.750000
O O11 0.607331 0.791152 0.816261
O O12 0.095369 0.176214 0.897712
O O13 0.750000 0.250000 0.000000
O O14 0.500000 0.197512 0.750000
#
# Coordination Sequence:
#
# PCOD9309008 Si02
#       6
#     8   8   8   8   8   8
#     4  12  23  36  60  95 121 160 209 251 302 366
#     4  11  22  39  66  91 124 154 212 258 300 366
#     4   8  19  39  62  86 115 159 203 245 305 366
#     4  10  22  40  65  88 121 164 203 252 310 361
#     4  11  20  41  64  87 118 170 204 242 308 382
#     4  10  20  38  62  86 122 166 202 247 312 376
#
# _framework density 9.8765429999999999
#
# number of rings (size 3 to 8) (size 9 to 14) (size 15 to 20)
#    0.000    1.667    3.333    2.000    0.000    1.333 
#    0.000    0.000   22.000    0.000    0.000    0.000 
#    0.000    0.000    0.000    0.000    0.000    0.000 
#
# Total GULP energy -133823.551044 kJ/mol
# GULP energy per Si atom -5575.981294 kJ/mol
# Density = 0.985406 g / cm^3
# Si number density = 9.876543 Si / 1000 Ang^3
#
#
#
# Elastic Constant Matrix: (Units=GPa)
#
#
# Indices 1 2 3 4 5 6 
#
# 1 86.2653 47.7082 6.0935 -0.0040 -9.0698 0.0012
# 2 47.7082 190.8605 29.7584 -0.0005 12.6986 -0.0006
# 3 6.0935 29.7584 53.9175 -0.0121 -0.7920 0.0021
# 4 -0.0040 -0.0005 -0.0121 17.5650 0.0061 9.8180
# 5 -9.0698 12.6986 -0.7920 0.0061 24.2023 -0.0025
# 6 0.0012 -0.0006 0.0021 9.8180 -0.0025 42.5451
#
#
#
# Elastic Compliance Matrix: (Units=1/GPa)
#
#
# Indices 1 2 3 4 5 6 
#
# 1 0.014758 -0.004342 0.000844 0.000001 0.007836 0.000000
# 2 -0.004342 0.007255 -0.003595 -0.000002 -0.005551 0.000000
# 3 0.000844 -0.003595 0.020478 0.000016 0.002872 -0.000005
# 4 0.000001 -0.000002 0.000016 0.065362 -0.000016 -0.015083
# 5 0.007836 -0.005551 0.002872 -0.000016 0.047261 0.000006
# 6 0.000000 0.000000 -0.000005 -0.015083 0.000006 0.026985
#
#
# Mechanical properties :
#
#
# Convention : Reuss Voigt Hill
#
# Bulk Modulus (GPa) = 35.33076 55.35150 45.34113
# Shear Modulus (GPa) = 24.30492 33.36137 28.83315
#
# Velocity S-wave (km/s) = 3.51156 4.11410 3.82472
# Velocity P-wave (km/s) = 5.86229 7.11691 6.51985
#
# Compressibility (1/GPa) = 0.02830395
#
# Stress axis : x y z
#
# Youngs Moduli (GPa) = 67.76175 137.84491 48.83346
#
# Poissons Ratio (x) = 0.59849 -0.04120
# Poissons Ratio (y) = 0.29420 0.17555
# Poissons Ratio (z) = -0.05716 0.49553
#
# Static dielectric constant tensor:
#      x y z
#    x 1.705250 0.000000 -0.046350 
#    y 0.000000 1.727000 0.000000 
#    z -0.046350 0.000000 1.717150 
# 
# From -- ./inp_files/143808.got.cif
#   From: 2010.05.17/outbox.ucp.g08.bks.cvg/sg15_72_cif.got.tgz:143808.got - 2010.06.11 12:40:34.
