data_PCOD9309858
_publ_section_title
;
Structure prediction by ZEFSAII (Michael W. Deem and Ramdas Pophale) SiO2 
 PCOD9309858
Probable space group: C 2/C
;
_chemical_formula_sum "Si O2"
_cell_formula_units_Z 24
_cell_length_a 15.000000
_cell_length_b 15.000000
_cell_length_c 30.000000
_cell_angle_alpha 90.000000
_cell_angle_beta 20.000000
_cell_angle_gamma 90.000000
_cell_volume 2308.635967
_symmetry_space_group_name_H-M "C 2/C"
_symmetry_group_IT_number 15
_symmetry_cell_setting 'monoclinic'
loop_
_space_group_symop_operation_xyz
x,y,z
-x,y,1/2-z
-x,-y,-z
x,-y,1/2+z
1/2+x,1/2+y,z
1/2-x,1/2+y,1/2-z
1/2-x,1/2-y,-z
1/2+x,1/2-y,1/2+z
loop_
_atom_site_type_symbol
_atom_site_label
_atom_site_fract_x
_atom_site_fract_y
_atom_site_fract_z
Si Si1 0.173373 0.228801 0.780057
Si Si2 0.075965 0.916513 0.853909
Si Si3 0.187570 0.565228 0.383281
Si Si4 0.367945 0.753510 0.013534
Si Si5 0.464629 0.954946 0.131704
Si Si6 0.812067 0.918092 0.601120
O O1 0.324369 0.323664 0.714684
O O2 0.367036 0.146985 0.679205
O O3 0.016510 0.219703 0.899698
O O4 0.935448 0.225158 0.855971
O O5 0.070858 0.887873 0.907125
O O6 0.783417 0.953210 0.979459
O O7 0.308401 0.991146 0.743698
O O8 0.500000 0.571823 0.250000
O O9 0.163157 0.513236 0.347970
O O10 0.000000 0.500000 0.500000
O O11 0.035773 0.660955 0.452103
O O12 0.350211 0.667523 0.052496
O O13 0.500000 0.938585 0.750000
O O14 0.000000 0.000000 0.500000
#
# Coordination Sequence:
#
# PCOD9309858 Si02
#       6
#     8   8   8   8   8   8
#     4  11  24  45  73 101 142 196 238 300 362 433
#     4  12  25  45  74 104 139 191 240 291 366 428
#     4  12  27  45  73 104 143 186 239 304 369 429
#     4  11  25  46  71 105 147 186 243 303 364 426
#     4  12  26  47  73 103 142 185 245 300 358 444
#     4  12  26  45  70 105 144 188 238 296 355 424
#
# _framework density 10.395749
#
# number of rings (size 3 to 8) (size 9 to 14) (size 15 to 20)
#    0.000    0.333    3.333    5.500    4.667    2.667 
#    0.000    0.000    0.000    0.000    0.000    0.000 
#    0.000    0.000    0.000    0.000    0.000    0.000 
#
# Total GULP energy -133819.942588 kJ/mol
# GULP energy per Si atom -5575.830941 kJ/mol
# Density = 1.037209 g / cm^3
# Si number density = 10.395749 Si / 1000 Ang^3
#
#
#
# Elastic Constant Matrix: (Units=GPa)
#
#
# Indices 1 2 3 4 5 6 
#
# 1 85.4438 31.7195 32.8773 0.0239 -15.5928 -0.0171
# 2 31.7195 152.1490 61.3216 0.0118 -10.0328 -0.0126
# 3 32.8773 61.3216 143.9859 0.1362 -36.2115 -0.0400
# 4 0.0239 0.0118 0.1362 49.9218 -0.0013 -0.2431
# 5 -15.5928 -10.0328 -36.2115 -0.0013 42.9625 0.0104
# 6 -0.0171 -0.0126 -0.0400 -0.2431 0.0104 34.4328
#
#
#
# Elastic Compliance Matrix: (Units=1/GPa)
#
#
# Indices 1 2 3 4 5 6 
#
# 1 0.013605 -0.002052 -0.001410 -0.000002 0.003270 0.000003
# 2 -0.002052 0.008298 -0.003509 0.000009 -0.001765 -0.000001
# 3 -0.001410 -0.003509 0.010694 -0.000027 0.007682 0.000008
# 4 -0.000002 0.000009 -0.000027 0.020032 -0.000021 0.000141
# 5 0.003270 -0.001765 0.007682 -0.000021 0.030526 0.000000
# 6 0.000003 -0.000001 0.000008 0.000141 0.000000 0.029043
#
#
# Mechanical properties :
#
#
# Convention : Reuss Voigt Hill
#
# Bulk Modulus (GPa) = 53.60980 70.37949 61.99465
# Shear Modulus (GPa) = 37.77597 42.50742 40.14169
#
# Velocity S-wave (km/s) = 4.26713 4.52648 4.39872
# Velocity P-wave (km/s) = 7.07943 7.82574 7.46192
#
# Compressibility (1/GPa) = 0.01865330
#
# Stress axis : x y z
#
# Youngs Moduli (GPa) = 73.50340 120.50477 93.51278
#
# Poissons Ratio (x) = 0.24732 0.13185
# Poissons Ratio (y) = 0.15086 0.32818
# Poissons Ratio (z) = 0.10364 0.42290
#
# Static dielectric constant tensor:
#      x y z
#    x 1.918700 0.000120 0.108960 
#    y 0.000120 1.627160 0.000270 
#    z 0.108960 0.000270 1.693500 
# 
# From -- ./inp_files/314080.got.cif
#   From: 2010.05.17/outbox.ucp.g08.bks.cvg/sg15_158_cif.got.tgz:314080.got - 2010.06.11 12:40:34.
