data_PCOD9309120
_publ_section_title
;
Structure prediction by ZEFSAII (Michael W. Deem and Ramdas Pophale) SiO2 
 PCOD9309120
Probable space group: C 2/C
;
_chemical_formula_sum "Si O2"
_cell_formula_units_Z 32
_cell_length_a 30.000000
_cell_length_b 15.000000
_cell_length_c 9.000000
_cell_angle_alpha 90.000000
_cell_angle_beta 60.000000
_cell_angle_gamma 90.000000
_cell_volume 3507.402885
_symmetry_space_group_name_H-M "C 2/C"
_symmetry_group_IT_number 15
_symmetry_cell_setting 'monoclinic'
loop_
_space_group_symop_operation_xyz
x,y,z
-x,y,1/2-z
-x,-y,-z
x,-y,1/2+z
1/2+x,1/2+y,z
1/2-x,1/2+y,1/2-z
1/2-x,1/2-y,-z
1/2+x,1/2-y,1/2+z
loop_
_atom_site_type_symbol
_atom_site_label
_atom_site_fract_x
_atom_site_fract_y
_atom_site_fract_z
Si Si1 0.700034 0.601511 0.003148
Si Si2 0.177170 0.593705 0.678089
Si Si3 0.699974 0.605255 0.466249
Si Si4 0.564455 0.412198 0.485780
Si Si5 0.337499 0.297150 0.214002
Si Si6 0.858223 0.788032 0.660228
Si Si7 0.554592 0.397586 0.857927
Si Si8 0.681443 0.903148 0.819507
O O1 0.761386 0.601730 0.902711
O O2 0.683054 0.498817 0.001571
O O3 0.678665 0.673476 0.923917
O O4 0.678217 0.641965 0.190078
O O5 0.153562 0.684254 0.789237
O O6 0.164232 0.496387 0.770603
O O7 0.166955 0.594031 0.517999
O O8 0.705118 0.648282 0.620662
O O9 0.658063 0.675877 0.473471
O O10 0.756255 0.603739 0.298372
O O11 0.607544 0.345088 0.354599
O O12 0.565849 0.408466 0.663289
O O13 0.506895 0.387928 0.528656
O O14 0.572292 0.512732 0.413720
O O15 0.338080 0.190019 0.220394
O O16 0.914649 0.815766 0.621533
#
# Coordination Sequence:
#
# PCOD9309120 Si02
#       8
#     8   8   8   8   8   8   8   8
#     4  11  20  36  55  80 115 147 181 224 277 328
#     4  11  24  38  57  78 113 148 192 234 272 320
#     4  11  24  33  56  86 115 146 185 225 276 338
#     4  10  21  37  56  84 113 144 179 226 279 336
#     4  12  23  37  57  81 115 151 187 228 275 331
#     4  12  21  38  57  81 110 153 185 225 278 330
#     4  10  21  36  58  83 112 144 181 223 281 337
#     4  11  24  40  54  80 112 150 191 235 271 318
#
# _framework density 9.1235599999999994
#
# number of rings (size 3 to 8) (size 9 to 14) (size 15 to 20)
#    0.000    1.000    3.750    3.750    8.750    0.000 
#    0.000    0.000    0.000    0.750    0.000    0.000 
#    0.000    0.000    0.000    0.000    0.000    0.000 
#
# Total GULP energy -178510.635279 kJ/mol
# GULP energy per Si atom -5578.457352 kJ/mol
# Density = 0.910279 g / cm^3
# Si number density = 9.123560 Si / 1000 Ang^3
#
#
#
# Elastic Constant Matrix: (Units=GPa)
#
#
# Indices 1 2 3 4 5 6 
#
# 1 30.2178 -3.4006 -3.2757 0.0000 -4.1603 0.0000
# 2 -3.4006 114.6619 8.4811 0.0000 -8.5328 0.0000
# 3 -3.2757 8.4811 38.5101 0.0000 -2.7252 0.0000
# 4 0.0000 0.0000 0.0000 27.9564 0.0000 2.0934
# 5 -4.1603 -8.5328 -2.7252 0.0000 6.7928 0.0000
# 6 0.0000 0.0000 0.0000 2.0934 0.0000 28.3408
#
#
#
# Elastic Compliance Matrix: (Units=1/GPa)
#
#
# Indices 1 2 3 4 5 6 
#
# 1 0.037874 0.002919 0.004611 0.000000 0.028713 0.000000
# 2 0.002919 0.009909 -0.000954 0.000000 0.013853 0.000000
# 3 0.004611 -0.000954 0.027464 0.000000 0.012644 0.000000
# 4 0.000000 0.000000 0.000000 0.035969 0.000000 -0.002657
# 5 0.028713 0.013853 0.012644 0.000000 0.187273 0.000000
# 6 0.000000 0.000000 0.000000 -0.002657 0.000000 0.035481
#
#
# Mechanical properties :
#
#
# Convention : Reuss Voigt Hill
#
# Bulk Modulus (GPa) = 11.31229 20.77771 16.04500
# Shear Modulus (GPa) = 14.27407 24.72368 19.49887
#
# Velocity S-wave (km/s) = 2.79993 3.68494 3.27249
# Velocity P-wave (km/s) = 4.08237 5.43292 4.80533
#
# Compressibility (1/GPa) = 0.08839945
#
# Stress axis : x y z
#
# Youngs Moduli (GPa) = 26.40305 100.91561 36.41105
#
# Poissons Ratio (x) = -0.29457 -0.16788
# Poissons Ratio (y) = -0.07707 0.03473
# Poissons Ratio (z) = -0.12173 0.09625
#
# Static dielectric constant tensor:
#      x y z
#    x 1.643530 0.000000 0.018970 
#    y 0.000000 1.596440 0.000000 
#    z 0.018970 0.000000 1.685580 
# 
# From -- ./inp_files/69923.got.cif
#   From: 2010.05.17/outbox.ucp.g08.bks.cvg/sg15_35_cif.got.tgz:69923.got - 2010.06.11 12:40:34.
