data_PCOD9309489
_publ_section_title
;
Structure prediction by ZEFSAII (Michael W. Deem and Ramdas Pophale) SiO2 
 PCOD9309489
Probable space group: C 2/C
;
_chemical_formula_sum "Si O2"
_cell_formula_units_Z 28
_cell_length_a 30.000000
_cell_length_b 6.000000
_cell_length_c 15.000000
_cell_angle_alpha 90.000000
_cell_angle_beta 90.000000
_cell_angle_gamma 90.000000
_cell_volume 2700.000000
_symmetry_space_group_name_H-M "C 2/C"
_symmetry_group_IT_number 15
_symmetry_cell_setting 'monoclinic'
loop_
_space_group_symop_operation_xyz
x,y,z
-x,y,1/2-z
-x,-y,-z
x,-y,1/2+z
1/2+x,1/2+y,z
1/2-x,1/2+y,1/2-z
1/2-x,1/2-y,-z
1/2+x,1/2-y,1/2+z
loop_
_atom_site_type_symbol
_atom_site_label
_atom_site_fract_x
_atom_site_fract_y
_atom_site_fract_z
Si Si1 0.101880 0.011074 0.287077
Si Si2 0.750086 0.452167 0.609641
Si Si3 0.689456 0.230855 0.228479
Si Si4 0.462660 0.245484 0.075720
Si Si5 0.057877 0.956191 0.092603
Si Si6 0.602333 0.854847 0.448661
Si Si7 0.813987 0.553405 0.950509
O O1 0.113033 0.222766 0.354556
O O2 0.146547 0.873592 0.260600
O O3 0.068875 0.870100 0.351669
O O4 0.077401 0.037378 0.188928
O O5 0.725111 0.626996 0.672183
O O6 0.785695 0.345109 0.680009
O O7 0.777435 0.539075 0.522981
O O8 0.710512 0.288570 0.573136
O O9 0.677812 0.051737 0.148983
O O10 0.513659 0.300159 0.103735
O O11 0.442759 0.996152 0.070590
O O12 0.456463 0.346712 0.975692
O O13 0.092601 0.817752 0.030066
O O14 0.640537 0.019353 0.490671
#
# Coordination Sequence:
#
# PCOD9309489 Si02
#       7
#     8   8   8   8   8   8   8
#     4  11  25  41  68 103 136 175 227 288 335 409
#     4  11  26  42  68  99 134 186 236 285 345 424
#     4  12  24  44  69  98 139 183 228 290 346 408
#     4  10  23  43  68  98 141 177 224 274 341 416
#     4  10  22  45  67  99 139 180 220 281 346 402
#     4  11  24  42  72 103 132 180 233 282 342 418
#     4  11  25  45  66  99 140 178 231 289 352 407
#
# _framework density 10.370369999999999
#
# number of rings (size 3 to 8) (size 9 to 14) (size 15 to 20)
#    0.000    1.143    2.857    2.143    4.000    4.571 
#    0.000    4.286    0.000    0.000    0.000    0.000 
#    0.000    0.000    0.000    0.000    0.000    0.000 
#
# Total GULP energy -156136.928283 kJ/mol
# GULP energy per Si atom -5576.318867 kJ/mol
# Density = 1.034677 g / cm^3
# Si number density = 10.370370 Si / 1000 Ang^3
#
#
#
# Elastic Constant Matrix: (Units=GPa)
#
#
# Indices 1 2 3 4 5 6 
#
# 1 79.6630 -2.0615 9.4229 0.0000 7.6049 0.0000
# 2 -2.0615 23.2037 8.1303 0.0000 5.7404 0.0000
# 3 9.4229 8.1303 145.7545 0.0000 10.6864 0.0000
# 4 0.0000 0.0000 0.0000 42.8227 0.0000 -8.3721
# 5 7.6049 5.7404 10.6864 0.0000 54.0550 0.0000
# 6 0.0000 0.0000 0.0000 -8.3721 0.0000 34.7946
#
#
#
# Elastic Compliance Matrix: (Units=1/GPa)
#
#
# Indices 1 2 3 4 5 6 
#
# 1 0.012873 0.001883 -0.000801 0.000000 -0.001853 0.000000
# 2 0.001883 0.045212 -0.002306 0.000000 -0.004610 0.000000
# 3 -0.000801 -0.002306 0.007118 0.000000 -0.001050 0.000000
# 4 0.000000 0.000000 0.000000 0.024505 0.000000 0.005896
# 5 -0.001853 -0.004610 -0.001050 0.000000 0.019457 0.000000
# 6 0.000000 0.000000 0.000000 0.005896 0.000000 0.030159
#
#
# Mechanical properties :
#
#
# Convention : Reuss Voigt Hill
#
# Bulk Modulus (GPa) = 15.93490 31.06716 23.50103
# Shear Modulus (GPa) = 30.73295 41.87644 36.30469
#
# Velocity S-wave (km/s) = 3.85355 4.49825 4.18832
# Velocity P-wave (km/s) = 5.24398 6.48000 5.89448
#
# Compressibility (1/GPa) = 0.06275534
#
# Stress axis : x y z
#
# Youngs Moduli (GPa) = 77.68037 22.11786 140.48434
#
# Poissons Ratio (x) = -0.04164 0.11259
# Poissons Ratio (y) = -0.14626 0.32391
# Poissons Ratio (z) = 0.06226 0.05100
#
# Static dielectric constant tensor:
#      x y z
#    x 1.765460 0.000000 0.011430 
#    y 0.000000 1.824430 0.000000 
#    z 0.011430 0.000000 1.715120 
# 
# From -- ./inp_files/180126.got.cif
#   From: 2010.05.17/outbox.ucp.g08.bks.cvg/sg15_91_cif.got.tgz:180126.got - 2010.06.11 12:40:34.
