data_PCOD9309217
_publ_section_title
;
Structure prediction by ZEFSAII (Michael W. Deem and Ramdas Pophale) SiO2 
 PCOD9309217
Probable space group: C 2/C
;
_chemical_formula_sum "Si O2"
_cell_formula_units_Z 24
_cell_length_a 18.000000
_cell_length_b 15.000000
_cell_length_c 18.000000
_cell_angle_alpha 90.000000
_cell_angle_beta 150.000000
_cell_angle_gamma 90.000000
_cell_volume 2430.000000
_symmetry_space_group_name_H-M "C 2/C"
_symmetry_group_IT_number 15
_symmetry_cell_setting 'monoclinic'
loop_
_space_group_symop_operation_xyz
x,y,z
-x,y,1/2-z
-x,-y,-z
x,-y,1/2+z
1/2+x,1/2+y,z
1/2-x,1/2+y,1/2-z
1/2-x,1/2-y,-z
1/2+x,1/2-y,1/2+z
loop_
_atom_site_type_symbol
_atom_site_label
_atom_site_fract_x
_atom_site_fract_y
_atom_site_fract_z
Si Si1 0.156642 0.705318 0.077647
Si Si2 0.638247 0.671852 0.710145
Si Si3 0.295499 0.297609 0.959405
Si Si4 0.426877 0.963164 0.765729
Si Si5 0.096642 0.665947 0.757891
Si Si6 0.345006 0.996002 0.410588
O O1 0.133706 0.767122 0.131129
O O2 0.271414 0.762683 0.127621
O O3 0.206590 0.600905 0.132990
O O4 0.005871 0.693590 0.900551
O O5 0.470970 0.675604 0.601876
O O6 0.752173 0.723010 0.862344
O O7 0.715838 0.572748 0.771516
O O8 0.192946 0.382665 0.843747
O O9 0.250000 0.250000 0.000000
O O10 0.500000 0.963607 0.750000
O O11 0.356833 0.062415 0.715880
O O12 0.576291 0.959270 0.946162
O O13 0.000000 0.668621 0.750000
O O14 0.500000 0.000000 0.500000
#
# Coordination Sequence:
#
# PCOD9309217 Si02
#       6
#     8   8   8   8   8   8
#     4  11  23  41  64  91 124 162 207 259 314 376
#     4  12  24  40  64  93 126 169 212 262 321 378
#     4  12  24  40  62  93 129 167 213 263 314 380
#     4  10  21  40  64  89 123 166 208 257 319 378
#     4  10  22  41  65  91 122 161 204 256 315 375
#     4  11  23  42  63  89 128 167 207 261 317 377
#
# _framework density 9.8765429999999999
#
# number of rings (size 3 to 8) (size 9 to 14) (size 15 to 20)
#    0.000    1.000    0.000    9.000    0.000    1.333 
#    0.000    6.667    0.000    0.000    0.000    0.000 
#    0.000    0.000    0.000    0.000    0.000    0.000 
#
# Total GULP energy -133722.794059 kJ/mol
# GULP energy per Si atom -5571.783086 kJ/mol
# Density = 0.985406 g / cm^3
# Si number density = 9.876543 Si / 1000 Ang^3
#
#
#
# Elastic Constant Matrix: (Units=GPa)
#
#
# Indices 1 2 3 4 5 6 
#
# 1 96.2157 26.8763 22.1299 -0.0005 -4.4867 -0.0001
# 2 26.8763 181.9124 40.0842 -0.0010 21.0993 -0.0004
# 3 22.1299 40.0842 71.5712 -0.0016 2.9375 -0.0007
# 4 -0.0005 -0.0010 -0.0016 54.3952 -0.0006 5.2959
# 5 -4.4867 21.0993 2.9375 -0.0006 49.4777 -0.0002
# 6 -0.0001 -0.0004 -0.0007 5.2959 -0.0002 32.3603
#
#
#
# Elastic Compliance Matrix: (Units=1/GPa)
#
#
# Indices 1 2 3 4 5 6 
#
# 1 0.011499 -0.001258 -0.002923 0.000000 0.001753 0.000000
# 2 -0.001258 0.006725 -0.003263 0.000000 -0.002788 0.000000
# 3 -0.002923 -0.003263 0.016698 0.000000 0.000135 0.000000
# 4 0.000000 0.000000 0.000000 0.018682 0.000000 -0.003057
# 5 0.001753 -0.002788 0.000135 0.000000 0.021551 0.000000
# 6 0.000000 0.000000 0.000000 -0.003057 0.000000 0.031402
#
#
# Mechanical properties :
#
#
# Convention : Reuss Voigt Hill
#
# Bulk Modulus (GPa) = 49.91536 58.65335 54.28436
# Shear Modulus (GPa) = 39.02486 44.62055 41.82271
#
# Velocity S-wave (km/s) = 4.44963 4.75796 4.60638
# Velocity P-wave (km/s) = 7.19190 7.74222 7.47213
#
# Compressibility (1/GPa) = 0.02003391
#
# Stress axis : x y z
#
# Youngs Moduli (GPa) = 86.96614 148.68800 59.88786
#
# Poissons Ratio (x) = 0.18707 0.17504
# Poissons Ratio (y) = 0.10941 0.19543
# Poissons Ratio (z) = 0.25418 0.48520
#
# Static dielectric constant tensor:
#      x y z
#    x 1.746770 0.000000 0.003780 
#    y 0.000000 1.819240 0.000000 
#    z 0.003780 0.000000 1.620080 
# 
# From -- ./inp_files/211448.got.cif
#   From: 2010.05.17/outbox.ucp.g08.bks.cvg/sg15_106_cif.got.tgz:211448.got - 2010.06.11 12:40:34.
