data_PCOD9309211
_publ_section_title
;
Structure prediction by ZEFSAII (Michael W. Deem and Ramdas Pophale) SiO2 
 PCOD9309211
Probable space group: C 2/C
;
_chemical_formula_sum "Si O2"
_cell_formula_units_Z 20
_cell_length_a 18.000000
_cell_length_b 18.000000
_cell_length_c 12.000000
_cell_angle_alpha 90.000000
_cell_angle_beta 30.000000
_cell_angle_gamma 90.000000
_cell_volume 1944.000000
_symmetry_space_group_name_H-M "C 2/C"
_symmetry_group_IT_number 15
_symmetry_cell_setting 'monoclinic'
loop_
_space_group_symop_operation_xyz
x,y,z
-x,y,1/2-z
-x,-y,-z
x,-y,1/2+z
1/2+x,1/2+y,z
1/2-x,1/2+y,1/2-z
1/2-x,1/2-y,-z
1/2+x,1/2-y,1/2+z
loop_
_atom_site_type_symbol
_atom_site_label
_atom_site_fract_x
_atom_site_fract_y
_atom_site_fract_z
Si Si1 0.724271 0.082425 0.421194
Si Si2 0.685912 0.716596 0.693901
Si Si3 0.864969 0.430007 0.012341
Si Si4 0.573380 0.121045 0.824087
Si Si5 0.141896 0.775938 0.827796
O O1 0.687941 0.076243 0.598600
O O2 0.579694 0.113661 0.543302
O O3 0.843839 0.145720 0.250480
O O4 0.739463 0.001882 0.350106
O O5 0.750000 0.750000 0.500000
O O6 0.762170 0.637676 0.610887
O O7 0.730958 0.760812 0.746968
O O8 0.511209 0.720191 0.907667
O O9 0.000000 0.441095 0.750000
O O10 0.933795 0.411656 0.043140
O O11 0.629684 0.205606 0.761877
#
# Coordination Sequence:
#
# PCOD9309211 Si02
#       5
#     8   8   8   8   8
#     4  11  22  37  66  88 124 165 206 262 309 375
#     4  11  23  40  62  92 126 166 206 256 308 376
#     4  11  23  38  63  91 126 164 209 258 315 377
#     4  10  21  40  59  93 120 163 211 253 310 377
#     4  11  22  40  62  90 124 160 214 252 310 370
#
# _framework density 10.288066000000001
#
# number of rings (size 3 to 8) (size 9 to 14) (size 15 to 20)
#    0.000    1.200    4.000    4.200    0.000    0.800 
#    0.000    0.000    0.000    0.000    0.000    0.000 
#    0.000    0.000    0.000    0.000    0.000    0.000 
#
# Total GULP energy -111507.979705 kJ/mol
# GULP energy per Si atom -5575.398985 kJ/mol
# Density = 1.026465 g / cm^3
# Si number density = 10.288066 Si / 1000 Ang^3
#
#
#
# Elastic Constant Matrix: (Units=GPa)
#
#
# Indices 1 2 3 4 5 6 
#
# 1 53.3379 33.0628 -10.5430 -0.0004 21.7656 0.0004
# 2 33.0628 105.4311 33.7227 0.0003 18.9073 -0.0002
# 3 -10.5430 33.7227 23.2397 -0.0001 11.0906 0.0002
# 4 -0.0004 0.0003 -0.0001 15.0072 -0.0002 -6.6735
# 5 21.7656 18.9073 11.0906 -0.0002 9.4495 0.0000
# 6 0.0004 -0.0002 0.0002 -6.6735 0.0000 33.4627
#
#
#
# Elastic Compliance Matrix: (Units=1/GPa)
#
#
# Indices 1 2 3 4 5 6 
#
# 1 -0.007096 0.003928 -0.029481 0.000000 0.043086 0.000000
# 2 0.003928 0.016143 -0.004343 -0.000001 -0.036252 0.000000
# 3 -0.029481 -0.004343 -0.001355 0.000001 0.078185 0.000001
# 4 0.000000 -0.000001 0.000001 0.073119 0.000002 0.014582
# 5 0.043086 -0.036252 0.078185 0.000002 -0.012644 -0.000001
# 6 0.000000 0.000000 0.000001 0.014582 -0.000001 0.032792
#
#
# Mechanical properties :
#
#
# Convention : Reuss Voigt Hill
#
# Bulk Modulus (GPa) = -19.19446 32.72151 6.76353
# Shear Modulus (GPa) = 34.87126 19.96827 27.41976
#
# Velocity S-wave (km/s) = 4.12119 3.11860 3.65444
# Velocity P-wave (km/s) = 3.64649 5.37631 4.59356
#
# Compressibility (1/GPa) = -0.05209837
#
# Stress axis : x y z
#
# Youngs Moduli (GPa) = -140.92769 61.94556 -738.04400
#
# Poissons Ratio (x) = -0.24333 -21.75818
# Poissons Ratio (y) = 0.55359 -3.20510
# Poissons Ratio (z) = -4.15467 0.26901
#
# Static dielectric constant tensor:
#      x y z
#    x 1.667210 0.000000 0.012630 
#    y 0.000000 1.779850 0.000000 
#    z 0.012630 0.000000 1.746230 
# 
# From -- ./inp_files/48287.got.cif
#   From: 2010.05.17/outbox.ucp.g08.bks.cvg/sg15_25_cif.got.tgz:48287.got - 2010.06.11 12:40:34.
