data_PCOD9309577
_publ_section_title
;
Structure prediction by ZEFSAII (Michael W. Deem and Ramdas Pophale) SiO2 
 PCOD9309577
Probable space group: C 2/C
;
_chemical_formula_sum "Si O2"
_cell_formula_units_Z 26
_cell_length_a 30.000000
_cell_length_b 15.000000
_cell_length_c 9.000000
_cell_angle_alpha 90.000000
_cell_angle_beta 140.000000
_cell_angle_gamma 90.000000
_cell_volume 2603.289819
_symmetry_space_group_name_H-M "C 2/C"
_symmetry_group_IT_number 15
_symmetry_cell_setting 'monoclinic'
loop_
_space_group_symop_operation_xyz
x,y,z
-x,y,1/2-z
-x,-y,-z
x,-y,1/2+z
1/2+x,1/2+y,z
1/2-x,1/2+y,1/2-z
1/2-x,1/2-y,-z
1/2+x,1/2-y,1/2+z
loop_
_atom_site_type_symbol
_atom_site_label
_atom_site_fract_x
_atom_site_fract_y
_atom_site_fract_z
Si Si1 0.330461 0.622712 0.102317
Si Si2 0.827758 0.379083 0.359764
Si Si3 0.055483 0.522068 0.765400
Si Si4 0.590597 0.442371 0.221451
Si Si5 0.194692 0.180095 0.120065
Si Si6 0.000000 0.994762 0.250000
Si Si7 0.148279 0.321225 0.420174
O O1 0.379874 0.541879 0.194497
O O2 0.321845 0.641090 0.257111
O O3 0.359510 0.715118 0.112208
O O4 0.253959 0.597623 0.846564
O O5 0.880877 0.451577 0.558738
O O6 0.829120 0.282532 0.441035
O O7 0.845476 0.359715 0.232128
O O8 0.089992 0.619326 0.845266
O O9 0.000000 0.515935 0.750000
O O10 0.000000 0.500000 0.500000
O O11 0.652145 0.374150 0.392615
O O12 0.537767 0.434248 0.223783
O O13 0.552202 0.441555 0.968900
O O14 0.276671 0.168728 0.311836
#
# Coordination Sequence:
#
# PCOD9309577 Si02
#       7
#     8   8   8   8   8   4   8
#     4   9  18  36  65  86 113 148 200 249 292 337
#     4   9  19  38  61  90 110 151 205 244 284 352
#     4  12  23  40  58  88 126 162 193 240 301 361
#     4  11  19  40  54  87 113 156 186 238 293 341
#     4   9  18  36  66  86 110 150 203 248 287 340
#     4  10  24  34  52  78 122 146 192 220 282 368
#     4   9  19  38  60  90 113 149 202 245 287 351
#
# _framework density 9.9873630000000002
#
# number of rings (size 3 to 8) (size 9 to 14) (size 15 to 20)
#    0.000    2.154    3.077    2.769    0.000    0.000 
#    8.308    0.000    0.000    3.692    0.000    0.000 
#    0.000    0.000    0.000    0.000    0.000    0.000 
#
# Total GULP energy -144853.644073 kJ/mol
# GULP energy per Si atom -5571.294003 kJ/mol
# Density = 0.996463 g / cm^3
# Si number density = 9.987363 Si / 1000 Ang^3
#
#
#
# Elastic Constant Matrix: (Units=GPa)
#
#
# Indices 1 2 3 4 5 6 
#
# 1 -2.8254 6.6732 29.6079 0.0000 -14.0945 0.0000
# 2 6.6732 54.9437 78.3555 0.0000 15.6904 0.0000
# 3 29.6079 78.3555 142.4931 0.0000 10.2869 0.0000
# 4 0.0000 0.0000 0.0000 -149.8722 0.0000 -33.8593
# 5 -14.0945 15.6904 10.2869 0.0000 13.0463 0.0000
# 6 0.0000 0.0000 0.0000 -33.8593 0.0000 7.7799
#
#
#
# Elastic Compliance Matrix: (Units=1/GPa)
#
#
# Indices 1 2 3 4 5 6 
#
# 1 -0.029432 0.029071 -0.005356 0.000000 -0.062536 0.000000
# 2 0.029071 0.243444 -0.128345 0.000000 -0.160177 0.000000
# 3 -0.005356 -0.128345 0.072084 0.000000 0.091732 0.000000
# 4 0.000000 0.000000 0.000000 -0.003364 0.000000 -0.014642
# 5 -0.062536 -0.160177 0.091732 0.000000 0.129398 0.000000
# 6 0.000000 0.000000 0.000000 -0.014642 0.000000 0.064811
#
#
# Mechanical properties :
#
#
# Convention : Reuss Voigt Hill
#
# Bulk Modulus (GPa) = 13.01441 47.09828 30.05635
# Shear Modulus (GPa) = 7.02432 -20.47754 -6.72661
#
# Velocity S-wave (km/s) = 1.87730 -3.20531 -1.83708
# Velocity P-wave (km/s) = 3.35091 3.15143 3.25270
#
# Compressibility (1/GPa) = 0.07683791
#
# Stress axis : x y z
#
# Youngs Moduli (GPa) = -33.97668 4.10771 13.87276
#
# Poissons Ratio (x) = -0.11942 0.07430
# Poissons Ratio (y) = 0.98774 1.78049
# Poissons Ratio (z) = -0.18197 0.52720
#
# Static dielectric constant tensor:
#      x y z
#    x 1.774390 0.000000 -0.027120 
#    y 0.000000 1.697630 0.000000 
#    z -0.027120 0.000000 1.715880 
# 
# From -- ./inp_files/70196.got.cif
#   From: 2010.05.17/outbox.ucp.g08.bks.cvg/sg15_36_cif.got.tgz:70196.got - 2010.06.11 12:40:34.
