data_PCOD9309946
_publ_section_title
;
Structure prediction by ZEFSAII (Michael W. Deem and Ramdas Pophale) SiO2 
 PCOD9309946
Probable space group: P 2 2 2
;
_chemical_formula_sum "Si O2"
_cell_formula_units_Z 19
_cell_length_a 8.828388
_cell_length_b 5.567618
_cell_length_c 19.230982
_cell_angle_alpha 90.000000
_cell_angle_beta 90.000000
_cell_angle_gamma 90.000000
_cell_volume 945.262226
_symmetry_space_group_name_H-M "P 2 2 2"
_symmetry_group_IT_number 16
_symmetry_cell_setting 'orthorhombic'
loop_
_space_group_symop_operation_xyz
x,y,z
-x,-y,z
x,-y,-z
-x,y,-z
loop_
_atom_site_type_symbol
_atom_site_label
_atom_site_fract_x
_atom_site_fract_y
_atom_site_fract_z
Si Si1 0.338398 0.873739 0.694596
Si Si2 0.000000 0.500000 0.500000
Si Si3 0.173804 0.748564 0.971843
Si Si4 0.904292 0.750268 0.189283
Si Si5 0.500000 0.500000 0.399608
Si Si6 0.758354 0.827873 0.565645
O O1 0.232376 0.787499 0.756654
O O2 0.385729 0.646364 0.648780
O O3 0.500000 0.000000 0.714418
O O4 0.248433 0.045582 0.640578
O O5 0.897198 0.654135 0.551642
O O6 0.161289 0.739441 0.888924
O O7 0.244095 0.500000 0.000000
O O8 0.000000 0.748991 0.000000
O O9 0.241272 0.000000 0.000000
O O10 0.000000 0.500000 0.200880
O O11 0.000000 0.000000 0.193375
O O12 0.602031 0.314263 0.439975
O O13 0.764981 0.000000 0.500000
#
# Coordination Sequence:
#
# PCOD9309946 Si02
#       6
#     4   1   4   4   2   4
#     4  10  26  46  64  93 132 182 225 272 344 420
#     4  12  26  42  68  98 128 166 204 304 334 390
#     4  10  16  34  59  96 134 170 215 276 339 403
#     4  12  24  39  68 106 136 173 229 291 345 402
#     4  10  24  47  68  86 121 178 220 264 325 420
#     4  11  25  45  66  93 125 167 222 270 338 398
#
# _framework density 20.100242000000001
#
# number of rings (size 3 to 8) (size 9 to 14) (size 15 to 20)
#    0.000    1.263    4.211    1.579    5.895   13.474 
#    1.895    0.000    0.000    0.632    0.000    0.000 
#    0.000    0.000    0.000    0.000    0.000    0.000 
#
# Total GULP energy -106103.191167 kJ/mol
# GULP energy per Si atom -5584.378482 kJ/mol
# Density = 2.005449 g / cm^3
# Si number density = 20.100242 Si / 1000 Ang^3
#
#
#
# Elastic Constant Matrix: (Units=GPa)
#
#
# Indices 1 2 3 4 5 6 
#
# 1 89.2461 63.6203 96.6944 0.0000 0.0000 0.0000
# 2 63.6203 166.9316 68.9255 0.0000 0.0000 0.0000
# 3 96.6944 68.9255 147.6046 0.0000 0.0000 0.0000
# 4 0.0000 0.0000 0.0000 73.7316 0.0000 0.0000
# 5 0.0000 0.0000 0.0000 0.0000 75.2028 0.0000
# 6 0.0000 0.0000 0.0000 0.0000 0.0000 22.5237
#
#
#
# Elastic Compliance Matrix: (Units=1/GPa)
#
#
# Indices 1 2 3 4 5 6 
#
# 1 0.042787 -0.005864 -0.025291 0.000000 0.000000 0.000000
# 2 -0.005864 0.008225 0.000001 0.000000 0.000000 0.000000
# 3 -0.025291 0.000001 0.023342 0.000000 0.000000 0.000000
# 4 0.000000 0.000000 0.000000 0.013563 0.000000 0.000000
# 5 0.000000 0.000000 0.000000 0.000000 0.013297 0.000000
# 6 0.000000 0.000000 0.000000 0.000000 0.000000 0.044398
#
#
# Mechanical properties :
#
#
# Convention : Reuss Voigt Hill
#
# Bulk Modulus (GPa) = 83.01751 95.80696 89.41224
# Shear Modulus (GPa) = 23.59193 45.92777 34.75985
#
# Velocity S-wave (km/s) = 3.42967 4.78529 4.16303
# Velocity P-wave (km/s) = 7.55479 8.84873 8.22724
#
# Compressibility (1/GPa) = 0.01204565
#
# Stress axis : x y z
#
# Youngs Moduli (GPa) = 23.37145 121.57906 42.84042
#
# Poissons Ratio (x) = 0.71297 1.08348
# Poissons Ratio (y) = 0.13706 -0.00004
# Poissons Ratio (z) = 0.59109 -0.00010
#
# Static dielectric constant tensor:
#      x y z
#    x 1.674530 0.000000 0.000000 
#    y 0.000000 1.791490 0.000000 
#    z 0.000000 0.000000 1.686860 
# 
# From -- ./inp_files/8797.got.cif
#   From: 2010.05.17/outbox.cif.g08.bks.cpg/sg16_5_cif.got.tgz:8797.got - 2010.06.03 22:28:35.
