data_PCOD9309939
_publ_section_title
;
Structure prediction by ZEFSAII (Michael W. Deem and Ramdas Pophale) SiO2 
 PCOD9309939
Probable space group: P 2 2 2
;
_chemical_formula_sum "Si O2"
_cell_formula_units_Z 25
_cell_length_a 14.621088
_cell_length_b 14.340270
_cell_length_c 5.521840
_cell_angle_alpha 90.000000
_cell_angle_beta 90.000000
_cell_angle_gamma 90.000000
_cell_volume 1157.766123
_symmetry_space_group_name_H-M "P 2 2 2"
_symmetry_group_IT_number 16
_symmetry_cell_setting 'orthorhombic'
loop_
_space_group_symop_operation_xyz
x,y,z
-x,-y,z
x,-y,-z
-x,y,-z
loop_
_atom_site_type_symbol
_atom_site_label
_atom_site_fract_x
_atom_site_fract_y
_atom_site_fract_z
Si Si1 0.103430 0.462328 0.751547
Si Si2 0.400729 0.400003 0.383534
Si Si3 0.876027 0.048504 0.248318
Si Si4 0.330562 0.974239 0.749708
Si Si5 0.851027 0.251737 0.237068
Si Si6 0.739301 0.762516 0.267454
Si Si7 0.500000 0.500000 0.000000
O O1 0.146017 0.500000 0.500000
O O2 0.100141 0.351061 0.758706
O O3 0.000000 0.500000 0.751950
O O4 0.148462 0.500000 0.000000
O O5 0.370717 0.500000 0.500000
O O6 0.500000 0.376012 0.500000
O O7 0.331811 0.316138 0.355794
O O8 0.429984 0.429968 0.120244
O O9 0.905506 0.155267 0.219337
O O10 0.903565 0.000000 0.500000
O O11 0.764090 0.036370 0.250604
O O12 0.903231 0.000000 0.000000
O O13 0.303634 0.865688 0.747722
O O14 0.378981 0.000000 0.500000
O O15 0.378511 0.000000 0.000000
O O16 0.808096 0.239126 0.505189
O O17 0.784883 0.255313 0.997672
#
# Coordination Sequence:
#
# PCOD9309939 Si02
#       7
#     4   4   4   4   4   4   1
#     4  10  23  44  61  80 118 168 201 233 293 376
#     4   9  22  40  56  77 111 162 202 242 300 361
#     4  10  16  31  50  81 124 148 177 232 310 355
#     4  10  16  32  50  79 121 153 174 229 314 357
#     4  12  22  34  59  94 118 150 197 246 306 355
#     4  12  22  33  60  92 118 150 196 254 303 352
#     4   8  18  44  56  66 106 160 196 236 294 356
#
# _framework density 21.593308
#
# number of rings (size 3 to 8) (size 9 to 14) (size 15 to 20)
#    0.000    1.760    6.400    0.960    4.480    1.920 
#    0.000    0.000    0.000    0.480    0.000   13.440 
#    0.000    0.000    0.000    0.000    0.000    0.000 
#
# Total GULP energy -139275.975502 kJ/mol
# GULP energy per Si atom -5571.039020 kJ/mol
# Density = 2.154416 g / cm^3
# Si number density = 21.593308 Si / 1000 Ang^3
#
#
#
# Elastic Constant Matrix: (Units=GPa)
#
#
# Indices 1 2 3 4 5 6 
#
# 1 29.5437 24.5615 14.1794 0.0000 0.0000 0.0000
# 2 24.5615 214.2374 57.6901 0.0000 0.0000 0.0000
# 3 14.1794 57.6901 174.7445 0.0000 0.0000 0.0000
# 4 0.0000 0.0000 0.0000 53.7094 0.0000 0.0000
# 5 0.0000 0.0000 0.0000 0.0000 12.0159 0.0000
# 6 0.0000 0.0000 0.0000 0.0000 0.0000 -267.1111
#
#
#
# Elastic Compliance Matrix: (Units=1/GPa)
#
#
# Indices 1 2 3 4 5 6 
#
# 1 0.037924 -0.003863 -0.001802 0.000000 0.000000 0.000000
# 2 -0.003863 0.005517 -0.001508 0.000000 0.000000 0.000000
# 3 -0.001802 -0.001508 0.006367 0.000000 0.000000 0.000000
# 4 0.000000 0.000000 0.000000 0.018619 0.000000 0.000000
# 5 0.000000 0.000000 0.000000 0.000000 0.083223 0.000000
# 6 0.000000 0.000000 0.000000 0.000000 0.000000 -0.003744
#
#
# Mechanical properties :
#
#
# Convention : Reuss Voigt Hill
#
# Bulk Modulus (GPa) = 28.19886 67.93196 48.06541
# Shear Modulus (GPa) = 28.72380 -18.80421 4.95980
#
# Velocity S-wave (km/s) = 3.65117 -2.95419 1.51720
# Velocity P-wave (km/s) = 5.55537 4.46001 5.03755
#
# Compressibility (1/GPa) = 0.03546243
#
# Stress axis : x y z
#
# Youngs Moduli (GPa) = 26.36835 181.27172 157.06818
#
# Poissons Ratio (x) = 0.70018 0.28305
# Poissons Ratio (y) = 0.10185 0.23683
# Poissons Ratio (z) = 0.04752 0.27332
#
# Static dielectric constant tensor:
#      x y z
#    x 1.504640 0.000000 0.000000 
#    y 0.000000 1.758200 0.000000 
#    z 0.000000 0.000000 2.144310 
# 
# From -- ./inp_files/2412.got.cif
#   From: 2010.05.17/outbox.cif.g08.bks.cpg/sg16_2_cif.got.tgz:2412.got - 2010.06.03 22:28:35.
