data_PCOD9309716
_publ_section_title
;
Structure prediction by ZEFSAII (Michael W. Deem and Ramdas Pophale) SiO2 
 PCOD9309716
Probable space group: C 2/C
;
_chemical_formula_sum "Si O2"
_cell_formula_units_Z 24
_cell_length_a 15.000000
_cell_length_b 30.000000
_cell_length_c 15.000000
_cell_angle_alpha 90.000000
_cell_angle_beta 160.000000
_cell_angle_gamma 90.000000
_cell_volume 2308.635967
_symmetry_space_group_name_H-M "C 2/C"
_symmetry_group_IT_number 15
_symmetry_cell_setting 'monoclinic'
loop_
_space_group_symop_operation_xyz
x,y,z
-x,y,1/2-z
-x,-y,-z
x,-y,1/2+z
1/2+x,1/2+y,z
1/2-x,1/2+y,1/2-z
1/2-x,1/2-y,-z
1/2+x,1/2-y,1/2+z
loop_
_atom_site_type_symbol
_atom_site_label
_atom_site_fract_x
_atom_site_fract_y
_atom_site_fract_z
Si Si1 0.592232 0.721895 0.670819
Si Si2 0.500000 0.891016 0.250000
Si Si3 0.712076 0.359472 0.517219
Si Si4 0.500000 0.543539 0.250000
Si Si5 0.204057 0.113770 0.195702
Si Si6 0.277344 0.517495 0.223656
Si Si7 0.337888 0.843203 0.277627
O O1 0.366401 0.758934 0.462794
O O2 0.454919 0.681756 0.596659
O O3 0.685561 0.702520 0.661563
O O4 0.441637 0.857923 0.278602
O O5 0.754709 0.923435 0.496066
O O6 0.759562 0.392442 0.643992
O O7 0.000000 0.347477 0.750000
O O8 0.500000 0.378846 0.250000
O O9 0.390946 0.513386 0.229700
O O10 0.261430 0.070470 0.305499
O O11 0.407783 0.151377 0.420403
O O12 0.898019 0.123201 0.920451
O O13 0.500000 0.500000 0.500000
O O14 0.000000 0.500000 0.000000
#
# Coordination Sequence:
#
# PCOD9309716 Si02
#       7
#     8   4   8   4   8   8   8
#     4  11  23  39  60  90 129 164 204 265 328 379
#     4  12  20  40  72  97 116 166 228 268 290 383
#     4  11  23  40  63  90 123 168 220 261 307 387
#     4  12  24  44  70  99 130 170 228 268 308 395
#     4  11  22  43  64  90 127 165 212 263 315 375
#     4  12  25  44  68  98 138 169 209 271 333 386
#     4  11  21  39  67  93 120 164 210 262 317 369
#
# _framework density 10.395749
#
# number of rings (size 3 to 8) (size 9 to 14) (size 15 to 20)
#    0.000    0.667    3.333    7.000    0.000    2.000 
#    4.500    0.833    0.000    0.000    0.000    0.000 
#    0.000    0.000    0.000    0.000    0.000    0.000 
#
# Total GULP energy -133739.015135 kJ/mol
# GULP energy per Si atom -5572.458964 kJ/mol
# Density = 1.037209 g / cm^3
# Si number density = 10.395749 Si / 1000 Ang^3
#
#
#
# Elastic Constant Matrix: (Units=GPa)
#
#
# Indices 1 2 3 4 5 6 
#
# 1 176.1279 5.2204 52.3445 -0.0011 15.9919 -0.0014
# 2 5.2204 -0.4636 -10.8581 0.0008 7.6976 0.0004
# 3 52.3445 -10.8581 145.1788 -0.0065 25.8018 -0.0025
# 4 -0.0011 0.0008 -0.0065 26.4078 -0.0031 -5.1361
# 5 15.9919 7.6976 25.8018 -0.0031 41.0326 -0.0013
# 6 -0.0014 0.0004 -0.0025 -5.1361 -0.0013 23.6856
#
#
#
# Elastic Compliance Matrix: (Units=1/GPa)
#
#
# Indices 1 2 3 4 5 6 
#
# 1 0.005874 0.011334 -0.000546 -0.000001 -0.004072 0.000000
# 2 0.011334 -0.239998 -0.032933 0.000008 0.061315 0.000006
# 3 -0.000546 -0.032933 0.003925 0.000003 0.003923 0.000002
# 4 -0.000001 0.000008 0.000003 0.039535 0.000000 0.008573
# 5 -0.004072 0.061315 0.003923 0.000000 0.011988 0.000000
# 6 0.000000 0.000006 0.000002 0.008573 0.000000 0.044079
#
#
# Mechanical properties :
#
#
# Convention : Reuss Voigt Hill
#
# Bulk Modulus (GPa) = -3.64311 46.02851 21.19270
# Shear Modulus (GPa) = -27.50243 36.50093 4.49925
#
# Velocity S-wave (km/s) = -3.64094 4.19450 1.47265
# Velocity P-wave (km/s) = 4.40809 6.75608 3.62031
#
# Compressibility (1/GPa) = -0.27449082
#
# Stress axis : x y z
#
# Youngs Moduli (GPa) = 170.24514 -4.16671 254.79688
#
# Poissons Ratio (x) = 0.04723 0.13924
# Poissons Ratio (y) = -1.92955 8.39132
# Poissons Ratio (z) = 0.09304 -0.13722
#
# Static dielectric constant tensor:
#      x y z
#    x 1.861630 -0.000200 -0.016270 
#    y -0.000200 1.776190 -0.001000 
#    z -0.016270 -0.001000 2.198780 
# 
# From -- ./inp_files/157736.got.cif
#   From: 2010.05.17/outbox.ucp.g08.bks.cvg/sg15_79_cif.got.tgz:157736.got - 2010.06.11 12:40:34.
