data_PCOD9309384
_publ_section_title
;
Structure prediction by ZEFSAII (Michael W. Deem and Ramdas Pophale) SiO2 
 PCOD9309384
Probable space group: C 2/C
;
_chemical_formula_sum "Si O2"
_cell_formula_units_Z 28
_cell_length_a 15.000000
_cell_length_b 12.000000
_cell_length_c 30.000000
_cell_angle_alpha 90.000000
_cell_angle_beta 30.000000
_cell_angle_gamma 90.000000
_cell_volume 2700.000000
_symmetry_space_group_name_H-M "C 2/C"
_symmetry_group_IT_number 15
_symmetry_cell_setting 'monoclinic'
loop_
_space_group_symop_operation_xyz
x,y,z
-x,y,1/2-z
-x,-y,-z
x,-y,1/2+z
1/2+x,1/2+y,z
1/2-x,1/2+y,1/2-z
1/2-x,1/2-y,-z
1/2+x,1/2-y,1/2+z
loop_
_atom_site_type_symbol
_atom_site_label
_atom_site_fract_x
_atom_site_fract_y
_atom_site_fract_z
Si Si1 0.418545 0.956999 0.373331
Si Si2 0.417659 0.719775 0.347526
Si Si3 0.262432 0.125292 0.160460
Si Si4 0.472649 0.203578 0.313800
Si Si5 0.209500 0.913992 0.241916
Si Si6 0.381357 0.528527 0.426734
Si Si7 0.177225 0.681287 0.988186
O O1 0.382725 0.850662 0.357446
O O2 0.585671 0.910812 0.330375
O O3 0.229296 0.975253 0.479815
O O4 0.482014 0.078736 0.329707
O O5 0.626516 0.699519 0.248126
O O6 0.303806 0.650667 0.360592
O O7 0.378072 0.654900 0.410454
O O8 0.221540 0.998995 0.194377
O O9 0.465780 0.163515 0.079559
O O10 0.500000 0.195471 0.250000
O O11 0.611963 0.296097 0.273353
O O12 0.272194 0.249705 0.408373
O O13 0.079753 0.977067 0.334223
O O14 0.263057 0.441589 0.449260
O O15 0.250000 0.750000 0.000000
#
# Coordination Sequence:
#
# PCOD9309384 Si02
#       7
#     8   8   8   8   8   8   8
#     4  12  24  45  66  95 139 180 218 279 348 397
#     4  10  25  39  68  97 137 168 225 279 340 397
#     4  10  22  44  66  97 130 179 218 279 335 393
#     4  11  27  43  64 103 138 174 225 284 341 401
#     4  10  24  41  72  95 132 175 234 277 323 408
#     4  10  22  40  66  99 126 172 235 271 325 403
#     4  11  21  42  71  94 131 183 228 275 332 409
#
# _framework density 10.370369999999999
#
# number of rings (size 3 to 8) (size 9 to 14) (size 15 to 20)
#    0.000    1.429    2.857    0.429   16.000    1.714 
#    2.571    0.714    0.000    0.000    0.000    0.000 
#    0.000    0.000    0.000    0.000    0.000    0.000 
#
# Total GULP energy -156131.637146 kJ/mol
# GULP energy per Si atom -5576.129898 kJ/mol
# Density = 1.034677 g / cm^3
# Si number density = 10.370370 Si / 1000 Ang^3
#
#
#
# Elastic Constant Matrix: (Units=GPa)
#
#
# Indices 1 2 3 4 5 6 
#
# 1 34.4894 14.7659 29.2066 0.0001 -5.2631 -0.0001
# 2 14.7659 144.0532 28.3026 0.0003 11.0854 0.0000
# 3 29.2066 28.3026 109.5249 0.0025 -7.6504 -0.0002
# 4 0.0001 0.0003 0.0025 24.1973 -0.0004 1.3879
# 5 -5.2631 11.0854 -7.6504 -0.0004 37.1972 0.0000
# 6 -0.0001 0.0000 -0.0002 1.3879 0.0000 23.8625
#
#
#
# Elastic Compliance Matrix: (Units=1/GPa)
#
#
# Indices 1 2 3 4 5 6 
#
# 1 0.038628 -0.002447 -0.009371 0.000001 0.004268 0.000000
# 2 -0.002447 0.007726 -0.001551 0.000000 -0.002968 0.000000
# 3 -0.009371 -0.001551 0.012144 -0.000001 0.001634 0.000000
# 4 0.000001 0.000000 -0.000001 0.041465 0.000000 -0.002412
# 5 0.004268 -0.002968 0.001634 0.000000 0.028708 0.000000
# 6 0.000000 0.000000 0.000000 -0.002412 0.000000 0.042047
#
#
# Mechanical properties :
#
#
# Convention : Reuss Voigt Hill
#
# Bulk Modulus (GPa) = 31.48503 48.06863 39.77683
# Shear Modulus (GPa) = 24.03348 31.43755 27.73551
#
# Velocity S-wave (km/s) = 3.40774 3.89747 3.66081
# Velocity P-wave (km/s) = 5.54048 6.59394 6.09003
#
# Compressibility (1/GPa) = 0.03176113
#
# Stress axis : x y z
#
# Youngs Moduli (GPa) = 25.88768 129.43566 82.34409
#
# Poissons Ratio (x) = 0.31671 0.77161
# Poissons Ratio (y) = 0.06334 0.12774
# Poissons Ratio (z) = 0.24258 0.20079
#
# Static dielectric constant tensor:
#      x y z
#    x 1.781050 0.000000 0.067870 
#    y 0.000000 1.773910 0.000000 
#    z 0.067870 0.000000 1.806750 
# 
# From -- ./inp_files/313708.got.cif
#   From: 2010.05.17/outbox.ucp.g08.bks.cvg/sg15_157_cif.got.tgz:313708.got - 2010.06.11 12:40:34.
