data_PCOD9309564
_publ_section_title
;
Structure prediction by ZEFSAII (Michael W. Deem and Ramdas Pophale) SiO2 
 PCOD9309564
Probable space group: C 2/C
;
_chemical_formula_sum "Si O2"
_cell_formula_units_Z 32
_cell_length_a 12.000000
_cell_length_b 9.000000
_cell_length_c 30.000000
_cell_angle_alpha 90.000000
_cell_angle_beta 90.000000
_cell_angle_gamma 90.000000
_cell_volume 3240.000000
_symmetry_space_group_name_H-M "C 2/C"
_symmetry_group_IT_number 15
_symmetry_cell_setting 'monoclinic'
loop_
_space_group_symop_operation_xyz
x,y,z
-x,y,1/2-z
-x,-y,-z
x,-y,1/2+z
1/2+x,1/2+y,z
1/2-x,1/2+y,1/2-z
1/2-x,1/2-y,-z
1/2+x,1/2-y,1/2+z
loop_
_atom_site_type_symbol
_atom_site_label
_atom_site_fract_x
_atom_site_fract_y
_atom_site_fract_z
Si Si1 0.625736 0.545458 0.730738
Si Si2 0.027706 0.333904 0.094037
Si Si3 0.376784 0.903892 0.628288
Si Si4 0.124929 0.311618 0.491355
Si Si5 0.380777 0.461657 0.872292
Si Si6 0.963369 0.849926 0.062740
Si Si7 0.227930 0.601139 0.527949
Si Si8 0.128199 0.382628 0.765359
O O1 0.500000 0.497376 0.750000
O O2 0.613834 0.528083 0.677335
O O3 0.748785 0.466909 0.743263
O O4 0.637715 0.718086 0.744422
O O5 0.061071 0.199847 0.126456
O O6 0.144719 0.372729 0.069507
O O7 0.968976 0.470115 0.118849
O O8 0.936629 0.290976 0.055943
O O9 0.250554 0.952509 0.615958
O O10 0.409177 0.765136 0.597567
O O11 0.377099 0.870042 0.680938
O O12 0.250000 0.250000 0.500000
O O13 0.154202 0.485409 0.499284
O O14 0.037169 0.240216 0.526464
O O15 0.449380 0.551496 0.909522
O O16 0.856026 0.938807 0.042197
O O17 0.250000 0.750000 0.500000
O O18 0.000000 0.438189 0.750000
#
# Coordination Sequence:
#
# PCOD9309564 Si02
#       8
#     8   8   8   8   8   8   8   8
#     4  10  23  46  70 101 138 171 218 273 343 412
#     4  12  24  43  63  95 135 174 228 273 332 390
#     4  11  24  45  67  96 136 171 220 279 332 398
#     4  12  26  40  63  94 130 182 231 277 327 392
#     4  11  26  43  68 101 133 172 220 282 327 402
#     4  12  23  42  67  93 134 178 227 277 335 387
#     4  12  24  41  65  91 128 184 227 278 332 386
#     4  10  23  44  71 101 133 173 217 274 336 418
#
# _framework density 9.8765429999999999
#
# number of rings (size 3 to 8) (size 9 to 14) (size 15 to 20)
#    0.000    0.750    3.750    4.125    1.750    5.500 
#    2.250    0.000    0.000    0.000    0.000    0.000 
#    0.000    0.000    0.000    0.000    0.000    0.000 
#
# Total GULP energy -178564.083926 kJ/mol
# GULP energy per Si atom -5580.127623 kJ/mol
# Density = 0.985406 g / cm^3
# Si number density = 9.876543 Si / 1000 Ang^3
#
#
#
# Elastic Constant Matrix: (Units=GPa)
#
#
# Indices 1 2 3 4 5 6 
#
# 1 167.0595 21.2136 14.6940 0.0000 14.3402 0.0000
# 2 21.2136 71.8950 8.5050 0.0000 4.2654 0.0000
# 3 14.6940 8.5050 53.7432 0.0000 14.0802 0.0000
# 4 0.0000 0.0000 0.0000 38.1196 0.0000 8.2856
# 5 14.3402 4.2654 14.0802 0.0000 41.8441 0.0000
# 6 0.0000 0.0000 0.0000 8.2856 0.0000 46.8688
#
#
#
# Elastic Compliance Matrix: (Units=1/GPa)
#
#
# Indices 1 2 3 4 5 6 
#
# 1 0.006435 -0.001674 -0.001054 0.000000 -0.001680 0.000000
# 2 -0.001674 0.014632 -0.001774 0.000000 -0.000321 0.000000
# 3 -0.001054 -0.001774 0.020874 0.000000 -0.006482 0.000000
# 4 0.000000 0.000000 0.000000 0.027282 0.000000 -0.004823
# 5 -0.001680 -0.000321 -0.006482 0.000000 0.026688 0.000000
# 6 0.000000 0.000000 0.000000 -0.004823 0.000000 0.022189
#
#
# Mechanical properties :
#
#
# Convention : Reuss Voigt Hill
#
# Bulk Modulus (GPa) = 30.36136 42.39143 36.37639
# Shear Modulus (GPa) = 36.20990 41.91883 39.06437
#
# Velocity S-wave (km/s) = 4.28615 4.61167 4.45188
# Velocity P-wave (km/s) = 6.31653 7.06144 6.69934
#
# Compressibility (1/GPa) = 0.03293661
#
# Stress axis : x y z
#
# Youngs Moduli (GPa) = 155.38887 68.34289 47.90613
#
# Poissons Ratio (x) = 0.11444 0.05051
# Poissons Ratio (y) = 0.26019 0.08497
# Poissons Ratio (z) = 0.16384 0.12122
#
# Static dielectric constant tensor:
#      x y z
#    x 1.708160 0.000000 0.002830 
#    y 0.000000 1.766090 0.000000 
#    z 0.002830 0.000000 1.684240 
# 
# From -- ./inp_files/310319.got.cif
#   From: 2010.05.17/outbox.ucp.g08.bks.cvg/sg15_156_cif.got.tgz:310319.got - 2010.06.11 12:40:34.
