data_PCOD9309070
_publ_section_title
;
Structure prediction by ZEFSAII (Michael W. Deem and Ramdas Pophale) SiO2 
 PCOD9309070
Probable space group: C 2/C
;
_chemical_formula_sum "Si O2"
_cell_formula_units_Z 30
_cell_length_a 18.000000
_cell_length_b 21.000000
_cell_length_c 12.000000
_cell_angle_alpha 90.000000
_cell_angle_beta 140.000000
_cell_angle_gamma 90.000000
_cell_volume 2915.684598
_symmetry_space_group_name_H-M "C 2/C"
_symmetry_group_IT_number 15
_symmetry_cell_setting 'monoclinic'
loop_
_space_group_symop_operation_xyz
x,y,z
-x,y,1/2-z
-x,-y,-z
x,-y,1/2+z
1/2+x,1/2+y,z
1/2-x,1/2+y,1/2-z
1/2-x,1/2-y,-z
1/2+x,1/2-y,1/2+z
loop_
_atom_site_type_symbol
_atom_site_label
_atom_site_fract_x
_atom_site_fract_y
_atom_site_fract_z
Si Si1 0.481176 0.135229 0.353335
Si Si2 0.823164 0.490815 0.653073
Si Si3 0.725684 0.907137 0.236190
Si Si4 0.913381 0.183682 0.043087
Si Si5 0.656388 0.173449 0.100656
Si Si6 0.587315 0.602289 0.096559
Si Si7 0.108376 0.033091 0.749917
Si Si8 0.000000 0.409115 0.250000
O O1 0.500000 0.160637 0.250000
O O2 0.606015 0.123345 0.555182
O O3 0.401351 0.175961 0.343463
O O4 0.407223 0.069861 0.254940
O O5 0.803253 0.523147 0.749136
O O6 0.696865 0.476997 0.455657
O O7 0.897784 0.545226 0.676708
O O8 0.802687 0.865245 0.411760
O O9 0.810445 0.922546 0.232848
O O10 0.000000 0.184245 0.250000
O O11 0.001138 0.155817 0.049425
O O12 0.854954 0.253554 0.957567
O O13 0.783407 0.136864 0.257436
O O14 0.566536 0.132900 0.919910
O O15 0.592440 0.539147 0.182709
O O16 0.516477 0.570448 0.907923
#
# Coordination Sequence:
#
# PCOD9309070 Si02
#       8
#     8   8   8   8   8   8   8   4
#     4  12  25  43  69 101 140 183 234 287 348 409
#     4  12  21  37  69 101 139 171 225 278 354 413
#     4  11  23  41  68 102 140 177 228 287 347 418
#     4  11  26  44  70 101 138 186 229 294 353 411
#     4  12  26  43  68 102 140 185 231 290 347 420
#     4  10  23  41  66  97 143 177 228 274 352 421
#     4  10  20  41  65  97 139 178 218 279 343 421
#     4  12  22  36  66 108 138 176 218 282 360 414
#
# _framework density 10.289179000000001
#
# number of rings (size 3 to 8) (size 9 to 14) (size 15 to 20)
#    0.000    0.800    5.333    2.000    1.867    0.533 
#    0.000    5.333    0.000    0.000    0.000    0.000 
#    0.000    0.000    0.000    0.000    0.000    0.000 
#
# Total GULP energy -167261.946981 kJ/mol
# GULP energy per Si atom -5575.398233 kJ/mol
# Density = 1.026576 g / cm^3
# Si number density = 10.289179 Si / 1000 Ang^3
#
#
#
# Elastic Constant Matrix: (Units=GPa)
#
#
# Indices 1 2 3 4 5 6 
#
# 1 78.3898 7.6488 33.5450 0.0000 19.9742 0.0000
# 2 7.6488 77.6680 16.5750 0.0000 9.5592 0.0000
# 3 33.5450 16.5750 155.5687 0.0000 24.8867 0.0000
# 4 0.0000 0.0000 0.0000 39.8585 0.0000 8.4042
# 5 19.9742 9.5592 24.8867 0.0000 31.7967 0.0000
# 6 0.0000 0.0000 0.0000 8.4042 0.0000 28.5962
#
#
#
# Elastic Compliance Matrix: (Units=1/GPa)
#
#
# Indices 1 2 3 4 5 6 
#
# 1 0.015752 -0.000095 -0.002067 0.000000 -0.008249 0.000000
# 2 -0.000095 0.013480 -0.000888 0.000000 -0.003298 0.000000
# 3 -0.002067 -0.000888 0.007679 0.000000 -0.004445 0.000000
# 4 0.000000 0.000000 0.000000 0.026746 0.000000 -0.007860
# 5 -0.008249 -0.003298 -0.004445 0.000000 0.041102 0.000000
# 6 0.000000 0.000000 0.000000 -0.007860 0.000000 0.037280
#
#
# Mechanical properties :
#
#
# Convention : Reuss Voigt Hill
#
# Bulk Modulus (GPa) = 32.45498 47.46267 39.95883
# Shear Modulus (GPa) = 31.56344 36.97413 34.26879
#
# Velocity S-wave (km/s) = 3.92065 4.24341 4.08521
# Velocity P-wave (km/s) = 6.02503 6.86463 6.45848
#
# Compressibility (1/GPa) = 0.03081191
#
# Stress axis : x y z
#
# Youngs Moduli (GPa) = 63.48219 74.18347 130.21772
#
# Poissons Ratio (x) = 0.00704 0.26915
# Poissons Ratio (y) = 0.00603 0.11566
# Poissons Ratio (z) = 0.13121 0.06589
#
# Static dielectric constant tensor:
#      x y z
#    x 1.860970 0.000000 -0.034620 
#    y 0.000000 1.715510 0.000000 
#    z -0.034620 0.000000 1.751990 
# 
# From -- ./inp_files/107657.got.cif
#   From: 2010.05.17/outbox.ucp.g08.bks.cvg/sg15_54_cif.got.tgz:107657.got - 2010.06.11 12:40:34.
