data_PCOD9309439
_publ_section_title
;
Structure prediction by ZEFSAII (Michael W. Deem and Ramdas Pophale) SiO2 
 PCOD9309439
Probable space group: C 2/C
;
_chemical_formula_sum "Si O2"
_cell_formula_units_Z 24
_cell_length_a 21.000000
_cell_length_b 12.000000
_cell_length_c 15.000000
_cell_angle_alpha 90.000000
_cell_angle_beta 40.000000
_cell_angle_gamma 90.000000
_cell_volume 2429.737165
_symmetry_space_group_name_H-M "C 2/C"
_symmetry_group_IT_number 15
_symmetry_cell_setting 'monoclinic'
loop_
_space_group_symop_operation_xyz
x,y,z
-x,y,1/2-z
-x,-y,-z
x,-y,1/2+z
1/2+x,1/2+y,z
1/2-x,1/2+y,1/2-z
1/2-x,1/2-y,-z
1/2+x,1/2-y,1/2+z
loop_
_atom_site_type_symbol
_atom_site_label
_atom_site_fract_x
_atom_site_fract_y
_atom_site_fract_z
Si Si1 0.020754 0.168710 0.548708
Si Si2 0.730154 0.582729 0.275283
Si Si3 0.191743 0.683120 0.483610
Si Si4 0.500000 0.465549 0.250000
Si Si5 0.894069 0.893877 0.016068
Si Si6 0.053416 0.582174 0.373446
Si Si7 0.500000 0.957248 0.250000
O O1 0.978875 0.116793 0.500651
O O2 0.995048 0.297139 0.574024
O O3 0.139319 0.152920 0.415025
O O4 0.976165 0.113746 0.688561
O O5 0.692600 0.459415 0.340005
O O6 0.833407 0.596775 0.216043
O O7 0.743219 0.608609 0.155559
O O8 0.250000 0.750000 0.500000
O O9 0.145139 0.774855 0.468825
O O10 0.097508 0.615239 0.621537
O O11 0.573173 0.546920 0.113186
O O12 0.035057 0.529923 0.296308
O O13 0.000000 0.500000 0.500000
#
# Coordination Sequence:
#
# PCOD9309439 Si02
#       7
#     8   8   8   4   8   8   4
#     4  11  25  46  69 101 140 184 234 294 349 420
#     4  11  25  44  70 104 136 184 231 292 349 418
#     4  12  27  41  72 105 136 185 239 283 354 420
#     4  10  22  42  68  94 132 176 228 280 348 408
#     4  11  24  45  70  99 140 182 231 295 350 416
#     4  12  25  47  69 101 143 184 231 289 360 411
#     4  12  26  48  70 102 146 184 232 300 344 426
#
# _framework density 9.8776119999999992
#
# number of rings (size 3 to 8) (size 9 to 14) (size 15 to 20)
#    0.000    0.667    3.333    4.000   11.667    0.000 
#    0.000    4.167    0.000    0.000    0.000    0.000 
#    0.000    0.000    0.000    0.000    0.000    0.000 
#
# Total GULP energy -133825.761576 kJ/mol
# GULP energy per Si atom -5576.073399 kJ/mol
# Density = 0.985513 g / cm^3
# Si number density = 9.877612 Si / 1000 Ang^3
#
#
#
# Elastic Constant Matrix: (Units=GPa)
#
#
# Indices 1 2 3 4 5 6 
#
# 1 157.4858 35.5160 62.5470 0.0000 6.2996 0.0000
# 2 35.5160 81.0750 25.2716 0.0000 5.2505 0.0000
# 3 62.5470 25.2716 120.1237 0.0000 19.5180 0.0000
# 4 0.0000 0.0000 0.0000 21.4063 0.0000 12.0348
# 5 6.2996 5.2505 19.5180 0.0000 48.1996 0.0000
# 6 0.0000 0.0000 0.0000 12.0348 0.0000 47.3337
#
#
#
# Elastic Compliance Matrix: (Units=1/GPa)
#
#
# Indices 1 2 3 4 5 6 
#
# 1 0.008480 -0.002514 -0.004015 0.000000 0.000791 0.000000
# 2 -0.002514 0.013951 -0.001533 0.000000 -0.000570 0.000000
# 3 -0.004015 -0.001533 0.011374 0.000000 -0.003914 0.000000
# 4 0.000000 0.000000 0.000000 0.054507 0.000000 -0.013859
# 5 0.000791 -0.000570 -0.003914 0.000000 0.022291 0.000000
# 6 0.000000 0.000000 0.000000 -0.013859 0.000000 0.024650
#
#
# Mechanical properties :
#
#
# Convention : Reuss Voigt Hill
#
# Bulk Modulus (GPa) = 56.56341 67.26151 61.91246
# Shear Modulus (GPa) = 31.79263 39.07793 35.43528
#
# Velocity S-wave (km/s) = 4.01599 4.45242 4.23982
# Velocity P-wave (km/s) = 7.08510 7.78160 7.44150
#
# Compressibility (1/GPa) = 0.01767927
#
# Stress axis : x y z
#
# Youngs Moduli (GPa) = 117.92826 71.68189 87.92198
#
# Poissons Ratio (x) = 0.18024 0.35300
# Poissons Ratio (y) = 0.29652 0.13479
# Poissons Ratio (z) = 0.47347 0.10989
#
# Static dielectric constant tensor:
#      x y z
#    x 1.697830 0.000000 -0.003790 
#    y 0.000000 1.738100 0.000000 
#    z -0.003790 0.000000 1.672910 
# 
# From -- ./inp_files/167866.got.cif
#   From: 2010.05.17/outbox.ucp.g08.bks.cvg/sg15_84_cif.got.tgz:167866.got - 2010.06.11 12:40:34.
