data_PCOD9309516
_publ_section_title
;
Structure prediction by ZEFSAII (Michael W. Deem and Ramdas Pophale) SiO2 
 PCOD9309516
Probable space group: C 2/C
;
_chemical_formula_sum "Si O2"
_cell_formula_units_Z 28
_cell_length_a 15.000000
_cell_length_b 18.000000
_cell_length_c 12.000000
_cell_angle_alpha 90.000000
_cell_angle_beta 120.000000
_cell_angle_gamma 90.000000
_cell_volume 2805.922308
_symmetry_space_group_name_H-M "C 2/C"
_symmetry_group_IT_number 15
_symmetry_cell_setting 'monoclinic'
loop_
_space_group_symop_operation_xyz
x,y,z
-x,y,1/2-z
-x,-y,-z
x,-y,1/2+z
1/2+x,1/2+y,z
1/2-x,1/2+y,1/2-z
1/2-x,1/2-y,-z
1/2+x,1/2-y,1/2+z
loop_
_atom_site_type_symbol
_atom_site_label
_atom_site_fract_x
_atom_site_fract_y
_atom_site_fract_z
Si Si1 0.352190 0.115220 0.759154
Si Si2 0.807291 0.321225 0.991257
Si Si3 0.074806 0.852104 0.448250
Si Si4 0.798789 0.915422 0.765896
Si Si5 0.011309 0.694694 0.491303
Si Si6 0.070181 0.549140 0.186281
Si Si7 0.143357 0.916923 0.256340
O O1 0.344258 0.129229 0.621069
O O2 0.410631 0.181105 0.858436
O O3 0.239576 0.111916 0.744364
O O4 0.412942 0.038812 0.829320
O O5 0.902170 0.289210 0.979461
O O6 0.750000 0.250000 0.000000
O O7 0.734463 0.367471 0.862271
O O8 0.126665 0.877672 0.596738
O O9 0.052711 0.762781 0.441151
O O10 0.139086 0.882020 0.379707
O O11 0.964105 0.891315 0.364359
O O12 0.690099 0.927125 0.763536
O O13 0.843419 0.993623 0.746592
O O14 0.987514 0.614518 0.419094
O O15 0.000000 0.547273 0.250000
#
# Coordination Sequence:
#
# PCOD9309516 Si02
#       7
#     8   8   8   8   8   8   8
#     4  11  23  42  69  98 136 178 228 276 336 402
#     4  11  23  43  67 101 138 173 228 281 334 403
#     4  11  24  45  66  98 136 174 229 279 340 405
#     4  10  24  43  70  95 131 178 222 274 346 395
#     4  11  24  41  66 100 137 179 219 278 344 396
#     4  10  23  40  67  97 136 170 224 274 331 404
#     4  10  25  43  67  96 134 174 227 282 333 405
#
# _framework density 9.9788940000000004
#
# number of rings (size 3 to 8) (size 9 to 14) (size 15 to 20)
#    0.000    1.429    0.000    3.857    8.000    2.857 
#    5.143    0.000    0.000    0.000    0.000    0.000 
#    0.000    0.000    0.000    0.000    0.000    0.000 
#
# Total GULP energy -156131.382833 kJ/mol
# GULP energy per Si atom -5576.120815 kJ/mol
# Density = 0.995618 g / cm^3
# Si number density = 9.978894 Si / 1000 Ang^3
#
#
#
# Elastic Constant Matrix: (Units=GPa)
#
#
# Indices 1 2 3 4 5 6 
#
# 1 86.6337 35.9817 46.2570 0.0000 -28.8842 0.0000
# 2 35.9817 110.6311 58.3768 0.0000 0.4721 0.0000
# 3 46.2570 58.3768 104.9670 0.0000 13.4885 0.0000
# 4 0.0000 0.0000 0.0000 23.5391 0.0000 -22.6393
# 5 -28.8842 0.4721 13.4885 0.0000 17.8661 0.0000
# 6 0.0000 0.0000 0.0000 -22.6393 0.0000 -0.5564
#
#
#
# Elastic Compliance Matrix: (Units=1/GPa)
#
#
# Indices 1 2 3 4 5 6 
#
# 1 -0.107963 -0.007072 0.081857 0.000000 -0.236157 0.000000
# 2 -0.007072 0.012852 -0.002789 0.000000 -0.009667 0.000000
# 3 0.081857 -0.002789 -0.046524 0.000000 0.167537 0.000000
# 4 0.000000 0.000000 0.000000 0.001059 0.000000 -0.043070
# 5 -0.236157 -0.009667 0.167537 0.000000 -0.452056 0.000000
# 6 0.000000 0.000000 0.000000 -0.043070 0.000000 -0.044782
#
#
# Mechanical properties :
#
#
# Convention : Reuss Voigt Hill
#
# Bulk Modulus (GPa) = 424.14074 64.82920 244.48497
# Shear Modulus (GPa) = -6.40516 18.94417 6.26951
#
# Velocity S-wave (km/s) = -1.79341 3.08427 1.77432
# Velocity P-wave (km/s) = 14.44617 6.72587 11.26786
#
# Compressibility (1/GPa) = 0.00235771
#
# Stress axis : x y z
#
# Youngs Moduli (GPa) = -9.26244 77.80925 -21.49425
#
# Poissons Ratio (x) = 0.55026 1.75946
# Poissons Ratio (y) = -0.06550 -0.05994
# Poissons Ratio (z) = 0.75820 0.21699
#
# Static dielectric constant tensor:
#      x y z
#    x 1.682730 0.000000 0.004200 
#    y 0.000000 1.728300 0.000000 
#    z 0.004200 0.000000 1.715810 
# 
# From -- ./inp_files/98850.got.cif
#   From: 2010.05.17/outbox.ucp.g08.bks.cvg/sg15_50_cif.got.tgz:98850.got - 2010.06.11 12:40:34.
