data_PCOD9309733
_publ_section_title
;
Structure prediction by ZEFSAII (Michael W. Deem and Ramdas Pophale) SiO2 
 PCOD9309733
Probable space group: C 2/C
;
_chemical_formula_sum "Si O2"
_cell_formula_units_Z 32
_cell_length_a 18.000000
_cell_length_b 9.000000
_cell_length_c 30.000000
_cell_angle_alpha 90.000000
_cell_angle_beta 40.000000
_cell_angle_gamma 90.000000
_cell_volume 3123.947783
_symmetry_space_group_name_H-M "C 2/C"
_symmetry_group_IT_number 15
_symmetry_cell_setting 'monoclinic'
loop_
_space_group_symop_operation_xyz
x,y,z
-x,y,1/2-z
-x,-y,-z
x,-y,1/2+z
1/2+x,1/2+y,z
1/2-x,1/2+y,1/2-z
1/2-x,1/2-y,-z
1/2+x,1/2-y,1/2+z
loop_
_atom_site_type_symbol
_atom_site_label
_atom_site_fract_x
_atom_site_fract_y
_atom_site_fract_z
Si Si1 0.884143 0.913687 0.326504
Si Si2 0.064436 0.577778 0.174491
Si Si3 0.783873 0.319388 0.177394
Si Si4 0.314372 0.524109 0.530055
Si Si5 0.947822 0.279841 0.956799
Si Si6 0.525288 0.222194 0.519768
Si Si7 0.126946 0.402695 0.807437
Si Si8 0.776552 0.468648 0.524190
O O1 0.922044 0.757453 0.331648
O O2 0.793299 0.870379 0.329457
O O3 0.000000 0.977318 0.250000
O O4 0.820669 0.012630 0.392870
O O5 0.192875 0.513056 0.109837
O O6 0.000000 0.538317 0.250000
O O7 0.976388 0.533870 0.175954
O O8 0.810349 0.463248 0.195721
O O9 0.713178 0.195569 0.237599
O O10 0.906876 0.261019 0.102104
O O11 0.394713 0.382164 0.485313
O O12 0.395978 0.631952 0.520714
O O13 0.277970 0.582185 0.497465
O O14 0.058222 0.300650 0.874541
O O15 0.839504 0.373562 0.987811
O O16 0.986697 0.330597 0.988495
O O17 0.614792 0.120777 0.506023
#
# Coordination Sequence:
#
# PCOD9309733 Si02
#       8
#     8   8   8   8   8   8   8   8
#     4  11  22  40  72  95 122 178 231 264 314 395
#     4  11  21  42  67  93 130 176 217 265 332 391
#     4  12  25  44  66  99 135 173 214 274 337 392
#     4  12  25  40  68 103 131 171 226 272 320 393
#     4  12  23  42  68  97 127 174 232 262 316 398
#     4  12  26  44  65  99 141 175 207 279 345 375
#     4  12  26  41  68  99 132 172 220 276 330 390
#     4  12  22  43  68  94 132 174 223 268 320 393
#
# _framework density 10.243449
#
# number of rings (size 3 to 8) (size 9 to 14) (size 15 to 20)
#    0.000    0.250    7.500    3.000    1.750    1.000 
#    0.000    0.625    0.000    0.000    0.000    0.000 
#    0.000    0.000    0.000    0.000    0.000    0.000 
#
# Total GULP energy -178912.131722 kJ/mol
# GULP energy per Si atom -5591.004116 kJ/mol
# Density = 1.022013 g / cm^3
# Si number density = 10.243449 Si / 1000 Ang^3
#
#
#
# Elastic Constant Matrix: (Units=GPa)
#
#
# Indices 1 2 3 4 5 6 
#
# 1 95.0657 -2.1297 10.1088 0.0001 -4.7961 -0.0004
# 2 -2.1297 25.8822 0.3042 0.0001 -8.0813 -0.0001
# 3 10.1088 0.3042 185.8449 -0.0001 -13.1885 0.0002
# 4 0.0001 0.0001 -0.0001 13.3308 -0.0001 -7.0535
# 5 -4.7961 -8.0813 -13.1885 -0.0001 37.7285 0.0001
# 6 -0.0004 -0.0001 0.0002 -7.0535 0.0001 36.6251
#
#
#
# Elastic Compliance Matrix: (Units=1/GPa)
#
#
# Indices 1 2 3 4 5 6 
#
# 1 0.010675 0.001345 -0.000478 0.000000 0.001478 0.000000
# 2 0.001345 0.041636 0.000516 0.000000 0.009270 0.000000
# 3 -0.000478 0.000516 0.005547 0.000000 0.001989 0.000000
# 4 0.000000 0.000000 0.000000 0.083525 0.000000 0.016086
# 5 0.001478 0.009270 0.001989 0.000000 0.029374 0.000000
# 6 0.000000 0.000000 0.000000 0.016086 0.000000 0.030402
#
#
# Mechanical properties :
#
#
# Convention : Reuss Voigt Hill
#
# Bulk Modulus (GPa) = 16.49475 35.92883 26.21179
# Shear Modulus (GPa) = 22.87300 37.43751 30.15526
#
# Velocity S-wave (km/s) = 3.34499 4.27943 3.84073
# Velocity P-wave (km/s) = 4.79452 6.48025 5.70005
#
# Compressibility (1/GPa) = 0.06062533
#
# Stress axis : x y z
#
# Youngs Moduli (GPa) = 93.68054 24.01791 180.27342
#
# Poissons Ratio (x) = -0.03232 0.08616
# Poissons Ratio (y) = -0.12604 -0.09311
# Poissons Ratio (z) = 0.04477 -0.01240
#
# Static dielectric constant tensor:
#      x y z
#    x 1.701130 0.000000 0.029440 
#    y 0.000000 1.820310 0.000000 
#    z 0.029440 0.000000 1.720080 
# 
# From -- ./inp_files/315674.got.cif
#   From: 2010.05.17/outbox.ucp.g08.bks.cvg/sg15_158_cif.got.tgz:315674.got - 2010.06.11 12:40:34.
