data_PCOD9309305
_publ_section_title
;
Structure prediction by ZEFSAII (Michael W. Deem and Ramdas Pophale) SiO2 
 PCOD9309305
Probable space group: C 2/C
;
_chemical_formula_sum "Si O2"
_cell_formula_units_Z 24
_cell_length_a 15.000000
_cell_length_b 27.000000
_cell_length_c 9.000000
_cell_angle_alpha 90.000000
_cell_angle_beta 140.000000
_cell_angle_gamma 90.000000
_cell_volume 2342.960837
_symmetry_space_group_name_H-M "C 2/C"
_symmetry_group_IT_number 15
_symmetry_cell_setting 'monoclinic'
loop_
_space_group_symop_operation_xyz
x,y,z
-x,y,1/2-z
-x,-y,-z
x,-y,1/2+z
1/2+x,1/2+y,z
1/2-x,1/2+y,1/2-z
1/2-x,1/2-y,-z
1/2+x,1/2-y,1/2+z
loop_
_atom_site_type_symbol
_atom_site_label
_atom_site_fract_x
_atom_site_fract_y
_atom_site_fract_z
Si Si1 0.911202 0.703660 0.286279
Si Si2 0.879920 0.180665 0.712534
Si Si3 0.641233 0.610799 0.530240
Si Si4 0.129260 0.462385 0.708090
Si Si5 0.829793 0.989369 0.258966
Si Si6 0.456957 0.875378 0.360675
O O1 0.894989 0.762499 0.285075
O O2 0.000000 0.696428 0.250000
O O3 0.986460 0.678232 0.519751
O O4 0.763242 0.679553 0.061047
O O5 0.883276 0.145252 0.857957
O O6 0.000000 0.168147 0.750000
O O7 0.678815 0.556884 0.641623
O O8 0.789513 0.625965 0.649971
O O9 0.500000 0.609894 0.250000
O O10 0.241914 0.466074 0.718843
O O11 0.000000 0.500000 0.500000
O O12 0.040449 0.411380 0.584094
O O13 0.232223 0.474250 0.985397
O O14 0.000000 0.000000 0.500000
O O15 0.500000 0.890321 0.250000
#
# Coordination Sequence:
#
# PCOD9309305 Si02
#       6
#     8   8   8   8   8   8
#     4  10  21  44  71 101 133 176 232 288 345 411
#     4  10  23  42  72 102 135 176 227 287 352 417
#     4  12  27  46  67 100 144 183 227 289 349 411
#     4  12  25  44  72 100 132 179 234 281 339 403
#     4  12  27  46  69 101 140 179 223 287 350 412
#     4  12  27  44  70 100 137 185 237 283 339 413
#
# _framework density 10.243449
#
# number of rings (size 3 to 8) (size 9 to 14) (size 15 to 20)
#    0.000    0.667    3.333    4.000    4.667    2.000 
#    0.000    1.667    0.000    0.000    0.000    0.000 
#    0.000    0.000    0.000    0.000    0.000    0.000 
#
# Total GULP energy -133709.488054 kJ/mol
# GULP energy per Si atom -5571.228669 kJ/mol
# Density = 1.022013 g / cm^3
# Si number density = 10.243449 Si / 1000 Ang^3
#
#
#
# Elastic Constant Matrix: (Units=GPa)
#
#
# Indices 1 2 3 4 5 6 
#
# 1 29.4624 13.0976 54.6565 0.0000 24.8193 0.0000
# 2 13.0976 48.4210 21.3738 0.0000 4.7531 0.0000
# 3 54.6565 21.3738 165.5474 0.0000 24.1570 0.0000
# 4 0.0000 0.0000 0.0000 47.9075 0.0000 8.3402
# 5 24.8193 4.7531 24.1570 0.0000 46.0114 0.0000
# 6 0.0000 0.0000 0.0000 8.3402 0.0000 42.2174
#
#
#
# Elastic Compliance Matrix: (Units=1/GPa)
#
#
# Indices 1 2 3 4 5 6 
#
# 1 0.243801 -0.028835 -0.062827 0.000000 -0.095546 0.000000
# 2 -0.028835 0.025341 0.004722 0.000000 0.010457 0.000000
# 3 -0.062827 0.004722 0.023067 0.000000 0.021292 0.000000
# 4 0.000000 0.000000 0.000000 0.021617 0.000000 -0.004270
# 5 -0.095546 0.010457 0.021292 0.000000 0.061014 0.000000
# 6 0.000000 0.000000 0.000000 -0.004270 0.000000 0.024531
#
#
# Mechanical properties :
#
#
# Convention : Reuss Voigt Hill
#
# Bulk Modulus (GPa) = 8.45100 46.85406 27.65253
# Shear Modulus (GPa) = 8.16070 37.51413 22.83742
#
# Velocity S-wave (km/s) = 1.99800 4.28381 3.34238
# Velocity P-wave (km/s) = 3.07518 6.88389 5.33126
#
# Compressibility (1/GPa) = 0.11832918
#
# Stress axis : x y z
#
# Youngs Moduli (GPa) = 4.10171 39.46199 43.35237
#
# Poissons Ratio (x) = 1.13787 2.72372
# Poissons Ratio (y) = 0.11827 -0.20472
# Poissons Ratio (z) = 0.25770 -0.18635
#
# Static dielectric constant tensor:
#      x y z
#    x 1.805240 0.000000 0.003310 
#    y 0.000000 1.786260 0.000000 
#    z 0.003310 0.000000 1.685310 
# 
# From -- ./inp_files/43911.got.cif
#   From: 2010.05.17/outbox.ucp.g08.bks.cvg/sg15_22_cif.got.tgz:43911.got - 2010.06.11 12:40:34.
