data_PCOD9309794
_publ_section_title
;
Structure prediction by ZEFSAII (Michael W. Deem and Ramdas Pophale) SiO2 
 PCOD9309794
Probable space group: C 2/C
;
_chemical_formula_sum "Si O2"
_cell_formula_units_Z 32
_cell_length_a 24.000000
_cell_length_b 18.000000
_cell_length_c 24.000000
_cell_angle_alpha 90.000000
_cell_angle_beta 20.000000
_cell_angle_gamma 90.000000
_cell_volume 3546.064846
_symmetry_space_group_name_H-M "C 2/C"
_symmetry_group_IT_number 15
_symmetry_cell_setting 'monoclinic'
loop_
_space_group_symop_operation_xyz
x,y,z
-x,y,1/2-z
-x,-y,-z
x,-y,1/2+z
1/2+x,1/2+y,z
1/2-x,1/2+y,1/2-z
1/2-x,1/2-y,-z
1/2+x,1/2-y,1/2+z
loop_
_atom_site_type_symbol
_atom_site_label
_atom_site_fract_x
_atom_site_fract_y
_atom_site_fract_z
Si Si1 0.589353 0.360217 0.428909
Si Si2 0.722947 0.075662 0.271392
Si Si3 0.204876 0.588483 0.106515
Si Si4 0.324251 0.880371 0.990708
Si Si5 0.193959 0.959063 0.224830
Si Si6 0.329765 0.477639 0.066449
Si Si7 0.736908 0.266255 0.889584
Si Si8 0.458158 0.781094 0.585459
O O1 0.398324 0.383174 0.612445
O O2 0.659189 0.399907 0.307234
O O3 0.669718 0.395192 0.408531
O O4 0.606537 0.273745 0.401042
O O5 0.750588 0.025492 0.190998
O O6 0.584273 0.135583 0.390450
O O7 0.696612 0.022820 0.349118
O O8 0.248439 0.596745 0.000799
O O9 0.239660 0.506267 0.096422
O O10 0.301733 0.652149 0.050399
O O11 0.016642 0.607884 0.297543
O O12 0.266230 0.925397 0.100232
O O13 0.274391 0.795940 0.052684
O O14 0.016718 0.996319 0.382460
O O15 0.910535 0.269213 0.695578
O O16 0.642414 0.242891 0.922128
#
# Coordination Sequence:
#
# PCOD9309794 Si02
#       8
#     8   8   8   8   8   8   8   8
#     4   9  17  30  51  72 100 129 161 204 252 292
#     4   9  17  32  51  73 101 127 160 207 254 290
#     4  11  23  37  48  68 105 137 169 211 248 280
#     4  11  23  36  49  70 101 137 172 210 245 283
#     4   9  18  33  53  72  93 129 172 206 242 299
#     4   9  17  34  51  70  95 131 167 206 247 293
#     4  12  21  34  48  71 104 137 172 199 237 293
#     4  12  19  32  53  73 104 134 164 203 244 298
#
# _framework density 9.0240880000000008
#
# number of rings (size 3 to 8) (size 9 to 14) (size 15 to 20)
#    0.000    1.750    5.000    2.625    0.000    0.500 
#    2.250    1.875    0.000    0.000    0.000    0.875 
#    0.000    0.000    0.000    0.000    0.000    0.000 
#
# Total GULP energy -178237.227829 kJ/mol
# GULP energy per Si atom -5569.913370 kJ/mol
# Density = 0.900355 g / cm^3
# Si number density = 9.024088 Si / 1000 Ang^3
#
#
#
# Elastic Constant Matrix: (Units=GPa)
#
#
# Indices 1 2 3 4 5 6 
#
# 1 71.6136 37.9079 14.6692 0.0033 16.6663 -0.0007
# 2 37.9079 50.1999 10.0789 -0.0328 5.9151 -0.0110
# 3 14.6692 10.0789 21.8449 0.0020 17.1550 -0.0012
# 4 0.0033 -0.0328 0.0020 16.4836 -0.0035 -0.0302
# 5 16.6663 5.9151 17.1550 -0.0035 26.3185 0.0023
# 6 -0.0007 -0.0110 -0.0012 -0.0302 0.0023 31.7582
#
#
#
# Elastic Compliance Matrix: (Units=1/GPa)
#
#
# Indices 1 2 3 4 5 6 
#
# 1 0.026919 -0.019006 0.001485 -0.000046 -0.013743 -0.000005
# 2 -0.019006 0.035525 -0.013950 0.000079 0.013145 0.000010
# 3 0.001485 -0.013950 0.101395 -0.000053 -0.063897 0.000004
# 4 -0.000046 0.000079 -0.000053 0.060667 0.000054 0.000058
# 5 -0.013743 0.013145 -0.063897 0.000054 0.085394 -0.000004
# 6 -0.000005 0.000010 0.000004 0.000058 -0.000004 0.031488
#
#
# Mechanical properties :
#
#
# Convention : Reuss Voigt Hill
#
# Bulk Modulus (GPa) = 9.91115 29.88561 19.89838
# Shear Modulus (GPa) = 11.41650 20.31222 15.86436
#
# Velocity S-wave (km/s) = 2.51780 3.35840 2.96801
# Velocity P-wave (km/s) = 3.73575 5.62434 4.77436
#
# Compressibility (1/GPa) = 0.10089644
#
# Stress axis : x y z
#
# Youngs Moduli (GPa) = 37.14893 28.14937 9.86238
#
# Poissons Ratio (x) = 0.53501 -0.01465
# Poissons Ratio (y) = 0.70606 0.13758
# Poissons Ratio (z) = -0.05518 0.39269
#
# Static dielectric constant tensor:
#      x y z
#    x 1.635730 -0.000010 -0.060480 
#    y -0.000010 1.671980 0.000020 
#    z -0.060480 0.000020 1.667020 
# 
# From -- ./inp_files/282237.got.cif
#   From: 2010.05.17/outbox.ucp.g08.bks.cvg/sg15_142_cif.got.tgz:282237.got - 2010.06.11 12:40:34.
