data_PCOD9309182
_publ_section_title
;
Structure prediction by ZEFSAII (Michael W. Deem and Ramdas Pophale) SiO2 
 PCOD9309182
Probable space group: C 2/C
;
_chemical_formula_sum "Si O2"
_cell_formula_units_Z 22
_cell_length_a 15.000000
_cell_length_b 30.000000
_cell_length_c 15.000000
_cell_angle_alpha 90.000000
_cell_angle_beta 20.000000
_cell_angle_gamma 90.000000
_cell_volume 2308.635967
_symmetry_space_group_name_H-M "C 2/C"
_symmetry_group_IT_number 15
_symmetry_cell_setting 'monoclinic'
loop_
_space_group_symop_operation_xyz
x,y,z
-x,y,1/2-z
-x,-y,-z
x,-y,1/2+z
1/2+x,1/2+y,z
1/2-x,1/2+y,1/2-z
1/2-x,1/2-y,-z
1/2+x,1/2-y,1/2+z
loop_
_atom_site_type_symbol
_atom_site_label
_atom_site_fract_x
_atom_site_fract_y
_atom_site_fract_z
Si Si1 0.500000 0.719036 0.750000
Si Si2 0.952417 0.218129 0.596580
Si Si3 0.522308 0.905292 0.124709
Si Si4 0.548947 0.992457 0.559870
Si Si5 0.027588 0.123917 0.440368
Si Si6 0.933676 0.933793 0.414530
O O1 0.474206 0.697287 0.676964
O O2 0.750000 0.750000 0.500000
O O3 0.187045 0.252581 0.352025
O O4 0.974467 0.176306 0.509636
O O5 0.500000 0.889790 0.250000
O O6 0.239263 0.896740 0.347293
O O7 0.574816 0.958274 0.076133
O O8 0.741502 0.884501 0.850269
O O9 0.819207 0.966095 0.307543
O O10 0.500000 0.000000 0.500000
O O11 0.326059 0.964020 0.822141
O O12 0.078082 0.100664 0.490199
O O13 0.000000 0.915646 0.250000
#
# Coordination Sequence:
#
# PCOD9309182 Si02
#       6
#     4   8   8   8   8   8
#     4   8  16  32  56  86 116 152 194 226 284 384
#     4  10  21  39  62  89 122 161 197 245 315 375
#     4  12  25  42  65  90 122 168 213 258 304 352
#     4  12  22  43  61  87 130 168 206 251 299 364
#     4  12  24  41  65  93 125 158 206 264 300 366
#     4  12  24  39  62  93 129 165 200 246 306 365
#
# _framework density 9.5294369999999997
#
# number of rings (size 3 to 8) (size 9 to 14) (size 15 to 20)
#    0.000    0.727    3.636    4.909    1.273    0.000 
#    0.000    0.000    0.000   10.909    0.000    0.000 
#    0.000    0.000    0.000    0.000    0.000    0.000 
#
# Total GULP energy -122673.821508 kJ/mol
# GULP energy per Si atom -5576.082796 kJ/mol
# Density = 0.950775 g / cm^3
# Si number density = 9.529437 Si / 1000 Ang^3
#
#
#
# Elastic Constant Matrix: (Units=GPa)
#
#
# Indices 1 2 3 4 5 6 
#
# 1 99.7390 18.7821 31.1348 -0.0076 33.0436 -0.0049
# 2 18.7821 86.4381 32.1773 0.0068 10.6623 -0.0108
# 3 31.1348 32.1773 181.8712 -0.0516 22.8237 0.0080
# 4 -0.0076 0.0068 -0.0516 27.6517 -0.0029 12.3825
# 5 33.0436 10.6623 22.8237 -0.0029 46.4476 -0.0199
# 6 -0.0049 -0.0108 0.0080 12.3825 -0.0199 23.5942
#
#
#
# Elastic Compliance Matrix: (Units=1/GPa)
#
#
# Indices 1 2 3 4 5 6 
#
# 1 0.013523 -0.001500 -0.000944 0.000005 -0.008812 -0.000008
# 2 -0.001500 0.012707 -0.001875 -0.000012 -0.000929 0.000012
# 3 -0.000944 -0.001875 0.006238 0.000018 -0.001964 -0.000014
# 4 0.000005 -0.000012 0.000018 0.047274 -0.000017 -0.024810
# 5 -0.008812 -0.000929 -0.001964 -0.000017 0.028977 0.000032
# 6 -0.000008 0.000012 -0.000014 -0.024810 0.000032 0.055404
#
#
# Mechanical properties :
#
#
# Convention : Reuss Voigt Hill
#
# Bulk Modulus (GPa) = 41.96233 59.13742 50.54988
# Shear Modulus (GPa) = 27.66952 38.60232 33.13592
#
# Velocity S-wave (km/s) = 3.81437 4.50535 4.17419
# Velocity P-wave (km/s) = 6.43927 7.62630 7.05779
#
# Compressibility (1/GPa) = 0.02383090
#
# Stress axis : x y z
#
# Youngs Moduli (GPa) = 73.94949 78.69421 160.30563
#
# Poissons Ratio (x) = 0.11805 0.15128
# Poissons Ratio (y) = 0.11093 0.30056
# Poissons Ratio (z) = 0.06979 0.14755
#
# Static dielectric constant tensor:
#      x y z
#    x 1.746320 0.000000 -0.012600 
#    y 0.000000 1.649450 0.000000 
#    z -0.012600 0.000000 1.647930 
# 
# From -- ./inp_files/157508.got.cif
#   From: 2010.05.17/outbox.ucp.g08.bks.cvg/sg15_79_cif.got.tgz:157508.got - 2010.06.11 12:40:34.
