data_PCOD9309744
_publ_section_title
;
Structure prediction by ZEFSAII (Michael W. Deem and Ramdas Pophale) SiO2 
 PCOD9309744
Probable space group: C 2/C
;
_chemical_formula_sum "Si O2"
_cell_formula_units_Z 26
_cell_length_a 27.000000
_cell_length_b 15.000000
_cell_length_c 21.000000
_cell_angle_alpha 90.000000
_cell_angle_beta 160.000000
_cell_angle_gamma 90.000000
_cell_volume 2908.881319
_symmetry_space_group_name_H-M "C 2/C"
_symmetry_group_IT_number 15
_symmetry_cell_setting 'monoclinic'
loop_
_space_group_symop_operation_xyz
x,y,z
-x,y,1/2-z
-x,-y,-z
x,-y,1/2+z
1/2+x,1/2+y,z
1/2-x,1/2+y,1/2-z
1/2-x,1/2-y,-z
1/2+x,1/2-y,1/2+z
loop_
_atom_site_type_symbol
_atom_site_label
_atom_site_fract_x
_atom_site_fract_y
_atom_site_fract_z
Si Si1 0.624601 0.021503 0.544310
Si Si2 0.336824 0.155496 0.788454
Si Si3 0.784473 0.493185 0.118348
Si Si4 0.827814 0.322002 0.848090
Si Si5 0.000000 0.294387 0.750000
Si Si6 0.915244 0.861214 0.052463
Si Si7 0.242303 0.068767 0.933265
O O1 0.662869 0.087194 0.650076
O O2 0.450281 0.026652 0.326709
O O3 0.701036 0.043640 0.569191
O O4 0.663562 0.918857 0.607539
O O5 0.231319 0.238911 0.680020
O O6 0.284254 0.096917 0.662708
O O7 0.505435 0.187550 0.978295
O O8 0.668920 0.563892 0.007370
O O9 0.754194 0.494936 0.004971
O O10 0.701401 0.334606 0.642477
O O11 0.951761 0.228293 0.635495
O O12 0.858863 0.354774 0.594872
O O13 0.074682 0.899123 0.225989
#
# Coordination Sequence:
#
# PCOD9309744 Si02
#       7
#     8   8   8   8   4   8   8
#     4  11  22  45  66  93 133 177 212 274 322 391
#     4  11  24  44  68  92 137 173 217 272 319 392
#     4  11  21  46  62  90 132 180 209 263 334 380
#     4  11  25  41  67 100 127 174 223 264 329 380
#     4  12  24  38  60 100 134 166 210 256 336 392
#     4  12  24  37  63  96 137 163 212 269 321 395
#     4  12  25  39  66  94 132 173 217 265 326 390
#
# _framework density 8.9381439999999994
#
# number of rings (size 3 to 8) (size 9 to 14) (size 15 to 20)
#    0.000    0.615    6.154    2.308    4.308    1.846 
#    0.000    0.769    0.000    1.846    0.000    0.000 
#    0.000    0.000    0.000    0.000    0.000    0.000 
#
# Total GULP energy -145063.362396 kJ/mol
# GULP energy per Si atom -5579.360092 kJ/mol
# Density = 0.891780 g / cm^3
# Si number density = 8.938144 Si / 1000 Ang^3
#
#
#
# Elastic Constant Matrix: (Units=GPa)
#
#
# Indices 1 2 3 4 5 6 
#
# 1 138.8607 66.5213 52.9058 0.0004 12.9785 0.0002
# 2 66.5213 120.0724 46.7418 0.0006 10.5649 0.0004
# 3 52.9058 46.7418 105.9110 0.0006 17.7265 0.0004
# 4 0.0004 0.0006 0.0006 36.1625 0.0008 2.2162
# 5 12.9785 10.5649 17.7265 0.0008 41.2420 0.0005
# 6 0.0002 0.0004 0.0004 2.2162 0.0005 46.9829
#
#
#
# Elastic Compliance Matrix: (Units=1/GPa)
#
#
# Indices 1 2 3 4 5 6 
#
# 1 0.010699 -0.004622 -0.003167 0.000000 -0.000822 0.000000
# 2 -0.004622 0.012073 -0.002958 0.000000 -0.000367 0.000000
# 3 -0.003167 -0.002958 0.012969 0.000000 -0.003820 0.000000
# 4 0.000000 0.000000 0.000000 0.027733 0.000000 -0.001308
# 5 -0.000822 -0.000367 -0.003820 0.000000 0.026241 0.000000
# 6 0.000000 0.000000 0.000000 -0.001308 0.000000 0.021346
#
#
# Mechanical properties :
#
#
# Convention : Reuss Voigt Hill
#
# Bulk Modulus (GPa) = 70.19341 77.46463 73.82902
# Shear Modulus (GPa) = 36.41549 38.12250 37.26899
#
# Velocity S-wave (km/s) = 4.51830 4.62299 4.57095
# Velocity P-wave (km/s) = 8.15914 8.48079 8.32152
#
# Compressibility (1/GPa) = 0.01424635
#
# Stress axis : x y z
#
# Youngs Moduli (GPa) = 93.46467 82.83114 77.10931
#
# Poissons Ratio (x) = 0.38287 0.24421
# Poissons Ratio (y) = 0.43202 0.22807
# Poissons Ratio (z) = 0.29601 0.24499
#
# Static dielectric constant tensor:
#      x y z
#    x 1.649570 0.000000 -0.016770 
#    y 0.000000 1.621710 0.000000 
#    z -0.016770 0.000000 1.610550 
# 
# From -- ./inp_files/249103.got.cif
#   From: 2010.05.17/outbox.ucp.g08.bks.cvg/sg15_125_cif.got.tgz:249103.got - 2010.06.11 12:40:34.
