data_PCOD9309904
_publ_section_title
;
Structure prediction by ZEFSAII (Michael W. Deem and Ramdas Pophale) SiO2 
 PCOD9309904
Probable space group: C 2/C
;
_chemical_formula_sum "Si O2"
_cell_formula_units_Z 26
_cell_length_a 30.000000
_cell_length_b 9.000000
_cell_length_c 30.000000
_cell_angle_alpha 90.000000
_cell_angle_beta 20.000000
_cell_angle_gamma 90.000000
_cell_volume 2770.363161
_symmetry_space_group_name_H-M "C 2/C"
_symmetry_group_IT_number 15
_symmetry_cell_setting 'monoclinic'
loop_
_space_group_symop_operation_xyz
x,y,z
-x,y,1/2-z
-x,-y,-z
x,-y,1/2+z
1/2+x,1/2+y,z
1/2-x,1/2+y,1/2-z
1/2-x,1/2-y,-z
1/2+x,1/2-y,1/2+z
loop_
_atom_site_type_symbol
_atom_site_label
_atom_site_fract_x
_atom_site_fract_y
_atom_site_fract_z
Si Si1 0.273994 0.799654 0.425765
Si Si2 0.142257 0.571715 0.383188
Si Si3 0.000000 0.492332 0.750000
Si Si4 0.211093 0.024434 0.157503
Si Si5 0.676386 0.204004 0.021916
Si Si6 0.407920 0.488150 0.459492
Si Si7 0.364462 0.562101 0.606279
O O1 0.250000 0.750000 0.500000
O O2 0.396619 0.907394 0.319830
O O3 0.295973 0.670001 0.368379
O O4 0.155448 0.888014 0.513679
O O5 0.194065 0.533187 0.386449
O O6 0.248240 0.508393 0.246926
O O7 0.137399 0.754989 0.388047
O O8 0.000000 0.500000 0.500000
O O9 0.062685 0.392187 0.651977
O O10 0.064771 0.998492 0.313111
O O11 0.249344 0.899380 0.084416
O O12 0.750000 0.250000 0.000000
O O13 0.630184 0.339675 0.033330
O O14 0.359830 0.512815 0.557063
O O15 0.500000 0.500000 0.500000
#
# Coordination Sequence:
#
# PCOD9309904 Si02
#       7
#     8   8   4   8   8   8   8
#     4  12  24  46  72 105 143 194 241 300 351 440
#     4  12  29  49  81 112 149 192 250 317 373 447
#     4  12  24  44  72 104 154 188 244 296 364 420
#     4  12  27  47  75 107 144 194 249 293 374 433
#     4  12  26  47  71 111 148 191 240 302 360 437
#     4  12  27  46  77 103 147 193 240 296 369 439
#     4  12  27  52  76 113 150 190 252 312 379 444
#
# _framework density 9.3850510000000007
#
# number of rings (size 3 to 8) (size 9 to 14) (size 15 to 20)
#    0.000    0.000    6.154    2.769    4.308    2.462 
#    0.000    0.000    0.000    0.000    0.000    0.000 
#    0.000    0.000    0.000    0.000    0.000    0.000 
#
# Total GULP energy -144819.427491 kJ/mol
# GULP energy per Si atom -5569.977980 kJ/mol
# Density = 0.936369 g / cm^3
# Si number density = 9.385051 Si / 1000 Ang^3
#
#
#
# Elastic Constant Matrix: (Units=GPa)
#
#
# Indices 1 2 3 4 5 6 
#
# 1 218.2206 65.0927 69.7562 0.0014 10.1776 -0.0001
# 2 65.0927 149.9967 63.4398 0.0044 4.1057 -0.0027
# 3 69.7562 63.4398 144.8264 0.0028 10.2171 -0.0018
# 4 0.0014 0.0044 0.0028 44.2994 -0.0025 0.8272
# 5 10.1776 4.1057 10.2171 -0.0025 53.6338 0.0008
# 6 -0.0001 -0.0027 -0.0018 0.8272 0.0008 51.8943
#
#
#
# Elastic Compliance Matrix: (Units=1/GPa)
#
#
# Indices 1 2 3 4 5 6 
#
# 1 0.005737 -0.001623 -0.002011 0.000000 -0.000581 0.000000
# 2 -0.001623 0.008642 -0.003020 -0.000001 0.000222 0.000000
# 3 -0.002011 -0.003020 0.009278 0.000000 -0.001155 0.000000
# 4 0.000000 -0.000001 0.000000 0.022580 0.000001 -0.000360
# 5 -0.000581 0.000222 -0.001155 0.000001 0.018958 0.000000
# 6 0.000000 0.000000 0.000000 -0.000360 0.000000 0.019276
#
#
# Mechanical properties :
#
#
# Convention : Reuss Voigt Hill
#
# Bulk Modulus (GPa) = 96.62672 101.06903 98.84787
# Shear Modulus (GPa) = 49.39362 50.94916 50.17139
#
# Velocity S-wave (km/s) = 5.13539 5.21562 5.17566
# Velocity P-wave (km/s) = 9.31417 9.49910 9.40709
#
# Compressibility (1/GPa) = 0.01034910
#
# Stress axis : x y z
#
# Youngs Moduli (GPa) = 174.31876 115.71209 107.78628
#
# Poissons Ratio (x) = 0.18780 0.21677
# Poissons Ratio (y) = 0.28291 0.32546
# Poissons Ratio (z) = 0.35058 0.34940
#
# Static dielectric constant tensor:
#      x y z
#    x 1.630230 0.000000 -0.013670 
#    y 0.000000 1.727620 0.000000 
#    z -0.013670 0.000000 1.697350 
# 
# From -- ./inp_files/320158.got.cif
#   From: 2010.05.17/outbox.ucp.g08.bks.cvg/sg15_161_cif.got.tgz:320158.got - 2010.06.11 12:40:34.
