data_PCOD9309390
_publ_section_title
;
Structure prediction by ZEFSAII (Michael W. Deem and Ramdas Pophale) SiO2 
 PCOD9309390
Probable space group: C 2/C
;
_chemical_formula_sum "Si O2"
_cell_formula_units_Z 30
_cell_length_a 18.000000
_cell_length_b 12.000000
_cell_length_c 27.000000
_cell_angle_alpha 90.000000
_cell_angle_beta 30.000000
_cell_angle_gamma 90.000000
_cell_volume 2916.000000
_symmetry_space_group_name_H-M "C 2/C"
_symmetry_group_IT_number 15
_symmetry_cell_setting 'monoclinic'
loop_
_space_group_symop_operation_xyz
x,y,z
-x,y,1/2-z
-x,-y,-z
x,-y,1/2+z
1/2+x,1/2+y,z
1/2-x,1/2+y,1/2-z
1/2-x,1/2-y,-z
1/2+x,1/2-y,1/2+z
loop_
_atom_site_type_symbol
_atom_site_label
_atom_site_fract_x
_atom_site_fract_y
_atom_site_fract_z
Si Si1 0.000000 0.098990 0.250000
Si Si2 0.820720 0.518139 0.847668
Si Si3 0.798313 0.025684 0.785236
Si Si4 0.055300 0.704734 0.937589
Si Si5 0.203046 0.217271 0.450885
Si Si6 0.251421 0.251866 0.939460
Si Si7 0.482593 0.266373 0.343349
Si Si8 0.239951 0.593216 0.214879
O O1 0.895589 0.175801 0.343621
O O2 0.881331 0.035657 0.282879
O O3 0.743587 0.410679 0.916830
O O4 0.770937 0.629506 0.904268
O O5 0.763756 0.507418 0.823387
O O6 0.000000 0.511092 0.750000
O O7 0.641106 0.087461 0.884022
O O8 0.910436 0.128719 0.712814
O O9 0.769342 0.951582 0.753026
O O10 0.091071 0.736800 0.973983
O O11 0.138037 0.809908 0.863779
O O12 0.894074 0.699234 0.005088
O O13 0.367975 0.271555 0.362951
O O14 0.119558 0.232801 0.549845
O O15 0.250000 0.250000 0.000000
O O16 0.586728 0.157340 0.288193
#
# Coordination Sequence:
#
# PCOD9309390 Si02
#       8
#     4   8   8   8   8   8   8   8
#     4  12  28  48  72  98 142 192 226 292 358 426
#     4  11  23  43  71  97 136 185 230 286 353 416
#     4  11  25  44  69  97 137 183 230 284 359 409
#     4  10  25  44  66  98 137 173 231 295 334 419
#     4  10  22  40  69 100 130 178 230 286 346 403
#     4  12  29  47  70 104 145 184 239 286 353 432
#     4  10  22  41  67 101 136 170 228 292 337 421
#     4  10  23  41  71 101 135 178 235 286 354 417
#
# _framework density 10.288066000000001
#
# number of rings (size 3 to 8) (size 9 to 14) (size 15 to 20)
#    0.000    1.333    2.000    1.600    9.333    2.667 
#    2.400    0.000    0.000    0.000    0.000    0.000 
#    0.000    0.000    0.000    0.000    0.000    0.000 
#
# Total GULP energy -167311.568437 kJ/mol
# GULP energy per Si atom -5577.052281 kJ/mol
# Density = 1.026465 g / cm^3
# Si number density = 10.288066 Si / 1000 Ang^3
#
#
#
# Elastic Constant Matrix: (Units=GPa)
#
#
# Indices 1 2 3 4 5 6 
#
# 1 142.7399 36.1928 38.6275 0.0000 -11.5038 0.0003
# 2 36.1928 50.6111 34.3145 0.0003 14.5962 0.0003
# 3 38.6275 34.3145 88.5975 0.0012 -12.5812 0.0012
# 4 0.0000 0.0003 0.0012 26.7509 0.0002 -10.7439
# 5 -11.5038 14.5962 -12.5812 0.0002 36.3619 -0.0001
# 6 0.0003 0.0003 0.0012 -10.7439 -0.0001 41.3040
#
#
#
# Elastic Compliance Matrix: (Units=1/GPa)
#
#
# Indices 1 2 3 4 5 6 
#
# 1 0.009818 -0.009171 0.000247 0.000000 0.006873 0.000000
# 2 -0.009171 0.046506 -0.017959 0.000001 -0.027783 0.000000
# 3 0.000247 -0.017959 0.020160 -0.000001 0.014263 -0.000001
# 4 0.000000 0.000001 -0.000001 0.041743 -0.000001 0.010858
# 5 0.006873 -0.027783 0.014263 -0.000001 0.045763 0.000000
# 6 0.000000 0.000000 -0.000001 0.010858 0.000000 0.027035
#
#
# Mechanical properties :
#
#
# Convention : Reuss Voigt Hill
#
# Bulk Modulus (GPa) = 44.01614 55.57979 49.79796
# Shear Modulus (GPa) = 19.81271 32.40428 26.10850
#
# Velocity S-wave (km/s) = 3.10643 3.97274 3.56599
# Velocity P-wave (km/s) = 5.85703 6.93642 6.41945
#
# Compressibility (1/GPa) = 0.02271894
#
# Stress axis : x y z
#
# Youngs Moduli (GPa) = 101.85263 21.50270 49.60300
#
# Poissons Ratio (x) = 0.19720 -0.01228
# Poissons Ratio (y) = 0.93410 0.89082
# Poissons Ratio (z) = -0.02521 0.38616
#
# Static dielectric constant tensor:
#      x y z
#    x 1.714850 0.000000 -0.009950 
#    y 0.000000 1.739820 0.000000 
#    z -0.009950 0.000000 1.772090 
# 
# From -- ./inp_files/298958.got.cif
#   From: 2010.05.17/outbox.ucp.g08.bks.cvg/sg15_150_cif.got.tgz:298958.got - 2010.06.11 12:40:34.
