data_PCOD9309176
_publ_section_title
;
Structure prediction by ZEFSAII (Michael W. Deem and Ramdas Pophale) SiO2 
 PCOD9309176
Probable space group: C 2/C
;
_chemical_formula_sum "Si O2"
_cell_formula_units_Z 30
_cell_length_a 9.000000
_cell_length_b 30.000000
_cell_length_c 24.000000
_cell_angle_alpha 90.000000
_cell_angle_beta 30.000000
_cell_angle_gamma 90.000000
_cell_volume 3240.000000
_symmetry_space_group_name_H-M "C 2/C"
_symmetry_group_IT_number 15
_symmetry_cell_setting 'monoclinic'
loop_
_space_group_symop_operation_xyz
x,y,z
-x,y,1/2-z
-x,-y,-z
x,-y,1/2+z
1/2+x,1/2+y,z
1/2-x,1/2+y,1/2-z
1/2-x,1/2-y,-z
1/2+x,1/2-y,1/2+z
loop_
_atom_site_type_symbol
_atom_site_label
_atom_site_fract_x
_atom_site_fract_y
_atom_site_fract_z
Si Si1 0.793953 0.851232 0.473539
Si Si2 0.685326 0.927478 0.337892
Si Si3 0.290042 0.199771 0.195732
Si Si4 0.000000 0.009773 0.250000
Si Si5 0.312835 0.199091 0.753292
Si Si6 0.158221 0.577827 0.435838
Si Si7 0.281325 0.638436 0.558508
Si Si8 0.699746 0.626940 0.318869
O O1 0.583631 0.811737 0.565034
O O2 0.561818 0.887806 0.525139
O O3 0.023648 0.831998 0.353449
O O4 0.009705 0.866337 0.454687
O O5 0.519640 0.935506 0.450636
O O6 0.451337 0.902187 0.375143
O O7 0.000000 0.902909 0.250000
O O8 0.807418 0.974754 0.275688
O O9 0.281197 0.249954 0.221053
O O10 0.289001 0.166320 0.248086
O O11 0.000000 0.193034 0.250000
O O12 0.766761 0.039163 0.359644
O O13 0.500000 0.195951 0.750000
O O14 0.558466 0.180590 0.631492
O O15 0.473431 0.597610 0.355303
O O16 0.497060 0.642195 0.436079
O O17 0.000000 0.607451 0.250000
#
# Coordination Sequence:
#
# PCOD9309176 Si02
#       8
#     8   8   8   4   8   8   8   8
#     4  11  20  36  64  86 118 155 203 236 290 353
#     4   9  21  39  62  83 121 146 191 241 292 353
#     4  11  20  37  57  87 118 157 203 248 283 338
#     4  10  22  38  66  86 120 142 196 242 296 354
#     4   9  21  36  57  85 120 159 201 241 289 339
#     4  11  21  38  65  88 111 162 190 234 305 358
#     4  10  21  39  59  85 118 158 193 242 294 349
#     4  11  22  37  59  84 121 153 198 244 291 349
#
# _framework density 9.2592590000000001
#
# number of rings (size 3 to 8) (size 9 to 14) (size 15 to 20)
#    0.400    1.333    2.667    2.400    0.000    0.533 
#    0.000    4.000    2.933    0.000    0.000    0.000 
#    0.000    0.000    0.000    0.000    0.000    0.000 
#
# Total GULP energy -167055.148785 kJ/mol
# GULP energy per Si atom -5568.504959 kJ/mol
# Density = 0.923818 g / cm^3
# Si number density = 9.259259 Si / 1000 Ang^3
#
#
#
# Elastic Constant Matrix: (Units=GPa)
#
#
# Indices 1 2 3 4 5 6 
#
# 1 84.1069 24.2276 13.4731 -0.0003 -31.6175 0.0001
# 2 24.2276 60.7855 21.0715 -0.0022 -18.5628 0.0017
# 3 13.4731 21.0715 94.8149 -0.0008 -28.4701 -0.0005
# 4 -0.0003 -0.0022 -0.0008 16.5900 -0.0019 9.0431
# 5 -31.6175 -18.5628 -28.4701 -0.0019 30.7469 0.0014
# 6 0.0001 0.0017 -0.0005 9.0431 0.0014 0.6307
#
#
#
# Elastic Compliance Matrix: (Units=1/GPa)
#
#
# Indices 1 2 3 4 5 6 
#
# 1 0.021183 -0.002590 0.005037 -0.000004 0.024883 0.000013
# 2 -0.002590 0.020577 -0.001765 -0.000007 0.008124 0.000018
# 3 0.005037 -0.001765 0.015872 -0.000002 0.018810 0.000009
# 4 -0.000004 -0.000007 -0.000002 -0.008845 -0.000017 0.126807
# 5 0.024883 0.008124 0.018810 -0.000017 0.080433 0.000052
# 6 0.000013 0.000018 0.000009 0.126807 0.000052 -0.232635
#
#
# Mechanical properties :
#
#
# Convention : Reuss Voigt Hill
#
# Bulk Modulus (GPa) = 16.95080 39.69464 28.32272
# Shear Modulus (GPa) = -58.74504 21.65588 -18.54458
#
# Velocity S-wave (km/s) = -5.63837 3.42338 -3.16794
# Velocity P-wave (km/s) = 5.76324 6.09161 1.39513
#
# Compressibility (1/GPa) = 0.05899426
#
# Stress axis : x y z
#
# Youngs Moduli (GPa) = 47.20785 48.59854 63.00576
#
# Poissons Ratio (x) = 0.12589 -0.31737
# Poissons Ratio (y) = 0.12229 0.11123
# Poissons Ratio (z) = -0.23780 0.08579
#
# Static dielectric constant tensor:
#      x y z
#    x 1.645430 0.000000 0.003500 
#    y 0.000000 1.668140 0.000000 
#    z 0.003500 0.000000 1.647220 
# 
# From -- ./inp_files/266684.got.cif
#   From: 2010.05.17/outbox.ucp.g08.bks.cvg/sg15_134_cif.got.tgz:266684.got - 2010.06.11 12:40:34.
