data_PCOD9309090
_publ_section_title
;
Structure prediction by ZEFSAII (Michael W. Deem and Ramdas Pophale) SiO2 
 PCOD9309090
Probable space group: C 2/C
;
_chemical_formula_sum "Si O2"
_cell_formula_units_Z 28
_cell_length_a 21.000000
_cell_length_b 9.000000
_cell_length_c 30.000000
_cell_angle_alpha 90.000000
_cell_angle_beta 150.000000
_cell_angle_gamma 90.000000
_cell_volume 2835.000000
_symmetry_space_group_name_H-M "C 2/C"
_symmetry_group_IT_number 15
_symmetry_cell_setting 'monoclinic'
loop_
_space_group_symop_operation_xyz
x,y,z
-x,y,1/2-z
-x,-y,-z
x,-y,1/2+z
1/2+x,1/2+y,z
1/2-x,1/2+y,1/2-z
1/2-x,1/2-y,-z
1/2+x,1/2-y,1/2+z
loop_
_atom_site_type_symbol
_atom_site_label
_atom_site_fract_x
_atom_site_fract_y
_atom_site_fract_z
Si Si1 0.149263 0.101644 0.550987
Si Si2 0.422861 0.141941 0.069835
Si Si3 0.117022 0.879387 0.293943
Si Si4 0.616210 0.049054 0.037285
Si Si5 0.855578 0.943264 0.857454
Si Si6 0.835082 0.813203 0.273541
Si Si7 0.300901 0.124902 0.090636
O O1 0.145188 0.276615 0.557536
O O2 0.008034 0.065262 0.447241
O O3 0.171396 0.015994 0.610948
O O4 0.250932 0.032058 0.578631
O O5 0.561967 0.203799 0.142382
O O6 0.391464 0.106956 0.102487
O O7 0.320880 0.271840 0.996245
O O8 0.409234 0.001287 0.029067
O O9 0.089217 0.859746 0.225206
O O10 0.138387 0.723956 0.333027
O O11 0.000000 0.953170 0.250000
O O12 0.251424 0.963927 0.373295
O O13 0.500000 0.000000 0.000000
O O14 0.788569 0.783282 0.813664
O O15 0.807314 0.050043 0.788843
#
# Coordination Sequence:
#
# PCOD9309090 Si02
#       7
#     8   8   8   8   8   8   8
#     4  11  23  45  62  92 133 181 214 268 332 408
#     4  10  22  39  67  93 122 167 223 264 323 401
#     4  11  23  43  66  95 130 174 218 274 331 391
#     4  11  25  41  67  96 137 178 216 264 340 412
#     4  11  26  38  64  94 133 169 213 272 336 388
#     4  12  23  40  63  98 129 162 219 280 327 389
#     4  10  20  43  65  89 122 175 224 261 323 402
#
# _framework density 9.8765429999999999
#
# number of rings (size 3 to 8) (size 9 to 14) (size 15 to 20)
#    0.000    1.143    4.286    1.714   10.000    0.571 
#    0.000    2.143    0.000    0.000    0.000    0.000 
#    0.000    0.000    0.000    0.000    0.000    0.000 
#
# Total GULP energy -156280.956707 kJ/mol
# GULP energy per Si atom -5581.462740 kJ/mol
# Density = 0.985406 g / cm^3
# Si number density = 9.876543 Si / 1000 Ang^3
#
#
#
# Elastic Constant Matrix: (Units=GPa)
#
#
# Indices 1 2 3 4 5 6 
#
# 1 98.6291 42.5344 21.6175 0.0000 15.0989 0.0000
# 2 42.5344 98.3443 18.7051 -0.0001 2.7983 0.0000
# 3 21.6175 18.7051 46.4891 -0.0002 3.3215 0.0000
# 4 0.0000 -0.0001 -0.0002 27.5601 0.0000 3.4631
# 5 15.0989 2.7983 3.3215 0.0000 30.1507 0.0000
# 6 0.0000 0.0000 0.0000 3.4631 0.0000 31.8280
#
#
#
# Elastic Compliance Matrix: (Units=1/GPa)
#
#
# Indices 1 2 3 4 5 6 
#
# 1 0.014223 -0.005200 -0.004079 0.000000 -0.006191 0.000000
# 2 -0.005200 0.012920 -0.002904 0.000000 0.001725 0.000000
# 3 -0.004079 -0.002904 0.024604 0.000000 -0.000398 0.000000
# 4 0.000000 0.000000 0.000000 0.036787 0.000000 -0.004003
# 5 -0.006191 0.001725 -0.000398 0.000000 0.036151 0.000000
# 6 0.000000 0.000000 0.000000 -0.004003 0.000000 0.031854
#
#
# Mechanical properties :
#
#
# Convention : Reuss Voigt Hill
#
# Bulk Modulus (GPa) = 36.52051 45.46407 40.99229
# Shear Modulus (GPa) = 26.31113 28.61478 27.46296
#
# Velocity S-wave (km/s) = 3.65362 3.81021 3.73273
# Velocity P-wave (km/s) = 6.02721 6.51330 6.27496
#
# Compressibility (1/GPa) = 0.02738188
#
# Stress axis : x y z
#
# Youngs Moduli (GPa) = 70.30775 77.39658 40.64333
#
# Poissons Ratio (x) = 0.40243 0.16580
# Poissons Ratio (y) = 0.36557 0.11803
# Poissons Ratio (z) = 0.28682 0.22476
#
# Static dielectric constant tensor:
#      x y z
#    x 1.667390 0.000000 -0.019470 
#    y 0.000000 1.676440 0.000000 
#    z -0.019470 0.000000 1.795190 
# 
# From -- ./inp_files/317561.got.cif
#   From: 2010.05.17/outbox.ucp.g08.bks.cvg/sg15_159_cif.got.tgz:317561.got - 2010.06.11 12:40:34.
