data_PCOD9309873
_publ_section_title
;
Structure prediction by ZEFSAII (Michael W. Deem and Ramdas Pophale) SiO2 
 PCOD9309873
Probable space group: C 2/C
;
_chemical_formula_sum "Si O2"
_cell_formula_units_Z 26
_cell_length_a 27.000000
_cell_length_b 12.000000
_cell_length_c 9.000000
_cell_angle_alpha 90.000000
_cell_angle_beta 60.000000
_cell_angle_gamma 90.000000
_cell_volume 2525.330077
_symmetry_space_group_name_H-M "C 2/C"
_symmetry_group_IT_number 15
_symmetry_cell_setting 'monoclinic'
loop_
_space_group_symop_operation_xyz
x,y,z
-x,y,1/2-z
-x,-y,-z
x,-y,1/2+z
1/2+x,1/2+y,z
1/2-x,1/2+y,1/2-z
1/2-x,1/2-y,-z
1/2+x,1/2-y,1/2+z
loop_
_atom_site_type_symbol
_atom_site_label
_atom_site_fract_x
_atom_site_fract_y
_atom_site_fract_z
Si Si1 0.112728 0.021154 0.467691
Si Si2 0.000000 0.899801 0.750000
Si Si3 0.304195 0.887413 0.856147
Si Si4 0.458640 0.058340 0.444024
Si Si5 0.855203 0.585288 0.971882
Si Si6 0.589638 0.733563 0.306322
Si Si7 0.326836 0.366303 0.345348
O O1 0.115037 0.127614 0.354378
O O2 0.137301 0.068520 0.584111
O O3 0.151164 0.921951 0.340580
O O4 0.048457 0.974546 0.594552
O O5 0.965429 0.818901 0.691819
O O6 0.308601 0.901973 0.672004
O O7 0.334384 0.767753 0.841142
O O8 0.335162 0.992441 0.884479
O O9 0.240199 0.883776 0.017590
O O10 0.500000 0.094553 0.250000
O O11 0.428116 0.166321 0.557571
O O12 0.500000 0.000000 0.500000
O O13 0.412588 0.967326 0.457871
O O14 0.869859 0.702780 0.872457
#
# Coordination Sequence:
#
# PCOD9309873 Si02
#       7
#     8   4   8   8   8   8   8
#     4  12  26  48  69 104 138 185 231 284 340 419
#     4  12  26  46  68 102 144 182 232 274 344 414
#     4  11  25  46  75 100 136 183 229 294 342 410
#     4  12  23  40  64 100 141 179 225 276 341 409
#     4  12  23  46  68 106 139 177 231 287 351 408
#     4  12  25  41  71 100 136 184 223 283 343 410
#     4  11  26  48  71 102 137 181 237 284 347 401
#
# _framework density 10.295684
#
# number of rings (size 3 to 8) (size 9 to 14) (size 15 to 20)
#    0.000    0.308    4.615    4.154    1.077    1.231 
#    0.000    1.538    0.000    0.000    0.000    0.000 
#    0.000    0.000    0.000    0.000    0.000    0.000 
#
# Total GULP energy -145445.481692 kJ/mol
# GULP energy per Si atom -5594.056988 kJ/mol
# Density = 1.027225 g / cm^3
# Si number density = 10.295684 Si / 1000 Ang^3
#
#
#
# Elastic Constant Matrix: (Units=GPa)
#
#
# Indices 1 2 3 4 5 6 
#
# 1 30.3068 24.8738 4.6319 0.0000 1.8170 0.0000
# 2 24.8738 140.6238 53.1783 0.0000 -3.6998 0.0000
# 3 4.6319 53.1783 133.6208 0.0000 -11.0429 0.0000
# 4 0.0000 0.0000 0.0000 54.8846 0.0000 1.4285
# 5 1.8170 -3.6998 -11.0429 0.0000 34.2446 0.0000
# 6 0.0000 0.0000 0.0000 1.4285 0.0000 39.8429
#
#
#
# Elastic Compliance Matrix: (Units=1/GPa)
#
#
# Indices 1 2 3 4 5 6 
#
# 1 0.039096 -0.007523 0.001439 0.000000 -0.002423 0.000000
# 2 -0.007523 0.009820 -0.003623 0.000000 0.000292 0.000000
# 3 0.001439 -0.003623 0.009079 0.000000 0.002460 0.000000
# 4 0.000000 0.000000 0.000000 0.018237 0.000000 -0.000654
# 5 -0.002423 0.000292 0.002460 0.000000 0.030155 0.000000
# 6 0.000000 0.000000 0.000000 -0.000654 0.000000 0.025122
#
#
# Mechanical properties :
#
#
# Convention : Reuss Voigt Hill
#
# Bulk Modulus (GPa) = 25.92065 52.21327 39.06696
# Shear Modulus (GPa) = 30.52802 40.58560 35.55681
#
# Velocity S-wave (km/s) = 3.85459 4.44441 4.15997
# Velocity P-wave (km/s) = 5.69437 7.19368 6.48748
#
# Compressibility (1/GPa) = 0.03857928
#
# Stress axis : x y z
#
# Youngs Moduli (GPa) = 25.57821 101.83640 110.14150
#
# Poissons Ratio (x) = 0.76613 -0.15844
# Poissons Ratio (y) = 0.19243 0.39906
# Poissons Ratio (z) = -0.03679 0.36897
#
# Static dielectric constant tensor:
#      x y z
#    x 1.740120 0.000000 0.083240 
#    y 0.000000 1.688790 0.000000 
#    z 0.083240 0.000000 1.962730 
# 
# From -- ./inp_files/65358.got.cif
#   From: 2010.05.17/outbox.ucp.g08.bks.cvg/sg15_33_cif.got.tgz:65358.got - 2010.06.11 12:40:34.
