data_PCOD9309061
_publ_section_title
;
Structure prediction by ZEFSAII (Michael W. Deem and Ramdas Pophale) SiO2 
 PCOD9309061
Probable space group: C 2/C
;
_chemical_formula_sum "Si O2"
_cell_formula_units_Z 30
_cell_length_a 9.000000
_cell_length_b 27.000000
_cell_length_c 12.000000
_cell_angle_alpha 90.000000
_cell_angle_beta 90.000000
_cell_angle_gamma 90.000000
_cell_volume 2916.000000
_symmetry_space_group_name_H-M "C 2/C"
_symmetry_group_IT_number 15
_symmetry_cell_setting 'monoclinic'
loop_
_space_group_symop_operation_xyz
x,y,z
-x,y,1/2-z
-x,-y,-z
x,-y,1/2+z
1/2+x,1/2+y,z
1/2-x,1/2+y,1/2-z
1/2-x,1/2-y,-z
1/2+x,1/2-y,1/2+z
loop_
_atom_site_type_symbol
_atom_site_label
_atom_site_fract_x
_atom_site_fract_y
_atom_site_fract_z
Si Si1 0.500000 0.711893 0.750000
Si Si2 0.321167 0.392803 0.735440
Si Si3 0.691429 0.450738 0.989106
Si Si4 0.470708 0.208008 0.559394
Si Si5 0.781432 0.162132 0.610368
Si Si6 0.360926 0.109061 0.681207
Si Si7 0.261664 0.783817 0.841193
Si Si8 0.166353 0.063658 0.028768
O O1 0.447281 0.683313 0.637361
O O2 0.354060 0.744882 0.768495
O O3 0.500000 0.389243 0.750000
O O4 0.269005 0.422322 0.625274
O O5 0.266650 0.336045 0.720153
O O6 0.283860 0.425573 0.844108
O O7 0.772673 0.426050 0.095828
O O8 0.724221 0.509827 0.988283
O O9 0.512117 0.442066 0.991399
O O10 0.652150 0.201253 0.569119
O O11 0.425387 0.156046 0.615108
O O12 0.379282 0.207873 0.442994
O O13 0.391595 0.255437 0.621083
O O14 0.741628 0.136164 0.728040
O O15 0.786539 0.114799 0.529744
O O16 0.500000 0.085690 0.750000
#
# Coordination Sequence:
#
# PCOD9309061 Si02
#       8
#     4   8   8   8   8   8   8   8
#     4  12  26  38  64 100 132 176 222 276 338 386
#     4  10  23  41  67  96 132 178 219 272 339 396
#     4  10  21  44  67  97 133 176 223 275 334 410
#     4  10  23  43  65  90 134 183 221 266 337 403
#     4  11  24  42  63 101 133 171 223 283 326 402
#     4  10  20  40  66  90 126 174 221 261 324 404
#     4  11  24  41  65  96 131 181 223 273 333 408
#     4  10  24  40  69 100 134 172 223 286 338 381
#
# _framework density 10.288066000000001
#
# number of rings (size 3 to 8) (size 9 to 14) (size 15 to 20)
#    0.000    1.600    2.667    0.800    5.600    1.600 
#    1.200    4.000    0.000    0.000    0.000    0.000 
#    0.000    0.000    0.000    0.000    0.000    0.000 
#
# Total GULP energy -167227.264302 kJ/mol
# GULP energy per Si atom -5574.242143 kJ/mol
# Density = 1.026465 g / cm^3
# Si number density = 10.288066 Si / 1000 Ang^3
#
#
#
# Elastic Constant Matrix: (Units=GPa)
#
#
# Indices 1 2 3 4 5 6 
#
# 1 63.8345 38.3007 22.1059 0.0000 27.4684 0.0000
# 2 38.3007 132.4767 40.3962 0.0000 17.7332 0.0000
# 3 22.1059 40.3962 88.3929 0.0000 35.5684 0.0000
# 4 0.0000 0.0000 0.0000 33.9809 0.0000 15.8234
# 5 27.4684 17.7332 35.5684 0.0000 36.0935 0.0000
# 6 0.0000 0.0000 0.0000 15.8234 0.0000 33.8258
#
#
#
# Elastic Compliance Matrix: (Units=1/GPa)
#
#
# Indices 1 2 3 4 5 6 
#
# 1 0.027702 -0.006551 0.005392 0.000000 -0.023178 0.000000
# 2 -0.006551 0.010328 -0.005047 0.000000 0.004885 0.000000
# 3 0.005392 -0.005047 0.021417 0.000000 -0.022730 0.000000
# 4 0.000000 0.000000 0.000000 0.037624 0.000000 -0.017600
# 5 -0.023178 0.004885 -0.022730 0.000000 0.065344 0.000000
# 6 0.000000 0.000000 0.000000 -0.017600 0.000000 0.037796
#
#
# Mechanical properties :
#
#
# Convention : Reuss Voigt Hill
#
# Bulk Modulus (GPa) = 21.26049 54.03439 37.64744
# Shear Modulus (GPa) = 21.90091 33.04013 27.47052
#
# Velocity S-wave (km/s) = 3.26603 4.01153 3.65782
# Velocity P-wave (km/s) = 4.95758 6.91189 6.01464
#
# Compressibility (1/GPa) = 0.04703561
#
# Stress axis : x y z
#
# Youngs Moduli (GPa) = 36.09839 96.82853 46.69091
#
# Poissons Ratio (x) = 0.63430 -0.25177
# Poissons Ratio (y) = 0.23647 0.23566
# Poissons Ratio (z) = -0.19465 0.48871
#
# Static dielectric constant tensor:
#      x y z
#    x 1.780540 0.000000 -0.050290 
#    y 0.000000 1.731960 0.000000 
#    z -0.050290 0.000000 1.820230 
# 
# From -- ./inp_files/81375.got.cif
#   From: 2010.05.17/outbox.ucp.g08.bks.cvg/sg15_41_cif.got.tgz:81375.got - 2010.06.11 12:40:34.
