data_PCOD9309981
_publ_section_title
;
Structure prediction by ZEFSAII (Michael W. Deem and Ramdas Pophale) SiO2 
 PCOD9309981
Probable space group: P 2 2 2
;
_chemical_formula_sum "Si O2"
_cell_formula_units_Z 21
_cell_length_a 7.438977
_cell_length_b 8.579070
_cell_length_c 13.975500
_cell_angle_alpha 90.000000
_cell_angle_beta 90.000000
_cell_angle_gamma 90.000000
_cell_volume 891.909484
_symmetry_space_group_name_H-M "P 2 2 2"
_symmetry_group_IT_number 16
_symmetry_cell_setting 'orthorhombic'
loop_
_space_group_symop_operation_xyz
x,y,z
-x,-y,z
x,-y,-z
-x,y,-z
loop_
_atom_site_type_symbol
_atom_site_label
_atom_site_fract_x
_atom_site_fract_y
_atom_site_fract_z
Si Si1 0.785265 0.321259 0.254448
Si Si2 0.188956 0.349185 0.174509
Si Si3 0.000000 0.500000 0.000000
Si Si4 0.800712 0.010554 0.802104
Si Si5 0.204016 0.320072 0.520841
Si Si6 0.692971 0.927481 0.401194
O O1 0.722994 0.493269 0.218873
O O2 0.721690 0.165785 0.196390
O O3 0.751829 0.296236 0.367326
O O4 0.002333 0.325858 0.235141
O O5 0.122644 0.397076 0.069347
O O6 0.281797 0.178763 0.168158
O O7 0.813342 0.042247 0.688547
O O8 0.000000 0.000000 0.846532
O O9 0.206181 0.500000 0.500000
O O10 0.325202 0.247723 0.436623
O O11 0.000000 0.266101 0.500000
O O12 0.500000 0.000000 0.379974
O O13 0.760772 0.000000 0.500000
#
# Coordination Sequence:
#
# PCOD9309981 Si02
#       6
#     4   4   1   4   4   4
#     4   9  16  28  43  69 102 130 177 225 264 332
#     4   9  17  30  49  77 107 141 166 221 302 357
#     4   8  16  32  50  80 130 132 156 248 314 370
#     4  10  18  32  53  74 101 147 194 228 275 346
#     4  11  19  31  55  80 102 148 206 251 284 334
#     4  11  23  35  48  74 115 156 194 245 288 326
#
# _framework density 23.544992000000001
#
# number of rings (size 3 to 8) (size 9 to 14) (size 15 to 20)
#    0.000    2.286    1.905    5.714    0.000    0.000 
#    0.000   13.810    0.000    0.000    0.000    0.000 
#    0.000   47.238    0.000    0.000    0.000    0.000 
#
# Total GULP energy -116976.181340 kJ/mol
# GULP energy per Si atom -5570.294350 kJ/mol
# Density = 2.349140 g / cm^3
# Si number density = 23.544992 Si / 1000 Ang^3
#
#
#
# Elastic Constant Matrix: (Units=GPa)
#
#
# Indices 1 2 3 4 5 6 
#
# 1 66.9526 34.7653 12.9688 0.0000 0.0000 0.0000
# 2 34.7653 212.4784 17.2816 0.0000 0.0000 0.0000
# 3 12.9688 17.2816 70.5707 0.0000 0.0000 0.0000
# 4 0.0000 0.0000 0.0000 12.8464 0.0000 0.0000
# 5 0.0000 0.0000 0.0000 0.0000 9.1738 0.0000
# 6 0.0000 0.0000 0.0000 0.0000 0.0000 -4.9188
#
#
#
# Elastic Compliance Matrix: (Units=1/GPa)
#
#
# Indices 1 2 3 4 5 6 
#
# 1 0.016729 -0.002538 -0.002453 0.000000 0.000000 0.000000
# 2 -0.002538 0.005187 -0.000804 0.000000 0.000000 0.000000
# 3 -0.002453 -0.000804 0.014818 0.000000 0.000000 0.000000
# 4 0.000000 0.000000 0.000000 0.077843 0.000000 0.000000
# 5 0.000000 0.000000 0.000000 0.000000 0.109006 0.000000
# 6 0.000000 0.000000 0.000000 0.000000 0.000000 -0.203300
#
#
# Mechanical properties :
#
#
# Convention : Reuss Voigt Hill
#
# Bulk Modulus (GPa) = 39.76956 53.33700 46.55328
# Shear Modulus (GPa) = 124.21528 22.41935 73.31732
#
# Velocity S-wave (km/s) = 7.27125 3.08911 5.58631
# Velocity P-wave (km/s) = 9.34999 5.95196 7.83735
#
# Compressibility (1/GPa) = 0.02514486
#
# Stress axis : x y z
#
# Youngs Moduli (GPa) = 59.77747 192.79191 67.48642
#
# Poissons Ratio (x) = 0.48923 0.16553
# Poissons Ratio (y) = 0.15169 0.05425
# Poissons Ratio (z) = 0.14662 0.15498
#
# Static dielectric constant tensor:
#      x y z
#    x 1.964780 0.000000 0.000000 
#    y 0.000000 1.906920 0.000000 
#    z 0.000000 0.000000 2.216330 
# 
# From -- ./inp_files/7803.got.cif
#   From: 2010.05.17/outbox.cif.g08.bks.cpg/sg16_4_cif.got.tgz:7803.got - 2010.06.03 22:28:35.
