data_PCOD9309093
_publ_section_title
;
Structure prediction by ZEFSAII (Michael W. Deem and Ramdas Pophale) SiO2 
 PCOD9309093
Probable space group: C 2/C
;
_chemical_formula_sum "Si O2"
_cell_formula_units_Z 32
_cell_length_a 18.000000
_cell_length_b 15.000000
_cell_length_c 18.000000
_cell_angle_alpha 90.000000
_cell_angle_beta 40.000000
_cell_angle_gamma 90.000000
_cell_volume 3123.947783
_symmetry_space_group_name_H-M "C 2/C"
_symmetry_group_IT_number 15
_symmetry_cell_setting 'monoclinic'
loop_
_space_group_symop_operation_xyz
x,y,z
-x,y,1/2-z
-x,-y,-z
x,-y,1/2+z
1/2+x,1/2+y,z
1/2-x,1/2+y,1/2-z
1/2-x,1/2-y,-z
1/2+x,1/2-y,1/2+z
loop_
_atom_site_type_symbol
_atom_site_label
_atom_site_fract_x
_atom_site_fract_y
_atom_site_fract_z
Si Si1 0.721832 0.974418 0.512360
Si Si2 0.880099 0.667853 0.298889
Si Si3 0.642290 0.571406 0.966936
Si Si4 0.461847 0.064786 0.959984
Si Si5 0.309250 0.169373 0.728432
Si Si6 0.704414 0.859148 0.803330
Si Si7 0.909120 0.020099 0.142212
Si Si8 0.338139 0.373861 0.294778
O O1 0.699447 0.890777 0.585375
O O2 0.810879 0.937463 0.383761
O O3 0.781475 0.045959 0.521013
O O4 0.612714 0.014027 0.547633
O O5 0.858147 0.635964 0.229950
O O6 0.867165 0.774963 0.301291
O O7 0.000000 0.652447 0.250000
O O8 0.712581 0.638593 0.861735
O O9 0.611365 0.492132 0.930900
O O10 0.508880 0.589416 0.088710
O O11 0.573690 0.116697 0.842587
O O12 0.386949 0.140150 0.060148
O O13 0.500000 0.000000 0.000000
O O14 0.291283 0.275324 0.737642
O O15 0.272824 0.138578 0.673556
O O16 0.783471 0.943980 0.760295
O O17 0.926406 0.926448 0.172737
#
# Coordination Sequence:
#
# PCOD9309093 Si02
#       8
#     8   8   8   8   8   8   8   8
#     4  12  23  39  67  98 134 171 223 278 336 399
#     4  11  25  38  63 102 142 166 215 281 343 398
#     4  10  23  39  66  96 125 172 225 266 336 394
#     4  12  23  43  73  96 135 184 227 277 343 411
#     4  10  24  43  66  96 131 174 227 273 330 399
#     4  11  23  45  69  97 131 178 232 268 337 409
#     4  10  20  44  68  88 132 182 217 266 325 418
#     4  10  22  42  59  98 134 174 214 265 338 405
#
# _framework density 10.243449
#
# number of rings (size 3 to 8) (size 9 to 14) (size 15 to 20)
#    0.000    1.250    3.750    1.875    5.250    0.000 
#    0.000    0.625    2.750    0.000    0.000    0.000 
#    0.000    0.000    0.000    0.000    0.000    0.000 
#
# Total GULP energy -178181.500537 kJ/mol
# GULP energy per Si atom -5568.171892 kJ/mol
# Density = 1.022013 g / cm^3
# Si number density = 10.243449 Si / 1000 Ang^3
#
#
#
# Elastic Constant Matrix: (Units=GPa)
#
#
# Indices 1 2 3 4 5 6 
#
# 1 117.1173 31.8272 29.5778 0.0000 11.0014 0.0000
# 2 31.8272 64.6267 23.0394 0.0000 8.9418 0.0000
# 3 29.5778 23.0394 63.0680 0.0000 4.7214 0.0000
# 4 0.0000 0.0000 0.0000 31.1083 0.0000 4.7048
# 5 11.0014 8.9418 4.7214 0.0000 34.9551 0.0000
# 6 0.0000 0.0000 0.0000 4.7048 0.0000 30.3339
#
#
#
# Elastic Compliance Matrix: (Units=1/GPa)
#
#
# Indices 1 2 3 4 5 6 
#
# 1 0.010606 -0.003720 -0.003472 0.000000 -0.001917 0.000000
# 2 -0.003720 0.019585 -0.005175 0.000000 -0.003140 0.000000
# 3 -0.003472 -0.005175 0.019389 0.000000 -0.000203 0.000000
# 4 0.000000 0.000000 0.000000 0.032918 0.000000 -0.005106
# 5 -0.001917 -0.003140 -0.000203 0.000000 0.030042 0.000000
# 6 0.000000 0.000000 0.000000 -0.005106 0.000000 0.033758
#
#
# Mechanical properties :
#
#
# Convention : Reuss Voigt Hill
#
# Bulk Modulus (GPa) = 40.24553 45.96678 43.10615
# Shear Modulus (GPa) = 27.88388 29.97065 28.92726
#
# Velocity S-wave (km/s) = 3.69326 3.82896 3.76172
# Velocity P-wave (km/s) = 6.15419 6.48335 6.32091
#
# Compressibility (1/GPa) = 0.02484748
#
# Stress axis : x y z
#
# Youngs Moduli (GPa) = 94.28305 51.05959 51.57433
#
# Poissons Ratio (x) = 0.18997 0.17904
# Poissons Ratio (y) = 0.35078 0.26688
# Poissons Ratio (z) = 0.32731 0.26422
#
# Static dielectric constant tensor:
#      x y z
#    x 1.724280 0.000000 -0.068290 
#    y 0.000000 1.734530 0.000000 
#    z -0.068290 0.000000 1.920040 
# 
# From -- ./inp_files/211389.got.cif
#   From: 2010.05.17/outbox.ucp.g08.bks.cvg/sg15_106_cif.got.tgz:211389.got - 2010.06.11 12:40:34.
