data_PCOD9309763
_publ_section_title
;
Structure prediction by ZEFSAII (Michael W. Deem and Ramdas Pophale) SiO2 
 PCOD9309763
Probable space group: C 2/C
;
_chemical_formula_sum "Si O2"
_cell_formula_units_Z 26
_cell_length_a 12.000000
_cell_length_b 27.000000
_cell_length_c 9.000000
_cell_angle_alpha 90.000000
_cell_angle_beta 120.000000
_cell_angle_gamma 90.000000
_cell_volume 2525.330077
_symmetry_space_group_name_H-M "C 2/C"
_symmetry_group_IT_number 15
_symmetry_cell_setting 'monoclinic'
loop_
_space_group_symop_operation_xyz
x,y,z
-x,y,1/2-z
-x,-y,-z
x,-y,1/2+z
1/2+x,1/2+y,z
1/2-x,1/2+y,1/2-z
1/2-x,1/2-y,-z
1/2+x,1/2-y,1/2+z
loop_
_atom_site_type_symbol
_atom_site_label
_atom_site_fract_x
_atom_site_fract_y
_atom_site_fract_z
Si Si1 0.388320 0.537038 0.863670
Si Si2 0.500000 0.373639 0.250000
Si Si3 0.500000 0.930171 0.250000
Si Si4 0.698093 0.289495 0.339681
Si Si5 0.602924 0.754392 0.456679
Si Si6 0.199100 0.499039 0.974114
Si Si7 0.000000 0.583995 0.250000
Si Si8 0.548156 0.849477 0.067657
O O1 0.453407 0.588240 0.849566
O O2 0.286313 0.533774 0.927959
O O3 0.297553 0.518014 0.667019
O O4 0.500000 0.500000 0.000000
O O5 0.615988 0.334810 0.356946
O O6 0.582221 0.892303 0.207294
O O7 0.423403 0.964908 0.082846
O O8 0.750000 0.250000 0.500000
O O9 0.828509 0.315003 0.370835
O O10 0.616346 0.269203 0.137867
O O11 0.500000 0.737676 0.250000
O O12 0.750000 0.750000 0.500000
O O13 0.562325 0.811403 0.455028
O O14 0.127280 0.451474 0.851046
O O15 0.003548 0.620580 0.392890
#
# Coordination Sequence:
#
# PCOD9309763 Si02
#       8
#     8   4   4   8   8   8   4   8
#     4  12  24  45  67  99 147 189 237 297 362 449
#     4  12  26  45  74 107 145 204 247 306 386 454
#     4  11  22  40  68  99 129 178 234 296 365 428
#     4  12  26  48  76 106 148 195 258 317 383 460
#     4  12  25  49  74 106 149 191 242 329 387 451
#     4  11  23  43  68  98 142 183 237 303 356 431
#     4  11  24  41  72 104 138 188 243 306 365 434
#     4  12  23  44  69 103 138 184 242 301 370 458
#
# _framework density 10.295684
#
# number of rings (size 3 to 8) (size 9 to 14) (size 15 to 20)
#    0.000    0.308    3.846    5.538    0.000    2.462 
#    2.769    3.077    0.000    0.000    0.000    0.000 
#    0.000    0.000    0.000    0.000    0.000    0.000 
#
# Total GULP energy -144823.558748 kJ/mol
# GULP energy per Si atom -5570.136875 kJ/mol
# Density = 1.027225 g / cm^3
# Si number density = 10.295684 Si / 1000 Ang^3
#
#
#
# Elastic Constant Matrix: (Units=GPa)
#
#
# Indices 1 2 3 4 5 6 
#
# 1 80.0254 43.3148 17.2759 0.0000 22.7458 0.0000
# 2 43.3148 142.2904 57.9867 0.0000 13.7130 0.0000
# 3 17.2759 57.9867 164.2879 0.0000 20.1415 0.0000
# 4 0.0000 0.0000 0.0000 51.0187 0.0000 1.5088
# 5 22.7458 13.7130 20.1415 0.0000 38.3986 0.0000
# 6 0.0000 0.0000 0.0000 1.5088 0.0000 49.3428
#
#
#
# Elastic Compliance Matrix: (Units=1/GPa)
#
#
# Indices 1 2 3 4 5 6 
#
# 1 0.017512 -0.004853 0.000995 0.000000 -0.009162 0.000000
# 2 -0.004853 0.009636 -0.003015 0.000000 0.001015 0.000000
# 3 0.000995 -0.003015 0.007467 0.000000 -0.003429 0.000000
# 4 0.000000 0.000000 0.000000 0.019618 0.000000 -0.000600
# 5 -0.009162 0.001015 -0.003429 0.000000 0.032906 0.000000
# 6 0.000000 0.000000 0.000000 -0.000600 0.000000 0.020285
#
#
# Mechanical properties :
#
#
# Convention : Reuss Voigt Hill
#
# Bulk Modulus (GPa) = 47.92065 69.30651 58.61358
# Shear Modulus (GPa) = 39.02327 45.62044 42.32186
#
# Velocity S-wave (km/s) = 4.35803 4.71203 4.53848
# Velocity P-wave (km/s) = 6.97467 7.95835 7.48269
#
# Compressibility (1/GPa) = 0.02086783
#
# Stress axis : x y z
#
# Youngs Moduli (GPa) = 57.10227 103.77463 133.92355
#
# Poissons Ratio (x) = 0.50366 -0.13322
# Poissons Ratio (y) = 0.27714 0.40382
# Poissons Ratio (z) = -0.05680 0.31291
#
# Static dielectric constant tensor:
#      x y z
#    x 1.866480 0.000000 -0.041240 
#    y 0.000000 1.717440 0.000000 
#    z -0.041240 0.000000 1.794630 
# 
# From -- ./inp_files/34465.got.cif
#   From: 2010.05.17/outbox.ucp.g08.bks.cvg/sg15_18_cif.got.tgz:34465.got - 2010.06.11 12:40:34.
