data_PCOD9309252
_publ_section_title
;
Structure prediction by ZEFSAII (Michael W. Deem and Ramdas Pophale) SiO2 
 PCOD9309252
Probable space group: C 2/C
;
_chemical_formula_sum "Si O2"
_cell_formula_units_Z 24
_cell_length_a 18.000000
_cell_length_b 15.000000
_cell_length_c 18.000000
_cell_angle_alpha 90.000000
_cell_angle_beta 30.000000
_cell_angle_gamma 90.000000
_cell_volume 2430.000000
_symmetry_space_group_name_H-M "C 2/C"
_symmetry_group_IT_number 15
_symmetry_cell_setting 'monoclinic'
loop_
_space_group_symop_operation_xyz
x,y,z
-x,y,1/2-z
-x,-y,-z
x,-y,1/2+z
1/2+x,1/2+y,z
1/2-x,1/2+y,1/2-z
1/2-x,1/2-y,-z
1/2+x,1/2-y,1/2+z
loop_
_atom_site_type_symbol
_atom_site_label
_atom_site_fract_x
_atom_site_fract_y
_atom_site_fract_z
Si Si1 0.149094 0.663143 0.072258
Si Si2 0.674684 0.303558 0.499038
Si Si3 0.907200 0.632537 0.552625
Si Si4 0.676964 0.481595 0.580288
Si Si5 0.285722 0.950328 0.651271
Si Si6 0.863317 0.779066 0.709125
O O1 0.000000 0.666045 0.250000
O O2 0.250000 0.750000 0.000000
O O3 0.099043 0.653153 0.029396
O O4 0.247765 0.575462 0.004430
O O5 0.750000 0.250000 0.500000
O O6 0.696327 0.407256 0.499945
O O7 0.736679 0.268490 0.367325
O O8 0.502256 0.280377 0.643946
O O9 0.786500 0.554109 0.671293
O O10 0.881480 0.721252 0.620554
O O11 0.060154 0.591027 0.452138
O O12 0.500000 0.490405 0.750000
O O13 0.759625 0.448251 0.584504
O O14 0.166285 0.881557 0.785441
#
# Coordination Sequence:
#
# PCOD9309252 Si02
#       6
#     8   8   8   8   8   8
#     4  11  27  47  71  95 125 176 226 279 332 383
#     4  12  22  36  64 100 136 172 216 266 334 397
#     4  10  24  43  68  92 133 170 224 271 328 400
#     4  11  21  42  67  98 138 168 216 276 323 397
#     4  10  21  41  66  90 131 176 210 266 332 379
#     4  12  22  40  63  98 132 179 215 271 334 392
#
# _framework density 9.8765429999999999
#
# number of rings (size 3 to 8) (size 9 to 14) (size 15 to 20)
#    0.000    1.000    5.000    1.000    2.333    5.333 
#    0.000    0.833    0.000    0.000    0.000    0.000 
#    0.000    0.000    0.000    0.000    0.000    0.000 
#
# Total GULP energy -133913.850118 kJ/mol
# GULP energy per Si atom -5579.743755 kJ/mol
# Density = 0.985406 g / cm^3
# Si number density = 9.876543 Si / 1000 Ang^3
#
#
#
# Elastic Constant Matrix: (Units=GPa)
#
#
# Indices 1 2 3 4 5 6 
#
# 1 91.1256 55.8787 37.9588 -0.0004 -3.2688 0.0003
# 2 55.8787 160.6801 54.9787 0.0002 4.8211 -0.0001
# 3 37.9588 54.9787 66.0474 0.0007 -10.9062 -0.0002
# 4 -0.0004 0.0002 0.0007 33.7031 -0.0001 -2.4194
# 5 -3.2688 4.8211 -10.9062 -0.0001 24.8509 0.0001
# 6 0.0003 -0.0001 -0.0002 -2.4194 0.0001 38.1639
#
#
#
# Elastic Compliance Matrix: (Units=1/GPa)
#
#
# Indices 1 2 3 4 5 6 
#
# 1 0.015581 -0.003287 -0.006226 0.000000 -0.000045 0.000000
# 2 -0.003287 0.010080 -0.007435 0.000000 -0.005651 0.000000
# 3 -0.006226 -0.007435 0.026965 -0.000001 0.012457 0.000000
# 4 0.000000 0.000000 -0.000001 0.029807 0.000000 0.001890
# 5 -0.000045 -0.005651 0.012457 0.000000 0.046797 0.000000
# 6 0.000000 0.000000 0.000000 0.001890 0.000000 0.026323
#
#
# Mechanical properties :
#
#
# Convention : Reuss Voigt Hill
#
# Bulk Modulus (GPa) = 53.38965 68.38727 60.88846
# Shear Modulus (GPa) = 25.55028 30.61272 28.08150
#
# Velocity S-wave (km/s) = 3.60040 3.94098 3.77454
# Velocity P-wave (km/s) = 6.66116 7.44343 7.06313
#
# Compressibility (1/GPa) = 0.01873022
#
# Stress axis : x y z
#
# Youngs Moduli (GPa) = 64.17911 99.20578 37.08509
#
# Poissons Ratio (x) = 0.32607 0.23091
# Poissons Ratio (y) = 0.21095 0.27572
# Poissons Ratio (z) = 0.39961 0.73758
#
# Static dielectric constant tensor:
#      x y z
#    x 1.471530 0.000000 0.076190 
#    y 0.000000 1.679950 0.000000 
#    z 0.076190 0.000000 1.680170 
# 
# From -- ./inp_files/66430.got.cif
#   From: 2010.05.17/outbox.ucp.g08.bks.cvg/sg15_34_cif.got.tgz:66430.got - 2010.06.11 12:40:34.
