data_PCOD9309177
_publ_section_title
;
Structure prediction by ZEFSAII (Michael W. Deem and Ramdas Pophale) SiO2 
 PCOD9309177
Probable space group: C 2/C
;
_chemical_formula_sum "Si O2"
_cell_formula_units_Z 30
_cell_length_a 18.000000
_cell_length_b 18.000000
_cell_length_c 18.000000
_cell_angle_alpha 90.000000
_cell_angle_beta 150.000000
_cell_angle_gamma 90.000000
_cell_volume 2916.000000
_symmetry_space_group_name_H-M "C 2/C"
_symmetry_group_IT_number 15
_symmetry_cell_setting 'monoclinic'
loop_
_space_group_symop_operation_xyz
x,y,z
-x,y,1/2-z
-x,-y,-z
x,-y,1/2+z
1/2+x,1/2+y,z
1/2-x,1/2+y,1/2-z
1/2-x,1/2-y,-z
1/2+x,1/2-y,1/2+z
loop_
_atom_site_type_symbol
_atom_site_label
_atom_site_fract_x
_atom_site_fract_y
_atom_site_fract_z
Si Si1 0.525989 0.349554 0.466722
Si Si2 0.084299 0.177232 0.464377
Si Si3 0.456103 0.981660 0.296586
Si Si4 0.117217 0.634257 0.413943
Si Si5 0.593714 0.827610 0.188095
Si Si6 0.237135 0.277446 0.157714
Si Si7 0.838084 0.038953 0.516235
Si Si8 0.500000 0.420870 0.750000
O O1 0.473281 0.356095 0.506542
O O2 0.408902 0.295093 0.323518
O O3 0.685402 0.308144 0.610113
O O4 0.536499 0.424521 0.427260
O O5 0.024171 0.261338 0.403048
O O6 0.264313 0.177236 0.631873
O O7 0.010485 0.132124 0.331823
O O8 0.500000 0.960851 0.250000
O O9 0.477383 0.909189 0.364648
O O10 0.542834 0.059055 0.384515
O O11 0.281909 0.001273 0.141937
O O12 0.176522 0.686296 0.529893
O O13 0.257363 0.606121 0.488183
O O14 0.000000 0.663364 0.250000
O O15 0.655728 0.813777 0.158854
O O16 0.877374 0.980556 0.615147
#
# Coordination Sequence:
#
# PCOD9309177 Si02
#       8
#     8   8   8   8   8   8   8   4
#     4  10  23  42  63  91 127 166 205 259 304 369
#     4  10  24  40  63  92 126 162 208 258 306 371
#     4   9  20  38  62  85 126 162 200 258 309 357
#     4   9  21  39  60  89 122 163 205 261 304 368
#     4  10  21  43  61  92 124 167 206 257 308 371
#     4  10  22  40  63  91 125 163 216 248 311 371
#     4  10  21  39  59  87 128 156 205 257 310 359
#     4  12  22  38  62  92 120 160 212 252 310 364
#
# _framework density 10.288066000000001
#
# number of rings (size 3 to 8) (size 9 to 14) (size 15 to 20)
#    0.000    2.400    1.333    0.800    4.667    4.267 
#    3.600    0.000    0.000    0.000    0.000    0.000 
#    0.000    0.000    0.000    0.000    0.000    0.000 
#
# Total GULP energy -167221.816529 kJ/mol
# GULP energy per Si atom -5574.060551 kJ/mol
# Density = 1.026465 g / cm^3
# Si number density = 10.288066 Si / 1000 Ang^3
#
#
#
# Elastic Constant Matrix: (Units=GPa)
#
#
# Indices 1 2 3 4 5 6 
#
# 1 31.0720 19.8142 27.2215 -0.0001 -18.7192 -0.0001
# 2 19.8142 31.6211 8.5475 -0.0013 -9.1658 0.0006
# 3 27.2215 8.5475 71.0329 -0.0026 -18.2919 0.0004
# 4 -0.0001 -0.0013 -0.0026 29.3285 -0.0007 -8.0734
# 5 -18.7192 -9.1658 -18.2919 -0.0007 35.1960 0.0004
# 6 -0.0001 0.0006 0.0004 -8.0734 0.0004 17.1773
#
#
#
# Elastic Compliance Matrix: (Units=1/GPa)
#
#
# Indices 1 2 3 4 5 6 
#
# 1 0.105093 -0.050237 -0.026790 -0.000003 0.028888 0.000001
# 2 -0.050237 0.058496 0.010686 0.000003 -0.005932 -0.000001
# 3 -0.026790 0.010686 0.023213 0.000002 0.000599 0.000000
# 4 -0.000003 0.000003 0.000002 0.039164 0.000001 0.018407
# 5 0.028888 -0.005932 0.000599 0.000001 0.042543 0.000000
# 6 0.000001 -0.000001 0.000000 0.018407 0.000000 0.066868
#
#
# Mechanical properties :
#
#
# Convention : Reuss Voigt Hill
#
# Bulk Modulus (GPa) = 18.47799 27.21028 22.84413
# Shear Modulus (GPa) = 10.28599 21.54987 15.91793
#
# Velocity S-wave (km/s) = 2.23827 3.23975 2.78440
# Velocity P-wave (km/s) = 3.95975 5.21992 4.63288
#
# Compressibility (1/GPa) = 0.05411844
#
# Stress axis : x y z
#
# Youngs Moduli (GPa) = 9.51542 17.09518 43.07969
#
# Poissons Ratio (x) = 0.85882 1.15410
# Poissons Ratio (y) = 0.47803 -0.46034
# Poissons Ratio (z) = 0.25492 -0.18267
#
# Static dielectric constant tensor:
#      x y z
#    x 1.756080 0.000000 0.041790 
#    y 0.000000 1.762850 0.000000 
#    z 0.041790 0.000000 1.734520 
# 
# From -- ./inp_files/211766.got.cif
#   From: 2010.05.17/outbox.ucp.g08.bks.cvg/sg15_106_cif.got.tgz:211766.got - 2010.06.11 12:40:34.
