data_PCOD9309173
_publ_section_title
;
Structure prediction by ZEFSAII (Michael W. Deem and Ramdas Pophale) SiO2 
 PCOD9309173
Probable space group: C 2/C
;
_chemical_formula_sum "Si O2"
_cell_formula_units_Z 28
_cell_length_a 30.000000
_cell_length_b 18.000000
_cell_length_c 6.000000
_cell_angle_alpha 90.000000
_cell_angle_beta 120.000000
_cell_angle_gamma 90.000000
_cell_volume 2805.922308
_symmetry_space_group_name_H-M "C 2/C"
_symmetry_group_IT_number 15
_symmetry_cell_setting 'monoclinic'
loop_
_space_group_symop_operation_xyz
x,y,z
-x,y,1/2-z
-x,-y,-z
x,-y,1/2+z
1/2+x,1/2+y,z
1/2-x,1/2+y,1/2-z
1/2-x,1/2-y,-z
1/2+x,1/2-y,1/2+z
loop_
_atom_site_type_symbol
_atom_site_label
_atom_site_fract_x
_atom_site_fract_y
_atom_site_fract_z
Si Si1 0.071636 0.175571 0.288333
Si Si2 0.762817 0.309871 0.722278
Si Si3 0.000000 0.744603 0.250000
Si Si4 0.277055 0.976050 0.608440
Si Si5 0.103603 0.473987 0.610245
Si Si6 0.165683 0.772845 0.756051
Si Si7 0.000000 0.955932 0.750000
Si Si8 0.906436 0.303252 0.788813
O O1 0.123711 0.173872 0.269524
O O2 0.083154 0.239101 0.501495
O O3 0.049183 0.100459 0.344702
O O4 0.028218 0.205148 0.007053
O O5 0.750000 0.250000 0.500000
O O6 0.774362 0.387716 0.636170
O O7 0.713094 0.315242 0.759221
O O8 0.809374 0.280310 0.993092
O O9 0.957514 0.695307 0.265260
O O10 0.336859 0.001187 0.747518
O O11 0.256424 0.993955 0.302366
O O12 0.083017 0.496752 0.306320
O O13 0.102510 0.384157 0.628935
O O14 0.137865 0.724756 0.492391
O O15 0.000000 0.000000 0.500000
#
# Coordination Sequence:
#
# PCOD9309173 Si02
#       8
#     8   8   4   8   8   8   4   8
#     4  11  22  44  69 100 130 178 225 280 344 418
#     4  11  23  42  64 100 132 178 230 289 334 403
#     4  10  21  38  70  95 126 166 230 262 327 394
#     4  10  23  39  63  89 128 175 219 267 333 399
#     4  10  23  38  60  95 133 174 219 270 325 384
#     4  10  24  37  70  96 133 170 240 279 341 401
#     4  12  27  46  74 107 140 176 228 298 365 432
#     4  11  22  40  68  95 127 178 225 277 329 408
#
# _framework density 9.9788940000000004
#
# number of rings (size 3 to 8) (size 9 to 14) (size 15 to 20)
#    0.000    1.429    1.429    3.000   16.000    0.000 
#    0.000    2.143    0.000    0.000    0.000    0.000 
#    0.000    0.000    0.000    0.000    0.000    0.000 
#
# Total GULP energy -156166.075950 kJ/mol
# GULP energy per Si atom -5577.359855 kJ/mol
# Density = 0.995618 g / cm^3
# Si number density = 9.978894 Si / 1000 Ang^3
#
#
#
# Elastic Constant Matrix: (Units=GPa)
#
#
# Indices 1 2 3 4 5 6 
#
# 1 112.2601 25.8417 23.4658 0.0000 -11.6039 0.0000
# 2 25.8417 103.4371 50.5697 0.0000 -19.4417 0.0000
# 3 23.4658 50.5697 163.5759 0.0000 -27.2134 0.0000
# 4 0.0000 0.0000 0.0000 38.4506 0.0000 -16.2761
# 5 -11.6039 -19.4417 -27.2134 0.0000 42.8866 0.0000
# 6 0.0000 0.0000 0.0000 -16.2761 0.0000 36.6324
#
#
#
# Elastic Compliance Matrix: (Units=1/GPa)
#
#
# Indices 1 2 3 4 5 6 
#
# 1 0.009599 -0.001857 -0.000571 0.000000 0.001393 0.000000
# 2 -0.001857 0.012175 -0.002977 0.000000 0.003128 0.000000
# 3 -0.000571 -0.002977 0.007676 0.000000 0.003366 0.000000
# 4 0.000000 0.000000 0.000000 0.032032 0.000000 0.014232
# 5 0.001393 0.003128 0.003366 0.000000 0.027248 0.000000
# 6 0.000000 0.000000 0.000000 0.014232 0.000000 0.033622
#
#
# Mechanical properties :
#
#
# Convention : Reuss Voigt Hill
#
# Bulk Modulus (GPa) = 53.65152 64.33639 58.99395
# Shear Modulus (GPa) = 35.87447 42.22031 39.04739
#
# Velocity S-wave (km/s) = 4.24431 4.60442 4.42803
# Velocity P-wave (km/s) = 7.13861 7.78292 7.46772
#
# Compressibility (1/GPa) = 0.01863880
#
# Stress axis : x y z
#
# Youngs Moduli (GPa) = 104.18047 82.13515 130.28016
#
# Poissons Ratio (x) = 0.15253 0.07441
# Poissons Ratio (y) = 0.19346 0.38787
# Poissons Ratio (z) = 0.05950 0.24453
#
# Static dielectric constant tensor:
#      x y z
#    x 1.764870 0.000000 -0.016420 
#    y 0.000000 1.684210 0.000000 
#    z -0.016420 0.000000 1.732390 
# 
# From -- ./inp_files/18498.got.cif
#   From: 2010.05.17/outbox.ucp.g08.bks.cvg/sg15_10_cif.got.tgz:18498.got - 2010.06.11 12:40:34.
