data_PCOD9309005
_publ_section_title
;
Structure prediction by ZEFSAII (Michael W. Deem and Ramdas Pophale) SiO2 
 PCOD9309005
Probable space group: C 2/C
;
_chemical_formula_sum "Si O2"
_cell_formula_units_Z 28
_cell_length_a 24.000000
_cell_length_b 18.000000
_cell_length_c 9.000000
_cell_angle_alpha 90.000000
_cell_angle_beta 50.000000
_cell_angle_gamma 90.000000
_cell_volume 2978.380795
_symmetry_space_group_name_H-M "C 2/C"
_symmetry_group_IT_number 15
_symmetry_cell_setting 'monoclinic'
loop_
_space_group_symop_operation_xyz
x,y,z
-x,y,1/2-z
-x,-y,-z
x,-y,1/2+z
1/2+x,1/2+y,z
1/2-x,1/2+y,1/2-z
1/2-x,1/2-y,-z
1/2+x,1/2-y,1/2+z
loop_
_atom_site_type_symbol
_atom_site_label
_atom_site_fract_x
_atom_site_fract_y
_atom_site_fract_z
Si Si1 0.853447 0.789724 0.703249
Si Si2 0.520106 0.713724 0.887693
Si Si3 0.458901 0.561723 0.475163
Si Si4 0.707519 0.535390 0.715006
Si Si5 0.325968 0.227410 0.282785
Si Si6 0.728349 0.329490 0.373618
Si Si7 0.270087 0.398311 0.647226
O O1 0.801177 0.717735 0.780361
O O2 0.833170 0.840552 0.593566
O O3 0.937438 0.768615 0.588116
O O4 0.819506 0.836968 0.897058
O O5 0.500000 0.705295 0.750000
O O6 0.593749 0.764092 0.782274
O O7 0.540799 0.636790 0.930321
O O8 0.500000 0.573130 0.250000
O O9 0.500000 0.500000 0.500000
O O10 0.376670 0.535352 0.591457
O O11 0.745623 0.596922 0.752942
O O12 0.740199 0.456793 0.703451
O O13 0.709742 0.559642 0.539752
O O14 0.250000 0.250000 0.500000
O O15 0.322857 0.281842 0.148049
O O16 0.303462 0.146659 0.262189
#
# Coordination Sequence:
#
# PCOD9309005 Si02
#       7
#     8   8   8   8   8   8   8
#     4  10  22  37  58  92 118 158 194 252 291 372
#     4  12  23  36  60  87 122 156 205 244 305 356
#     4  12  23  35  54  85 127 157 189 236 303 376
#     4  12  21  37  58  82 118 163 193 250 300 359
#     4  11  21  40  61  87 121 164 204 252 296 364
#     4  10  20  38  61  83 125 153 204 239 303 358
#     4  11  23  38  62  88 123 155 210 244 306 364
#
# _framework density 9.4010809999999996
#
# number of rings (size 3 to 8) (size 9 to 14) (size 15 to 20)
#    0.000    0.857    2.857    6.429    0.000    0.000 
#    0.000    0.000    0.000    0.857    0.000    0.000 
#    0.000    0.000    0.000    0.000    0.000    0.000 
#
# Total GULP energy -156217.892709 kJ/mol
# GULP energy per Si atom -5579.210454 kJ/mol
# Density = 0.937968 g / cm^3
# Si number density = 9.401081 Si / 1000 Ang^3
#
#
#
# Elastic Constant Matrix: (Units=GPa)
#
#
# Indices 1 2 3 4 5 6 
#
# 1 130.8880 46.6200 46.1243 0.0000 -9.5956 0.0000
# 2 46.6200 74.0800 31.4370 0.0000 -0.5225 0.0000
# 3 46.1243 31.4370 78.3188 0.0000 4.9135 0.0000
# 4 0.0000 0.0000 0.0000 20.1698 0.0000 7.9874
# 5 -9.5956 -0.5225 4.9135 0.0000 32.0482 0.0000
# 6 0.0000 0.0000 0.0000 7.9874 0.0000 41.7241
#
#
#
# Elastic Compliance Matrix: (Units=1/GPa)
#
#
# Indices 1 2 3 4 5 6 
#
# 1 0.011521 -0.005101 -0.004997 0.000000 0.004132 0.000000
# 2 -0.005101 0.018581 -0.004420 0.000000 -0.000547 0.000000
# 3 -0.004997 -0.004420 0.017754 0.000000 -0.004290 0.000000
# 4 0.000000 0.000000 0.000000 0.053646 0.000000 -0.010270
# 5 0.004132 -0.000547 -0.004290 0.000000 0.033089 0.000000
# 6 0.000000 0.000000 0.000000 -0.010270 0.000000 0.025933
#
#
# Mechanical properties :
#
#
# Convention : Reuss Voigt Hill
#
# Bulk Modulus (GPa) = 53.13223 59.07214 56.10219
# Shear Modulus (GPa) = 25.53210 29.39546 27.46378
#
# Velocity S-wave (km/s) = 3.68901 3.95829 3.82602
# Velocity P-wave (km/s) = 6.81653 7.23717 7.02999
#
# Compressibility (1/GPa) = 0.01882097
#
# Stress axis : x y z
#
# Youngs Moduli (GPa) = 86.80087 53.81935 56.32406
#
# Poissons Ratio (x) = 0.27451 0.28144
# Poissons Ratio (y) = 0.44273 0.24896
# Poissons Ratio (z) = 0.43372 0.23789
#
# Static dielectric constant tensor:
#      x y z
#    x 1.667010 0.000000 0.038070 
#    y 0.000000 1.719210 0.000000 
#    z 0.038070 0.000000 1.721600 
# 
# From -- ./inp_files/62687.got.cif
#   From: 2010.05.17/outbox.ucp.g08.bks.cvg/sg15_32_cif.got.tgz:62687.got - 2010.06.11 12:40:34.
