data_PCOD9309810
_publ_section_title
;
Structure prediction by ZEFSAII (Michael W. Deem and Ramdas Pophale) SiO2 
 PCOD9309810
Probable space group: C 2/C
;
_chemical_formula_sum "Si O2"
_cell_formula_units_Z 28
_cell_length_a 27.000000
_cell_length_b 18.000000
_cell_length_c 9.000000
_cell_angle_alpha 90.000000
_cell_angle_beta 140.000000
_cell_angle_gamma 90.000000
_cell_volume 2811.553005
_symmetry_space_group_name_H-M "C 2/C"
_symmetry_group_IT_number 15
_symmetry_cell_setting 'monoclinic'
loop_
_space_group_symop_operation_xyz
x,y,z
-x,y,1/2-z
-x,-y,-z
x,-y,1/2+z
1/2+x,1/2+y,z
1/2-x,1/2+y,1/2-z
1/2-x,1/2-y,-z
1/2+x,1/2-y,1/2+z
loop_
_atom_site_type_symbol
_atom_site_label
_atom_site_fract_x
_atom_site_fract_y
_atom_site_fract_z
Si Si1 0.556694 0.499644 0.769867
Si Si2 0.837585 0.423147 0.329522
Si Si3 0.580061 0.212873 0.341077
Si Si4 0.185896 0.585547 0.073008
Si Si5 0.141498 0.138013 0.099498
Si Si6 0.833290 0.132396 0.003385
Si Si7 0.835411 0.266527 0.772983
O O1 0.500000 0.458072 0.750000
O O2 0.500000 0.500000 0.500000
O O3 0.631863 0.449236 0.944132
O O4 0.580730 0.581202 0.884102
O O5 0.897559 0.370100 0.553744
O O6 0.831081 0.507980 0.377711
O O7 0.849358 0.420106 0.176505
O O8 0.757262 0.381142 0.181881
O O9 0.500000 0.228909 0.250000
O O10 0.635813 0.279197 0.524546
O O11 0.599102 0.220958 0.206147
O O12 0.276497 0.599866 0.247397
O O13 0.164808 0.658227 0.125261
O O14 0.131727 0.148899 0.253535
O O15 0.848587 0.195162 0.913469
O O16 0.750000 0.250000 0.500000
#
# Coordination Sequence:
#
# PCOD9309810 Si02
#       7
#     8   8   8   8   8   8   8
#     4  12  25  39  61 101 148 190 230 286 364 442
#     4  11  23  44  70 103 137 187 241 294 353 418
#     4  12  27  45  71 102 146 181 232 297 370 420
#     4  11  23  42  75 101 133 178 246 296 340 422
#     4  11  23  43  66 101 144 189 229 289 361 425
#     4  11  24  40  68  98 145 189 239 288 346 432
#     4  12  24  43  70 105 138 185 244 291 350 432
#
# _framework density 9.9589090000000002
#
# number of rings (size 3 to 8) (size 9 to 14) (size 15 to 20)
#    0.000    0.571    5.714    2.143    2.000    2.286 
#    0.000    5.000    0.000    0.000    0.000    0.000 
#    0.000    0.000    0.000    0.000    0.000    0.000 
#
# Total GULP energy -155976.386167 kJ/mol
# GULP energy per Si atom -5570.585220 kJ/mol
# Density = 0.993624 g / cm^3
# Si number density = 9.958909 Si / 1000 Ang^3
#
#
#
# Elastic Constant Matrix: (Units=GPa)
#
#
# Indices 1 2 3 4 5 6 
#
# 1 128.1412 33.0915 35.5574 0.0000 -33.3692 0.0000
# 2 33.0915 154.6308 37.2514 0.0000 -32.0495 0.0000
# 3 35.5574 37.2514 69.4222 0.0000 -29.0354 0.0000
# 4 0.0000 0.0000 0.0000 16.8695 0.0000 -0.9276
# 5 -33.3692 -32.0495 -29.0354 0.0000 39.0112 0.0000
# 6 0.0000 0.0000 0.0000 -0.9276 0.0000 38.1914
#
#
#
# Elastic Compliance Matrix: (Units=1/GPa)
#
#
# Indices 1 2 3 4 5 6 
#
# 1 0.010295 -0.000221 -0.002247 0.000000 0.006952 0.000000
# 2 -0.000221 0.008034 -0.002202 0.000000 0.004773 0.000000
# 3 -0.002247 -0.002202 0.022036 0.000000 0.012671 0.000000
# 4 0.000000 0.000000 0.000000 0.059358 0.000000 0.001442
# 5 0.006952 0.004773 0.012671 0.000000 0.044932 0.000000
# 6 0.000000 0.000000 0.000000 0.001442 0.000000 0.026219
#
#
# Mechanical properties :
#
#
# Convention : Reuss Voigt Hill
#
# Bulk Modulus (GPa) = 32.23053 62.66610 47.44831
# Shear Modulus (GPa) = 26.23926 35.23401 30.73664
#
# Velocity S-wave (km/s) = 3.63351 4.21047 3.93259
# Velocity P-wave (km/s) = 5.81550 7.42752 6.67039
#
# Compressibility (1/GPa) = 0.03102649
#
# Stress axis : x y z
#
# Youngs Moduli (GPa) = 97.13645 124.47297 45.37993
#
# Poissons Ratio (x) = 0.02750 0.10195
# Poissons Ratio (y) = 0.02146 0.09991
# Poissons Ratio (z) = 0.21823 0.27405
#
# Static dielectric constant tensor:
#      x y z
#    x 1.901010 0.000000 0.067270 
#    y 0.000000 1.880750 0.000000 
#    z 0.067270 0.000000 1.768900 
# 
# From -- ./inp_files/67198.got.cif
#   From: 2010.05.17/outbox.ucp.g08.bks.cvg/sg15_34_cif.got.tgz:67198.got - 2010.06.11 12:40:34.
