data_PCOD9309046
_publ_section_title
;
Structure prediction by ZEFSAII (Michael W. Deem and Ramdas Pophale) SiO2 
 PCOD9309046
Probable space group: C 2/C
;
_chemical_formula_sum "Si O2"
_cell_formula_units_Z 30
_cell_length_a 15.000000
_cell_length_b 24.000000
_cell_length_c 18.000000
_cell_angle_alpha 90.000000
_cell_angle_beta 30.000000
_cell_angle_gamma 90.000000
_cell_volume 3240.000000
_symmetry_space_group_name_H-M "C 2/C"
_symmetry_group_IT_number 15
_symmetry_cell_setting 'monoclinic'
loop_
_space_group_symop_operation_xyz
x,y,z
-x,y,1/2-z
-x,-y,-z
x,-y,1/2+z
1/2+x,1/2+y,z
1/2-x,1/2+y,1/2-z
1/2-x,1/2-y,-z
1/2+x,1/2-y,1/2+z
loop_
_atom_site_type_symbol
_atom_site_label
_atom_site_fract_x
_atom_site_fract_y
_atom_site_fract_z
Si Si1 0.110176 0.533181 0.538563
Si Si2 0.610974 0.667163 0.067491
Si Si3 0.923144 0.291974 0.453344
Si Si4 0.500000 0.518089 0.750000
Si Si5 0.950517 0.949305 0.124102
Si Si6 0.776158 0.375460 0.660146
Si Si7 0.726313 0.047076 0.214489
Si Si8 0.317550 0.118118 0.787419
O O1 0.316302 0.515567 0.404980
O O2 0.136220 0.571422 0.445596
O O3 0.971543 0.480731 0.640023
O O4 0.985766 0.576524 0.674060
O O5 0.563082 0.725926 0.062212
O O6 0.426664 0.636400 0.219492
O O7 0.751882 0.686875 0.028310
O O8 0.712027 0.626278 0.939082
O O9 0.886209 0.320619 0.558951
O O10 0.096305 0.322406 0.295302
O O11 0.550573 0.553391 0.786433
O O12 0.822089 0.905815 0.172889
O O13 0.855368 0.007834 0.171638
O O14 0.154373 0.949739 0.946437
O O15 0.777727 0.392868 0.744309
#
# Coordination Sequence:
#
# PCOD9309046 Si02
#       8
#     8   8   8   4   8   8   8   8
#     4  10  24  35  55  84 113 152 192 233 280 333
#     4  11  21  38  53  84 120 152 196 237 278 331
#     4  10  23  34  56  84 120 152 192 242 277 332
#     4  12  24  38  58  82 118 142 200 244 280 336
#     4  10  22  38  57  83 113 151 187 244 284 340
#     4  11  20  34  58  77 112 161 189 228 276 340
#     4  10  20  40  55  79 116 147 192 236 281 345
#     4  10  21  38  56  81 115 155 193 226 292 340
#
# _framework density 9.2592590000000001
#
# number of rings (size 3 to 8) (size 9 to 14) (size 15 to 20)
#    0.000    1.600    2.667    2.000    7.467    2.667 
#    9.600    0.000    0.000    0.000    0.000    0.933 
#    0.000    0.000    0.000    0.000    0.000    0.000 
#
# Total GULP energy -167198.281332 kJ/mol
# GULP energy per Si atom -5573.276044 kJ/mol
# Density = 0.923818 g / cm^3
# Si number density = 9.259259 Si / 1000 Ang^3
#
#
#
# Elastic Constant Matrix: (Units=GPa)
#
#
# Indices 1 2 3 4 5 6 
#
# 1 57.2309 21.6650 23.3292 -0.0266 3.6395 0.0124
# 2 21.6650 58.7592 22.1772 -0.0103 -0.7371 0.0128
# 3 23.3292 22.1772 136.8443 -0.0242 -9.4837 0.0164
# 4 -0.0266 -0.0103 -0.0242 23.4892 0.0271 -9.2677
# 5 3.6395 -0.7371 -9.4837 0.0271 34.4677 -0.0153
# 6 0.0124 0.0128 0.0164 -9.2677 -0.0153 22.8534
#
#
#
# Elastic Compliance Matrix: (Units=1/GPa)
#
#
# Indices 1 2 3 4 5 6 
#
# 1 0.021405 -0.006894 -0.002751 0.000022 -0.003165 0.000001
# 2 -0.006894 0.020354 -0.002082 -0.000005 0.000590 -0.000008
# 3 -0.002751 -0.002082 0.008289 0.000001 0.002527 -0.000001
# 4 0.000022 -0.000005 0.000001 0.050682 -0.000033 0.020553
# 5 -0.003165 0.000590 0.002527 -0.000033 0.030055 0.000006
# 6 0.000001 -0.000008 -0.000001 0.020553 0.000006 0.052092
#
#
# Mechanical properties :
#
#
# Convention : Reuss Voigt Hill
#
# Bulk Modulus (GPa) = 37.60301 43.01969 40.31135
# Shear Modulus (GPa) = 23.23457 28.53960 25.88709
#
# Velocity S-wave (km/s) = 3.54597 3.92999 3.74291
# Velocity P-wave (km/s) = 6.09220 6.62376 6.36353
#
# Compressibility (1/GPa) = 0.02659361
#
# Stress axis : x y z
#
# Youngs Moduli (GPa) = 46.71697 49.13108 120.63873
#
# Poissons Ratio (x) = 0.33869 0.33192
# Poissons Ratio (y) = 0.32205 0.25122
# Poissons Ratio (z) = 0.12853 0.10231
#
# Static dielectric constant tensor:
#      x y z
#    x 1.659070 -0.000020 0.027060 
#    y -0.000020 1.648540 0.000020 
#    z 0.027060 0.000020 1.698160 
# 
# From -- ./inp_files/207224.got.cif
#   From: 2010.05.17/outbox.ucp.g08.bks.cvg/sg15_104_cif.got.tgz:207224.got - 2010.06.11 12:40:34.
