data_PCOD9309895
_publ_section_title
;
Structure prediction by ZEFSAII (Michael W. Deem and Ramdas Pophale) SiO2 
 PCOD9309895
Probable space group: C 2/C
;
_chemical_formula_sum "Si O2"
_cell_formula_units_Z 28
_cell_length_a 9.000000
_cell_length_b 18.000000
_cell_length_c 27.000000
_cell_angle_alpha 90.000000
_cell_angle_beta 40.000000
_cell_angle_gamma 90.000000
_cell_volume 2811.553005
_symmetry_space_group_name_H-M "C 2/C"
_symmetry_group_IT_number 15
_symmetry_cell_setting 'monoclinic'
loop_
_space_group_symop_operation_xyz
x,y,z
-x,y,1/2-z
-x,-y,-z
x,-y,1/2+z
1/2+x,1/2+y,z
1/2-x,1/2+y,1/2-z
1/2-x,1/2-y,-z
1/2+x,1/2-y,1/2+z
loop_
_atom_site_type_symbol
_atom_site_label
_atom_site_fract_x
_atom_site_fract_y
_atom_site_fract_z
Si Si1 0.860360 0.949558 0.073809
Si Si2 0.136009 0.056041 0.332351
Si Si3 0.326114 0.961099 0.192731
Si Si4 0.202257 0.164717 0.528683
Si Si5 0.000000 0.685882 0.250000
Si Si6 0.606134 0.314069 0.296295
Si Si7 0.500000 0.720100 0.250000
Si Si8 0.703634 0.091593 0.381580
O O1 0.595780 0.938657 0.125001
O O2 0.007687 0.874917 0.044417
O O3 0.852791 0.997575 0.126148
O O4 0.000000 0.000000 0.000000
O O5 0.278992 0.131284 0.306423
O O6 0.872695 0.073883 0.384386
O O7 0.262198 0.016714 0.253860
O O8 0.182520 0.885203 0.242804
O O9 0.290337 0.016088 0.154134
O O10 0.250000 0.250000 0.500000
O O11 0.442942 0.117950 0.461915
O O12 0.079330 0.162662 0.614210
O O13 0.002173 0.743547 0.204312
O O14 0.836722 0.276330 0.260837
O O15 0.329282 0.662074 0.322243
#
# Coordination Sequence:
#
# PCOD9309895 Si02
#       8
#     8   8   8   8   4   8   4   8
#     4  12  26  46  73 106 141 194 243 296 363 438
#     4  12  25  46  74 103 140 194 245 296 358 436
#     4  12  24  46  77 104 142 188 252 295 351 438
#     4  12  27  46  73 106 152 189 235 300 372 427
#     4  12  26  46  74 108 144 182 248 304 358 416
#     4  12  27  45  72 111 144 189 243 305 358 434
#     4  12  22  44  74 104 140 196 244 282 370 444
#     4  12  25  46  74 105 144 197 237 299 369 437
#
# _framework density 9.9589090000000002
#
# number of rings (size 3 to 8) (size 9 to 14) (size 15 to 20)
#    0.000    0.000    8.571    0.857    4.000    0.571 
#    2.571    0.714    0.000    0.000    0.000    0.000 
#    0.000    0.000    0.000    0.000    0.000    0.000 
#
# Total GULP energy -156501.464034 kJ/mol
# GULP energy per Si atom -5589.338001 kJ/mol
# Density = 0.993624 g / cm^3
# Si number density = 9.958909 Si / 1000 Ang^3
#
#
#
# Elastic Constant Matrix: (Units=GPa)
#
#
# Indices 1 2 3 4 5 6 
#
# 1 104.9318 50.0919 39.2767 0.0037 -19.0739 0.0028
# 2 50.0919 158.8368 38.2207 0.0007 -9.5679 0.0068
# 3 39.2767 38.2207 112.1181 -0.0197 -27.6712 0.0216
# 4 0.0037 0.0007 -0.0197 43.2215 0.0099 -1.5744
# 5 -19.0739 -9.5679 -27.6712 0.0099 31.9681 0.0025
# 6 0.0028 0.0068 0.0216 -1.5744 0.0025 41.9083
#
#
#
# Elastic Compliance Matrix: (Units=1/GPa)
#
#
# Indices 1 2 3 4 5 6 
#
# 1 0.012746 -0.003204 -0.002203 -0.000003 0.004739 0.000000
# 2 -0.003204 0.007664 -0.001775 0.000000 -0.001154 0.000000
# 3 -0.002203 -0.001775 0.012514 0.000004 0.008986 -0.000006
# 4 -0.000003 0.000000 0.000004 0.023168 -0.000006 0.000870
# 5 0.004739 -0.001154 0.008986 -0.000006 0.041541 -0.000008
# 6 0.000000 0.000000 -0.000006 0.000870 -0.000008 0.023894
#
#
# Mechanical properties :
#
#
# Convention : Reuss Voigt Hill
#
# Bulk Modulus (GPa) = 53.88295 70.11836 62.00066
# Shear Modulus (GPa) = 35.19201 39.97276 37.58239
#
# Velocity S-wave (km/s) = 4.20796 4.48469 4.34853
# Velocity P-wave (km/s) = 7.12184 7.88015 7.51057
#
# Compressibility (1/GPa) = 0.01855874
#
# Stress axis : x y z
#
# Youngs Moduli (GPa) = 78.45893 130.48401 79.91115
#
# Poissons Ratio (x) = 0.41806 0.17606
# Poissons Ratio (y) = 0.25138 0.14185
# Poissons Ratio (z) = 0.17286 0.23162
#
# Static dielectric constant tensor:
#      x y z
#    x 1.789190 0.000000 0.024760 
#    y 0.000000 1.676040 0.000000 
#    z 0.024760 0.000000 1.697040 
# 
# From -- ./inp_files/289739.got.cif
#   From: 2010.05.17/outbox.ucp.g08.bks.cvg/sg15_145_cif.got.tgz:289739.got - 2010.06.11 12:40:34.
