data_PCOD9309004
_publ_section_title
;
Structure prediction by ZEFSAII (Michael W. Deem and Ramdas Pophale) SiO2 
 PCOD9309004
Probable space group: C 2/C
;
_chemical_formula_sum "Si O2"
_cell_formula_units_Z 28
_cell_length_a 27.000000
_cell_length_b 12.000000
_cell_length_c 9.000000
_cell_angle_alpha 90.000000
_cell_angle_beta 110.000000
_cell_angle_gamma 90.000000
_cell_volume 2740.143682
_symmetry_space_group_name_H-M "C 2/C"
_symmetry_group_IT_number 15
_symmetry_cell_setting 'monoclinic'
loop_
_space_group_symop_operation_xyz
x,y,z
-x,y,1/2-z
-x,-y,-z
x,-y,1/2+z
1/2+x,1/2+y,z
1/2-x,1/2+y,1/2-z
1/2-x,1/2-y,-z
1/2+x,1/2-y,1/2+z
loop_
_atom_site_type_symbol
_atom_site_label
_atom_site_fract_x
_atom_site_fract_y
_atom_site_fract_z
Si Si1 0.328557 0.598551 0.791431
Si Si2 0.500000 0.003706 0.250000
Si Si3 0.653207 0.845164 0.729324
Si Si4 0.646675 0.236794 0.555849
Si Si5 0.074190 0.061968 0.075921
Si Si6 0.079465 0.451053 0.086708
Si Si7 0.500000 0.456326 0.750000
Si Si8 0.728418 0.592581 0.087204
O O1 0.338174 0.727273 0.846109
O O2 0.385813 0.537681 0.833991
O O3 0.293244 0.598011 0.604425
O O4 0.297409 0.518670 0.872181
O O5 0.540073 0.065036 0.405481
O O6 0.540631 0.939114 0.186299
O O7 0.709717 0.904928 0.813954
O O8 0.608562 0.927953 0.620031
O O9 0.638520 0.806387 0.880531
O O10 0.609082 0.340024 0.548173
O O11 0.627106 0.136412 0.637042
O O12 0.704070 0.292601 0.631059
O O13 0.041462 0.103582 0.185139
O O14 0.034786 0.024797 0.904630
#
# Coordination Sequence:
#
# PCOD9309004 Si02
#       8
#     8   4   8   8   8   8   4   8
#     4  10  21  43  60  92 125 164 199 255 314 372
#     4  10  24  46  62  90 126 172 216 274 298 376
#     4  11  23  40  68  91 125 169 204 256 314 389
#     4  10  21  41  63  92 123 167 201 262 311 379
#     4  10  21  39  62  89 130 157 211 256 315 362
#     4  11  23  44  65  92 129 165 224 253 323 367
#     4  10  20  38  60  98 116 166 212 256 308 378
#     4  10  23  39  70  91 128 160 206 253 317 385
#
# _framework density 10.218442
#
# number of rings (size 3 to 8) (size 9 to 14) (size 15 to 20)
#    0.000    1.714    1.429    4.286    4.000    1.143 
#   18.000    0.714    0.000    0.000    0.000    0.000 
#    0.000    0.000    0.000    0.000    0.000    0.000 
#
# Total GULP energy -156102.410109 kJ/mol
# GULP energy per Si atom -5575.086075 kJ/mol
# Density = 1.019518 g / cm^3
# Si number density = 10.218442 Si / 1000 Ang^3
#
#
#
# Elastic Constant Matrix: (Units=GPa)
#
#
# Indices 1 2 3 4 5 6 
#
# 1 76.9526 40.7635 58.3031 0.0000 3.0207 0.0000
# 2 40.7635 97.5467 1.2443 0.0000 5.7185 0.0000
# 3 58.3031 1.2443 41.9308 0.0000 8.2216 0.0000
# 4 0.0000 0.0000 0.0000 18.1222 0.0000 7.3761
# 5 3.0207 5.7185 8.2216 0.0000 32.2169 0.0000
# 6 0.0000 0.0000 0.0000 7.3761 0.0000 44.0270
#
#
#
# Elastic Compliance Matrix: (Units=1/GPa)
#
#
# Indices 1 2 3 4 5 6 
#
# 1 -0.042642 0.017908 0.061687 0.000000 -0.014923 0.000000
# 2 0.017908 0.002839 -0.025849 0.000000 0.004414 0.000000
# 3 0.061687 -0.025849 -0.064132 0.000000 0.015171 0.000000
# 4 0.000000 0.000000 0.000000 0.059219 0.000000 -0.009921
# 5 -0.014923 0.004414 0.015171 0.000000 0.027784 0.000000
# 6 0.000000 0.000000 0.000000 -0.009921 0.000000 0.024376
#
#
# Mechanical properties :
#
#
# Convention : Reuss Voigt Hill
#
# Bulk Modulus (GPa) = 281.28344 46.33909 163.81127
# Shear Modulus (GPa) = -50.57563 26.61451 -11.98056
#
# Velocity S-wave (km/s) = -4.98006 3.61262 -2.42383
# Velocity P-wave (km/s) = 10.24041 6.33442 8.51443
#
# Compressibility (1/GPa) = 0.00355513
#
# Stress axis : x y z
#
# Youngs Moduli (GPa) = -23.45087 352.21824 -15.59285
#
# Poissons Ratio (x) = -6.30738 0.96188
# Poissons Ratio (y) = 0.41995 -0.40307
# Poissons Ratio (z) = 1.44661 9.10465
#
# Static dielectric constant tensor:
#      x y z
#    x 1.784320 0.000000 -0.047400 
#    y 0.000000 1.733310 0.000000 
#    z -0.047400 0.000000 1.729550 
# 
# From -- ./inp_files/65567.got.cif
#   From: 2010.05.17/outbox.ucp.g08.bks.cvg/sg15_33_cif.got.tgz:65567.got - 2010.06.11 12:40:34.
