data_PCOD9309068
_publ_section_title
;
Structure prediction by ZEFSAII (Michael W. Deem and Ramdas Pophale) SiO2 
 PCOD9309068
Probable space group: C 2/C
;
_chemical_formula_sum "Si O2"
_cell_formula_units_Z 24
_cell_length_a 18.000000
_cell_length_b 9.000000
_cell_length_c 15.000000
_cell_angle_alpha 90.000000
_cell_angle_beta 90.000000
_cell_angle_gamma 90.000000
_cell_volume 2430.000000
_symmetry_space_group_name_H-M "C 2/C"
_symmetry_group_IT_number 15
_symmetry_cell_setting 'monoclinic'
loop_
_space_group_symop_operation_xyz
x,y,z
-x,y,1/2-z
-x,-y,-z
x,-y,1/2+z
1/2+x,1/2+y,z
1/2-x,1/2+y,1/2-z
1/2-x,1/2-y,-z
1/2+x,1/2-y,1/2+z
loop_
_atom_site_type_symbol
_atom_site_label
_atom_site_fract_x
_atom_site_fract_y
_atom_site_fract_z
Si Si1 0.158195 0.659909 0.153732
Si Si2 0.423657 0.433690 0.037891
Si Si3 0.848894 0.514941 0.657752
Si Si4 0.991485 0.650701 0.141676
Si Si5 0.674878 0.632642 0.330139
Si Si6 0.816377 0.013126 0.372868
O O1 0.154656 0.586768 0.252635
O O2 0.242045 0.609067 0.127496
O O3 0.077205 0.621331 0.111669
O O4 0.163087 0.838755 0.142386
O O5 0.451253 0.288077 0.091935
O O6 0.382604 0.541804 0.108849
O O7 0.500000 0.500000 0.000000
O O8 0.367441 0.420610 0.952384
O O9 0.932078 0.480442 0.624134
O O10 0.841478 0.691324 0.671709
O O11 0.772316 0.473592 0.606111
O O12 0.000000 0.677885 0.250000
O O13 0.672830 0.582351 0.226288
#
# Coordination Sequence:
#
# PCOD9309068 Si02
#       6
#     8   8   8   8   8   8
#     4   9  18  39  63  88 121 163 197 243 309 369
#     4  12  25  40  64  94 119 168 213 250 302 365
#     4   9  20  38  67  96 121 163 202 252 320 356
#     4  10  20  41  64  88 127 163 198 251 315 363
#     4  10  22  41  67  89 120 162 208 257 297 366
#     4  10  21  42  66  92 122 162 214 245 299 381
#
# _framework density 9.8765429999999999
#
# number of rings (size 3 to 8) (size 9 to 14) (size 15 to 20)
#    0.000    2.000    1.667    2.000    0.000    4.667 
#    9.000    2.500    0.000    0.000    0.000    0.000 
#    0.000    0.000    0.000    0.000    0.000    0.000 
#
# Total GULP energy -133691.169009 kJ/mol
# GULP energy per Si atom -5570.465375 kJ/mol
# Density = 0.985406 g / cm^3
# Si number density = 9.876543 Si / 1000 Ang^3
#
#
#
# Elastic Constant Matrix: (Units=GPa)
#
#
# Indices 1 2 3 4 5 6 
#
# 1 203.3064 33.8886 42.4430 0.0000 25.4174 0.0000
# 2 33.8886 15.8397 15.5601 0.0000 6.8534 0.0000
# 3 42.4430 15.5601 84.3680 0.0000 23.4701 0.0000
# 4 0.0000 0.0000 0.0000 14.1544 0.0000 6.6062
# 5 25.4174 6.8534 23.4701 0.0000 35.4726 0.0000
# 6 0.0000 0.0000 0.0000 6.6062 0.0000 37.0492
#
#
#
# Elastic Compliance Matrix: (Units=1/GPa)
#
#
# Indices 1 2 3 4 5 6 
#
# 1 0.007872 -0.015358 -0.000471 0.000000 -0.002362 0.000000
# 2 -0.015358 0.108395 -0.011644 0.000000 -0.002234 0.000000
# 3 -0.000471 -0.011644 0.016567 0.000000 -0.008374 0.000000
# 4 0.000000 0.000000 0.000000 0.077063 0.000000 -0.013741
# 5 -0.002362 -0.002234 -0.008374 0.000000 0.035856 0.000000
# 6 0.000000 0.000000 0.000000 -0.013741 0.000000 0.029441
#
#
# Mechanical properties :
#
#
# Convention : Reuss Voigt Hill
#
# Bulk Modulus (GPa) = 12.83882 54.14416 33.49149
# Shear Modulus (GPa) = 14.04092 31.44339 22.74216
#
# Velocity S-wave (km/s) = 2.66902 3.99409 3.39679
# Velocity P-wave (km/s) = 4.00150 6.98143 5.69001
#
# Compressibility (1/GPa) = 0.07788877
#
# Stress axis : x y z
#
# Youngs Moduli (GPa) = 127.02859 9.22552 60.36186
#
# Poissons Ratio (x) = 0.14169 0.02841
# Poissons Ratio (y) = 1.95091 0.70285
# Poissons Ratio (z) = 0.05979 0.10742
#
# Static dielectric constant tensor:
#      x y z
#    x 1.745450 0.000000 -0.028840 
#    y 0.000000 1.684480 0.000000 
#    z -0.028840 0.000000 1.697610 
# 
# From -- ./inp_files/159716.got.cif
#   From: 2010.05.17/outbox.ucp.g08.bks.cvg/sg15_80_cif.got.tgz:159716.got - 2010.06.11 12:40:34.
