data_PCOD9309853
_publ_section_title
;
Structure prediction by ZEFSAII (Michael W. Deem and Ramdas Pophale) SiO2 
 PCOD9309853
Probable space group: C 2/C
;
_chemical_formula_sum "Si O2"
_cell_formula_units_Z 20
_cell_length_a 18.000000
_cell_length_b 15.000000
_cell_length_c 15.000000
_cell_angle_alpha 90.000000
_cell_angle_beta 30.000000
_cell_angle_gamma 90.000000
_cell_volume 2025.000000
_symmetry_space_group_name_H-M "C 2/C"
_symmetry_group_IT_number 15
_symmetry_cell_setting 'monoclinic'
loop_
_space_group_symop_operation_xyz
x,y,z
-x,y,1/2-z
-x,-y,-z
x,-y,1/2+z
1/2+x,1/2+y,z
1/2-x,1/2+y,1/2-z
1/2-x,1/2-y,-z
1/2+x,1/2-y,1/2+z
loop_
_atom_site_type_symbol
_atom_site_label
_atom_site_fract_x
_atom_site_fract_y
_atom_site_fract_z
Si Si1 0.329056 0.417272 0.739996
Si Si2 0.589099 0.179306 0.242000
Si Si3 0.820582 0.069500 0.613227
Si Si4 0.332703 0.977633 0.408426
Si Si5 0.687959 0.766073 0.356076
O O1 0.272551 0.483648 0.721084
O O2 0.502312 0.435067 0.578565
O O3 0.322184 0.317821 0.702832
O O4 0.248819 0.448968 0.914939
O O5 0.500000 0.219755 0.250000
O O6 0.464561 0.187114 0.450499
O O7 0.725167 0.231346 0.146090
O O8 0.647526 0.082957 0.142732
O O9 0.745830 0.067468 0.594352
O O10 0.778323 0.156960 0.712331
O O11 0.500000 0.945680 0.250000
#
# Coordination Sequence:
#
# PCOD9309853 Si02
#       5
#     8   8   8   8   8
#     4  11  25  45  68 104 142 189 235 289 358 420
#     4  11  24  44  68 107 141 184 236 295 349 416
#     4  11  24  45  71  99 144 190 234 290 354 427
#     4  11  25  43  71 103 140 186 235 293 349 418
#     4  12  24  45  72 104 143 187 236 295 353 416
#
# _framework density 9.8765429999999999
#
# number of rings (size 3 to 8) (size 9 to 14) (size 15 to 20)
#    0.000    0.800    4.000    3.600    2.800    2.400 
#    0.000    0.000    0.000    0.000    0.000    0.000 
#    0.000    0.000    0.000    0.000    0.000    0.000 
#
# Total GULP energy -111537.633666 kJ/mol
# GULP energy per Si atom -5576.881683 kJ/mol
# Density = 0.985406 g / cm^3
# Si number density = 9.876543 Si / 1000 Ang^3
#
#
#
# Elastic Constant Matrix: (Units=GPa)
#
#
# Indices 1 2 3 4 5 6 
#
# 1 111.4018 10.1312 35.0718 0.0000 11.5643 0.0000
# 2 10.1312 93.8348 44.6131 -0.0001 18.2300 0.0001
# 3 35.0718 44.6131 152.0578 -0.0002 27.7568 0.0002
# 4 0.0000 -0.0001 -0.0002 32.6278 0.0001 5.3041
# 5 11.5643 18.2300 27.7568 0.0001 37.4003 -0.0001
# 6 0.0000 0.0001 0.0002 5.3041 -0.0001 29.5748
#
#
#
# Elastic Compliance Matrix: (Units=1/GPa)
#
#
# Indices 1 2 3 4 5 6 
#
# 1 0.009761 0.000223 -0.002020 0.000000 -0.001628 0.000000
# 2 0.000223 0.012892 -0.003093 0.000000 -0.004057 0.000000
# 3 -0.002020 -0.003093 0.008745 0.000000 -0.004358 0.000000
# 4 0.000000 0.000000 0.000000 0.031569 0.000000 -0.005662
# 5 -0.001628 -0.004057 -0.004358 0.000000 0.032453 0.000000
# 6 0.000000 0.000000 0.000000 -0.005662 0.000000 0.034828
#
#
# Mechanical properties :
#
#
# Convention : Reuss Voigt Hill
#
# Bulk Modulus (GPa) = 46.25792 59.65850 52.95821
# Shear Modulus (GPa) = 33.95941 37.75247 35.85594
#
# Velocity S-wave (km/s) = 4.15082 4.37649 4.26515
# Velocity P-wave (km/s) = 6.81478 7.47034 7.15008
#
# Compressibility (1/GPa) = 0.02161792
#
# Stress axis : x y z
#
# Youngs Moduli (GPa) = 102.44807 77.56869 114.34686
#
# Poissons Ratio (x) = -0.01726 0.23092
# Poissons Ratio (y) = -0.02280 0.35369
# Poissons Ratio (z) = 0.20689 0.23993
#
# Static dielectric constant tensor:
#      x y z
#    x 1.679310 0.000000 -0.010920 
#    y 0.000000 1.715670 0.000000 
#    z -0.010920 0.000000 1.736300 
# 
# From -- ./inp_files/37810.got.cif
#   From: 2010.05.17/outbox.ucp.g08.bks.cvg/sg15_19_cif.got.tgz:37810.got - 2010.06.11 12:40:34.
