data_PCOD9309224
_publ_section_title
;
Structure prediction by ZEFSAII (Michael W. Deem and Ramdas Pophale) SiO2 
 PCOD9309224
Probable space group: C 2/C
;
_chemical_formula_sum "Si O2"
_cell_formula_units_Z 32
_cell_length_a 9.000000
_cell_length_b 18.000000
_cell_length_c 30.000000
_cell_angle_alpha 90.000000
_cell_angle_beta 40.000000
_cell_angle_gamma 90.000000
_cell_volume 3123.947783
_symmetry_space_group_name_H-M "C 2/C"
_symmetry_group_IT_number 15
_symmetry_cell_setting 'monoclinic'
loop_
_space_group_symop_operation_xyz
x,y,z
-x,y,1/2-z
-x,-y,-z
x,-y,1/2+z
1/2+x,1/2+y,z
1/2-x,1/2+y,1/2-z
1/2-x,1/2-y,-z
1/2+x,1/2-y,1/2+z
loop_
_atom_site_type_symbol
_atom_site_label
_atom_site_fract_x
_atom_site_fract_y
_atom_site_fract_z
Si Si1 0.561910 0.075229 0.173203
Si Si2 0.865114 0.728544 0.199918
Si Si3 0.389994 0.543789 0.181660
Si Si4 0.634010 0.427686 0.984291
Si Si5 0.874629 0.803057 0.839742
Si Si6 0.704773 0.297256 0.455024
Si Si7 0.212876 0.555268 0.950028
Si Si8 0.366034 0.800859 0.087717
O O1 0.452500 0.155904 0.205489
O O2 0.762536 0.062313 0.163610
O O3 0.332695 0.024961 0.235469
O O4 0.669676 0.079120 0.099054
O O5 0.788965 0.706441 0.166390
O O6 0.610925 0.745471 0.278250
O O7 0.092509 0.780174 0.153227
O O8 0.534064 0.613377 0.170033
O O9 0.573970 0.479962 0.127093
O O10 0.500000 0.500000 0.000000
O O11 0.441491 0.363916 0.031110
O O12 0.726483 0.433952 0.012517
O O13 0.742694 0.769334 0.911881
O O14 0.521934 0.268208 0.534347
O O15 0.961485 0.322694 0.411437
O O16 0.133313 0.631625 0.946517
O O17 0.000000 0.500000 0.000000
#
# Coordination Sequence:
#
# PCOD9309224 Si02
#       8
#     8   8   8   8   8   8   8   8
#     4  10  21  41  67  90 122 174 213 261 315 387
#     4  10  21  40  65  96 125 163 217 261 321 382
#     4  10  22  42  64  94 128 170 217 259 321 384
#     4  12  24  42  65  94 129 163 218 262 324 386
#     4  10  22  39  67  95 127 167 211 267 316 391
#     4  11  24  41  65  95 124 169 213 265 325 377
#     4  12  26  41  63  96 132 170 207 271 327 385
#     4  11  24  41  65  93 128 166 214 264 320 386
#
# _framework density 10.243449
#
# number of rings (size 3 to 8) (size 9 to 14) (size 15 to 20)
#    0.000    1.250    2.500    3.000    5.250    2.500 
#    2.250    1.250    2.750    0.000    0.000    0.000 
#    0.000    0.000    0.000    0.000    0.000    0.000 
#
# Total GULP energy -178299.296840 kJ/mol
# GULP energy per Si atom -5571.853026 kJ/mol
# Density = 1.022013 g / cm^3
# Si number density = 10.243449 Si / 1000 Ang^3
#
#
#
# Elastic Constant Matrix: (Units=GPa)
#
#
# Indices 1 2 3 4 5 6 
#
# 1 134.9208 37.7526 37.2419 -0.0003 -16.8861 -0.0006
# 2 37.7526 45.7557 11.7898 -0.0015 -12.1390 0.0004
# 3 37.2419 11.7898 101.7817 -0.0067 -14.2012 0.0005
# 4 -0.0003 -0.0015 -0.0067 33.2716 0.0006 -8.0500
# 5 -16.8861 -12.1390 -14.2012 0.0006 37.4257 0.0011
# 6 -0.0006 0.0004 0.0005 -8.0500 0.0011 34.3260
#
#
#
# Elastic Compliance Matrix: (Units=1/GPa)
#
#
# Indices 1 2 3 4 5 6 
#
# 1 0.010453 -0.007590 -0.002778 -0.000001 0.001200 0.000000
# 2 -0.007590 0.029735 0.000212 0.000001 0.006300 0.000000
# 3 -0.002778 0.000212 0.011247 0.000002 0.003083 0.000000
# 4 -0.000001 0.000001 0.000002 0.031864 0.000000 0.007473
# 5 0.001200 0.006300 0.003083 0.000000 0.030474 -0.000001
# 6 0.000000 0.000000 0.000000 0.007473 -0.000001 0.030885
#
#
# Mechanical properties :
#
#
# Convention : Reuss Voigt Hill
#
# Bulk Modulus (GPa) = 32.13157 50.66964 41.40060
# Shear Modulus (GPa) = 28.51548 34.04958 31.28253
#
# Velocity S-wave (km/s) = 3.73485 4.08121 3.91186
# Velocity P-wave (km/s) = 5.85806 6.85527 6.37619
#
# Compressibility (1/GPa) = 0.03112204
#
# Stress axis : x y z
#
# Youngs Moduli (GPa) = 95.67020 33.63083 88.91248
#
# Poissons Ratio (x) = 0.25526 0.24699
# Poissons Ratio (y) = 0.72615 -0.01885
# Poissons Ratio (z) = 0.26577 -0.00713
#
# Static dielectric constant tensor:
#      x y z
#    x 1.728890 0.000000 -0.007930 
#    y 0.000000 1.731390 0.000000 
#    z -0.007930 0.000000 1.853600 
# 
# From -- ./inp_files/308748.got.cif
#   From: 2010.05.17/outbox.ucp.g08.bks.cvg/sg15_155_cif.got.tgz:308748.got - 2010.06.11 12:40:34.
