data_PCOD9309531
_publ_section_title
;
Structure prediction by ZEFSAII (Michael W. Deem and Ramdas Pophale) SiO2 
 PCOD9309531
Probable space group: C 2/C
;
_chemical_formula_sum "Si O2"
_cell_formula_units_Z 20
_cell_length_a 9.000000
_cell_length_b 15.000000
_cell_length_c 30.000000
_cell_angle_alpha 90.000000
_cell_angle_beta 150.000000
_cell_angle_gamma 90.000000
_cell_volume 2025.000000
_symmetry_space_group_name_H-M "C 2/C"
_symmetry_group_IT_number 15
_symmetry_cell_setting 'monoclinic'
loop_
_space_group_symop_operation_xyz
x,y,z
-x,y,1/2-z
-x,-y,-z
x,-y,1/2+z
1/2+x,1/2+y,z
1/2-x,1/2+y,1/2-z
1/2-x,1/2-y,-z
1/2+x,1/2-y,1/2+z
loop_
_atom_site_type_symbol
_atom_site_label
_atom_site_fract_x
_atom_site_fract_y
_atom_site_fract_z
Si Si1 0.548054 0.875570 0.876890
Si Si2 0.570648 0.710382 0.715261
Si Si3 0.658472 0.025088 0.742202
Si Si4 0.315161 0.066889 0.417328
Si Si5 0.472707 0.768383 0.017126
O O1 0.364608 0.798596 0.799514
O O2 0.438685 0.909326 0.898222
O O3 0.867897 0.822021 0.961321
O O4 0.533641 0.962694 0.841358
O O5 0.500000 0.729438 0.750000
O O6 0.788181 0.626010 0.763263
O O7 0.253887 0.681346 0.612246
O O8 0.500000 0.028218 0.750000
O O9 0.984431 0.976469 0.828848
O O10 0.323681 0.164514 0.443307
O O11 0.500000 0.000000 0.500000
O O12 0.250000 0.750000 0.000000
#
# Coordination Sequence:
#
# PCOD9309531 Si02
#       5
#     8   8   8   8   8
#     4  10  24  44  70  97 135 188 227 278 350 408
#     4  10  23  45  65 101 133 178 234 278 343 412
#     4  12  25  44  69 100 136 186 236 282 347 417
#     4  12  23  45  68  99 142 178 230 288 345 407
#     4  10  23  42  67 100 136 174 227 286 347 405
#
# _framework density 9.8765429999999999
#
# number of rings (size 3 to 8) (size 9 to 14) (size 15 to 20)
#    1.200    0.000    2.000    4.200    2.800    1.600 
#    3.600    2.000    0.000    0.000    0.000    0.000 
#    0.000    0.000    0.000    0.000    0.000    0.000 
#
# Total GULP energy -111342.801207 kJ/mol
# GULP energy per Si atom -5567.140060 kJ/mol
# Density = 0.985406 g / cm^3
# Si number density = 9.876543 Si / 1000 Ang^3
#
#
#
# Elastic Constant Matrix: (Units=GPa)
#
#
# Indices 1 2 3 4 5 6 
#
# 1 208.4353 59.8497 12.8728 0.0001 -20.9495 0.0001
# 2 59.8497 130.5875 4.8026 0.0000 -7.9346 0.0000
# 3 12.8728 4.8026 30.1141 -0.0008 -5.6799 0.0001
# 4 0.0001 0.0000 -0.0008 45.8492 -0.0001 -8.2227
# 5 -20.9495 -7.9346 -5.6799 -0.0001 43.1320 0.0001
# 6 0.0001 0.0000 0.0001 -8.2227 0.0001 48.0508
#
#
#
# Elastic Compliance Matrix: (Units=1/GPa)
#
#
# Indices 1 2 3 4 5 6 
#
# 1 0.005830 -0.002479 -0.001691 0.000000 0.002153 0.000000
# 2 -0.002479 0.008827 -0.000276 0.000000 0.000383 0.000000
# 3 -0.001691 -0.000276 0.034670 0.000001 0.003694 0.000000
# 4 0.000000 0.000000 0.000001 0.022501 0.000000 0.003851
# 5 0.002153 0.000383 0.003694 0.000000 0.024787 0.000000
# 6 0.000000 0.000000 0.000000 0.003851 0.000000 0.021470
#
#
# Mechanical properties :
#
#
# Convention : Reuss Voigt Hill
#
# Bulk Modulus (GPa) = 24.72989 58.24301 41.48645
# Shear Modulus (GPa) = 35.59804 46.84718 41.22261
#
# Velocity S-wave (km/s) = 4.24978 4.87523 4.57321
# Velocity P-wave (km/s) = 6.05207 7.82560 6.99527
#
# Compressibility (1/GPa) = 0.04043689
#
# Stress axis : x y z
#
# Youngs Moduli (GPa) = 171.51709 113.28448 28.84297
#
# Poissons Ratio (x) = 0.28084 0.04877
# Poissons Ratio (y) = 0.42521 0.00795
# Poissons Ratio (z) = 0.29000 0.03124
#
# Static dielectric constant tensor:
#      x y z
#    x 1.688580 0.000000 0.006390 
#    y 0.000000 1.726020 0.000000 
#    z 0.006390 0.000000 1.749730 
# 
# From -- ./inp_files/308358.got.cif
#   From: 2010.05.17/outbox.ucp.g08.bks.cvg/sg15_155_cif.got.tgz:308358.got - 2010.06.11 12:40:34.
