data_PCOD9309432
_publ_section_title
;
Structure prediction by ZEFSAII (Michael W. Deem and Ramdas Pophale) SiO2 
 PCOD9309432
Probable space group: C 2/C
;
_chemical_formula_sum "Si O2"
_cell_formula_units_Z 32
_cell_length_a 30.000000
_cell_length_b 15.000000
_cell_length_c 21.000000
_cell_angle_alpha 90.000000
_cell_angle_beta 20.000000
_cell_angle_gamma 90.000000
_cell_volume 3232.090354
_symmetry_space_group_name_H-M "C 2/C"
_symmetry_group_IT_number 15
_symmetry_cell_setting 'monoclinic'
loop_
_space_group_symop_operation_xyz
x,y,z
-x,y,1/2-z
-x,-y,-z
x,-y,1/2+z
1/2+x,1/2+y,z
1/2-x,1/2+y,1/2-z
1/2-x,1/2-y,-z
1/2+x,1/2-y,1/2+z
loop_
_atom_site_type_symbol
_atom_site_label
_atom_site_fract_x
_atom_site_fract_y
_atom_site_fract_z
Si Si1 0.201094 0.191198 0.261682
Si Si2 0.401595 0.064451 0.323720
Si Si3 0.133000 0.613437 0.347040
Si Si4 0.988642 0.903241 0.953342
Si Si5 0.646267 0.055236 0.736885
Si Si6 0.970154 0.282033 0.630830
Si Si7 0.889449 0.824203 0.951694
Si Si8 0.872901 0.090429 0.739045
O O1 0.262087 0.134913 0.238785
O O2 0.104997 0.142094 0.340020
O O3 0.117147 0.272213 0.406203
O O4 0.320070 0.231696 0.062571
O O5 0.500000 0.042022 0.250000
O O6 0.451003 0.151423 0.216231
O O7 0.266175 0.079955 0.541983
O O8 0.372538 0.991804 0.306915
O O9 0.154454 0.520473 0.281154
O O10 0.121252 0.684047 0.304809
O O11 0.988036 0.608833 0.571547
O O12 0.947274 0.859336 0.942027
O O13 0.037360 0.003055 0.872259
O O14 0.872966 0.900754 0.161546
O O15 0.775029 0.113867 0.575077
O O16 0.933387 0.178743 0.690089
O O17 0.000000 0.816258 0.750000
#
# Coordination Sequence:
#
# PCOD9309432 Si02
#       8
#     8   8   8   8   8   8   8   8
#     4  11  23  43  70  99 129 172 226 268 326 392
#     4  11  25  40  66 101 134 173 214 278 325 391
#     4  10  22  43  70  95 128 179 217 276 317 402
#     4  10  25  42  71  98 125 179 222 266 330 386
#     4  10  24  44  66  95 135 173 225 259 342 382
#     4  10  22  42  65  98 131 176 218 264 338 386
#     4  12  26  45  68  93 136 174 216 278 324 393
#     4  10  22  43  64  98 134 163 224 269 322 393
#
# _framework density 9.9007129999999997
#
# number of rings (size 3 to 8) (size 9 to 14) (size 15 to 20)
#    0.000    1.500    1.250    2.625   10.500    0.500 
#    2.250    0.625    0.000    0.000    0.000    0.000 
#    0.000    0.000    0.000    0.000    0.000    0.000 
#
# Total GULP energy -178623.593313 kJ/mol
# GULP energy per Si atom -5581.987291 kJ/mol
# Density = 0.987818 g / cm^3
# Si number density = 9.900713 Si / 1000 Ang^3
#
#
#
# Elastic Constant Matrix: (Units=GPa)
#
#
# Indices 1 2 3 4 5 6 
#
# 1 172.5979 35.5420 43.6102 0.0000 -0.3206 0.0000
# 2 35.5420 60.8686 13.3055 0.0000 -1.9224 0.0000
# 3 43.6102 13.3055 114.8736 0.0000 17.9102 0.0000
# 4 0.0000 0.0000 0.0000 26.5227 0.0000 -4.5435
# 5 -0.3206 -1.9224 17.9102 0.0000 36.7899 0.0000
# 6 0.0000 0.0000 0.0000 -4.5435 0.0000 23.9551
#
#
#
# Elastic Compliance Matrix: (Units=1/GPa)
#
#
# Indices 1 2 3 4 5 6 
#
# 1 0.007163 -0.003609 -0.002469 0.000000 0.001076 0.000000
# 2 -0.003609 0.018808 -0.001035 0.000000 0.001455 0.000000
# 3 -0.002469 -0.001035 0.010577 0.000000 -0.005225 0.000000
# 4 0.000000 0.000000 0.000000 0.038970 0.000000 0.007391
# 5 0.001076 0.001455 -0.005225 0.000000 0.029810 0.000000
# 6 0.000000 0.000000 0.000000 0.007391 0.000000 0.043147
#
#
# Mechanical properties :
#
#
# Convention : Reuss Voigt Hill
#
# Bulk Modulus (GPa) = 44.79914 59.25061 52.02487
# Shear Modulus (GPa) = 29.38724 34.51236 31.94980
#
# Velocity S-wave (km/s) = 3.85658 4.17936 4.02121
# Velocity P-wave (km/s) = 6.51953 7.29909 6.92030
#
# Compressibility (1/GPa) = 0.02232186
#
# Stress axis : x y z
#
# Youngs Moduli (GPa) = 139.61063 53.16787 94.54404
#
# Poissons Ratio (x) = 0.19187 0.23343
# Poissons Ratio (y) = 0.50382 0.09789
# Poissons Ratio (z) = 0.34470 0.05505
#
# Static dielectric constant tensor:
#      x y z
#    x 1.668290 0.000000 -0.006740 
#    y 0.000000 1.746920 0.000000 
#    z -0.006740 0.000000 1.727450 
# 
# From -- ./inp_files/123505.got.cif
#   From: 2010.05.17/outbox.ucp.g08.bks.cvg/sg15_62_cif.got.tgz:123505.got - 2010.06.11 12:40:34.
