data_PCOD9309872
_publ_section_title
;
Structure prediction by ZEFSAII (Michael W. Deem and Ramdas Pophale) SiO2 
 PCOD9309872
Probable space group: C 2/C
;
_chemical_formula_sum "Si O2"
_cell_formula_units_Z 24
_cell_length_a 15.000000
_cell_length_b 15.000000
_cell_length_c 30.000000
_cell_angle_alpha 90.000000
_cell_angle_beta 20.000000
_cell_angle_gamma 90.000000
_cell_volume 2308.635967
_symmetry_space_group_name_H-M "C 2/C"
_symmetry_group_IT_number 15
_symmetry_cell_setting 'monoclinic'
loop_
_space_group_symop_operation_xyz
x,y,z
-x,y,1/2-z
-x,-y,-z
x,-y,1/2+z
1/2+x,1/2+y,z
1/2-x,1/2+y,1/2-z
1/2-x,1/2-y,-z
1/2+x,1/2-y,1/2+z
loop_
_atom_site_type_symbol
_atom_site_label
_atom_site_fract_x
_atom_site_fract_y
_atom_site_fract_z
Si Si1 0.337260 0.230288 0.672872
Si Si2 0.500000 0.796276 0.250000
Si Si3 0.398416 0.338189 0.879309
Si Si4 0.368608 0.351237 0.435122
Si Si5 0.217950 0.973766 0.109458
Si Si6 0.532422 0.409479 0.013418
Si Si7 0.000000 0.700270 0.250000
O O1 0.415641 0.316969 0.665675
O O2 0.604746 0.185503 0.532077
O O3 0.170688 0.165605 0.782036
O O4 0.149225 0.248639 0.719469
O O5 0.531970 0.731760 0.192335
O O6 0.760277 0.855365 0.135247
O O7 0.396571 0.437419 0.860591
O O8 0.250000 0.250000 0.500000
O O9 0.252027 0.400776 0.445347
O O10 0.378820 0.409744 0.475865
O O11 0.000000 0.948430 0.250000
O O12 0.500000 0.000000 0.000000
O O13 0.500000 0.500000 0.000000
O O14 0.769826 0.356791 0.879515
#
# Coordination Sequence:
#
# PCOD9309872 Si02
#       7
#     8   4   8   8   8   8   4
#     4  11  25  45  76 109 149 204 256 311 387 472
#     4  12  23  48  79 104 150 208 248 313 400 449
#     4  11  25  47  77 111 152 199 257 319 394 460
#     4  12  28  49  77 106 152 205 254 311 390 460
#     4  12  30  48  79 116 156 195 262 328 386 461
#     4  12  28  48  72 110 153 203 262 316 375 461
#     4  12  25  44  77 102 150 196 260 313 380 447
#
# _framework density 10.395749
#
# number of rings (size 3 to 8) (size 9 to 14) (size 15 to 20)
#    0.000    0.333    5.833    1.500   10.500    0.000 
#    6.000    0.000    0.000    0.000    0.000    0.000 
#    0.000    0.000    0.000    0.000    0.000    0.000 
#
# Total GULP energy -134147.868361 kJ/mol
# GULP energy per Si atom -5589.494515 kJ/mol
# Density = 1.037209 g / cm^3
# Si number density = 10.395749 Si / 1000 Ang^3
#
#
#
# Elastic Constant Matrix: (Units=GPa)
#
#
# Indices 1 2 3 4 5 6 
#
# 1 172.5195 59.8916 35.5954 -0.0628 1.7288 0.0120
# 2 59.8916 108.7343 25.3630 -0.0426 8.9416 0.0099
# 3 35.5954 25.3630 128.2701 0.2334 7.7000 -0.0261
# 4 -0.0628 -0.0426 0.2334 -14.7527 -0.0721 14.6289
# 5 1.7288 8.9416 7.7000 -0.0721 47.8525 0.0271
# 6 0.0120 0.0099 -0.0261 14.6289 0.0271 51.5786
#
#
#
# Elastic Compliance Matrix: (Units=1/GPa)
#
#
# Indices 1 2 3 4 5 6 
#
# 1 0.007389 -0.003813 -0.001336 -0.000037 0.000660 0.000008
# 2 -0.003813 0.011718 -0.001147 -0.000022 -0.001867 0.000005
# 3 -0.001336 -0.001147 0.008459 0.000120 -0.001098 -0.000029
# 4 -0.000037 -0.000022 0.000120 -0.052903 -0.000102 0.015005
# 5 0.000660 -0.001867 -0.001098 -0.000102 0.021399 0.000017
# 6 0.000008 0.000005 -0.000029 0.015005 0.000017 0.015132
#
#
# Mechanical properties :
#
#
# Convention : Reuss Voigt Hill
#
# Bulk Modulus (GPa) = 66.77823 72.35820 69.56821
# Shear Modulus (GPa) = 173.74562 36.18061 104.96311
#
# Velocity S-wave (km/s) = 9.15135 4.17605 7.11289
# Velocity P-wave (km/s) = 11.99377 7.62430 10.04939
#
# Compressibility (1/GPa) = 0.01497494
#
# Stress axis : x y z
#
# Youngs Moduli (GPa) = 135.33476 85.34028 118.21270
#
# Poissons Ratio (x) = 0.32537 0.15796
# Poissons Ratio (y) = 0.51598 0.13557
# Poissons Ratio (z) = 0.18083 0.09787
#
# Static dielectric constant tensor:
#      x y z
#    x 1.782340 -0.000030 0.039220 
#    y -0.000030 1.770460 -0.000060 
#    z 0.039220 -0.000060 1.735140 
# 
# From -- ./inp_files/314085.got.cif
#   From: 2010.05.17/outbox.ucp.g08.bks.cvg/sg15_158_cif.got.tgz:314085.got - 2010.06.11 12:40:34.
