data_PCOD9309163
_publ_section_title
;
Structure prediction by ZEFSAII (Michael W. Deem and Ramdas Pophale) SiO2 
 PCOD9309163
Probable space group: C 2/C
;
_chemical_formula_sum "Si O2"
_cell_formula_units_Z 30
_cell_length_a 24.000000
_cell_length_b 9.000000
_cell_length_c 21.000000
_cell_angle_alpha 90.000000
_cell_angle_beta 140.000000
_cell_angle_gamma 90.000000
_cell_volume 2915.684598
_symmetry_space_group_name_H-M "C 2/C"
_symmetry_group_IT_number 15
_symmetry_cell_setting 'monoclinic'
loop_
_space_group_symop_operation_xyz
x,y,z
-x,y,1/2-z
-x,-y,-z
x,-y,1/2+z
1/2+x,1/2+y,z
1/2-x,1/2+y,1/2-z
1/2-x,1/2-y,-z
1/2+x,1/2-y,1/2+z
loop_
_atom_site_type_symbol
_atom_site_label
_atom_site_fract_x
_atom_site_fract_y
_atom_site_fract_z
Si Si1 0.631583 0.727452 0.635423
Si Si2 0.688322 0.933569 0.213117
Si Si3 0.267206 0.976222 0.115047
Si Si4 0.084412 0.196940 0.454738
Si Si5 0.165887 0.268496 0.062531
Si Si6 0.000000 0.722663 0.250000
Si Si7 0.366326 0.998134 0.069581
Si Si8 0.009412 0.896173 0.137260
O O1 0.710521 0.611488 0.696926
O O2 0.575842 0.733721 0.522063
O O3 0.577694 0.657147 0.645261
O O4 0.665625 0.895759 0.676405
O O5 0.655946 0.827148 0.126799
O O6 0.668874 0.917132 0.272246
O O7 0.239762 0.144071 0.113344
O O8 0.306967 0.971340 0.079401
O O9 0.179492 0.879506 0.033236
O O10 0.089938 0.347365 0.418495
O O11 0.013705 0.070481 0.376968
O O12 0.178712 0.413575 0.028745
O O13 0.079302 0.183541 0.964113
O O14 0.935398 0.614850 0.156971
O O15 0.039125 0.829377 0.230593
#
# Coordination Sequence:
#
# PCOD9309163 Si02
#       8
#     8   8   8   8   8   4   8   8
#     4  11  22  41  63  93 130 168 212 270 323 377
#     4  11  21  38  62  96 127 164 224 272 310 387
#     4  10  21  38  62  90 130 166 208 268 332 373
#     4  10  22  40  62  92 125 160 218 270 309 395
#     4  10  21  39  63  91 123 171 221 264 315 400
#     4  10  24  40  60  90 124 166 214 260 314 400
#     4  11  21  41  62  91 123 166 216 271 322 375
#     4  10  23  44  63  87 129 175 210 256 338 383
#
# _framework density 10.289179000000001
#
# number of rings (size 3 to 8) (size 9 to 14) (size 15 to 20)
#    0.000    1.600    2.667    2.000    0.000    1.067 
#    2.400    1.333    0.000    0.000    0.000    0.000 
#    0.000    0.000    0.000    0.000    0.000    0.000 
#
# Total GULP energy -167339.035296 kJ/mol
# GULP energy per Si atom -5577.967843 kJ/mol
# Density = 1.026576 g / cm^3
# Si number density = 10.289179 Si / 1000 Ang^3
#
#
#
# Elastic Constant Matrix: (Units=GPa)
#
#
# Indices 1 2 3 4 5 6 
#
# 1 65.7673 19.1274 7.1466 0.0000 -20.0226 0.0000
# 2 19.1274 110.8428 28.5602 0.0000 -12.4333 0.0000
# 3 7.1466 28.5602 54.8437 0.0000 -24.2033 0.0000
# 4 0.0000 0.0000 0.0000 29.2901 0.0000 -16.0718
# 5 -20.0226 -12.4333 -24.2033 0.0000 23.9086 0.0000
# 6 0.0000 0.0000 0.0000 -16.0718 0.0000 19.5869
#
#
#
# Elastic Compliance Matrix: (Units=1/GPa)
#
#
# Indices 1 2 3 4 5 6 
#
# 1 0.024522 -0.003992 0.012707 0.000000 0.031324 0.000000
# 2 -0.003992 0.011070 -0.007554 0.000000 -0.005234 0.000000
# 3 0.012707 -0.007554 0.042430 0.000000 0.049667 0.000000
# 4 0.000000 0.000000 0.000000 0.062102 0.000000 0.050957
# 5 0.031324 -0.005234 0.049667 0.000000 0.115615 0.000000
# 6 0.000000 0.000000 0.000000 0.050957 0.000000 0.092867
#
#
# Mechanical properties :
#
#
# Convention : Reuss Voigt Hill
#
# Bulk Modulus (GPa) = 12.44657 37.90246 25.17451
# Shear Modulus (GPa) = 13.40241 26.33175 19.86708
#
# Velocity S-wave (km/s) = 2.55480 3.58101 3.11052
# Velocity P-wave (km/s) = 3.84242 5.96295 5.01602
#
# Compressibility (1/GPa) = 0.08034344
#
# Stress axis : x y z
#
# Youngs Moduli (GPa) = 40.78008 90.33345 23.56801
#
# Poissons Ratio (x) = 0.36062 -0.29948
# Poissons Ratio (y) = 0.16280 0.17804
# Poissons Ratio (z) = -0.51820 0.68242
#
# Static dielectric constant tensor:
#      x y z
#    x 1.762090 0.000000 -0.018310 
#    y 0.000000 1.724740 0.000000 
#    z -0.018310 0.000000 1.775700 
# 
# From -- ./inp_files/255210.got.cif
#   From: 2010.05.17/outbox.ucp.g08.bks.cvg/sg15_128_cif.got.tgz:255210.got - 2010.06.11 12:40:34.
