data_PCOD9309478
_publ_section_title
;
Structure prediction by ZEFSAII (Michael W. Deem and Ramdas Pophale) SiO2 
 PCOD9309478
Probable space group: C 2/C
;
_chemical_formula_sum "Si O2"
_cell_formula_units_Z 30
_cell_length_a 27.000000
_cell_length_b 9.000000
_cell_length_c 12.000000
_cell_angle_alpha 90.000000
_cell_angle_beta 90.000000
_cell_angle_gamma 90.000000
_cell_volume 2916.000000
_symmetry_space_group_name_H-M "C 2/C"
_symmetry_group_IT_number 15
_symmetry_cell_setting 'monoclinic'
loop_
_space_group_symop_operation_xyz
x,y,z
-x,y,1/2-z
-x,-y,-z
x,-y,1/2+z
1/2+x,1/2+y,z
1/2-x,1/2+y,1/2-z
1/2-x,1/2-y,-z
1/2+x,1/2-y,1/2+z
loop_
_atom_site_type_symbol
_atom_site_label
_atom_site_fract_x
_atom_site_fract_y
_atom_site_fract_z
Si Si1 0.830656 0.543773 0.017808
Si Si2 0.000000 0.545889 0.250000
Si Si3 0.473620 0.261240 0.457280
Si Si4 0.537391 0.587396 0.143164
Si Si5 0.145711 0.221369 0.174335
Si Si6 0.592623 0.104661 0.857988
Si Si7 0.280036 0.191966 0.392479
Si Si8 0.739619 0.489392 0.693245
O O1 0.879344 0.537896 0.093570
O O2 0.781812 0.548075 0.098604
O O3 0.839682 0.670659 0.927192
O O4 0.827135 0.387503 0.949068
O O5 0.011048 0.645060 0.139496
O O6 0.047853 0.445263 0.277705
O O7 0.460680 0.416541 0.397283
O O8 0.516569 0.308608 0.544099
O O9 0.431530 0.196080 0.539870
O O10 0.500000 0.597561 0.250000
O O11 0.593113 0.639328 0.163963
O O12 0.135822 0.312104 0.288665
O O13 0.190574 0.107376 0.178502
O O14 0.250000 0.250000 0.500000
O O15 0.277645 0.338922 0.316049
O O16 0.259163 0.059214 0.314988
#
# Coordination Sequence:
#
# PCOD9309478 Si02
#       8
#     8   4   8   8   8   8   8   8
#     4  11  24  44  68 102 140 184 236 291 351 424
#     4  12  24  44  74 106 138 184 242 292 362 434
#     4  11  24  43  71  98 140 182 235 291 363 417
#     4  11  23  47  68 100 142 185 232 300 346 431
#     4  12  24  43  69  99 140 183 237 286 356 416
#     4  12  24  42  70 102 141 183 233 296 358 416
#     4  10  22  44  69  97 143 177 233 291 347 413
#     4  11  24  44  69 101 139 190 232 293 350 420
#
# _framework density 10.288066000000001
#
# number of rings (size 3 to 8) (size 9 to 14) (size 15 to 20)
#    0.000    0.800    2.000    6.400    1.867    1.067 
#    2.400    0.000    0.000    0.000    0.000    0.000 
#    0.000    0.000    0.000    0.000    0.000    0.000 
#
# Total GULP energy -167519.511760 kJ/mol
# GULP energy per Si atom -5583.983725 kJ/mol
# Density = 1.026465 g / cm^3
# Si number density = 10.288066 Si / 1000 Ang^3
#
#
#
# Elastic Constant Matrix: (Units=GPa)
#
#
# Indices 1 2 3 4 5 6 
#
# 1 115.3308 34.1347 33.4187 0.0000 -1.3401 0.0000
# 2 34.1347 68.3923 38.5233 0.0000 3.3972 0.0000
# 3 33.4187 38.5233 112.8365 0.0000 -8.3215 0.0000
# 4 0.0000 0.0000 0.0000 49.6515 0.0000 -1.8558
# 5 -1.3401 3.3972 -8.3215 0.0000 34.1847 0.0000
# 6 0.0000 0.0000 0.0000 -1.8558 0.0000 23.7679
#
#
#
# Elastic Compliance Matrix: (Units=1/GPa)
#
#
# Indices 1 2 3 4 5 6 
#
# 1 0.010414 -0.004336 -0.001570 0.000000 0.000457 0.000000
# 2 -0.004336 0.020296 -0.005912 0.000000 -0.003626 0.000000
# 3 -0.001570 -0.005912 0.011593 0.000000 0.003348 0.000000
# 4 0.000000 0.000000 0.000000 0.020199 0.000000 0.001577
# 5 0.000457 -0.003626 0.003348 0.000000 0.030446 0.000000
# 6 0.000000 0.000000 0.000000 0.001577 0.000000 0.042197
#
#
# Mechanical properties :
#
#
# Convention : Reuss Voigt Hill
#
# Bulk Modulus (GPa) = 53.57414 56.52366 55.04890
# Shear Modulus (GPa) = 30.30206 34.21968 32.26087
#
# Velocity S-wave (km/s) = 3.84171 4.08251 3.96394
# Velocity P-wave (km/s) = 6.76549 7.05355 6.91103
#
# Compressibility (1/GPa) = 0.01866572
#
# Stress axis : x y z
#
# Youngs Moduli (GPa) = 96.02098 49.27057 86.25918
#
# Poissons Ratio (x) = 0.21364 0.13546
# Poissons Ratio (y) = 0.41635 0.51001
# Poissons Ratio (z) = 0.15079 0.29131
#
# Static dielectric constant tensor:
#      x y z
#    x 1.728770 0.000000 0.051740 
#    y 0.000000 1.763630 0.000000 
#    z 0.051740 0.000000 1.761820 
# 
# From -- ./inp_files/121966.got.cif
#   From: 2010.05.17/outbox.ucp.g08.bks.cvg/sg15_61_cif.got.tgz:121966.got - 2010.06.11 12:40:34.
