data_PCOD9309440
_publ_section_title
;
Structure prediction by ZEFSAII (Michael W. Deem and Ramdas Pophale) SiO2 
 PCOD9309440
Probable space group: C 2/C
;
_chemical_formula_sum "Si O2"
_cell_formula_units_Z 28
_cell_length_a 15.000000
_cell_length_b 12.000000
_cell_length_c 15.000000
_cell_angle_alpha 90.000000
_cell_angle_beta 90.000000
_cell_angle_gamma 90.000000
_cell_volume 2700.000000
_symmetry_space_group_name_H-M "C 2/C"
_symmetry_group_IT_number 15
_symmetry_cell_setting 'monoclinic'
loop_
_space_group_symop_operation_xyz
x,y,z
-x,y,1/2-z
-x,-y,-z
x,-y,1/2+z
1/2+x,1/2+y,z
1/2-x,1/2+y,1/2-z
1/2-x,1/2-y,-z
1/2+x,1/2-y,1/2+z
loop_
_atom_site_type_symbol
_atom_site_label
_atom_site_fract_x
_atom_site_fract_y
_atom_site_fract_z
Si Si1 0.806055 0.647862 0.845421
Si Si2 0.629837 0.489562 0.341178
Si Si3 0.974352 0.151967 0.520820
Si Si4 0.675666 0.056852 0.845082
Si Si5 0.146024 0.912158 0.651261
Si Si6 0.165009 0.790459 0.944403
Si Si7 0.577560 0.908844 0.979977
O O1 0.703154 0.609440 0.843395
O O2 0.841518 0.580938 0.758865
O O3 0.817712 0.783001 0.835784
O O4 0.855109 0.603576 0.934951
O O5 0.551598 0.433349 0.400182
O O6 0.605056 0.538848 0.243656
O O7 0.677887 0.598139 0.385632
O O8 0.919645 0.107178 0.433322
O O9 0.946653 0.280272 0.538009
O O10 0.078915 0.170116 0.500609
O O11 0.649447 0.176682 0.888409
O O12 0.775587 0.005503 0.863211
O O13 0.619613 0.961005 0.891712
O O14 0.250000 0.750000 0.000000
O O15 0.500000 0.000000 0.000000
#
# Coordination Sequence:
#
# PCOD9309440 Si02
#       7
#     8   8   8   8   8   8   8
#     4  10  22  42  68  99 137 184 227 290 348 421
#     4  11  23  41  69 101 141 182 233 286 353 420
#     4  11  24  43  70 101 136 183 231 291 352 416
#     4  11  22  41  67 100 134 180 229 285 344 415
#     4  10  22  43  71 101 138 182 237 286 351 422
#     4  12  24  41  66  95 138 179 226 282 347 413
#     4  11  22  40  67  99 135 178 233 287 348 417
#
# _framework density 10.370369999999999
#
# number of rings (size 3 to 8) (size 9 to 14) (size 15 to 20)
#    0.000    1.143    2.857    3.857    0.000    3.429 
#    0.000    1.429    0.000    1.714    0.000    0.000 
#    0.000    0.000    0.000    0.000    0.000    0.000 
#
# Total GULP energy -156151.779861 kJ/mol
# GULP energy per Si atom -5576.849281 kJ/mol
# Density = 1.034677 g / cm^3
# Si number density = 10.370370 Si / 1000 Ang^3
#
#
#
# Elastic Constant Matrix: (Units=GPa)
#
#
# Indices 1 2 3 4 5 6 
#
# 1 78.6977 37.5989 21.2251 0.0000 -21.5559 0.0000
# 2 37.5989 166.6837 38.2191 0.0000 -16.1673 0.0000
# 3 21.2251 38.2191 63.2102 0.0000 -28.3877 0.0000
# 4 0.0000 0.0000 0.0000 52.1338 0.0000 -5.7647
# 5 -21.5559 -16.1673 -28.3877 0.0000 16.2693 0.0000
# 6 0.0000 0.0000 0.0000 -5.7647 0.0000 51.8257
#
#
#
# Elastic Compliance Matrix: (Units=1/GPa)
#
#
# Indices 1 2 3 4 5 6 
#
# 1 0.040054 -0.007874 0.053751 0.000000 0.139032 0.000000
# 2 -0.007874 0.008527 -0.015674 0.000000 -0.029309 0.000000
# 3 0.053751 -0.015674 0.148981 0.000000 0.315593 0.000000
# 4 0.000000 0.000000 0.000000 0.019420 0.000000 0.002160
# 5 0.139032 -0.029309 0.315593 0.000000 0.767216 0.000000
# 6 0.000000 0.000000 0.000000 0.002160 0.000000 0.019536
#
#
# Mechanical properties :
#
#
# Convention : Reuss Voigt Hill
#
# Bulk Modulus (GPa) = 3.87646 55.85308 29.86477
# Shear Modulus (GPa) = 4.85758 38.14900 21.50329
#
# Velocity S-wave (km/s) = 1.53204 4.29339 3.22338
# Velocity P-wave (km/s) = 2.23664 7.18089 5.31826
#
# Compressibility (1/GPa) = 0.25796742
#
# Stress axis : x y z
#
# Youngs Moduli (GPa) = 24.96623 117.27821 6.71225
#
# Poissons Ratio (x) = 0.92348 -0.36079
# Poissons Ratio (y) = 0.19659 0.10521
# Poissons Ratio (z) = -1.34196 1.83822
#
# Static dielectric constant tensor:
#      x y z
#    x 1.830040 0.000000 -0.055460 
#    y 0.000000 1.709870 0.000000 
#    z -0.055460 0.000000 1.789420 
# 
# From -- ./inp_files/152596.got.cif
#   From: 2010.05.17/outbox.ucp.g08.bks.cvg/sg15_77_cif.got.tgz:152596.got - 2010.06.11 12:40:34.
