data_PCOD9309371
_publ_section_title
;
Structure prediction by ZEFSAII (Michael W. Deem and Ramdas Pophale) SiO2 
 PCOD9309371
Probable space group: C 2/C
;
_chemical_formula_sum "Si O2"
_cell_formula_units_Z 30
_cell_length_a 27.000000
_cell_length_b 12.000000
_cell_length_c 18.000000
_cell_angle_alpha 90.000000
_cell_angle_beta 150.000000
_cell_angle_gamma 90.000000
_cell_volume 2916.000000
_symmetry_space_group_name_H-M "C 2/C"
_symmetry_group_IT_number 15
_symmetry_cell_setting 'monoclinic'
loop_
_space_group_symop_operation_xyz
x,y,z
-x,y,1/2-z
-x,-y,-z
x,-y,1/2+z
1/2+x,1/2+y,z
1/2-x,1/2+y,1/2-z
1/2-x,1/2-y,-z
1/2+x,1/2-y,1/2+z
loop_
_atom_site_type_symbol
_atom_site_label
_atom_site_fract_x
_atom_site_fract_y
_atom_site_fract_z
Si Si1 0.420347 0.193314 0.248861
Si Si2 0.353241 0.813721 0.408586
Si Si3 0.719030 0.878001 0.799710
Si Si4 0.296713 0.749132 0.174655
Si Si5 0.603026 0.667169 0.336889
Si Si6 0.332412 0.055828 0.427713
Si Si7 0.386602 0.577989 0.628260
Si Si8 0.000000 0.503118 0.250000
O O1 0.533939 0.213926 0.422062
O O2 0.358206 0.157017 0.238673
O O3 0.371220 0.303509 0.148916
O O4 0.430193 0.087890 0.206058
O O5 0.280950 0.721618 0.345470
O O6 0.338982 0.814891 0.300847
O O7 0.318940 0.923888 0.406945
O O8 0.661028 0.921607 0.652042
O O9 0.806727 0.941398 0.958677
O O10 0.377192 0.736383 0.213181
O O11 0.255091 0.629949 0.151132
O O12 0.197285 0.803310 0.011143
O O13 0.500000 0.679365 0.250000
O O14 0.613726 0.537255 0.327183
O O15 0.431877 0.069099 0.606221
O O16 0.500000 0.588845 0.750000
#
# Coordination Sequence:
#
# PCOD9309371 Si02
#       8
#     8   8   8   8   8   8   8   4
#     4  11  22  39  65  98 125 168 207 278 320 379
#     4  10  22  43  60  92 133 160 218 269 320 384
#     4  11  23  38  64  94 126 169 213 266 324 386
#     4  10  23  43  63  93 130 170 216 267 317 385
#     4  10  24  41  65  94 126 174 215 264 320 388
#     4  10  23  41  64  93 127 171 209 269 323 383
#     4  11  20  39  65  91 130 162 211 260 322 383
#     4  10  22  40  62  96 132 162 218 266 320 382
#
# _framework density 10.288066000000001
#
# number of rings (size 3 to 8) (size 9 to 14) (size 15 to 20)
#    0.000    1.600    2.000    2.000    4.667    4.267 
#    2.400    0.667    0.000    0.000    0.000    0.000 
#    0.000    0.000    0.000    0.000    0.000    0.000 
#
# Total GULP energy -167287.131606 kJ/mol
# GULP energy per Si atom -5576.237720 kJ/mol
# Density = 1.026465 g / cm^3
# Si number density = 10.288066 Si / 1000 Ang^3
#
#
#
# Elastic Constant Matrix: (Units=GPa)
#
#
# Indices 1 2 3 4 5 6 
#
# 1 118.2352 16.6387 37.2466 0.0000 -1.7818 0.0000
# 2 16.6387 56.9686 24.9715 0.0000 3.2319 0.0000
# 3 37.2466 24.9715 107.5551 0.0000 -20.0445 0.0000
# 4 0.0000 0.0000 0.0000 31.3775 0.0000 -0.5971
# 5 -1.7818 3.2319 -20.0445 0.0000 31.9095 0.0000
# 6 0.0000 0.0000 0.0000 -0.5971 0.0000 22.8743
#
#
#
# Elastic Compliance Matrix: (Units=1/GPa)
#
#
# Indices 1 2 3 4 5 6 
#
# 1 0.009660 -0.001292 -0.003308 0.000000 -0.001408 0.000000
# 2 -0.001292 0.020596 -0.005365 0.000000 -0.005528 0.000000
# 3 -0.003308 -0.005365 0.013314 0.000000 0.008722 0.000000
# 4 0.000000 0.000000 0.000000 0.031886 0.000000 0.000832
# 5 -0.001408 -0.005528 0.008722 0.000000 0.037299 0.000000
# 6 0.000000 0.000000 0.000000 0.000832 0.000000 0.043739
#
#
# Mechanical properties :
#
#
# Convention : Reuss Voigt Hill
#
# Bulk Modulus (GPa) = 42.29786 48.94141 45.61964
# Shear Modulus (GPa) = 27.12917 30.82573 28.97745
#
# Velocity S-wave (km/s) = 3.63502 3.87477 3.75681
# Velocity P-wave (km/s) = 6.18217 6.62236 6.40605
#
# Compressibility (1/GPa) = 0.02364186
#
# Stress axis : x y z
#
# Youngs Moduli (GPa) = 103.51634 48.55306 75.10802
#
# Poissons Ratio (x) = 0.06271 0.24844
# Poissons Ratio (y) = 0.13371 0.40294
# Poissons Ratio (z) = 0.34241 0.26048
#
# Static dielectric constant tensor:
#      x y z
#    x 1.734170 0.000000 -0.058340 
#    y 0.000000 1.807350 0.000000 
#    z -0.058340 0.000000 1.768850 
# 
# From -- ./inp_files/222582.got.cif
#   From: 2010.05.17/outbox.ucp.g08.bks.cvg/sg15_112_cif.got.tgz:222582.got - 2010.06.11 12:40:34.
