data_PCOD9309167
_publ_section_title
;
Structure prediction by ZEFSAII (Michael W. Deem and Ramdas Pophale) SiO2 
 PCOD9309167
Probable space group: C 2/C
;
_chemical_formula_sum "Si O2"
_cell_formula_units_Z 22
_cell_length_a 6.000000
_cell_length_b 27.000000
_cell_length_c 15.000000
_cell_angle_alpha 90.000000
_cell_angle_beta 120.000000
_cell_angle_gamma 90.000000
_cell_volume 2104.441731
_symmetry_space_group_name_H-M "C 2/C"
_symmetry_group_IT_number 15
_symmetry_cell_setting 'monoclinic'
loop_
_space_group_symop_operation_xyz
x,y,z
-x,y,1/2-z
-x,-y,-z
x,-y,1/2+z
1/2+x,1/2+y,z
1/2-x,1/2+y,1/2-z
1/2-x,1/2-y,-z
1/2+x,1/2-y,1/2+z
loop_
_atom_site_type_symbol
_atom_site_label
_atom_site_fract_x
_atom_site_fract_y
_atom_site_fract_z
Si Si1 0.513357 0.780607 0.857759
Si Si2 0.263394 0.505402 0.826353
Si Si3 0.299347 0.041887 0.992896
Si Si4 0.891827 0.207722 0.971384
Si Si5 0.676348 0.868108 0.555853
Si Si6 0.000000 0.068480 0.250000
O O1 0.500000 0.784618 0.750000
O O2 0.399339 0.728454 0.871872
O O3 0.372145 0.824022 0.883533
O O4 0.810926 0.788869 0.941712
O O5 0.525506 0.536450 0.888331
O O6 0.288251 0.467239 0.749569
O O7 0.000000 0.533862 0.750000
O O8 0.251096 0.472972 0.914417
O O9 0.432590 0.095006 0.003725
O O10 0.500000 0.000000 0.000000
O O11 0.750000 0.250000 0.000000
O O12 0.766050 0.156596 0.980645
O O13 0.897350 0.900112 0.647068
#
# Coordination Sequence:
#
# PCOD9309167 Si02
#       6
#     8   8   8   8   8   4
#     4  10  21  38  64 100 129 165 210 268 342 394
#     4  11  22  38  58  90 131 174 224 274 330 383
#     4  11  23  38  59  95 127 181 212 276 337 379
#     4   9  21  39  58  98 128 165 202 271 331 401
#     4  11  22  34  62  96 131 166 221 269 332 391
#     4  12  22  36  62 100 130 160 216 288 320 384
#
# _framework density 10.454079
#
# number of rings (size 3 to 8) (size 9 to 14) (size 15 to 20)
#    0.000    1.455    3.636    1.091    5.091    2.182 
#    0.000    0.000    0.000    0.000  137.091    0.000 
#    0.000    0.000    0.000    0.000    0.000    0.000 
#
# Total GULP energy -122735.817626 kJ/mol
# GULP energy per Si atom -5578.900801 kJ/mol
# Density = 1.043028 g / cm^3
# Si number density = 10.454079 Si / 1000 Ang^3
#
#
#
# Elastic Constant Matrix: (Units=GPa)
#
#
# Indices 1 2 3 4 5 6 
#
# 1 94.4102 43.4412 38.3341 0.0000 -2.3082 0.0000
# 2 43.4412 92.5738 48.4913 0.0000 -8.1198 0.0000
# 3 38.3341 48.4913 69.8109 0.0000 11.3531 0.0000
# 4 0.0000 0.0000 0.0000 24.4325 0.0000 -0.6253
# 5 -2.3082 -8.1198 11.3531 0.0000 50.2493 0.0000
# 6 0.0000 0.0000 0.0000 -0.6253 0.0000 41.1249
#
#
#
# Elastic Compliance Matrix: (Units=1/GPa)
#
#
# Indices 1 2 3 4 5 6 
#
# 1 0.014662 -0.003827 -0.005608 0.000000 0.001322 0.000000
# 2 -0.003827 0.019656 -0.012499 0.000000 0.005824 0.000000
# 3 -0.005608 -0.012499 0.027465 0.000000 -0.008483 0.000000
# 4 0.000000 0.000000 0.000000 0.040945 0.000000 0.000623
# 5 0.001322 0.005824 -0.008483 0.000000 0.022819 0.000000
# 6 0.000000 0.000000 0.000000 0.000623 0.000000 0.024326
#
#
# Mechanical properties :
#
#
# Convention : Reuss Voigt Hill
#
# Bulk Modulus (GPa) = 55.81721 57.48088 56.64905
# Shear Modulus (GPa) = 25.03583 31.59657 28.31620
#
# Velocity S-wave (km/s) = 3.46413 3.89164 3.68409
# Velocity P-wave (km/s) = 6.53870 6.90977 6.72679
#
# Compressibility (1/GPa) = 0.01791562
#
# Stress axis : x y z
#
# Youngs Moduli (GPa) = 68.20174 50.87494 36.40945
#
# Poissons Ratio (x) = 0.19469 0.20419
# Poissons Ratio (y) = 0.26100 0.45508
# Poissons Ratio (z) = 0.38248 0.63589
#
# Static dielectric constant tensor:
#      x y z
#    x 1.765320 0.000000 0.016250 
#    y 0.000000 1.815540 0.000000 
#    z 0.016250 0.000000 1.768080 
# 
# From -- ./inp_files/129780.got.cif
#   From: 2010.05.17/outbox.ucp.g08.bks.cvg/sg15_65_cif.got.tgz:129780.got - 2010.06.11 12:40:34.
