data_PCOD9309388
_publ_section_title
;
Structure prediction by ZEFSAII (Michael W. Deem and Ramdas Pophale) SiO2 
 PCOD9309388
Probable space group: C 2/C
;
_chemical_formula_sum "Si O2"
_cell_formula_units_Z 28
_cell_length_a 9.000000
_cell_length_b 18.000000
_cell_length_c 18.000000
_cell_angle_alpha 90.000000
_cell_angle_beta 70.000000
_cell_angle_gamma 90.000000
_cell_volume 2740.143682
_symmetry_space_group_name_H-M "C 2/C"
_symmetry_group_IT_number 15
_symmetry_cell_setting 'monoclinic'
loop_
_space_group_symop_operation_xyz
x,y,z
-x,y,1/2-z
-x,-y,-z
x,-y,1/2+z
1/2+x,1/2+y,z
1/2-x,1/2+y,1/2-z
1/2-x,1/2-y,-z
1/2+x,1/2-y,1/2+z
loop_
_atom_site_type_symbol
_atom_site_label
_atom_site_fract_x
_atom_site_fract_y
_atom_site_fract_z
Si Si1 0.143914 0.801417 0.623211
Si Si2 0.449569 0.957084 0.082538
Si Si3 0.281451 0.662289 0.833149
Si Si4 0.117230 0.897199 0.330578
Si Si5 0.722251 0.684196 0.279420
Si Si6 0.331047 0.977848 0.748920
Si Si7 0.232240 0.641365 0.550229
O O1 0.229977 0.800483 0.688756
O O2 0.150114 0.718266 0.588814
O O3 0.217561 0.851172 0.544312
O O4 0.963460 0.823559 0.669827
O O5 0.348465 0.880247 0.095348
O O6 0.615533 0.926864 0.084422
O O7 0.349889 0.007392 0.157168
O O8 0.500000 0.000000 0.000000
O O9 0.260465 0.640590 0.749319
O O10 0.445744 0.627145 0.832084
O O11 0.283337 0.750876 0.824023
O O12 0.131296 0.871332 0.412681
O O13 0.175496 0.981138 0.307651
O O14 0.812448 0.607443 0.273771
O O15 0.500000 0.006239 0.750000
#
# Coordination Sequence:
#
# PCOD9309388 Si02
#       7
#     8   8   8   8   8   8   8
#     4  10  23  37  68  96 129 176 221 278 342 406
#     4  11  23  42  67  96 129 178 224 277 332 412
#     4  10  22  40  68  97 132 178 224 278 338 401
#     4  10  22  41  66  94 130 179 220 272 338 415
#     4  11  22  41  64 101 135 175 228 289 335 407
#     4  11  24  40  66  96 131 177 231 274 341 402
#     4  11  20  41  66  98 129 173 225 269 341 408
#
# _framework density 10.218442
#
# number of rings (size 3 to 8) (size 9 to 14) (size 15 to 20)
#    0.000    1.429    4.286    0.857    2.000    5.714 
#    2.571    2.143    0.000    0.000    0.000    0.000 
#    0.000    0.000    0.000    0.000    0.000    0.000 
#
# Total GULP energy -155981.466854 kJ/mol
# GULP energy per Si atom -5570.766673 kJ/mol
# Density = 1.019518 g / cm^3
# Si number density = 10.218442 Si / 1000 Ang^3
#
#
#
# Elastic Constant Matrix: (Units=GPa)
#
#
# Indices 1 2 3 4 5 6 
#
# 1 84.9508 31.2955 24.3988 0.0000 4.6735 0.0000
# 2 31.2955 113.8134 34.4113 0.0000 -3.0305 0.0000
# 3 24.3988 34.4113 113.5759 0.0000 -5.4046 0.0000
# 4 0.0000 0.0000 0.0000 29.2285 0.0000 -9.6759
# 5 4.6735 -3.0305 -5.4046 0.0000 18.0356 0.0000
# 6 0.0000 0.0000 0.0000 -9.6759 0.0000 6.2713
#
#
#
# Elastic Compliance Matrix: (Units=1/GPa)
#
#
# Indices 1 2 3 4 5 6 
#
# 1 0.013880 -0.003274 -0.002219 0.000000 -0.004811 0.000000
# 2 -0.003274 0.010455 -0.002374 0.000000 0.001894 0.000000
# 3 -0.002219 -0.002374 0.010154 0.000000 0.003219 0.000000
# 4 0.000000 0.000000 0.000000 0.069932 0.000000 0.107897
# 5 -0.004811 0.001894 0.003219 0.000000 0.057975 0.000000
# 6 0.000000 0.000000 0.000000 0.107897 0.000000 0.325930
#
#
# Mechanical properties :
#
#
# Convention : Reuss Voigt Hill
#
# Bulk Modulus (GPa) = 53.31992 54.72792 54.02392
# Shear Modulus (GPa) = 9.79796 25.52271 17.66033
#
# Velocity S-wave (km/s) = 2.19195 3.53775 2.94282
# Velocity P-wave (km/s) = 5.70551 6.59732 6.16756
#
# Compressibility (1/GPa) = 0.01875472
#
# Stress axis : x y z
#
# Youngs Moduli (GPa) = 72.04868 95.65018 98.48513
#
# Poissons Ratio (x) = 0.31314 0.21851
# Poissons Ratio (y) = 0.23587 0.23382
# Poissons Ratio (z) = 0.15986 0.22709
#
# Static dielectric constant tensor:
#      x y z
#    x 1.774090 0.000000 0.020980 
#    y 0.000000 1.805760 0.000000 
#    z 0.020980 0.000000 1.727210 
# 
# From -- ./inp_files/190910.got.cif
#   From: 2010.05.17/outbox.ucp.g08.bks.cvg/sg15_96_cif.got.tgz:190910.got - 2010.06.11 12:40:34.
