data_PCOD9309045
_publ_section_title
;
Structure prediction by ZEFSAII (Michael W. Deem and Ramdas Pophale) SiO2 
 PCOD9309045
Probable space group: C 2/C
;
_chemical_formula_sum "Si O2"
_cell_formula_units_Z 24
_cell_length_a 18.000000
_cell_length_b 18.000000
_cell_length_c 15.000000
_cell_angle_alpha 90.000000
_cell_angle_beta 30.000000
_cell_angle_gamma 90.000000
_cell_volume 2430.000000
_symmetry_space_group_name_H-M "C 2/C"
_symmetry_group_IT_number 15
_symmetry_cell_setting 'monoclinic'
loop_
_space_group_symop_operation_xyz
x,y,z
-x,y,1/2-z
-x,-y,-z
x,-y,1/2+z
1/2+x,1/2+y,z
1/2-x,1/2+y,1/2-z
1/2-x,1/2-y,-z
1/2+x,1/2-y,1/2+z
loop_
_atom_site_type_symbol
_atom_site_label
_atom_site_fract_x
_atom_site_fract_y
_atom_site_fract_z
Si Si1 0.808053 0.502913 0.626360
Si Si2 0.386757 0.379400 0.949796
Si Si3 0.078201 0.585954 0.812719
Si Si4 0.809747 0.148426 0.159085
Si Si5 0.994051 0.035168 0.649987
Si Si6 0.446322 0.758079 0.510159
O O1 0.860352 0.555418 0.654517
O O2 0.748078 0.422741 0.723941
O O3 0.673045 0.541087 0.714040
O O4 0.953355 0.475701 0.420421
O O5 0.500000 0.367136 0.750000
O O6 0.449879 0.452025 0.937478
O O7 0.372513 0.302380 0.019482
O O8 0.219794 0.406159 0.100662
O O9 0.012532 0.669124 0.891925
O O10 0.666104 0.203150 0.301815
O O11 0.927670 0.205457 0.079106
O O12 0.899348 0.102530 0.990717
O O13 0.000000 0.032114 0.750000
#
# Coordination Sequence:
#
# PCOD9309045 Si02
#       6
#     8   8   8   8   8   8
#     4  10  20  39  69  89 121 169 220 268 296 382
#     4  11  22  39  60  92 134 167 201 258 325 387
#     4  10  21  38  63  96 123 163 221 259 312 373
#     4  11  21  38  65  90 120 167 220 264 308 375
#     4  11  23  40  64  93 127 170 209 259 326 375
#     4  11  22  37  63  93 123 165 214 268 312 373
#
# _framework density 9.8765429999999999
#
# number of rings (size 3 to 8) (size 9 to 14) (size 15 to 20)
#    0.000    1.333    5.000    1.500    0.000    0.667 
#    0.000    4.167    0.000    0.000    0.000    0.000 
#    0.000    0.000    0.000    0.000    0.000    0.000 
#
# Total GULP energy -133703.946928 kJ/mol
# GULP energy per Si atom -5570.997789 kJ/mol
# Density = 0.985406 g / cm^3
# Si number density = 9.876543 Si / 1000 Ang^3
#
#
#
# Elastic Constant Matrix: (Units=GPa)
#
#
# Indices 1 2 3 4 5 6 
#
# 1 25.6572 -10.1913 8.1824 0.0000 -7.1834 0.0001
# 2 -10.1913 91.6579 17.1169 0.0007 6.5573 -0.0006
# 3 8.1824 17.1169 115.9241 0.0021 -9.8827 -0.0019
# 4 0.0000 0.0007 0.0021 45.4899 -0.0020 -6.8928
# 5 -7.1834 6.5573 -9.8827 -0.0020 19.2516 0.0014
# 6 0.0001 -0.0006 -0.0019 -6.8928 0.0014 21.7840
#
#
#
# Elastic Compliance Matrix: (Units=1/GPa)
#
#
# Indices 1 2 3 4 5 6 
#
# 1 0.045587 0.004565 -0.002692 0.000000 0.014073 -0.000001
# 2 0.004565 0.012134 -0.002427 0.000000 -0.003676 0.000000
# 3 -0.002692 -0.002427 0.009579 0.000000 0.004739 0.000000
# 4 0.000000 0.000000 0.000000 0.023090 0.000002 0.007306
# 5 0.014073 -0.003676 0.004739 0.000002 0.060880 -0.000003
# 6 -0.000001 0.000000 0.000000 0.007306 -0.000003 0.048217
#
#
# Mechanical properties :
#
#
# Convention : Reuss Voigt Hill
#
# Bulk Modulus (GPa) = 15.10781 29.27279 22.19030
# Shear Modulus (GPa) = 22.45585 31.84721 27.15153
#
# Velocity S-wave (km/s) = 3.37535 4.01966 3.71151
# Velocity P-wave (km/s) = 4.78075 6.03283 5.44291
#
# Compressibility (1/GPa) = 0.06619094
#
# Stress axis : x y z
#
# Youngs Moduli (GPa) = 21.93599 82.41368 104.39752
#
# Poissons Ratio (x) = -0.37619 0.28103
# Poissons Ratio (y) = -0.10013 0.25339
# Poissons Ratio (z) = 0.05905 0.20003
#
# Static dielectric constant tensor:
#      x y z
#    x 1.726960 0.000000 -0.041740 
#    y 0.000000 1.653710 0.000000 
#    z -0.041740 0.000000 1.796720 
# 
# From -- ./inp_files/48704.got.cif
#   From: 2010.05.17/outbox.ucp.g08.bks.cvg/sg15_25_cif.got.tgz:48704.got - 2010.06.11 12:40:34.
