data_PCOD9309243
_publ_section_title
;
Structure prediction by ZEFSAII (Michael W. Deem and Ramdas Pophale) SiO2 
 PCOD9309243
Probable space group: C 2/C
;
_chemical_formula_sum "Si O2"
_cell_formula_units_Z 32
_cell_length_a 15.000000
_cell_length_b 18.000000
_cell_length_c 24.000000
_cell_angle_alpha 90.000000
_cell_angle_beta 150.000000
_cell_angle_gamma 90.000000
_cell_volume 3240.000000
_symmetry_space_group_name_H-M "C 2/C"
_symmetry_group_IT_number 15
_symmetry_cell_setting 'monoclinic'
loop_
_space_group_symop_operation_xyz
x,y,z
-x,y,1/2-z
-x,-y,-z
x,-y,1/2+z
1/2+x,1/2+y,z
1/2-x,1/2+y,1/2-z
1/2-x,1/2-y,-z
1/2+x,1/2-y,1/2+z
loop_
_atom_site_type_symbol
_atom_site_label
_atom_site_fract_x
_atom_site_fract_y
_atom_site_fract_z
Si Si1 0.095977 0.697487 0.689804
Si Si2 0.817469 0.951340 0.271644
Si Si3 0.863385 0.402105 0.774806
Si Si4 0.850101 0.311151 0.882613
Si Si5 0.748286 0.529229 0.004010
Si Si6 0.712905 0.537284 0.361328
Si Si7 0.049639 0.196522 0.058507
Si Si8 0.823136 0.382883 0.114564
O O1 0.218140 0.625447 0.737181
O O2 0.190846 0.751168 0.786949
O O3 0.063502 0.750785 0.620001
O O4 0.909278 0.669229 0.613594
O O5 0.037081 0.944375 0.393752
O O6 0.739096 0.019695 0.266861
O O7 0.768315 0.980595 0.181764
O O8 0.869405 0.350951 0.833397
O O9 0.728333 0.356612 0.659018
O O10 0.076937 0.421056 0.882998
O O11 0.805614 0.382272 0.898759
O O12 0.014460 0.258171 0.990793
O O13 0.766810 0.459038 0.054665
O O14 0.772048 0.500922 0.951989
O O15 0.500000 0.551878 0.250000
O O16 0.863128 0.149699 0.961640
O O17 0.000000 0.393578 0.250000
#
# Coordination Sequence:
#
# PCOD9309243 Si02
#       8
#     8   8   8   8   8   8   8   8
#     4  11  23  38  63  91 132 169 206 254 324 382
#     4  10  21  41  63  96 124 166 212 259 316 377
#     4  10  22  40  64  92 126 164 215 258 318 373
#     4  10  22  37  59  95 128 168 201 259 322 381
#     4  11  22  42  66  94 126 167 216 271 302 371
#     4   9  21  36  65  97 128 158 210 265 324 372
#     4  11  23  40  60  91 133 163 210 259 320 382
#     4  12  23  39  60  97 125 168 207 255 327 381
#
# _framework density 9.8765429999999999
#
# number of rings (size 3 to 8) (size 9 to 14) (size 15 to 20)
#    0.000    1.500    3.750    1.125    5.250    1.000 
#    2.250    4.375    0.000    1.500    0.000    0.000 
#    0.000    0.000    0.000    0.000    0.000    0.000 
#
# Total GULP energy -178410.255739 kJ/mol
# GULP energy per Si atom -5575.320492 kJ/mol
# Density = 0.985406 g / cm^3
# Si number density = 9.876543 Si / 1000 Ang^3
#
#
#
# Elastic Constant Matrix: (Units=GPa)
#
#
# Indices 1 2 3 4 5 6 
#
# 1 23.2647 5.5353 4.1425 0.0000 15.2068 0.0000
# 2 5.5353 76.1608 23.5703 0.0006 7.2963 0.0000
# 3 4.1425 23.5703 121.4545 0.0008 12.2054 0.0003
# 4 0.0000 0.0006 0.0008 46.6755 0.0002 1.1446
# 5 15.2068 7.2963 12.2054 0.0002 33.5385 0.0000
# 6 0.0000 0.0000 0.0003 1.1446 0.0000 22.5015
#
#
#
# Elastic Compliance Matrix: (Units=1/GPa)
#
#
# Indices 1 2 3 4 5 6 
#
# 1 0.061475 -0.002149 0.001115 0.000000 -0.027812 0.000000
# 2 -0.002149 0.014192 -0.002562 0.000000 -0.001181 0.000000
# 3 0.001115 -0.002562 0.009017 0.000000 -0.003230 0.000000
# 4 0.000000 0.000000 0.000000 0.021451 0.000000 -0.001091
# 5 -0.027812 -0.001181 -0.003230 0.000000 0.043859 0.000000
# 6 0.000000 0.000000 0.000000 -0.001091 0.000000 0.044497
#
#
# Mechanical properties :
#
#
# Convention : Reuss Voigt Hill
#
# Bulk Modulus (GPa) = 12.90432 31.93067 22.41750
# Shear Modulus (GPa) = 21.97656 33.05189 27.51423
#
# Velocity S-wave (km/s) = 3.33913 4.09498 3.73622
# Velocity P-wave (km/s) = 4.62746 6.20955 5.47594
#
# Compressibility (1/GPa) = 0.07749343
#
# Stress axis : x y z
#
# Youngs Moduli (GPa) = 16.26669 70.46028 110.89748
#
# Poissons Ratio (x) = 0.15139 -0.12367
# Poissons Ratio (y) = 0.03495 0.28416
# Poissons Ratio (z) = -0.01814 0.18054
#
# Static dielectric constant tensor:
#      x y z
#    x 1.729160 0.000000 -0.023330 
#    y 0.000000 1.694540 0.000000 
#    z -0.023330 0.000000 1.738020 
# 
# From -- ./inp_files/274851.got.cif
#   From: 2010.05.17/outbox.ucp.g08.bks.cvg/sg15_138_cif.got.tgz:274851.got - 2010.06.11 12:40:34.
