data_PCOD9309585
_publ_section_title
;
Structure prediction by ZEFSAII (Michael W. Deem and Ramdas Pophale) SiO2 
 PCOD9309585
Probable space group: C 2/C
;
_chemical_formula_sum "Si O2"
_cell_formula_units_Z 28
_cell_length_a 15.000000
_cell_length_b 12.000000
_cell_length_c 18.000000
_cell_angle_alpha 90.000000
_cell_angle_beta 120.000000
_cell_angle_gamma 90.000000
_cell_volume 2805.922308
_symmetry_space_group_name_H-M "C 2/C"
_symmetry_group_IT_number 15
_symmetry_cell_setting 'monoclinic'
loop_
_space_group_symop_operation_xyz
x,y,z
-x,y,1/2-z
-x,-y,-z
x,-y,1/2+z
1/2+x,1/2+y,z
1/2-x,1/2+y,1/2-z
1/2-x,1/2-y,-z
1/2+x,1/2-y,1/2+z
loop_
_atom_site_type_symbol
_atom_site_label
_atom_site_fract_x
_atom_site_fract_y
_atom_site_fract_z
Si Si1 0.152712 0.425068 0.153801
Si Si2 0.784708 0.328829 0.161341
Si Si3 0.648138 0.813283 0.991064
Si Si4 0.460527 0.337403 0.462265
Si Si5 0.987426 0.046090 0.119743
Si Si6 0.443061 0.994366 0.148069
Si Si7 0.336324 0.575655 0.183829
O O1 0.199249 0.366542 0.246471
O O2 0.226107 0.530307 0.165074
O O3 0.034965 0.452907 0.130428
O O4 0.165837 0.355574 0.083107
O O5 0.662696 0.324846 0.094907
O O6 0.855692 0.406761 0.138494
O O7 0.828767 0.206432 0.169419
O O8 0.539552 0.748710 0.957939
O O9 0.618706 0.910212 0.920915
O O10 0.750000 0.750000 0.000000
O O11 0.489184 0.445796 0.425914
O O12 0.482124 0.351126 0.559680
O O13 0.884680 0.028950 0.126820
O O14 0.080304 0.054926 0.216730
O O15 0.500000 0.027676 0.250000
#
# Coordination Sequence:
#
# PCOD9309585 Si02
#       7
#     8   8   8   8   8   8   8
#     4  11  24  46  66  98 137 175 221 281 336 406
#     4  11  25  42  72  99 132 180 226 276 340 395
#     4  12  27  43  70 100 135 181 223 274 345 404
#     4  11  24  44  66  99 134 174 219 281 337 393
#     4  10  24  41  69  97 133 165 229 278 327 397
#     4  10  26  46  66  98 138 174 227 278 330 410
#     4  11  23  43  69  97 130 177 223 273 337 400
#
# _framework density 9.9788940000000004
#
# number of rings (size 3 to 8) (size 9 to 14) (size 15 to 20)
#    0.000    1.143    1.429    3.000   14.000    4.000 
#    2.571    0.000    0.000    0.000    0.000    0.000 
#    0.000    0.000    0.000    0.000    0.000    0.000 
#
# Total GULP energy -156208.203966 kJ/mol
# GULP energy per Si atom -5578.864427 kJ/mol
# Density = 0.995618 g / cm^3
# Si number density = 9.978894 Si / 1000 Ang^3
#
#
#
# Elastic Constant Matrix: (Units=GPa)
#
#
# Indices 1 2 3 4 5 6 
#
# 1 181.6872 51.4675 62.8749 0.0000 -12.1017 0.0000
# 2 51.4675 65.0896 44.9891 0.0000 5.7055 0.0000
# 3 62.8749 44.9891 85.4886 0.0000 -20.7928 0.0000
# 4 0.0000 0.0000 0.0000 23.2736 0.0000 -2.2557
# 5 -12.1017 5.7055 -20.7928 0.0000 31.3369 0.0000
# 6 0.0000 0.0000 0.0000 -2.2557 0.0000 49.5812
#
#
#
# Elastic Compliance Matrix: (Units=1/GPa)
#
#
# Indices 1 2 3 4 5 6 
#
# 1 0.007912 -0.004193 -0.003200 0.000000 0.001695 0.000000
# 2 -0.004193 0.034619 -0.020345 0.000000 -0.021421 0.000000
# 3 -0.003200 -0.020345 0.030238 0.000000 0.022532 0.000000
# 4 0.000000 0.000000 0.000000 0.043157 0.000000 0.001963
# 5 0.001695 -0.021421 0.022532 0.000000 0.051417 0.000000
# 6 0.000000 0.000000 0.000000 0.001963 0.000000 0.020258
#
#
# Mechanical properties :
#
#
# Convention : Reuss Voigt Hill
#
# Bulk Modulus (GPa) = 57.82692 72.32540 65.07616
# Shear Modulus (GPa) = 20.09315 32.36727 26.23021
#
# Velocity S-wave (km/s) = 3.17643 4.03151 3.62924
# Velocity P-wave (km/s) = 6.51847 7.61503 7.08798
#
# Compressibility (1/GPa) = 0.01729298
#
# Stress axis : x y z
#
# Youngs Moduli (GPa) = 126.38823 28.88627 33.07094
#
# Poissons Ratio (x) = 0.12112 0.10584
# Poissons Ratio (y) = 0.52993 0.67282
# Poissons Ratio (z) = 0.40448 0.58768
#
# Static dielectric constant tensor:
#      x y z
#    x 1.686910 0.000000 0.034510 
#    y 0.000000 1.769990 0.000000 
#    z 0.034510 0.000000 1.769160 
# 
# From -- ./inp_files/204523.got.cif
#   From: 2010.05.17/outbox.ucp.g08.bks.cvg/sg15_103_cif.got.tgz:204523.got - 2010.06.11 12:40:34.
