data_PCOD9309316
_publ_section_title
;
Structure prediction by ZEFSAII (Michael W. Deem and Ramdas Pophale) SiO2 
 PCOD9309316
Probable space group: C 2/C
;
_chemical_formula_sum "Si O2"
_cell_formula_units_Z 28
_cell_length_a 24.000000
_cell_length_b 15.000000
_cell_length_c 24.000000
_cell_angle_alpha 90.000000
_cell_angle_beta 160.000000
_cell_angle_gamma 90.000000
_cell_volume 2955.054038
_symmetry_space_group_name_H-M "C 2/C"
_symmetry_group_IT_number 15
_symmetry_cell_setting 'monoclinic'
loop_
_space_group_symop_operation_xyz
x,y,z
-x,y,1/2-z
-x,-y,-z
x,-y,1/2+z
1/2+x,1/2+y,z
1/2-x,1/2+y,1/2-z
1/2-x,1/2-y,-z
1/2+x,1/2-y,1/2+z
loop_
_atom_site_type_symbol
_atom_site_label
_atom_site_fract_x
_atom_site_fract_y
_atom_site_fract_z
Si Si1 0.318465 0.040265 0.327458
Si Si2 0.896582 0.376314 0.784968
Si Si3 0.140288 0.136930 0.645716
Si Si4 0.144746 0.744682 0.574935
Si Si5 0.258230 0.857468 0.883304
Si Si6 0.373587 0.653834 0.999511
Si Si7 0.542126 0.049914 0.724461
O O1 0.310784 0.079195 0.258318
O O2 0.296529 0.111236 0.355971
O O3 0.500000 0.000000 0.500000
O O4 0.188363 0.961124 0.211659
O O5 0.781138 0.291981 0.665673
O O6 0.924804 0.448871 0.764626
O O7 0.063708 0.335518 0.965034
O O8 0.285610 0.202447 0.802452
O O9 0.116211 0.133487 0.557058
O O10 0.988886 0.182699 0.533601
O O11 0.320136 0.757272 0.952488
O O12 0.057032 0.861797 0.698247
O O13 0.383400 0.915241 0.039846
O O14 0.214623 0.600596 0.873522
O O15 0.500000 0.057424 0.750000
#
# Coordination Sequence:
#
# PCOD9309316 Si02
#       7
#     8   8   8   8   8   8   8
#     4  12  21  35  64  97 140 172 205 266 329 396
#     4  11  22  43  63  98 133 169 212 267 328 390
#     4  11  20  35  57 101 135 169 204 253 328 398
#     4  10  22  35  65  94 138 167 204 257 329 407
#     4  12  25  43  69  99 132 174 220 272 330 395
#     4  12  24  42  69  96 133 178 224 266 328 391
#     4  12  28  49  69  92 130 176 228 281 324 379
#
# _framework density 9.4752919999999996
#
# number of rings (size 3 to 8) (size 9 to 14) (size 15 to 20)
#    0.000    0.571    5.714    3.429    2.000    2.286 
#    0.000    0.714    0.000    0.000    0.000    0.000 
#    0.000    0.000    0.000    0.000    0.000    0.000 
#
# Total GULP energy -156303.453737 kJ/mol
# GULP energy per Si atom -5582.266205 kJ/mol
# Density = 0.945373 g / cm^3
# Si number density = 9.475292 Si / 1000 Ang^3
#
#
#
# Elastic Constant Matrix: (Units=GPa)
#
#
# Indices 1 2 3 4 5 6 
#
# 1 75.1372 21.5484 27.1891 -0.0018 3.2625 0.0008
# 2 21.5484 85.1410 34.5264 0.0034 4.3376 0.0017
# 3 27.1891 34.5264 127.6435 0.0111 14.3510 0.0041
# 4 -0.0018 0.0034 0.0111 35.4534 0.0013 6.4738
# 5 3.2625 4.3376 14.3510 0.0013 18.7197 0.0003
# 6 0.0008 0.0017 0.0041 6.4738 0.0003 12.8554
#
#
#
# Elastic Compliance Matrix: (Units=1/GPa)
#
#
# Indices 1 2 3 4 5 6 
#
# 1 0.014995 -0.002807 -0.002423 0.000002 -0.000105 -0.000001
# 2 -0.002807 0.013720 -0.003076 0.000000 -0.000332 0.000000
# 3 -0.002423 -0.003076 0.009909 -0.000002 -0.006461 -0.000001
# 4 0.000002 0.000000 -0.000002 0.031062 0.000000 -0.015643
# 5 -0.000105 -0.000332 -0.006461 0.000000 0.058468 0.000001
# 6 -0.000001 0.000000 -0.000001 -0.015643 0.000001 0.085666
#
#
# Mechanical properties :
#
#
# Convention : Reuss Voigt Hill
#
# Bulk Modulus (GPa) = 45.42954 50.49439 47.96196
# Shear Modulus (GPa) = 21.02869 27.04954 24.03912
#
# Velocity S-wave (km/s) = 3.33477 3.78216 3.56549
# Velocity P-wave (km/s) = 6.23316 6.76580 6.50493
#
# Compressibility (1/GPa) = 0.02201211
#
# Stress axis : x y z
#
# Youngs Moduli (GPa) = 66.68699 72.88661 100.91972
#
# Poissons Ratio (x) = 0.20461 0.24452
# Poissons Ratio (y) = 0.18721 0.31041
# Poissons Ratio (z) = 0.16158 0.22419
#
# Static dielectric constant tensor:
#      x y z
#    x 1.607330 0.000000 0.007930 
#    y 0.000000 1.723920 -0.000010 
#    z 0.007930 -0.000010 1.740750 
# 
# From -- ./inp_files/282114.got.cif
#   From: 2010.05.17/outbox.ucp.g08.bks.cvg/sg15_142_cif.got.tgz:282114.got - 2010.06.11 12:40:34.
