data_PCOD9309345
_publ_section_title
;
Structure prediction by ZEFSAII (Michael W. Deem and Ramdas Pophale) SiO2 
 PCOD9309345
Probable space group: C 2/C
;
_chemical_formula_sum "Si O2"
_cell_formula_units_Z 30
_cell_length_a 12.000000
_cell_length_b 21.000000
_cell_length_c 24.000000
_cell_angle_alpha 90.000000
_cell_angle_beta 30.000000
_cell_angle_gamma 90.000000
_cell_volume 3024.000000
_symmetry_space_group_name_H-M "C 2/C"
_symmetry_group_IT_number 15
_symmetry_cell_setting 'monoclinic'
loop_
_space_group_symop_operation_xyz
x,y,z
-x,y,1/2-z
-x,-y,-z
x,-y,1/2+z
1/2+x,1/2+y,z
1/2-x,1/2+y,1/2-z
1/2-x,1/2-y,-z
1/2+x,1/2-y,1/2+z
loop_
_atom_site_type_symbol
_atom_site_label
_atom_site_fract_x
_atom_site_fract_y
_atom_site_fract_z
Si Si1 0.130928 0.938224 0.749488
Si Si2 0.100154 0.864618 0.561384
Si Si3 0.283836 0.521426 0.560999
Si Si4 0.000000 0.624154 0.750000
Si Si5 0.652023 0.196126 0.238265
Si Si6 0.906141 0.319885 0.175106
Si Si7 0.464467 0.419519 0.197692
Si Si8 0.889756 0.402853 0.930753
O O1 0.392737 0.925544 0.629357
O O2 0.000000 0.945043 0.750000
O O3 0.015119 0.877949 0.829654
O O4 0.096821 0.007740 0.791992
O O5 0.167681 0.934974 0.513057
O O6 0.331601 0.824713 0.457987
O O7 0.879835 0.842432 0.622235
O O8 0.500000 0.500000 0.500000
O O9 0.158427 0.458468 0.593950
O O10 0.170352 0.574133 0.649476
O O11 0.912611 0.668794 0.738558
O O12 0.500000 0.210971 0.250000
O O13 0.770627 0.257423 0.215080
O O14 0.489064 0.157312 0.351858
O O15 0.755216 0.377783 0.218354
O O16 0.500000 0.415217 0.250000
O O17 0.675416 0.397947 0.066077
#
# Coordination Sequence:
#
# PCOD9309345 Si02
#       8
#     8   8   8   4   8   8   8   8
#     4  10  22  38  63  96 136 174 222 281 351 417
#     4  10  22  41  67  99 130 178 226 285 347 421
#     4  11  21  36  66  97 135 166 216 286 361 409
#     4  10  24  38  66  96 132 180 222 292 332 416
#     4  11  25  46  69  99 138 184 238 290 350 424
#     4  11  24  46  65  98 138 186 240 278 351 419
#     4  11  24  40  67  98 141 184 227 286 354 418
#     4  11  24  41  64 105 136 179 236 289 356 428
#
# _framework density 9.9206350000000008
#
# number of rings (size 3 to 8) (size 9 to 14) (size 15 to 20)
#    0.000    1.333    1.333    4.000    6.533    2.667 
#    4.800    2.667    0.000    0.000    0.000    0.000 
#    0.000    0.000    0.000    0.000    0.000    0.000 
#
# Total GULP energy -167033.300296 kJ/mol
# GULP energy per Si atom -5567.776677 kJ/mol
# Density = 0.989806 g / cm^3
# Si number density = 9.920635 Si / 1000 Ang^3
#
#
#
# Elastic Constant Matrix: (Units=GPa)
#
#
# Indices 1 2 3 4 5 6 
#
# 1 91.5049 40.2412 26.2869 0.2534 -27.9415 -0.0860
# 2 40.2412 92.1453 24.0148 0.0273 -6.8629 -0.0436
# 3 26.2869 24.0148 121.5066 0.0713 -16.2961 -0.0811
# 4 0.2534 0.0273 0.0713 7.8279 0.0008 -4.4988
# 5 -27.9415 -6.8629 -16.2961 0.0008 30.8417 0.0009
# 6 -0.0860 -0.0436 -0.0811 -4.4988 0.0009 39.2386
#
#
#
# Elastic Compliance Matrix: (Units=1/GPa)
#
#
# Indices 1 2 3 4 5 6 
#
# 1 0.018772 -0.006897 -0.000670 -0.000600 0.015118 -0.000037
# 2 -0.006897 0.014037 -0.001831 0.000203 -0.004093 0.000020
# 3 -0.000670 -0.001831 0.009257 -0.000051 0.003877 0.000010
# 4 -0.000600 0.000203 -0.000051 0.136779 -0.000530 0.015681
# 5 0.015118 -0.004093 0.003877 -0.000530 0.047258 -0.000025
# 6 -0.000037 0.000020 0.000010 0.015681 -0.000025 0.027283
#
#
# Mechanical properties :
#
#
# Convention : Reuss Voigt Hill
#
# Bulk Modulus (GPa) = 42.97581 54.02695 48.50138
# Shear Modulus (GPa) = 17.86104 29.88923 23.87513
#
# Velocity S-wave (km/s) = 3.00358 3.88547 3.47263
# Velocity P-wave (km/s) = 5.80823 6.88606 6.36998
#
# Compressibility (1/GPa) = 0.02326890
#
# Stress axis : x y z
#
# Youngs Moduli (GPa) = 53.27056 71.24071 108.02829
#
# Poissons Ratio (x) = 0.49137 0.07239
# Poissons Ratio (y) = 0.36742 0.19781
# Poissons Ratio (z) = 0.03570 0.13045
#
# Static dielectric constant tensor:
#      x y z
#    x 1.748780 -0.000040 0.097170 
#    y -0.000040 1.738930 -0.000030 
#    z 0.097170 -0.000030 1.629120 
# 
# From -- ./inp_files/119945.got.cif
#   From: 2010.05.17/outbox.ucp.g08.bks.cvg/sg15_60_cif.got.tgz:119945.got - 2010.06.11 12:40:34.
