data_PCOD9309409
_publ_section_title
;
Structure prediction by ZEFSAII (Michael W. Deem and Ramdas Pophale) SiO2 
 PCOD9309409
Probable space group: C 2/C
;
_chemical_formula_sum "Si O2"
_cell_formula_units_Z 28
_cell_length_a 15.000000
_cell_length_b 12.000000
_cell_length_c 18.000000
_cell_angle_alpha 90.000000
_cell_angle_beta 120.000000
_cell_angle_gamma 90.000000
_cell_volume 2805.922308
_symmetry_space_group_name_H-M "C 2/C"
_symmetry_group_IT_number 15
_symmetry_cell_setting 'monoclinic'
loop_
_space_group_symop_operation_xyz
x,y,z
-x,y,1/2-z
-x,-y,-z
x,-y,1/2+z
1/2+x,1/2+y,z
1/2-x,1/2+y,1/2-z
1/2-x,1/2-y,-z
1/2+x,1/2-y,1/2+z
loop_
_atom_site_type_symbol
_atom_site_label
_atom_site_fract_x
_atom_site_fract_y
_atom_site_fract_z
Si Si1 0.471030 0.344854 0.913963
Si Si2 0.876933 0.780028 0.325084
Si Si3 0.921481 0.074950 0.558612
Si Si4 0.167127 0.655219 0.666885
Si Si5 0.183975 0.447600 0.014433
Si Si6 0.169944 0.709410 0.030105
Si Si7 0.475048 0.955958 0.826593
O O1 0.534412 0.450072 0.908490
O O2 0.379159 0.278630 0.835607
O O3 0.426930 0.393476 0.973311
O O4 0.555644 0.247168 0.958589
O O5 0.787010 0.841330 0.241258
O O6 0.827224 0.766778 0.387299
O O7 0.908232 0.656500 0.310996
O O8 0.986797 0.845948 0.370882
O O9 0.800661 0.080108 0.533062
O O10 0.162726 0.630924 0.576520
O O11 0.095598 0.559630 0.674537
O O12 0.085003 0.442235 0.916949
O O13 0.182907 0.576604 0.040867
O O14 0.250000 0.750000 0.000000
O O15 0.500000 0.970339 0.750000
#
# Coordination Sequence:
#
# PCOD9309409 Si02
#       7
#     8   8   8   8   8   8   8
#     4  10  22  41  67 101 134 177 232 282 351 418
#     4  11  28  46  67 105 147 179 241 291 354 425
#     4  10  24  41  70 103 136 183 227 290 349 424
#     4  12  27  45  72 100 142 188 231 298 350 424
#     4  12  24  46  75 100 140 187 241 285 360 418
#     4  11  21  43  73 101 136 183 234 294 350 420
#     4  12  29  47  71 106 142 187 243 295 356 428
#
# _framework density 9.9788940000000004
#
# number of rings (size 3 to 8) (size 9 to 14) (size 15 to 20)
#    0.000    0.857    4.286    2.143    8.000    1.143 
#    0.000    0.000    0.000    0.000    0.000    0.000 
#    0.000    0.000    0.000    0.000    0.000    0.000 
#
# Total GULP energy -156305.066768 kJ/mol
# GULP energy per Si atom -5582.323813 kJ/mol
# Density = 0.995618 g / cm^3
# Si number density = 9.978894 Si / 1000 Ang^3
#
#
#
# Elastic Constant Matrix: (Units=GPa)
#
#
# Indices 1 2 3 4 5 6 
#
# 1 162.3817 38.1830 47.9197 0.0000 7.0759 0.0000
# 2 38.1830 105.8059 17.9300 0.0000 8.5676 0.0000
# 3 47.9197 17.9300 108.0782 0.0000 15.5297 0.0000
# 4 0.0000 0.0000 0.0000 24.2425 0.0000 6.8403
# 5 7.0759 8.5676 15.5297 0.0000 37.9943 0.0000
# 6 0.0000 0.0000 0.0000 6.8403 0.0000 42.9113
#
#
#
# Elastic Compliance Matrix: (Units=1/GPa)
#
#
# Indices 1 2 3 4 5 6 
#
# 1 0.007566 -0.002244 -0.003030 0.000000 0.000336 0.000000
# 2 -0.002244 0.010486 -0.000494 0.000000 -0.001745 0.000000
# 3 -0.003030 -0.000494 0.011241 0.000000 -0.003919 0.000000
# 4 0.000000 0.000000 0.000000 0.043193 0.000000 -0.006885
# 5 0.000336 -0.001745 -0.003919 0.000000 0.028252 0.000000
# 6 0.000000 0.000000 0.000000 -0.006885 0.000000 0.024401
#
#
# Mechanical properties :
#
#
# Convention : Reuss Voigt Hill
#
# Bulk Modulus (GPa) = 56.31819 64.92570 60.62194
# Shear Modulus (GPa) = 35.06438 39.17850 37.12144
#
# Velocity S-wave (km/s) = 4.19612 4.43546 4.31745
# Velocity P-wave (km/s) = 7.19420 7.67028 7.43605
#
# Compressibility (1/GPa) = 0.01775625
#
# Stress axis : x y z
#
# Youngs Moduli (GPa) = 132.17648 95.36483 88.95809
#
# Poissons Ratio (x) = 0.21399 0.26958
# Poissons Ratio (y) = 0.29659 0.04395
# Poissons Ratio (z) = 0.40055 0.04711
#
# Static dielectric constant tensor:
#      x y z
#    x 1.692220 0.000000 0.001730 
#    y 0.000000 1.728100 0.000000 
#    z 0.001730 0.000000 1.735960 
# 
# From -- ./inp_files/204530.got.cif
#   From: 2010.05.17/outbox.ucp.g08.bks.cvg/sg15_103_cif.got.tgz:204530.got - 2010.06.11 12:40:34.
