data_PCOD9309225
_publ_section_title
;
Structure prediction by ZEFSAII (Michael W. Deem and Ramdas Pophale) SiO2 
 PCOD9309225
Probable space group: C 2/C
;
_chemical_formula_sum "Si O2"
_cell_formula_units_Z 22
_cell_length_a 18.000000
_cell_length_b 9.000000
_cell_length_c 15.000000
_cell_angle_alpha 90.000000
_cell_angle_beta 60.000000
_cell_angle_gamma 90.000000
_cell_volume 2104.441731
_symmetry_space_group_name_H-M "C 2/C"
_symmetry_group_IT_number 15
_symmetry_cell_setting 'monoclinic'
loop_
_space_group_symop_operation_xyz
x,y,z
-x,y,1/2-z
-x,-y,-z
x,-y,1/2+z
1/2+x,1/2+y,z
1/2-x,1/2+y,1/2-z
1/2-x,1/2-y,-z
1/2+x,1/2-y,1/2+z
loop_
_atom_site_type_symbol
_atom_site_label
_atom_site_fract_x
_atom_site_fract_y
_atom_site_fract_z
Si Si1 0.949822 0.448819 0.444212
Si Si2 0.859338 0.116148 0.747183
Si Si3 0.000000 0.339434 0.750000
Si Si4 0.772773 0.339907 0.340556
Si Si5 0.053087 0.797922 0.809143
Si Si6 0.747608 0.035213 0.459047
O O1 0.849442 0.469519 0.515804
O O2 0.000000 0.500000 0.500000
O O3 0.967738 0.549230 0.346466
O O4 0.980309 0.278280 0.413449
O O5 0.929702 0.235658 0.740160
O O6 0.796293 0.157472 0.700142
O O7 0.906180 0.958922 0.693019
O O8 0.803058 0.083535 0.870498
O O9 0.869931 0.326465 0.242806
O O10 0.777106 0.191448 0.398664
O O11 0.752369 0.460318 0.431969
O O12 0.000000 0.818102 0.750000
#
# Coordination Sequence:
#
# PCOD9309225 Si02
#       6
#     8   8   4   8   8   8
#     4  12  24  41  68  96 130 180 220 268 338 401
#     4  11  25  42  69 100 133 173 224 279 333 386
#     4  12  26  44  64  98 138 164 230 288 322 398
#     4  10  21  40  65  97 128 174 218 269 327 399
#     4  11  21  44  69  92 139 179 213 268 337 390
#     4  10  22  40  65  91 132 173 217 266 332 397
#
# _framework density 10.454079
#
# number of rings (size 3 to 8) (size 9 to 14) (size 15 to 20)
#    0.000    1.091    3.636    2.182    0.000    6.545 
#    0.000    2.727    0.000    0.000    0.000    0.000 
#    0.000    0.000    0.000    0.000    0.000    0.000 
#
# Total GULP energy -122658.484406 kJ/mol
# GULP energy per Si atom -5575.385655 kJ/mol
# Density = 1.043028 g / cm^3
# Si number density = 10.454079 Si / 1000 Ang^3
#
#
#
# Elastic Constant Matrix: (Units=GPa)
#
#
# Indices 1 2 3 4 5 6 
#
# 1 113.7053 -14.1802 -12.0833 0.0000 13.1299 0.0000
# 2 -14.1802 27.8325 -12.5547 0.0000 -12.2167 0.0000
# 3 -12.0833 -12.5547 23.6224 0.0000 1.2628 0.0000
# 4 0.0000 0.0000 0.0000 0.9001 0.0000 1.0356
# 5 13.1299 -12.2167 1.2628 0.0000 50.3637 0.0000
# 6 0.0000 0.0000 0.0000 1.0356 0.0000 38.8138
#
#
#
# Elastic Compliance Matrix: (Units=1/GPa)
#
#
# Indices 1 2 3 4 5 6 
#
# 1 0.011452 0.010790 0.011628 0.000000 -0.000660 0.000000
# 2 0.010790 0.064192 0.039006 0.000000 0.011780 0.000000
# 3 0.011628 0.039006 0.068760 0.000000 0.004706 0.000000
# 4 0.000000 0.000000 0.000000 1.146197 0.000000 -0.030583
# 5 -0.000660 0.011780 0.004706 0.000000 0.022767 0.000000
# 6 0.000000 0.000000 0.000000 -0.030583 0.000000 0.026580
#
#
# Mechanical properties :
#
#
# Convention : Reuss Voigt Hill
#
# Bulk Modulus (GPa) = 3.74177 9.72487 6.73332
# Shear Modulus (GPa) = 3.82794 31.61409 17.72102
#
# Velocity S-wave (km/s) = 1.35455 3.89272 2.91445
# Velocity P-wave (km/s) = 2.05911 4.98655 3.81482
#
# Compressibility (1/GPa) = 0.26725350
#
# Stress axis : x y z
#
# Youngs Moduli (GPa) = 87.31949 15.57820 14.54336
#
# Poissons Ratio (x) = -0.16809 -0.16911
# Poissons Ratio (y) = -0.94220 -0.56728
# Poissons Ratio (z) = -1.01535 -0.60765
#
# Static dielectric constant tensor:
#      x y z
#    x 1.744970 0.000000 -0.087100 
#    y 0.000000 1.808120 0.000000 
#    z -0.087100 0.000000 2.133510 
# 
# From -- ./inp_files/159667.got.cif
#   From: 2010.05.17/outbox.ucp.g08.bks.cvg/sg15_80_cif.got.tgz:159667.got - 2010.06.11 12:40:34.
