data_PCOD9309033
_publ_section_title
;
Structure prediction by ZEFSAII (Michael W. Deem and Ramdas Pophale) SiO2 
 PCOD9309033
Probable space group: C 2/C
;
_chemical_formula_sum "Si O2"
_cell_formula_units_Z 20
_cell_length_a 21.000000
_cell_length_b 12.000000
_cell_length_c 12.000000
_cell_angle_alpha 90.000000
_cell_angle_beta 140.000000
_cell_angle_gamma 90.000000
_cell_volume 1943.789732
_symmetry_space_group_name_H-M "C 2/C"
_symmetry_group_IT_number 15
_symmetry_cell_setting 'monoclinic'
loop_
_space_group_symop_operation_xyz
x,y,z
-x,y,1/2-z
-x,-y,-z
x,-y,1/2+z
1/2+x,1/2+y,z
1/2-x,1/2+y,1/2-z
1/2-x,1/2-y,-z
1/2+x,1/2-y,1/2+z
loop_
_atom_site_type_symbol
_atom_site_label
_atom_site_fract_x
_atom_site_fract_y
_atom_site_fract_z
Si Si1 0.718574 0.720210 0.637543
Si Si2 0.500000 0.928577 0.750000
Si Si3 0.500000 0.471693 0.250000
Si Si4 0.633021 0.873697 0.336745
Si Si5 0.001155 0.833571 0.916930
Si Si6 0.600289 0.283771 0.490110
O O1 0.690419 0.823834 0.520013
O O2 0.786622 0.635069 0.655796
O O3 0.618051 0.671935 0.552196
O O4 0.787780 0.766974 0.825926
O O5 0.441293 0.838833 0.595593
O O6 0.424059 0.011346 0.713367
O O7 0.530261 0.556612 0.192331
O O8 0.587993 0.382650 0.385654
O O9 0.551062 0.777877 0.201372
O O10 0.964097 0.831053 0.993047
#
# Coordination Sequence:
#
# PCOD9309033 Si02
#       6
#     8   4   4   8   8   8
#     4  10  20  39  62  95 114 162 215 239 304 374
#     4  11  21  46  58  92 139 155 198 264 320 353
#     4  11  21  44  60  86 127 163 204 262 310 355
#     4  10  20  39  67  89 124 162 200 258 307 364
#     4  11  20  43  64  88 123 165 209 254 307 365
#     4  10  26  39  62  93 126 164 204 258 311 367
#
# _framework density 10.289179000000001
#
# number of rings (size 3 to 8) (size 9 to 14) (size 15 to 20)
#    0.000    1.600    4.000    0.600    0.000    4.800 
#    7.200    2.000    0.000    0.000    0.000    0.000 
#    0.000    0.000    0.000    0.000    0.000    0.000 
#
# Total GULP energy -111552.629528 kJ/mol
# GULP energy per Si atom -5577.631476 kJ/mol
# Density = 1.026576 g / cm^3
# Si number density = 10.289179 Si / 1000 Ang^3
#
#
#
# Elastic Constant Matrix: (Units=GPa)
#
#
# Indices 1 2 3 4 5 6 
#
# 1 44.5305 54.4115 43.3091 0.0000 31.5996 0.0000
# 2 54.4115 160.0767 46.5244 0.0000 0.5432 0.0000
# 3 43.3091 46.5244 110.2066 0.0000 11.0205 0.0000
# 4 0.0000 0.0000 0.0000 13.3041 0.0000 -1.0978
# 5 31.5996 0.5432 11.0205 0.0000 26.2651 0.0000
# 6 0.0000 0.0000 0.0000 -1.0978 0.0000 15.4052
#
#
#
# Elastic Compliance Matrix: (Units=1/GPa)
#
#
# Indices 1 2 3 4 5 6 
#
# 1 -0.072344 0.021005 0.011380 0.000000 0.081828 0.000000
# 2 0.021005 0.001056 -0.006441 0.000000 -0.022591 0.000000
# 3 0.011380 -0.006441 0.009057 0.000000 -0.017358 0.000000
# 4 0.000000 0.000000 0.000000 0.075609 0.000000 0.005388
# 5 0.081828 -0.022591 -0.017358 0.000000 -0.052624 0.000000
# 6 0.000000 0.000000 0.000000 0.005388 0.000000 0.065297
#
#
# Mechanical properties :
#
#
# Convention : Reuss Voigt Hill
#
# Bulk Modulus (GPa) = -96.67253 67.03375 -14.81939
# Shear Modulus (GPa) = -170.73507 22.36613 -74.18447
#
# Velocity S-wave (km/s) = -9.11857 3.30036 -6.01066
# Velocity P-wave (km/s) = 12.56759 6.86795 7.44230
#
# Compressibility (1/GPa) = -0.01034420
#
# Stress axis : x y z
#
# Youngs Moduli (GPa) = -13.82277 947.11208 110.41277
#
# Poissons Ratio (x) = -19.89454 -1.25646
# Poissons Ratio (y) = 0.29035 0.71122
# Poissons Ratio (z) = 0.15730 6.10077
#
# Static dielectric constant tensor:
#      x y z
#    x 1.746010 0.000000 -0.061530 
#    y 0.000000 1.687560 0.000000 
#    z -0.061530 0.000000 1.853730 
# 
# From -- ./inp_files/103960.got.cif
#   From: 2010.05.17/outbox.ucp.g08.bks.cvg/sg15_52_cif.got.tgz:103960.got - 2010.06.11 12:40:34.
