data_PCOD9309797
_publ_section_title
;
Structure prediction by ZEFSAII (Michael W. Deem and Ramdas Pophale) SiO2 
 PCOD9309797
Probable space group: C 2/C
;
_chemical_formula_sum "Si O2"
_cell_formula_units_Z 20
_cell_length_a 9.000000
_cell_length_b 15.000000
_cell_length_c 30.000000
_cell_angle_alpha 90.000000
_cell_angle_beta 30.000000
_cell_angle_gamma 90.000000
_cell_volume 2025.000000
_symmetry_space_group_name_H-M "C 2/C"
_symmetry_group_IT_number 15
_symmetry_cell_setting 'monoclinic'
loop_
_space_group_symop_operation_xyz
x,y,z
-x,y,1/2-z
-x,-y,-z
x,-y,1/2+z
1/2+x,1/2+y,z
1/2-x,1/2+y,1/2-z
1/2-x,1/2-y,-z
1/2+x,1/2-y,1/2+z
loop_
_atom_site_type_symbol
_atom_site_label
_atom_site_fract_x
_atom_site_fract_y
_atom_site_fract_z
Si Si1 0.302655 0.214933 0.036121
Si Si2 0.196861 0.927742 0.802470
Si Si3 0.443365 0.599628 0.989673
Si Si4 0.068781 0.883982 0.112544
Si Si5 0.166633 0.685255 0.318728
O O1 0.359313 0.311352 0.047105
O O2 0.031385 0.146802 0.117973
O O3 0.250000 0.250000 0.000000
O O4 0.594743 0.151883 0.966269
O O5 0.500000 0.950263 0.750000
O O6 0.325624 0.872848 0.727610
O O7 0.028744 0.023174 0.837934
O O8 0.479399 0.590954 0.927091
O O9 0.500000 0.500000 0.000000
O O10 0.106607 0.638518 0.083791
O O11 0.891123 0.792052 0.170168
O O12 0.500000 0.674959 0.250000
#
# Coordination Sequence:
#
# PCOD9309797 Si02
#       5
#     8   8   8   8   8
#     4  11  23  41  65  94 129 169 213 262 318 389
#     4  12  24  40  63  95 128 163 211 269 321 373
#     4  11  23  43  67  92 125 173 217 255 319 399
#     4  11  23  44  65  88 128 175 210 256 322 394
#     4  11  23  40  63  93 122 160 212 268 319 375
#
# _framework density 9.8765429999999999
#
# number of rings (size 3 to 8) (size 9 to 14) (size 15 to 20)
#    0.000    0.800    0.000   10.800    0.000    3.200 
#    0.000    2.000    0.000    0.000    0.000    0.000 
#    0.000    0.000    0.000    0.000    0.000    0.000 
#
# Total GULP energy -111409.014771 kJ/mol
# GULP energy per Si atom -5570.450739 kJ/mol
# Density = 0.985406 g / cm^3
# Si number density = 9.876543 Si / 1000 Ang^3
#
#
#
# Elastic Constant Matrix: (Units=GPa)
#
#
# Indices 1 2 3 4 5 6 
#
# 1 66.9941 19.0904 14.0351 0.0209 -6.1198 0.0056
# 2 19.0904 185.2798 38.7153 0.0029 0.9284 0.0036
# 3 14.0351 38.7153 80.1198 0.0619 -11.7473 -0.0348
# 4 0.0209 0.0029 0.0619 53.3161 -0.0179 2.8216
# 5 -6.1198 0.9284 -11.7473 -0.0179 43.3812 0.0077
# 6 0.0056 0.0036 -0.0348 2.8216 0.0077 42.6478
#
#
#
# Elastic Compliance Matrix: (Units=1/GPa)
#
#
# Indices 1 2 3 4 5 6 
#
# 1 0.015841 -0.001240 -0.001921 -0.000003 0.001741 -0.000004
# 2 -0.001240 0.006138 -0.002909 0.000003 -0.001094 -0.000003
# 3 -0.001921 -0.002909 0.014780 -0.000016 0.003794 0.000013
# 4 -0.000003 0.000003 -0.000016 0.018822 0.000003 -0.001245
# 5 0.001741 -0.001094 0.003794 0.000003 0.024348 -0.000002
# 6 -0.000004 -0.000003 0.000013 -0.001245 -0.000002 0.023530
#
#
# Mechanical properties :
#
#
# Convention : Reuss Voigt Hill
#
# Bulk Modulus (GPa) = 40.61725 52.89725 46.75725
# Shear Modulus (GPa) = 40.38578 45.23923 42.81250
#
# Velocity S-wave (km/s) = 4.52655 4.79083 4.66057
# Velocity P-wave (km/s) = 6.92291 7.57893 7.25833
#
# Compressibility (1/GPa) = 0.02462008
#
# Stress axis : x y z
#
# Youngs Moduli (GPa) = 63.12589 162.90910 67.65938
#
# Poissons Ratio (x) = 0.20194 0.12996
# Poissons Ratio (y) = 0.07825 0.19685
# Poissons Ratio (z) = 0.12125 0.47398
#
# Static dielectric constant tensor:
#      x y z
#    x 1.681960 0.000000 0.071460 
#    y 0.000000 1.688540 -0.000010 
#    z 0.071460 -0.000010 1.745960 
# 
# From -- ./inp_files/189032.got.cif
#   From: 2010.05.17/outbox.ucp.g08.bks.cvg/sg15_95_cif.got.tgz:189032.got - 2010.06.11 12:40:34.
