data_PCOD9309712
_publ_section_title
;
Structure prediction by ZEFSAII (Michael W. Deem and Ramdas Pophale) SiO2 
 PCOD9309712
Probable space group: C 2/C
;
_chemical_formula_sum "Si O2"
_cell_formula_units_Z 32
_cell_length_a 24.000000
_cell_length_b 18.000000
_cell_length_c 21.000000
_cell_angle_alpha 90.000000
_cell_angle_beta 20.000000
_cell_angle_gamma 90.000000
_cell_volume 3102.806740
_symmetry_space_group_name_H-M "C 2/C"
_symmetry_group_IT_number 15
_symmetry_cell_setting 'monoclinic'
loop_
_space_group_symop_operation_xyz
x,y,z
-x,y,1/2-z
-x,-y,-z
x,-y,1/2+z
1/2+x,1/2+y,z
1/2-x,1/2+y,1/2-z
1/2-x,1/2-y,-z
1/2+x,1/2-y,1/2+z
loop_
_atom_site_type_symbol
_atom_site_label
_atom_site_fract_x
_atom_site_fract_y
_atom_site_fract_z
Si Si1 0.505791 0.145000 0.478210
Si Si2 0.279081 0.711847 0.788858
Si Si3 0.864486 0.088723 0.452777
Si Si4 0.034041 0.915488 0.990112
Si Si5 0.865956 0.834980 0.745203
Si Si6 0.164760 0.205703 0.535909
Si Si7 0.023465 0.334531 0.348307
Si Si8 0.217763 0.564387 0.161702
O O1 0.629122 0.213851 0.332892
O O2 0.336285 0.182395 0.642337
O O3 0.494775 0.123311 0.563949
O O4 0.547676 0.079996 0.382051
O O5 0.398084 0.640092 0.667876
O O6 0.173500 0.739408 0.964060
O O7 0.693000 0.137302 0.631134
O O8 0.000000 0.083917 0.250000
O O9 0.991613 0.119161 0.369779
O O10 0.779356 0.010366 0.561887
O O11 0.111580 0.867098 0.849845
O O12 0.160250 0.926386 0.910679
O O13 0.000000 0.000000 0.000000
O O14 0.929365 0.750661 0.685858
O O15 0.666762 0.838767 0.975096
O O16 0.250000 0.250000 0.500000
O O17 0.257502 0.132050 0.413794
O O18 0.000000 0.183768 0.750000
#
# Coordination Sequence:
#
# PCOD9309712 Si02
#       8
#     8   8   8   8   8   8   8   8
#     4  11  21  38  69 103 137 173 229 301 363 425
#     4  11  22  37  64 100 135 183 239 293 355 434
#     4  12  29  49  71  99 146 197 239 297 362 432
#     4  12  23  40  69 103 141 179 231 300 387 431
#     4  12  24  46  73 110 137 184 235 308 369 433
#     4  11  22  40  65  96 137 194 241 284 342 435
#     4  12  24  44  77 106 140 179 244 303 367 438
#     4  11  24  43  68 103 144 186 232 297 364 433
#
# _framework density 10.313243
#
# number of rings (size 3 to 8) (size 9 to 14) (size 15 to 20)
#    0.000    0.500    5.000    5.625    0.000    2.500 
#    0.000    0.000    2.750    0.000    0.000    0.000 
#    0.000    0.000    0.000    0.000    0.000    0.000 
#
# Total GULP energy -178173.699724 kJ/mol
# GULP energy per Si atom -5567.928116 kJ/mol
# Density = 1.028977 g / cm^3
# Si number density = 10.313243 Si / 1000 Ang^3
#
#
#
# Elastic Constant Matrix: (Units=GPa)
#
#
# Indices 1 2 3 4 5 6 
#
# 1 38.1883 7.3394 -15.7335 -0.0040 0.6061 -0.0001
# 2 7.3394 120.5418 8.4718 -0.0041 10.6911 -0.0007
# 3 -15.7335 8.4718 82.0629 -0.0109 9.2629 0.0010
# 4 -0.0040 -0.0041 -0.0109 26.9451 0.0008 1.7697
# 5 0.6061 10.6911 9.2629 0.0008 40.0338 0.0001
# 6 -0.0001 -0.0007 0.0010 1.7697 0.0001 25.3385
#
#
#
# Elastic Compliance Matrix: (Units=1/GPa)
#
#
# Indices 1 2 3 4 5 6 
#
# 1 0.029045 -0.002073 0.005925 0.000007 -0.001257 -0.000001
# 2 -0.002073 0.008678 -0.001063 0.000001 -0.002040 0.000000
# 3 0.005925 -0.001063 0.013769 0.000006 -0.002992 -0.000001
# 4 0.000007 0.000001 0.000006 0.037284 -0.000002 -0.002604
# 5 -0.001257 -0.002040 -0.002992 -0.000002 0.026235 0.000000
# 6 -0.000001 0.000000 -0.000001 -0.002604 0.000000 0.039647
#
#
# Mechanical properties :
#
#
# Convention : Reuss Voigt Hill
#
# Bulk Modulus (GPa) = 17.52277 26.77205 22.14741
# Shear Modulus (GPa) = 29.74333 34.51114 32.12724
#
# Velocity S-wave (km/s) = 3.80148 4.09485 3.95089
# Velocity P-wave (km/s) = 5.27087 5.94682 5.61902
#
# Compressibility (1/GPa) = 0.05706859
#
# Stress axis : x y z
#
# Youngs Moduli (GPa) = 34.42884 115.23689 72.62629
#
# Poissons Ratio (x) = 0.23893 -0.43029
# Poissons Ratio (y) = 0.07138 0.07721
# Poissons Ratio (z) = -0.20398 0.12251
#
# Static dielectric constant tensor:
#      x y z
#    x 1.785960 -0.000010 -0.001920 
#    y -0.000010 1.764060 0.000000 
#    z -0.001920 0.000000 1.761560 
# 
# From -- ./inp_files/255991.got.cif
#   From: 2010.05.17/outbox.ucp.g08.bks.cvg/sg15_128_cif.got.tgz:255991.got - 2010.06.11 12:40:34.
