data_PCOD9309469
_publ_section_title
;
Structure prediction by ZEFSAII (Michael W. Deem and Ramdas Pophale) SiO2 
 PCOD9309469
Probable space group: C 2/C
;
_chemical_formula_sum "Si O2"
_cell_formula_units_Z 20
_cell_length_a 12.000000
_cell_length_b 9.000000
_cell_length_c 18.000000
_cell_angle_alpha 90.000000
_cell_angle_beta 100.000000
_cell_angle_gamma 90.000000
_cell_volume 1914.466272
_symmetry_space_group_name_H-M "C 2/C"
_symmetry_group_IT_number 15
_symmetry_cell_setting 'monoclinic'
loop_
_space_group_symop_operation_xyz
x,y,z
-x,y,1/2-z
-x,-y,-z
x,-y,1/2+z
1/2+x,1/2+y,z
1/2-x,1/2+y,1/2-z
1/2-x,1/2-y,-z
1/2+x,1/2-y,1/2+z
loop_
_atom_site_type_symbol
_atom_site_label
_atom_site_fract_x
_atom_site_fract_y
_atom_site_fract_z
Si Si1 0.901447 0.202928 0.451084
Si Si2 0.277155 0.458807 0.334502
Si Si3 0.690497 0.596649 0.904852
Si Si4 0.628673 0.794136 0.755997
Si Si5 0.844349 0.239989 0.074861
O O1 0.818637 0.346479 0.435665
O O2 0.884491 0.140425 0.532061
O O3 0.029233 0.241089 0.443623
O O4 0.853136 0.071931 0.391878
O O5 0.347868 0.322931 0.307381
O O6 0.212778 0.564758 0.267955
O O7 0.182593 0.377163 0.373959
O O8 0.652717 0.695170 0.831545
O O9 0.675517 0.421689 0.890512
O O10 0.500000 0.845584 0.750000
O O11 0.750000 0.250000 0.000000
#
# Coordination Sequence:
#
# PCOD9309469 Si02
#       5
#     8   8   8   8   8
#     4  10  23  44  66  96 135 163 221 273 315 385
#     4  11  25  44  63  99 126 174 221 261 330 384
#     4  10  22  44  65  98 131 172 213 271 325 378
#     4  11  25  43  68  91 134 174 215 267 325 389
#     4  12  24  38  68  98 128 169 213 269 326 382
#
# _framework density 10.446776
#
# number of rings (size 3 to 8) (size 9 to 14) (size 15 to 20)
#    0.000    1.200    2.000    3.000    2.800    5.600 
#    0.000    1.000    0.000    0.000    0.000    0.000 
#    0.000    0.000    0.000    0.000    0.000    0.000 
#
# Total GULP energy -111863.869867 kJ/mol
# GULP energy per Si atom -5593.193493 kJ/mol
# Density = 1.042300 g / cm^3
# Si number density = 10.446776 Si / 1000 Ang^3
#
#
#
# Elastic Constant Matrix: (Units=GPa)
#
#
# Indices 1 2 3 4 5 6 
#
# 1 163.7712 34.9958 27.0117 0.0000 -19.4019 0.0000
# 2 34.9958 69.8316 -3.6643 0.0000 -7.9041 0.0000
# 3 27.0117 -3.6643 47.7289 0.0000 -15.7120 0.0000
# 4 0.0000 0.0000 0.0000 30.3169 0.0000 -6.6295
# 5 -19.4019 -7.9041 -15.7120 0.0000 22.6366 0.0000
# 6 0.0000 0.0000 0.0000 -6.6295 0.0000 29.5087
#
#
#
# Elastic Compliance Matrix: (Units=1/GPa)
#
#
# Indices 1 2 3 4 5 6 
#
# 1 0.007889 -0.003846 -0.003857 0.000000 0.002741 0.000000
# 2 -0.003846 0.017307 0.005715 0.000000 0.006714 0.000000
# 3 -0.003857 0.005715 0.029996 0.000000 0.019509 0.000000
# 4 0.000000 0.000000 0.000000 0.034689 0.000000 0.007793
# 5 0.002741 0.006714 0.019509 0.000000 0.062412 0.000000
# 6 0.000000 0.000000 0.000000 0.007793 0.000000 0.035639
#
#
# Mechanical properties :
#
#
# Convention : Reuss Voigt Hill
#
# Bulk Modulus (GPa) = 19.52492 44.22424 31.87458
# Shear Modulus (GPa) = 23.92580 31.35833 27.64207
#
# Velocity S-wave (km/s) = 3.38765 3.87830 3.64125
# Velocity P-wave (km/s) = 4.96656 6.42397 5.74169
#
# Compressibility (1/GPa) = 0.05121659
#
# Stress axis : x y z
#
# Youngs Moduli (GPa) = 126.76167 57.77944 33.33788
#
# Poissons Ratio (x) = 0.22219 0.12860
# Poissons Ratio (y) = 0.48747 -0.19054
# Poissons Ratio (z) = 0.48897 -0.33023
#
# Static dielectric constant tensor:
#      x y z
#    x 1.739730 0.000000 0.010500 
#    y 0.000000 1.726840 0.000000 
#    z 0.010500 0.000000 1.780600 
# 
# From -- ./inp_files/195064.got.cif
#   From: 2010.05.17/outbox.ucp.g08.bks.cvg/sg15_98_cif.got.tgz:195064.got - 2010.06.11 12:40:34.
