data_PCOD9309310
_publ_section_title
;
Structure prediction by ZEFSAII (Michael W. Deem and Ramdas Pophale) SiO2 
 PCOD9309310
Probable space group: C 2/C
;
_chemical_formula_sum "Si O2"
_cell_formula_units_Z 28
_cell_length_a 21.000000
_cell_length_b 21.000000
_cell_length_c 18.000000
_cell_angle_alpha 90.000000
_cell_angle_beta 20.000000
_cell_angle_gamma 90.000000
_cell_volume 2714.955898
_symmetry_space_group_name_H-M "C 2/C"
_symmetry_group_IT_number 15
_symmetry_cell_setting 'monoclinic'
loop_
_space_group_symop_operation_xyz
x,y,z
-x,y,1/2-z
-x,-y,-z
x,-y,1/2+z
1/2+x,1/2+y,z
1/2-x,1/2+y,1/2-z
1/2-x,1/2-y,-z
1/2+x,1/2-y,1/2+z
loop_
_atom_site_type_symbol
_atom_site_label
_atom_site_fract_x
_atom_site_fract_y
_atom_site_fract_z
Si Si1 0.120648 0.854946 0.542310
Si Si2 0.898919 0.994499 0.440656
Si Si3 0.509168 0.834519 0.045294
Si Si4 0.137824 0.892623 0.251539
Si Si5 0.935067 0.194784 0.097561
Si Si6 0.205388 0.676220 0.057485
Si Si7 0.060907 0.406907 0.841091
O O1 0.345397 0.843322 0.286436
O O2 0.000000 0.840339 0.750000
O O3 0.032408 0.817673 0.569820
O O4 0.096914 0.930121 0.553574
O O5 0.688091 0.967562 0.679913
O O6 0.000000 0.982918 0.250000
O O7 0.016840 0.955770 0.372243
O O8 0.453095 0.770077 0.061921
O O9 0.718823 0.823596 0.843586
O O10 0.532297 0.890709 0.959165
O O11 0.038845 0.846494 0.420118
O O12 0.154989 0.859483 0.151568
O O13 0.349700 0.908805 0.042494
O O14 0.181656 0.648952 0.166793
O O15 0.000000 0.665585 0.250000
O O16 0.250000 0.750000 0.000000
#
# Coordination Sequence:
#
# PCOD9309310 Si02
#       7
#     8   8   8   8   8   8   8
#     4  11  28  49  68  99 127 170 225 283 343 400
#     4  11  24  43  68  94 138 181 226 267 319 390
#     4  12  24  45  71 101 134 168 217 282 340 397
#     4  11  22  40  64  98 139 179 217 262 322 385
#     4  12  24  45  71 101 134 168 217 282 340 397
#     4  10  22  32  56  96 132 178 218 250 303 381
#     4  11  22  40  64  98 139 179 217 262 322 385
#
# _framework density 10.313243
#
# number of rings (size 3 to 8) (size 9 to 14) (size 15 to 20)
#    0.000    0.857    5.714    0.857    2.000    5.714 
#    0.000    2.857    0.000    0.000    0.000    0.000 
#    0.000    0.000    0.000    0.000    0.000    0.000 
#
# Total GULP energy -156377.115458 kJ/mol
# GULP energy per Si atom -5584.896981 kJ/mol
# Density = 1.028977 g / cm^3
# Si number density = 10.313243 Si / 1000 Ang^3
#
#
#
# Elastic Constant Matrix: (Units=GPa)
#
#
# Indices 1 2 3 4 5 6 
#
# 1 38.6379 -1.6122 31.2800 -0.0075 9.9467 0.0092
# 2 -1.6122 54.5813 13.0466 -0.0172 1.4890 0.0118
# 3 31.2800 13.0466 179.6705 -0.0084 5.7564 0.0001
# 4 -0.0075 -0.0172 -0.0084 35.1579 -0.0033 7.0122
# 5 9.9467 1.4890 5.7564 -0.0033 43.2493 0.0011
# 6 0.0092 0.0118 0.0001 7.0122 0.0011 17.2563
#
#
#
# Elastic Compliance Matrix: (Units=1/GPa)
#
#
# Indices 1 2 3 4 5 6 
#
# 1 0.032237 0.002469 -0.005575 0.000011 -0.006757 -0.000023
# 2 0.002469 0.018843 -0.001767 0.000013 -0.000981 -0.000019
# 3 -0.005575 -0.001767 0.006650 -0.000001 0.000458 0.000005
# 4 0.000011 0.000013 -0.000001 0.030952 0.000000 -0.012577
# 5 -0.006757 -0.000981 0.000458 0.000000 0.024649 0.000003
# 6 -0.000023 -0.000019 0.000005 -0.012577 0.000003 0.063061
#
#
# Mechanical properties :
#
#
# Convention : Reuss Voigt Hill
#
# Bulk Modulus (GPa) = 20.83971 39.81315 30.32643
# Shear Modulus (GPa) = 24.73625 34.47771 29.60698
#
# Velocity S-wave (km/s) = 3.46677 4.09287 3.79276
# Velocity P-wave (km/s) = 5.11370 6.45595 5.82363
#
# Compressibility (1/GPa) = 0.04798530
#
# Stress axis : x y z
#
# Youngs Moduli (GPa) = 31.01983 53.06918 150.37618
#
# Poissons Ratio (x) = -0.13104 0.83838
# Poissons Ratio (y) = -0.07660 0.26567
# Poissons Ratio (z) = 0.17294 0.09376
#
# Static dielectric constant tensor:
#      x y z
#    x 1.759780 -0.000100 -0.023950 
#    y -0.000100 1.621530 0.000220 
#    z -0.023950 0.000220 1.737910 
# 
# From -- ./inp_files/216637.got.cif
#   From: 2010.05.17/outbox.ucp.g08.bks.cvg/sg15_109_cif.got.tgz:216637.got - 2010.06.11 12:40:34.
