data_PCOD9309887
_publ_section_title
;
Structure prediction by ZEFSAII (Michael W. Deem and Ramdas Pophale) SiO2 
 PCOD9309887
Probable space group: C 2/C
;
_chemical_formula_sum "Si O2"
_cell_formula_units_Z 24
_cell_length_a 15.000000
_cell_length_b 30.000000
_cell_length_c 15.000000
_cell_angle_alpha 90.000000
_cell_angle_beta 160.000000
_cell_angle_gamma 90.000000
_cell_volume 2308.635967
_symmetry_space_group_name_H-M "C 2/C"
_symmetry_group_IT_number 15
_symmetry_cell_setting 'monoclinic'
loop_
_space_group_symop_operation_xyz
x,y,z
-x,y,1/2-z
-x,-y,-z
x,-y,1/2+z
1/2+x,1/2+y,z
1/2-x,1/2+y,1/2-z
1/2-x,1/2-y,-z
1/2+x,1/2-y,1/2+z
loop_
_atom_site_type_symbol
_atom_site_label
_atom_site_fract_x
_atom_site_fract_y
_atom_site_fract_z
Si Si1 0.774001 0.081619 0.965885
Si Si2 0.500000 0.705613 0.750000
Si Si3 0.781557 0.498925 0.717580
Si Si4 0.500000 0.847086 0.750000
Si Si5 0.914768 0.128212 0.926591
Si Si6 0.971910 0.405129 0.890028
Si Si7 0.778886 0.774050 0.229331
O O1 0.500000 0.094953 0.750000
O O2 0.867462 0.119291 0.985465
O O3 0.718313 0.037294 0.855478
O O4 0.000000 0.072929 0.250000
O O5 0.266854 0.678964 0.482358
O O6 0.657150 0.727710 0.816623
O O7 0.500000 0.500000 0.500000
O O8 0.857778 0.451519 0.747086
O O9 0.000000 0.500000 0.000000
O O10 0.567839 0.876148 0.898520
O O11 0.714457 0.094919 0.686159
O O12 0.838547 0.176958 0.821224
O O13 0.216423 0.117673 0.192185
O O14 0.982143 0.739878 0.463527
#
# Coordination Sequence:
#
# PCOD9309887 Si02
#       7
#     8   4   8   4   8   8   8
#     4  12  26  45  68 100 132 173 231 281 333 385
#     4  12  22  41  60  98 138 172 214 266 324 393
#     4  12  23  43  66  96 132 173 217 272 325 386
#     4  12  22  37  60  94 136 180 216 254 308 399
#     4  12  24  45  69  89 132 177 222 274 331 401
#     4  12  22  41  63  94 133 182 220 259 318 390
#     4  12  24  41  65  97 132 172 218 273 338 410
#
# _framework density 10.395749
#
# number of rings (size 3 to 8) (size 9 to 14) (size 15 to 20)
#    0.000    0.000    6.667    4.500    1.167    0.000 
#    1.500    0.000    0.000    3.000    0.000    0.000 
#    0.000    0.000    0.000    0.000    0.000    0.000 
#
# Total GULP energy -134104.730895 kJ/mol
# GULP energy per Si atom -5587.697121 kJ/mol
# Density = 1.037209 g / cm^3
# Si number density = 10.395749 Si / 1000 Ang^3
#
#
#
# Elastic Constant Matrix: (Units=GPa)
#
#
# Indices 1 2 3 4 5 6 
#
# 1 87.2682 23.4580 18.4732 -0.0031 -8.6185 -0.0045
# 2 23.4580 71.6897 -7.7587 0.0032 -9.1224 0.0096
# 3 18.4732 -7.7587 109.8270 -0.0102 -15.1027 -0.0189
# 4 -0.0031 0.0032 -0.0102 20.8182 -0.0086 4.4021
# 5 -8.6185 -9.1224 -15.1027 -0.0086 30.5235 -0.0190
# 6 -0.0045 0.0096 -0.0189 4.4021 -0.0190 58.0869
#
#
#
# Elastic Compliance Matrix: (Units=1/GPa)
#
#
# Indices 1 2 3 4 5 6 
#
# 1 0.013280 -0.004444 -0.002376 0.000002 0.001246 0.000001
# 2 -0.004444 0.016304 0.002572 0.000000 0.004890 -0.000001
# 3 -0.002376 0.002572 0.010408 0.000006 0.005248 0.000004
# 4 0.000002 0.000000 0.000006 0.048817 0.000015 -0.003700
# 5 0.001246 0.004890 0.005248 0.000015 0.037171 0.000012
# 6 0.000001 -0.000001 0.000004 -0.003700 0.000012 0.017496
#
#
# Mechanical properties :
#
#
# Convention : Reuss Voigt Hill
#
# Bulk Modulus (GPa) = 31.75157 37.45887 34.60522
# Shear Modulus (GPa) = 30.77467 37.52654 34.15061
#
# Velocity S-wave (km/s) = 3.85145 4.25302 4.05721
# Velocity P-wave (km/s) = 5.92308 6.49408 6.21514
#
# Compressibility (1/GPa) = 0.03149451
#
# Stress axis : x y z
#
# Youngs Moduli (GPa) = 75.30396 61.33552 96.07794
#
# Poissons Ratio (x) = 0.27257 0.22831
# Poissons Ratio (y) = 0.33465 -0.24709
# Poissons Ratio (z) = 0.17894 -0.15774
#
# Static dielectric constant tensor:
#      x y z
#    x 1.708800 -0.000010 0.011490 
#    y -0.000010 1.847080 0.000030 
#    z 0.011490 0.000030 1.834750 
# 
# From -- ./inp_files/157660.got.cif
#   From: 2010.05.17/outbox.ucp.g08.bks.cvg/sg15_79_cif.got.tgz:157660.got - 2010.06.11 12:40:34.
