data_PCOD9309101
_publ_section_title
;
Structure prediction by ZEFSAII (Michael W. Deem and Ramdas Pophale) SiO2 
 PCOD9309101
Probable space group: C 2/C
;
_chemical_formula_sum "Si O2"
_cell_formula_units_Z 24
_cell_length_a 12.000000
_cell_length_b 27.000000
_cell_length_c 21.000000
_cell_angle_alpha 90.000000
_cell_angle_beta 160.000000
_cell_angle_gamma 90.000000
_cell_volume 2327.105055
_symmetry_space_group_name_H-M "C 2/C"
_symmetry_group_IT_number 15
_symmetry_cell_setting 'monoclinic'
loop_
_space_group_symop_operation_xyz
x,y,z
-x,y,1/2-z
-x,-y,-z
x,-y,1/2+z
1/2+x,1/2+y,z
1/2-x,1/2+y,1/2-z
1/2-x,1/2-y,-z
1/2+x,1/2-y,1/2+z
loop_
_atom_site_type_symbol
_atom_site_label
_atom_site_fract_x
_atom_site_fract_y
_atom_site_fract_z
Si Si1 0.287679 0.860179 0.357687
Si Si2 0.047211 0.219753 0.624830
Si Si3 0.313741 0.581572 0.084510
Si Si4 0.819723 0.852460 0.890703
Si Si5 0.857843 0.045113 0.966173
Si Si6 0.798109 0.179586 0.236159
O O1 0.173783 0.819867 0.244454
O O2 0.442733 0.907766 0.405769
O O3 0.536177 0.834270 0.541259
O O4 0.000000 0.876193 0.250000
O O5 0.314699 0.260810 0.746745
O O6 0.750000 0.250000 0.500000
O O7 0.940908 0.190192 0.503983
O O8 0.500000 0.565899 0.250000
O O9 0.423320 0.638978 0.128653
O O10 0.378824 0.548775 0.055919
O O11 0.500000 0.874512 0.750000
O O12 0.721984 0.832290 0.768951
O O13 0.043418 0.899568 0.001811
O O14 0.500000 0.041139 0.750000
O O15 0.000000 0.000000 0.000000
#
# Coordination Sequence:
#
# PCOD9309101 Si02
#       6
#     8   8   8   8   8   8
#     4  11  20  35  57  84 125 174 216 266 318 383
#     4  12  21  32  55  91 131 174 222 263 312 379
#     4   9  22  43  64  94 129 171 217 271 336 401
#     4  11  21  37  61  91 128 171 216 266 323 386
#     4  11  24  45  71  98 128 165 219 282 346 404
#     4  10  21  34  55  85 128 172 215 263 311 375
#
# _framework density 10.313243
#
# number of rings (size 3 to 8) (size 9 to 14) (size 15 to 20)
#    0.000    1.333    3.333    2.500    0.000    0.667 
#    0.000   10.000    0.000    3.000    0.000    0.000 
#    0.000    0.000    0.000    0.000    0.000    0.000 
#
# Total GULP energy -133615.652479 kJ/mol
# GULP energy per Si atom -5567.318853 kJ/mol
# Density = 1.028977 g / cm^3
# Si number density = 10.313243 Si / 1000 Ang^3
#
#
#
# Elastic Constant Matrix: (Units=GPa)
#
#
# Indices 1 2 3 4 5 6 
#
# 1 162.5488 43.4903 48.9264 -16.2237 -32.6282 -1.1533
# 2 43.4903 71.5488 25.4478 -53.2196 -7.2632 -3.7470
# 3 48.9264 25.4478 71.8049 -67.8988 -11.9005 -4.8047
# 4 -16.2237 -53.2196 -67.8988 1834.8442 -7.4092 127.6896
# 5 -32.6282 -7.2632 -11.9005 -7.4092 34.5552 -0.6077
# 6 -1.1533 -3.7470 -4.8047 127.6896 -0.6077 45.7384
#
#
#
# Elastic Compliance Matrix: (Units=1/GPa)
#
#
# Indices 1 2 3 4 5 6 
#
# 1 0.009884 -0.003867 -0.004356 -0.000158 0.006986 0.000010
# 2 -0.003867 0.017720 -0.003492 0.000346 -0.001055 0.000008
# 3 -0.004356 -0.003492 0.018971 0.000567 0.001809 0.000038
# 4 -0.000158 0.000346 0.000567 0.000707 0.000237 -0.001886
# 5 0.006986 -0.001055 0.001809 0.000237 0.035989 0.000097
# 6 0.000010 0.000008 0.000038 -0.001886 0.000097 0.027136
#
#
# Mechanical properties :
#
#
# Convention : Reuss Voigt Hill
#
# Bulk Modulus (GPa) = 43.20756 60.18127 51.69442
# Shear Modulus (GPa) = 35.32283 395.56343 215.44313
#
# Velocity S-wave (km/s) = 4.14272 13.86329 10.23115
# Velocity P-wave (km/s) = 6.62389 16.89658 12.83297
#
# Compressibility (1/GPa) = 0.02314410
#
# Stress axis : x y z
#
# Youngs Moduli (GPa) = 101.17045 56.43474 52.71322
#
# Poissons Ratio (x) = 0.21823 0.22961
# Poissons Ratio (y) = 0.39122 0.18410
# Poissons Ratio (z) = 0.44067 0.19709
#
# Static dielectric constant tensor:
#      x y z
#    x 1.756910 0.000090 0.042150 
#    y 0.000090 1.649280 -0.000530 
#    z 0.042150 -0.000530 1.769540 
# 
# From -- ./inp_files/241059.got.cif
#   From: 2010.05.17/outbox.ucp.g08.bks.cvg/sg15_121_cif.got.tgz:241059.got - 2010.06.11 12:40:34.
