data_PCOD9309907
_publ_section_title
;
Structure prediction by ZEFSAII (Michael W. Deem and Ramdas Pophale) SiO2 
 PCOD9309907
Probable space group: C 2/C
;
_chemical_formula_sum "Si O2"
_cell_formula_units_Z 28
_cell_length_a 27.000000
_cell_length_b 12.000000
_cell_length_c 9.000000
_cell_angle_alpha 90.000000
_cell_angle_beta 110.000000
_cell_angle_gamma 90.000000
_cell_volume 2740.143682
_symmetry_space_group_name_H-M "C 2/C"
_symmetry_group_IT_number 15
_symmetry_cell_setting 'monoclinic'
loop_
_space_group_symop_operation_xyz
x,y,z
-x,y,1/2-z
-x,-y,-z
x,-y,1/2+z
1/2+x,1/2+y,z
1/2-x,1/2+y,1/2-z
1/2-x,1/2-y,-z
1/2+x,1/2-y,1/2+z
loop_
_atom_site_type_symbol
_atom_site_label
_atom_site_fract_x
_atom_site_fract_y
_atom_site_fract_z
Si Si1 0.140436 0.406002 0.384415
Si Si2 0.040314 0.445085 0.661489
Si Si3 0.916972 0.232075 0.970986
Si Si4 0.820012 0.924590 0.923228
Si Si5 0.215457 0.450147 0.183979
Si Si6 0.750000 0.250000 0.500000
Si Si7 0.606903 0.491888 0.235620
Si Si8 0.000000 0.899675 0.750000
O O1 0.087480 0.474164 0.274283
O O2 0.120666 0.290731 0.442473
O O3 0.180069 0.400158 0.283280
O O4 0.174897 0.472298 0.545847
O O5 0.067219 0.336216 0.617152
O O6 0.000000 0.412494 0.750000
O O7 0.000000 0.500000 0.500000
O O8 0.893966 0.128474 0.850694
O O9 0.968453 0.179158 0.102821
O O10 0.766073 0.983648 0.806609
O O11 0.864640 0.919299 0.842060
O O12 0.800173 0.809159 0.968905
O O13 0.853107 0.986166 0.085477
O O14 0.240807 0.361916 0.096580
O O15 0.547486 0.527478 0.223558
#
# Coordination Sequence:
#
# PCOD9309907 Si02
#       8
#     8   8   8   8   8   4   8   4
#     4  12  25  47  75 113 159 199 257 324 379 466
#     4  12  24  45  71 112 157 198 256 317 380 459
#     4  12  27  45  78 108 153 210 251 314 401 445
#     4  12  27  51  76 113 153 194 260 320 375 468
#     4  12  26  49  77 116 154 201 257 318 384 474
#     4  12  28  46  82 108 152 204 248 308 402 444
#     4  12  28  52  75 110 156 201 260 324 374 463
#     4  12  28  52  74 114 154 200 268 320 376 468
#
# _framework density 10.218442
#
# number of rings (size 3 to 8) (size 9 to 14) (size 15 to 20)
#    0.000    0.000    7.143    1.286    7.000    0.000 
#    0.000    2.143    0.000    0.000    0.000    0.000 
#    0.000    0.000    0.000    0.000    0.000    0.000 
#
# Total GULP energy -155932.238073 kJ/mol
# GULP energy per Si atom -5569.008503 kJ/mol
# Density = 1.019518 g / cm^3
# Si number density = 10.218442 Si / 1000 Ang^3
#
#
#
# Elastic Constant Matrix: (Units=GPa)
#
#
# Indices 1 2 3 4 5 6 
#
# 1 152.4819 36.3513 44.3889 0.0000 -4.9862 0.0000
# 2 36.3513 62.5046 29.4613 0.0000 -6.3378 0.0000
# 3 44.3889 29.4613 123.7550 0.0000 12.5117 0.0000
# 4 0.0000 0.0000 0.0000 31.1936 0.0000 -8.1541
# 5 -4.9862 -6.3378 12.5117 0.0000 52.4115 0.0000
# 6 0.0000 0.0000 0.0000 -8.1541 0.0000 54.8373
#
#
#
# Elastic Compliance Matrix: (Units=1/GPa)
#
#
# Indices 1 2 3 4 5 6 
#
# 1 0.008062 -0.003605 -0.002118 0.000000 0.000837 0.000000
# 2 -0.003605 0.020202 -0.003821 0.000000 0.003012 0.000000
# 3 -0.002118 -0.003821 0.010060 0.000000 -0.003065 0.000000
# 4 0.000000 0.000000 0.000000 0.033354 0.000000 0.004960
# 5 0.000837 0.003012 -0.003065 0.000000 0.020255 0.000000
# 6 0.000000 0.000000 0.000000 0.004960 0.000000 0.018973
#
#
# Mechanical properties :
#
#
# Convention : Reuss Voigt Hill
#
# Bulk Modulus (GPa) = 51.98769 62.12718 57.05744
# Shear Modulus (GPa) = 36.65553 42.92449 39.79001
#
# Velocity S-wave (km/s) = 4.23968 4.58792 4.41724
# Velocity P-wave (km/s) = 7.03278 7.65055 7.34816
#
# Compressibility (1/GPa) = 0.01923532
#
# Stress axis : x y z
#
# Youngs Moduli (GPa) = 124.04581 49.50042 99.40845
#
# Poissons Ratio (x) = 0.17847 0.21053
# Poissons Ratio (y) = 0.44723 0.37980
# Poissons Ratio (z) = 0.26271 0.18912
#
# Static dielectric constant tensor:
#      x y z
#    x 1.712450 0.000000 -0.041980 
#    y 0.000000 1.723850 0.000000 
#    z -0.041980 0.000000 1.786550 
# 
# From -- ./inp_files/65578.got.cif
#   From: 2010.05.17/outbox.ucp.g08.bks.cvg/sg15_33_cif.got.tgz:65578.got - 2010.06.11 12:40:34.
