data_PCOD9309778
_publ_section_title
;
Structure prediction by ZEFSAII (Michael W. Deem and Ramdas Pophale) SiO2 
 PCOD9309778
Probable space group: C 2/C
;
_chemical_formula_sum "Si O2"
_cell_formula_units_Z 32
_cell_length_a 21.000000
_cell_length_b 18.000000
_cell_length_c 27.000000
_cell_angle_alpha 90.000000
_cell_angle_beta 20.000000
_cell_angle_gamma 90.000000
_cell_volume 3490.657583
_symmetry_space_group_name_H-M "C 2/C"
_symmetry_group_IT_number 15
_symmetry_cell_setting 'monoclinic'
loop_
_space_group_symop_operation_xyz
x,y,z
-x,y,1/2-z
-x,-y,-z
x,-y,1/2+z
1/2+x,1/2+y,z
1/2-x,1/2+y,1/2-z
1/2-x,1/2-y,-z
1/2+x,1/2-y,1/2+z
loop_
_atom_site_type_symbol
_atom_site_label
_atom_site_fract_x
_atom_site_fract_y
_atom_site_fract_z
Si Si1 0.973710 0.246419 0.830863
Si Si2 0.714738 0.951821 0.223700
Si Si3 0.035078 0.134753 0.041515
Si Si4 0.250447 0.372036 0.666532
Si Si5 0.789516 0.750599 0.912314
Si Si6 0.724811 0.078188 0.450498
Si Si7 0.992786 0.034173 0.169527
Si Si8 0.037574 0.884740 0.366175
O O1 0.050732 0.183049 0.815087
O O2 0.000000 0.236522 0.750000
O O3 0.072635 0.322482 0.779462
O O4 0.750000 0.250000 0.000000
O O5 0.495521 0.933056 0.383355
O O6 0.800197 0.919036 0.213942
O O7 0.727100 0.041050 0.201833
O O8 0.831695 0.912169 0.093683
O O9 0.976143 0.087077 0.133211
O O10 0.864254 0.160065 0.131010
O O11 0.150396 0.201609 0.981514
O O12 0.379877 0.368331 0.522724
O O13 0.771322 0.835407 0.908635
O O14 0.000000 0.723792 0.750000
O O15 0.750000 0.750000 0.000000
O O16 0.834209 0.055176 0.420893
O O17 0.816306 0.037765 0.335932
O O18 0.017109 0.953460 0.128574
#
# Coordination Sequence:
#
# PCOD9309778 Si02
#       8
#     8   8   8   8   8   8   8   8
#     4  12  28  49  72 104 140 186 233 293 358 417
#     4  11  24  44  73 101 132 181 239 280 340 413
#     4  11  22  42  71  96 131 186 224 276 338 407
#     4  11  24  49  72 100 134 177 233 291 342 411
#     4  12  22  40  60  94 142 176 217 265 324 406
#     4  11  25  39  61 102 139 179 222 279 346 406
#     4  11  22  44  65  94 140 179 225 288 341 398
#     4  11  24  48  71 102 140 175 235 291 348 416
#
# _framework density 9.1673270000000002
#
# number of rings (size 3 to 8) (size 9 to 14) (size 15 to 20)
#    0.000    0.750    6.250    1.500    5.250    0.500 
#    4.500    0.000    0.000    0.000    0.000    0.000 
#    0.000    0.000    0.000    0.000    0.000    0.000 
#
# Total GULP energy -178287.448001 kJ/mol
# GULP energy per Si atom -5571.482750 kJ/mol
# Density = 0.914646 g / cm^3
# Si number density = 9.167327 Si / 1000 Ang^3
#
#
#
# Elastic Constant Matrix: (Units=GPa)
#
#
# Indices 1 2 3 4 5 6 
#
# 1 169.4617 49.6002 53.7303 -0.0048 4.4492 -0.0179
# 2 49.6002 88.0407 5.4836 0.0435 -10.1970 0.0139
# 3 53.7303 5.4836 105.9031 0.0533 -8.8888 0.0123
# 4 -0.0048 0.0435 0.0533 26.9116 -0.0043 -0.8240
# 5 4.4492 -10.1970 -8.8888 -0.0043 41.7678 0.0047
# 6 -0.0179 0.0139 0.0123 -0.8240 0.0047 41.4047
#
#
#
# Elastic Compliance Matrix: (Units=1/GPa)
#
#
# Indices 1 2 3 4 5 6 
#
# 1 0.008912 -0.005105 -0.004522 0.000019 -0.003158 0.000008
# 2 -0.005105 0.014628 0.002218 -0.000028 0.004587 -0.000009
# 3 -0.004522 0.002218 0.011921 -0.000028 0.003560 -0.000007
# 4 0.000019 -0.000028 -0.000028 0.037181 -0.000011 0.000740
# 5 -0.003158 0.004587 0.003560 -0.000011 0.026156 -0.000007
# 6 0.000008 -0.000009 -0.000007 0.000740 -0.000007 0.024167
#
#
# Mechanical properties :
#
#
# Convention : Reuss Voigt Hill
#
# Bulk Modulus (GPa) = 48.44656 64.55930 56.50293
# Shear Modulus (GPa) = 34.56289 38.98959 36.77624
#
# Velocity S-wave (km/s) = 4.34650 4.61646 4.48351
# Velocity P-wave (km/s) = 7.18820 7.98146 7.59519
#
# Compressibility (1/GPa) = 0.02064130
#
# Stress axis : x y z
#
# Youngs Moduli (GPa) = 112.20864 68.36427 83.88573
#
# Poissons Ratio (x) = 0.34899 0.37935
# Poissons Ratio (y) = 0.57282 -0.18602
# Poissons Ratio (z) = 0.50744 -0.15160
#
# Static dielectric constant tensor:
#      x y z
#    x 1.633600 -0.000030 -0.020370 
#    y -0.000030 1.676080 0.000080 
#    z -0.020370 0.000080 1.667320 
# 
# From -- ./inp_files/301345.got.cif
#   From: 2010.05.17/outbox.ucp.g08.bks.cvg/sg15_151_cif.got.tgz:301345.got - 2010.06.11 12:40:34.
