data_PCOD9309762
_publ_section_title
;
Structure prediction by ZEFSAII (Michael W. Deem and Ramdas Pophale) SiO2 
 PCOD9309762
Probable space group: C 2/C
;
_chemical_formula_sum "Si O2"
_cell_formula_units_Z 32
_cell_length_a 9.000000
_cell_length_b 18.000000
_cell_length_c 30.000000
_cell_angle_alpha 90.000000
_cell_angle_beta 40.000000
_cell_angle_gamma 90.000000
_cell_volume 3123.947783
_symmetry_space_group_name_H-M "C 2/C"
_symmetry_group_IT_number 15
_symmetry_cell_setting 'monoclinic'
loop_
_space_group_symop_operation_xyz
x,y,z
-x,y,1/2-z
-x,-y,-z
x,-y,1/2+z
1/2+x,1/2+y,z
1/2-x,1/2+y,1/2-z
1/2-x,1/2-y,-z
1/2+x,1/2-y,1/2+z
loop_
_atom_site_type_symbol
_atom_site_label
_atom_site_fract_x
_atom_site_fract_y
_atom_site_fract_z
Si Si1 0.211278 0.809247 0.734113
Si Si2 0.633372 0.576557 0.644786
Si Si3 0.199090 0.314991 0.573979
Si Si4 0.355299 0.851493 0.009724
Si Si5 0.013608 0.324355 0.104012
Si Si6 0.136133 0.352821 0.266271
Si Si7 0.871745 0.909838 0.869045
Si Si8 0.935958 0.153933 0.439180
O O1 0.436443 0.823877 0.652053
O O2 0.252304 0.728990 0.746234
O O3 0.000000 0.794409 0.750000
O O4 0.087161 0.869195 0.794706
O O5 0.739730 0.592624 0.571090
O O6 0.359467 0.593103 0.712979
O O7 0.675565 0.488748 0.643144
O O8 0.778862 0.634408 0.641765
O O9 0.288466 0.229788 0.545449
O O10 0.247801 0.353470 0.515826
O O11 0.352257 0.349116 0.576674
O O12 0.628841 0.864817 0.935173
O O13 0.032164 0.352433 0.151282
O O14 0.031695 0.233941 0.094517
O O15 0.208015 0.347350 0.022739
O O16 0.000000 0.360169 0.250000
O O17 0.950182 0.914286 0.902126
#
# Coordination Sequence:
#
# PCOD9309762 Si02
#       8
#     8   8   8   8   8   8   8   8
#     4  11  22  41  66  98 130 180 229 277 341 413
#     4  12  25  45  67  99 140 189 225 284 347 415
#     4  11  23  39  70  99 133 174 234 293 331 403
#     4  11  22  41  69 100 131 176 233 281 341 412
#     4  11  22  42  69  99 136 174 235 274 340 417
#     4  11  25  42  68  99 135 178 230 290 341 406
#     4  12  25  44  69  97 143 179 229 282 348 419
#     4  11  22  40  68 106 129 173 226 293 340 399
#
# _framework density 10.243449
#
# number of rings (size 3 to 8) (size 9 to 14) (size 15 to 20)
#    0.000    0.750    6.250    1.500    1.750    1.500 
#    2.250    0.625    0.000    0.000    0.000    0.000 
#    0.000    0.000    0.000    0.000    0.000    0.000 
#
# Total GULP energy -178194.447522 kJ/mol
# GULP energy per Si atom -5568.576485 kJ/mol
# Density = 1.022013 g / cm^3
# Si number density = 10.243449 Si / 1000 Ang^3
#
#
#
# Elastic Constant Matrix: (Units=GPa)
#
#
# Indices 1 2 3 4 5 6 
#
# 1 71.1826 13.2142 26.4740 -0.0003 -0.8511 -0.0008
# 2 13.2142 48.1160 23.7733 0.0011 2.4202 0.0003
# 3 26.4740 23.7733 128.3236 0.0021 3.2203 -0.0028
# 4 -0.0003 0.0011 0.0021 29.9268 -0.0013 -0.1536
# 5 -0.8511 2.4202 3.2203 -0.0013 39.1344 -0.0001
# 6 -0.0008 0.0003 -0.0028 -0.1536 -0.0001 13.9372
#
#
#
# Elastic Compliance Matrix: (Units=1/GPa)
#
#
# Indices 1 2 3 4 5 6 
#
# 1 0.015612 -0.002999 -0.002684 0.000000 0.000746 0.000000
# 2 -0.002999 0.023498 -0.003704 -0.000001 -0.001214 -0.000001
# 3 -0.002684 -0.003704 0.009047 -0.000001 -0.000574 0.000002
# 4 0.000000 -0.000001 -0.000001 0.033417 0.000001 0.000368
# 5 0.000746 -0.001214 -0.000574 0.000001 0.025691 0.000000
# 6 0.000000 -0.000001 0.000002 0.000368 0.000000 0.071754
#
#
# Mechanical properties :
#
#
# Convention : Reuss Voigt Hill
#
# Bulk Modulus (GPa) = 34.03317 41.61613 37.82465
# Shear Modulus (GPa) = 24.08612 28.87706 26.48159
#
# Velocity S-wave (km/s) = 3.43254 3.75845 3.59919
# Velocity P-wave (km/s) = 5.68841 6.26037 5.98123
#
# Compressibility (1/GPa) = 0.02938310
#
# Stress axis : x y z
#
# Youngs Moduli (GPa) = 64.05219 42.55705 110.53212
#
# Poissons Ratio (x) = 0.12763 0.29667
# Poissons Ratio (y) = 0.19209 0.40942
# Poissons Ratio (z) = 0.17192 0.15763
#
# Static dielectric constant tensor:
#      x y z
#    x 1.862410 0.000000 0.142470 
#    y 0.000000 1.788350 0.000010 
#    z 0.142470 0.000010 2.120590 
# 
# From -- ./inp_files/308770.got.cif
#   From: 2010.05.17/outbox.ucp.g08.bks.cvg/sg15_155_cif.got.tgz:308770.got - 2010.06.11 12:40:34.
