data_PCOD9309591
_publ_section_title
;
Structure prediction by ZEFSAII (Michael W. Deem and Ramdas Pophale) SiO2 
 PCOD9309591
Probable space group: C 2/C
;
_chemical_formula_sum "Si O2"
_cell_formula_units_Z 16
_cell_length_a 30.000000
_cell_length_b 6.000000
_cell_length_c 9.000000
_cell_angle_alpha 90.000000
_cell_angle_beta 70.000000
_cell_angle_gamma 90.000000
_cell_volume 1522.302046
_symmetry_space_group_name_H-M "C 2/C"
_symmetry_group_IT_number 15
_symmetry_cell_setting 'monoclinic'
loop_
_space_group_symop_operation_xyz
x,y,z
-x,y,1/2-z
-x,-y,-z
x,-y,1/2+z
1/2+x,1/2+y,z
1/2-x,1/2+y,1/2-z
1/2-x,1/2-y,-z
1/2+x,1/2-y,1/2+z
loop_
_atom_site_type_symbol
_atom_site_label
_atom_site_fract_x
_atom_site_fract_y
_atom_site_fract_z
Si Si1 0.876141 0.292590 0.471983
Si Si2 0.421392 0.537793 0.163603
Si Si3 0.046884 0.681758 0.130722
Si Si4 0.234895 0.711236 0.343538
O O1 0.882936 0.178407 0.302242
O O2 0.908332 0.515226 0.427585
O O3 0.821899 0.324996 0.581468
O O4 0.898051 0.124734 0.568950
O O5 0.445794 0.379494 0.257502
O O6 0.454842 0.704348 0.030388
O O7 0.000000 0.562921 0.250000
O O8 0.254100 0.461925 0.252780
O O9 0.250000 0.750000 0.500000
#
# Coordination Sequence:
#
# PCOD9309591 Si02
#       4
#     8   8   8   8
#     4  11  25  43  71  97 140 180 238 294 357 431
#     4  10  24  42  67  97 142 180 233 288 359 420
#     4  11  24  42  68 101 140 185 234 288 357 430
#     4  12  29  49  79 111 151 197 254 313 383 447
#
# _framework density 10.510398
#
# number of rings (size 3 to 8) (size 9 to 14) (size 15 to 20)
#    0.000    1.000    0.000    4.500   14.000    8.000 
#    0.000    0.000    0.000    0.000    0.000    0.000 
#    0.000    0.000    0.000    0.000    0.000    0.000 
#
# Total GULP energy -89260.942743 kJ/mol
# GULP energy per Si atom -5578.808921 kJ/mol
# Density = 1.048648 g / cm^3
# Si number density = 10.510398 Si / 1000 Ang^3
#
#
#
# Elastic Constant Matrix: (Units=GPa)
#
#
# Indices 1 2 3 4 5 6 
#
# 1 81.6526 33.3120 47.8261 0.0000 -28.7436 0.0000
# 2 33.3120 134.8703 67.8054 0.0000 -11.1951 0.0000
# 3 47.8261 67.8054 174.3078 0.0000 -11.1981 0.0000
# 4 0.0000 0.0000 0.0000 59.6150 0.0000 -2.7719
# 5 -28.7436 -11.1951 -11.1981 0.0000 55.3506 0.0000
# 6 0.0000 0.0000 0.0000 -2.7719 0.0000 34.8825
#
#
#
# Elastic Compliance Matrix: (Units=1/GPa)
#
#
# Indices 1 2 3 4 5 6 
#
# 1 0.018103 -0.001933 -0.003684 0.000000 0.008264 0.000000
# 2 -0.001933 0.009497 -0.003146 0.000000 0.000281 0.000000
# 3 -0.003684 -0.003146 0.007911 0.000000 -0.000949 0.000000
# 4 0.000000 0.000000 0.000000 0.016837 0.000000 0.001338
# 5 0.008264 0.000281 -0.000949 0.000000 0.022223 0.000000
# 6 0.000000 0.000000 0.000000 0.001338 0.000000 0.028774
#
#
# Mechanical properties :
#
#
# Convention : Reuss Voigt Hill
#
# Bulk Modulus (GPa) = 55.60448 76.52420 66.06434
# Shear Modulus (GPa) = 39.41209 46.09543 42.75376
#
# Velocity S-wave (km/s) = 4.33472 4.68787 4.51475
# Velocity P-wave (km/s) = 7.18071 8.11077 7.65987
#
# Compressibility (1/GPa) = 0.01798416
#
# Stress axis : x y z
#
# Youngs Moduli (GPa) = 55.24002 105.29829 126.41329
#
# Poissons Ratio (x) = 0.20355 0.46572
# Poissons Ratio (y) = 0.10678 0.39767
# Poissons Ratio (z) = 0.20351 0.33125
#
# Static dielectric constant tensor:
#      x y z
#    x 1.803460 0.000000 0.004950 
#    y 0.000000 1.809040 0.000000 
#    z 0.004950 0.000000 1.761390 
# 
# From -- ./inp_files/67878.got.cif
#   From: 2010.05.17/outbox.ucp.g08.bks.cvg/sg15_34_cif.got.tgz:67878.got - 2010.06.11 12:40:34.
