data_PCOD9309424
_publ_section_title
;
Structure prediction by ZEFSAII (Michael W. Deem and Ramdas Pophale) SiO2 
 PCOD9309424
Probable space group: C 2/C
;
_chemical_formula_sum "Si O2"
_cell_formula_units_Z 32
_cell_length_a 9.000000
_cell_length_b 30.000000
_cell_length_c 12.000000
_cell_angle_alpha 90.000000
_cell_angle_beta 90.000000
_cell_angle_gamma 90.000000
_cell_volume 3240.000000
_symmetry_space_group_name_H-M "C 2/C"
_symmetry_group_IT_number 15
_symmetry_cell_setting 'monoclinic'
loop_
_space_group_symop_operation_xyz
x,y,z
-x,y,1/2-z
-x,-y,-z
x,-y,1/2+z
1/2+x,1/2+y,z
1/2-x,1/2+y,1/2-z
1/2-x,1/2-y,-z
1/2+x,1/2-y,1/2+z
loop_
_atom_site_type_symbol
_atom_site_label
_atom_site_fract_x
_atom_site_fract_y
_atom_site_fract_z
Si Si1 0.297994 0.041641 0.042855
Si Si2 0.154073 0.812442 0.724643
Si Si3 0.351412 0.060499 0.496987
Si Si4 0.677756 0.903467 0.744082
Si Si5 0.809515 0.764159 0.379182
Si Si6 0.619121 0.284508 0.486234
Si Si7 0.792105 0.130715 0.848449
Si Si8 0.132653 0.117462 0.905654
O O1 0.471421 0.052536 0.015652
O O2 0.271358 0.058773 0.168639
O O3 0.196196 0.074513 0.968615
O O4 0.281937 0.988321 0.025075
O O5 0.265922 0.854266 0.721322
O O6 0.241232 0.772935 0.793858
O O7 0.079715 0.788805 0.616147
O O8 0.000000 0.838340 0.750000
O O9 0.287600 0.080912 0.381635
O O10 0.321942 0.098422 0.589227
O O11 0.500000 0.901744 0.750000
O O12 0.750000 0.750000 0.500000
O O13 0.763546 0.815733 0.354507
O O14 0.989470 0.768492 0.401282
O O15 0.750000 0.250000 0.500000
O O16 0.675883 0.333911 0.454332
O O17 0.809038 0.117335 0.720318
O O18 0.953345 0.120729 0.903673
#
# Coordination Sequence:
#
# PCOD9309424 Si02
#       8
#     8   8   8   8   8   8   8   8
#     4  10  22  42  64  96 124 163 209 265 316 387
#     4  12  24  41  64  93 126 173 218 268 321 391
#     4  10  23  40  67  93 128 163 208 264 329 373
#     4  10  23  41  64  96 129 166 213 264 324 382
#     4  11  23  41  61  91 132 163 214 271 313 378
#     4  11  24  40  63  91 125 170 215 263 327 381
#     4  10  23  42  62  89 125 171 204 258 320 368
#     4  10  22  42  61  88 127 161 211 257 306 384
#
# _framework density 9.8765429999999999
#
# number of rings (size 3 to 8) (size 9 to 14) (size 15 to 20)
#    0.000    1.500    2.500    1.500    5.250    3.000 
#    2.250    0.000    0.000    0.000    0.000    0.000 
#    0.000    0.000    0.000    0.000    0.000    0.000 
#
# Total GULP energy -178203.969987 kJ/mol
# GULP energy per Si atom -5568.874062 kJ/mol
# Density = 0.985406 g / cm^3
# Si number density = 9.876543 Si / 1000 Ang^3
#
#
#
# Elastic Constant Matrix: (Units=GPa)
#
#
# Indices 1 2 3 4 5 6 
#
# 1 29.7773 28.6195 16.6263 0.0000 12.4499 0.0000
# 2 28.6195 124.0658 24.9344 0.0000 13.4670 0.0000
# 3 16.6263 24.9344 60.2613 0.0000 18.2071 0.0000
# 4 0.0000 0.0000 0.0000 20.8842 0.0000 0.9988
# 5 12.4499 13.4670 18.2071 0.0000 24.8292 0.0000
# 6 0.0000 0.0000 0.0000 0.9988 0.0000 18.0512
#
#
#
# Elastic Compliance Matrix: (Units=1/GPa)
#
#
# Indices 1 2 3 4 5 6 
#
# 1 0.052762 -0.009173 -0.005487 0.000000 -0.017457 0.000000
# 2 -0.009173 0.010529 -0.001914 0.000000 0.000292 0.000000
# 3 -0.005487 -0.001914 0.022809 0.000000 -0.012936 0.000000
# 4 0.000000 0.000000 0.000000 0.048010 0.000000 -0.002657
# 5 -0.017457 0.000292 -0.012936 0.000000 0.058356 0.000000
# 6 0.000000 0.000000 0.000000 -0.002657 0.000000 0.055545
#
#
# Mechanical properties :
#
#
# Convention : Reuss Voigt Hill
#
# Bulk Modulus (GPa) = 18.88553 39.38496 29.13525
# Shear Modulus (GPa) = 16.73302 22.34787 19.54045
#
# Velocity S-wave (km/s) = 2.91367 3.36722 3.14862
# Velocity P-wave (km/s) = 4.57175 5.92448 5.29152
#
# Compressibility (1/GPa) = 0.05295059
#
# Stress axis : x y z
#
# Youngs Moduli (GPa) = 18.95305 94.97298 43.84285
#
# Poissons Ratio (x) = 0.87123 0.24057
# Poissons Ratio (y) = 0.17386 0.08392
# Poissons Ratio (z) = 0.10400 0.18179
#
# Static dielectric constant tensor:
#      x y z
#    x 1.695970 0.000000 -0.034090 
#    y 0.000000 1.642060 0.000000 
#    z -0.034090 0.000000 1.797580 
# 
# From -- ./inp_files/82602.got.cif
#   From: 2010.05.17/outbox.ucp.g08.bks.cvg/sg15_42_cif.got.tgz:82602.got - 2010.06.11 12:40:34.
