data_PCOD9309971
_publ_section_title
;
Structure prediction by ZEFSAII (Michael W. Deem and Ramdas Pophale) SiO2 
 PCOD9309971
Probable space group: P 2 2 2
;
_chemical_formula_sum "Si O2"
_cell_formula_units_Z 32
_cell_length_a 16.132154
_cell_length_b 14.900214
_cell_length_c 7.725235
_cell_angle_alpha 90.000000
_cell_angle_beta 90.000000
_cell_angle_gamma 90.000000
_cell_volume 1856.934412
_symmetry_space_group_name_H-M "P 2 2 2"
_symmetry_group_IT_number 16
_symmetry_cell_setting 'orthorhombic'
loop_
_space_group_symop_operation_xyz
x,y,z
-x,-y,z
x,-y,-z
-x,y,-z
loop_
_atom_site_type_symbol
_atom_site_label
_atom_site_fract_x
_atom_site_fract_y
_atom_site_fract_z
Si Si1 0.835510 0.285574 0.793360
Si Si2 0.096621 0.900326 0.211335
Si Si3 0.500000 0.397583 0.706070
Si Si4 0.096621 0.900326 0.788665
Si Si5 0.835509 0.285573 0.206641
Si Si6 0.319741 0.602667 0.793157
Si Si7 0.319741 0.602668 0.206843
Si Si8 0.000000 0.397003 0.707537
O O1 0.852327 0.185314 0.725399
O O2 0.755097 0.337142 0.723282
O O3 0.917836 0.344628 0.765478
O O4 0.824131 0.276910 0.000000
O O5 0.147673 0.814687 0.274601
O O6 1.000000 0.888714 0.260300
O O7 0.123597 0.000000 0.266732
O O8 0.098244 0.899615 1.000000
O O9 0.500000 0.500000 0.777816
O O10 0.500000 0.401533 0.500000
O O11 0.588428 0.358632 0.760701
O O12 0.411573 0.358631 0.760702
O O13 0.755096 0.337140 0.276718
O O14 0.917835 0.344629 0.234523
O O15 0.316258 0.499999 0.724063
O O16 0.309413 0.596571 1.000000
O O17 0.000000 0.500000 0.770857
O O18 0.000000 0.398607 0.500000
#
# Coordination Sequence:
#
# PCOD9309971 Si02
#       8
#     4   4   4   4   4   4   4   4
#     4  10  18  30  48  67  86 116 154 185 216 261
#     4   8  13  23  42  67  90 111 141 184 226 258
#     4   9  17  29  45  63  84 113 144 174 215 265
#     4   8  13  23  42  67  90 111 141 184 226 258
#     4  10  18  30  48  67  86 116 154 185 216 261
#     4   9  17  28  43  64  88 112 142 182 220 253
#     4   9  17  28  43  64  88 112 142 182 220 253
#     4  11  23  33  40  57  90 126 153 181 218 257
#
# _framework density 17.232703000000001
#
# number of rings (size 3 to 8) (size 9 to 14) (size 15 to 20)
#    0.000    2.750    1.250    2.250    0.000    4.500 
#    0.000    2.500    0.000    1.500    0.000    0.875 
#    0.000    7.000    0.000    0.000    0.000    0.000 
#
# Total GULP energy -178335.339560 kJ/mol
# GULP energy per Si atom -5572.979361 kJ/mol
# Density = 1.719348 g / cm^3
# Si number density = 17.232703 Si / 1000 Ang^3
#
#
#
# Elastic Constant Matrix: (Units=GPa)
#
#
# Indices 1 2 3 4 5 6 
#
# 1 152.0502 82.8578 -2.9295 0.0000 0.0000 0.0000
# 2 82.8578 138.9693 4.1305 0.0000 0.0000 0.0000
# 3 -2.9295 4.1305 25.8098 0.0000 0.0000 0.0000
# 4 0.0000 0.0000 0.0000 -0.6252 0.0000 0.0000
# 5 0.0000 0.0000 0.0000 0.0000 -147.0959 0.0000
# 6 0.0000 0.0000 0.0000 0.0000 0.0000 7.4699
#
#
#
# Elastic Compliance Matrix: (Units=1/GPa)
#
#
# Indices 1 2 3 4 5 6 
#
# 1 0.009851 -0.005935 0.002068 0.000000 0.000000 0.000000
# 2 -0.005935 0.010806 -0.002403 0.000000 0.000000 0.000000
# 3 0.002068 -0.002403 0.039364 0.000000 0.000000 0.000000
# 4 0.000000 0.000000 0.000000 -1.599444 0.000000 0.000000
# 5 0.000000 0.000000 0.000000 0.000000 -0.006798 0.000000
# 6 0.000000 0.000000 0.000000 0.000000 0.000000 0.133870
#
#
# Mechanical properties :
#
#
# Convention : Reuss Voigt Hill
#
# Bulk Modulus (GPa) = 21.06100 53.88296 37.47198
# Shear Modulus (GPa) = -3.61276 -12.53221 -8.07248
#
# Velocity S-wave (km/s) = -1.44948 -2.69965 -2.16670
# Velocity P-wave (km/s) = 3.07355 4.64954 3.94113
#
# Compressibility (1/GPa) = 0.04748113
#
# Stress axis : x y z
#
# Youngs Moduli (GPa) = 101.51588 92.54351 25.40373
#
# Poissons Ratio (x) = 0.54922 -0.05253
# Poissons Ratio (y) = 0.60247 0.06104
# Poissons Ratio (z) = -0.20992 0.22237
#
# Static dielectric constant tensor:
#      x y z
#    x 1.586710 0.000000 0.000000 
#    y 0.000000 1.603030 0.000000 
#    z 0.000000 0.000000 1.615430 
# 
# From -- ./inp_files/5275.got.cif
#   From: 2010.05.17/outbox.cif.g08.bks.cpg/sg16_3_cif.got.tgz:5275.got - 2010.06.03 22:28:35.
