data_PCOD9309558
_publ_section_title
;
Structure prediction by ZEFSAII (Michael W. Deem and Ramdas Pophale) SiO2 
 PCOD9309558
Probable space group: C 2/C
;
_chemical_formula_sum "Si O2"
_cell_formula_units_Z 28
_cell_length_a 15.000000
_cell_length_b 15.000000
_cell_length_c 24.000000
_cell_angle_alpha 90.000000
_cell_angle_beta 30.000000
_cell_angle_gamma 90.000000
_cell_volume 2700.000000
_symmetry_space_group_name_H-M "C 2/C"
_symmetry_group_IT_number 15
_symmetry_cell_setting 'monoclinic'
loop_
_space_group_symop_operation_xyz
x,y,z
-x,y,1/2-z
-x,-y,-z
x,-y,1/2+z
1/2+x,1/2+y,z
1/2-x,1/2+y,1/2-z
1/2-x,1/2-y,-z
1/2+x,1/2-y,1/2+z
loop_
_atom_site_type_symbol
_atom_site_label
_atom_site_fract_x
_atom_site_fract_y
_atom_site_fract_z
Si Si1 0.695627 0.097266 0.008574
Si Si2 0.500000 0.149081 0.750000
Si Si3 0.383062 0.816238 0.070482
Si Si4 0.306753 0.848738 0.861466
Si Si5 0.133473 0.504980 0.762119
Si Si6 0.615504 0.553594 0.773346
Si Si7 0.253274 0.212394 0.061221
Si Si8 0.000000 0.924633 0.750000
O O1 0.712540 0.142825 0.061275
O O2 0.532354 0.030382 0.110946
O O3 0.633343 0.144572 0.984254
O O4 0.901139 0.066640 0.889469
O O5 0.329885 0.208538 0.856935
O O6 0.558187 0.090662 0.771163
O O7 0.344272 0.712322 0.082368
O O8 0.226368 0.861382 0.191850
O O9 0.563843 0.821584 0.009130
O O10 0.500000 0.802879 0.750000
O O11 0.321055 0.936346 0.813740
O O12 0.298914 0.523143 0.714146
O O13 0.638375 0.481110 0.711874
O O14 0.109193 0.134252 0.146969
O O15 0.250000 0.250000 0.000000
#
# Coordination Sequence:
#
# PCOD9309558 Si02
#       8
#     8   4   8   8   8   8   8   4
#     4  11  23  44  70 102 142 186 225 301 340 433
#     4  11  24  50  67 106 138 182 243 284 352 431
#     4  12  25  44  69 106 138 187 232 291 362 411
#     4  10  23  44  67 103 139 180 232 292 352 424
#     4  11  25  45  73 101 144 185 238 290 358 419
#     4  12  26  42  75 103 142 182 242 288 353 432
#     4  11  28  46  72  96 143 186 233 296 348 420
#     4  11  26  48  65 106 134 180 239 282 352 425
#
# _framework density 10.370369999999999
#
# number of rings (size 3 to 8) (size 9 to 14) (size 15 to 20)
#    0.000    0.857    3.571    3.000    8.000    2.857 
#    2.571    0.000    0.000    0.000    0.000    0.000 
#    0.000    0.000    0.000    0.000    0.000    0.000 
#
# Total GULP energy -156166.302923 kJ/mol
# GULP energy per Si atom -5577.367962 kJ/mol
# Density = 1.034677 g / cm^3
# Si number density = 10.370370 Si / 1000 Ang^3
#
#
#
# Elastic Constant Matrix: (Units=GPa)
#
#
# Indices 1 2 3 4 5 6 
#
# 1 163.9134 34.0929 38.6523 0.0010 -4.0277 0.0001
# 2 34.0929 67.2288 32.3038 0.0001 -1.2926 0.0006
# 3 38.6523 32.3038 102.7497 0.0010 5.5481 0.0030
# 4 0.0010 0.0001 0.0010 7.1630 0.0001 -6.4714
# 5 -4.0277 -1.2926 5.5481 0.0001 42.9147 -0.0002
# 6 0.0001 0.0006 0.0030 -6.4714 -0.0002 33.8911
#
#
#
# Elastic Compliance Matrix: (Units=1/GPa)
#
#
# Indices 1 2 3 4 5 6 
#
# 1 0.007124 -0.002695 -0.001878 -0.000001 0.000830 0.000000
# 2 -0.002695 0.018607 -0.004887 0.000001 0.000939 0.000000
# 3 -0.001878 -0.004887 0.012077 -0.000003 -0.001885 -0.000002
# 4 -0.000001 0.000001 -0.000003 0.168710 0.000000 0.032215
# 5 0.000830 0.000939 -0.001885 0.000000 0.023652 0.000000
# 6 0.000000 0.000000 -0.000002 0.032215 0.000000 0.035658
#
#
# Mechanical properties :
#
#
# Convention : Reuss Voigt Hill
#
# Bulk Modulus (GPa) = 52.93841 60.44330 56.69086
# Shear Modulus (GPa) = 17.17956 32.04998 24.61477
#
# Velocity S-wave (km/s) = 2.88114 3.93525 3.44871
# Velocity P-wave (km/s) = 6.05370 7.06073 6.57652
#
# Compressibility (1/GPa) = 0.01888987
#
# Stress axis : x y z
#
# Youngs Moduli (GPa) = 140.36183 53.74194 82.80222
#
# Poissons Ratio (x) = 0.14482 0.15548
# Poissons Ratio (y) = 0.37824 0.40466
# Poissons Ratio (z) = 0.26356 0.26264
#
# Static dielectric constant tensor:
#      x y z
#    x 1.704770 0.000000 0.018900 
#    y 0.000000 1.812290 0.000000 
#    z 0.018900 0.000000 1.758930 
# 
# From -- ./inp_files/274499.got.cif
#   From: 2010.05.17/outbox.ucp.g08.bks.cvg/sg15_138_cif.got.tgz:274499.got - 2010.06.11 12:40:34.
