data_PCOD9309449
_publ_section_title
;
Structure prediction by ZEFSAII (Michael W. Deem and Ramdas Pophale) SiO2 
 PCOD9309449
Probable space group: C 2/C
;
_chemical_formula_sum "Si O2"
_cell_formula_units_Z 28
_cell_length_a 15.000000
_cell_length_b 15.000000
_cell_length_c 24.000000
_cell_angle_alpha 90.000000
_cell_angle_beta 30.000000
_cell_angle_gamma 90.000000
_cell_volume 2700.000000
_symmetry_space_group_name_H-M "C 2/C"
_symmetry_group_IT_number 15
_symmetry_cell_setting 'monoclinic'
loop_
_space_group_symop_operation_xyz
x,y,z
-x,y,1/2-z
-x,-y,-z
x,-y,1/2+z
1/2+x,1/2+y,z
1/2-x,1/2+y,1/2-z
1/2-x,1/2-y,-z
1/2+x,1/2-y,1/2+z
loop_
_atom_site_type_symbol
_atom_site_label
_atom_site_fract_x
_atom_site_fract_y
_atom_site_fract_z
Si Si1 0.809996 0.217477 0.652559
Si Si2 0.153717 0.754208 0.491293
Si Si3 0.327860 0.623950 0.201252
Si Si4 0.501068 0.042707 0.312856
Si Si5 0.923959 0.596880 0.636742
Si Si6 0.663998 0.337100 0.019265
Si Si7 0.931699 0.963825 0.223545
O O1 0.757126 0.219367 0.615880
O O2 0.782144 0.313264 0.696793
O O3 0.684506 0.153004 0.757396
O O4 0.013397 0.186856 0.554639
O O5 0.250000 0.750000 0.500000
O O6 0.985406 0.819393 0.589005
O O7 0.071754 0.656340 0.527499
O O8 0.190275 0.587751 0.228881
O O9 0.423880 0.549538 0.187208
O O10 0.500000 0.005019 0.250000
O O11 0.331501 0.107920 0.405419
O O12 0.480685 0.976652 0.376589
O O13 0.774932 0.567990 0.672355
O O14 0.558837 0.392187 0.124057
O O15 0.750000 0.250000 0.000000
O O16 0.000000 0.977934 0.250000
#
# Coordination Sequence:
#
# PCOD9309449 Si02
#       7
#     8   8   8   8   8   8   8
#     4  10  22  43  63  89 130 158 204 262 299 368
#     4  11  25  39  67  90 123 167 208 250 306 369
#     4  10  23  43  60  97 124 161 211 247 311 369
#     4  11  23  40  67  89 128 161 201 260 308 365
#     4   9  24  42  59  97 123 162 208 249 309 371
#     4  11  23  40  65  96 119 160 211 249 312 373
#     4  10  24  41  66  90 129 163 201 260 310 363
#
# _framework density 10.370369999999999
#
# number of rings (size 3 to 8) (size 9 to 14) (size 15 to 20)
#    0.000    1.714    1.429    0.857    8.000    1.714 
#    0.000    7.143    0.000    0.000    0.000    0.000 
#    0.000    0.000    0.000    0.000    0.000    0.000 
#
# Total GULP energy -156244.624339 kJ/mol
# GULP energy per Si atom -5580.165155 kJ/mol
# Density = 1.034677 g / cm^3
# Si number density = 10.370370 Si / 1000 Ang^3
#
#
#
# Elastic Constant Matrix: (Units=GPa)
#
#
# Indices 1 2 3 4 5 6 
#
# 1 150.6097 13.5230 10.2693 0.0017 10.1838 -0.0012
# 2 13.5230 68.8555 3.6414 -0.0035 -8.7321 0.0007
# 3 10.2693 3.6414 26.5371 -0.0014 0.1827 -0.0008
# 4 0.0017 -0.0035 -0.0014 8.5824 -0.0039 -4.8449
# 5 10.1838 -8.7321 0.1827 -0.0039 23.9972 0.0020
# 6 -0.0012 0.0007 -0.0008 -4.8449 0.0020 26.5202
#
#
#
# Elastic Compliance Matrix: (Units=1/GPa)
#
#
# Indices 1 2 3 4 5 6 
#
# 1 0.007218 -0.001751 -0.002528 -0.000004 -0.003681 0.000000
# 2 -0.001751 0.015771 -0.001531 0.000010 0.006494 0.000001
# 3 -0.002528 -0.001531 0.038870 0.000008 0.000220 0.000003
# 4 -0.000004 0.000010 0.000008 0.129916 0.000025 0.023734
# 5 -0.003681 0.006494 0.000220 0.000025 0.045595 0.000001
# 6 0.000000 0.000001 0.000003 0.023734 0.000001 0.042043
#
#
# Mechanical properties :
#
#
# Convention : Reuss Voigt Hill
#
# Bulk Modulus (GPa) = 19.90450 33.42998 26.66724
# Shear Modulus (GPa) = 16.24540 26.39121 21.31830
#
# Velocity S-wave (km/s) = 2.80171 3.57099 3.20948
# Velocity P-wave (km/s) = 4.48149 5.75809 5.15943
#
# Compressibility (1/GPa) = 0.05023989
#
# Stress axis : x y z
#
# Youngs Moduli (GPa) = 138.54020 63.40558 25.72684
#
# Poissons Ratio (x) = 0.11101 0.06503
# Poissons Ratio (y) = 0.24255 0.03940
# Poissons Ratio (z) = 0.35018 0.09710
#
# Static dielectric constant tensor:
#      x y z
#    x 1.698960 0.000000 -0.009160 
#    y 0.000000 1.825800 0.000000 
#    z -0.009160 0.000000 1.733820 
# 
# From -- ./inp_files/173767.got.cif
#   From: 2010.05.17/outbox.ucp.g08.bks.cvg/sg15_87_cif.got.tgz:173767.got - 2010.06.11 12:40:34.
