data_PCOD9309148
_publ_section_title
;
Structure prediction by ZEFSAII (Michael W. Deem and Ramdas Pophale) SiO2 
 PCOD9309148
Probable space group: C 2/C
;
_chemical_formula_sum "Si O2"
_cell_formula_units_Z 32
_cell_length_a 9.000000
_cell_length_b 24.000000
_cell_length_c 30.000000
_cell_angle_alpha 90.000000
_cell_angle_beta 30.000000
_cell_angle_gamma 90.000000
_cell_volume 3240.000000
_symmetry_space_group_name_H-M "C 2/C"
_symmetry_group_IT_number 15
_symmetry_cell_setting 'monoclinic'
loop_
_space_group_symop_operation_xyz
x,y,z
-x,y,1/2-z
-x,-y,-z
x,-y,1/2+z
1/2+x,1/2+y,z
1/2-x,1/2+y,1/2-z
1/2-x,1/2-y,-z
1/2+x,1/2-y,1/2+z
loop_
_atom_site_type_symbol
_atom_site_label
_atom_site_fract_x
_atom_site_fract_y
_atom_site_fract_z
Si Si1 0.774519 0.231684 0.646815
Si Si2 0.851307 0.649305 0.165530
Si Si3 0.380043 0.274425 0.907727
Si Si4 0.745705 0.441457 0.986445
Si Si5 0.728899 0.848277 0.449501
Si Si6 0.709736 0.870050 0.659651
Si Si7 0.221624 0.930270 0.469306
Si Si8 0.200989 0.333272 0.356468
O O1 0.500000 0.216475 0.750000
O O2 0.910376 0.290780 0.627936
O O3 0.626420 0.242178 0.637603
O O4 0.038185 0.187324 0.581658
O O5 0.500000 0.641856 0.250000
O O6 0.014265 0.596775 0.101512
O O7 0.985752 0.652038 0.179904
O O8 0.627663 0.319344 0.857331
O O9 0.475414 0.220886 0.914623
O O10 0.085763 0.314390 0.975152
O O11 0.438542 0.434335 0.037719
O O12 0.762887 0.410001 0.030115
O O13 0.806746 0.507809 0.965416
O O14 0.825834 0.847464 0.373061
O O15 0.500000 0.900922 0.750000
O O16 0.967741 0.905546 0.568539
O O17 0.493128 0.886225 0.397199
O O18 0.500000 0.322862 0.250000
#
# Coordination Sequence:
#
# PCOD9309148 Si02
#       8
#     8   8   8   8   8   8   8   8
#     4  11  22  37  60  96 133 168 218 274 329 400
#     4  10  21  37  63  93 125 165 217 270 328 398
#     4  12  23  40  63  98 134 173 217 272 337 410
#     4  10  23  44  67  90 126 172 230 275 330 391
#     4  12  24  40  66  98 128 182 221 275 337 399
#     4  11  22  39  64  93 130 168 209 271 337 396
#     4  10  24  46  66  92 129 175 219 281 330 398
#     4  12  26  43  64  97 137 177 218 275 345 401
#
# _framework density 9.8765429999999999
#
# number of rings (size 3 to 8) (size 9 to 14) (size 15 to 20)
#    0.000    1.000    2.500    4.875    3.500    1.000 
#    0.000    4.375    0.000    0.000    0.000    0.000 
#    0.000    0.000    0.000    0.000    0.000    0.000 
#
# Total GULP energy -178348.178111 kJ/mol
# GULP energy per Si atom -5573.380566 kJ/mol
# Density = 0.985406 g / cm^3
# Si number density = 9.876543 Si / 1000 Ang^3
#
#
#
# Elastic Constant Matrix: (Units=GPa)
#
#
# Indices 1 2 3 4 5 6 
#
# 1 106.7725 6.3521 19.6109 0.1756 -0.1729 -0.2883
# 2 6.3521 110.6439 20.4839 0.2206 -13.2628 -0.2660
# 3 19.6109 20.4839 61.2381 0.2835 -17.3976 -0.4230
# 4 0.1756 0.2206 0.2835 19.5414 -0.1567 -3.2963
# 5 -0.1729 -13.2628 -17.3976 -0.1567 33.6841 0.1623
# 6 -0.2883 -0.2660 -0.4230 -3.2963 0.1623 31.8976
#
#
#
# Elastic Compliance Matrix: (Units=1/GPa)
#
#
# Indices 1 2 3 4 5 6 
#
# 1 0.010054 -0.000117 -0.003725 -0.000043 -0.001919 0.000046
# 2 -0.000117 0.009818 -0.002518 -0.000048 0.002565 0.000029
# 3 -0.003725 -0.002518 0.021188 -0.000139 0.009932 0.000161
# 4 -0.000043 -0.000048 -0.000139 0.052085 0.000126 0.005379
# 5 -0.001919 0.002565 0.009932 0.000126 0.035818 -0.000034
# 6 0.000046 0.000029 0.000161 0.005379 -0.000034 0.031909
#
#
# Mechanical properties :
#
#
# Convention : Reuss Voigt Hill
#
# Bulk Modulus (GPa) = 35.28544 41.28314 38.28429
# Shear Modulus (GPa) = 27.31653 32.50511 29.91082
#
# Velocity S-wave (km/s) = 3.72277 4.06096 3.89554
# Velocity P-wave (km/s) = 6.03164 6.55237 6.29739
#
# Compressibility (1/GPa) = 0.02834030
#
# Stress axis : x y z
#
# Youngs Moduli (GPa) = 99.46317 101.84940 47.19629
#
# Poissons Ratio (x) = 0.01196 0.17581
# Poissons Ratio (y) = 0.01168 0.11882
# Poissons Ratio (z) = 0.37051 0.25642
#
# Static dielectric constant tensor:
#      x y z
#    x 1.733190 0.000090 0.066220 
#    y 0.000090 1.668710 0.000100 
#    z 0.066220 0.000100 1.759900 
# 
# From -- ./inp_files/309101.got.cif
#   From: 2010.05.17/outbox.ucp.g08.bks.cvg/sg15_155_cif.got.tgz:309101.got - 2010.06.11 12:40:34.
