data_PCOD9309992
_publ_section_title
;
Structure prediction by ZEFSAII (Michael W. Deem and Ramdas Pophale) SiO2 
 PCOD9309992
Probable space group: P 2 2 2
;
_chemical_formula_sum "Si O2"
_cell_formula_units_Z 28
_cell_length_a 12.224625
_cell_length_b 11.602483
_cell_length_c 10.180651
_cell_angle_alpha 90.000000
_cell_angle_beta 90.000000
_cell_angle_gamma 90.000000
_cell_volume 1443.982853
_symmetry_space_group_name_H-M "P 2 2 2"
_symmetry_group_IT_number 16
_symmetry_cell_setting 'orthorhombic'
loop_
_space_group_symop_operation_xyz
x,y,z
-x,-y,z
x,-y,-z
-x,y,-z
loop_
_atom_site_type_symbol
_atom_site_label
_atom_site_fract_x
_atom_site_fract_y
_atom_site_fract_z
Si Si1 0.523931 0.741839 0.810209
Si Si2 0.666187 0.835849 0.597519
Si Si3 0.878720 0.110851 0.778521
Si Si4 0.117725 0.720833 0.010746
Si Si5 0.650914 0.370225 0.954735
Si Si6 0.362996 0.097932 0.308357
Si Si7 0.891855 0.841002 0.718053
O O1 0.603473 0.742599 0.685226
O O2 0.423972 0.652091 0.827328
O O3 0.454295 0.859875 0.793340
O O4 0.600972 0.717916 0.935727
O O5 0.622172 0.843392 0.450458
O O6 0.798284 0.824572 0.608728
O O7 0.642047 0.961667 0.662808
O O8 0.756018 0.138954 0.737283
O O9 0.977668 0.164611 0.691274
O O10 0.882972 0.972828 0.769408
O O11 0.894763 0.163683 0.922508
O O12 0.136086 0.756796 0.161228
O O13 0.220470 0.653948 0.951088
O O14 0.000000 0.659984 0.000000
O O15 0.633043 0.500000 0.000000
#
# Coordination Sequence:
#
# PCOD9309992 Si02
#       7
#     4   4   4   4   4   4   4
#     4  11  20  37  53  73 105 145 168 211 267 314
#     4  10  20  33  52  80 113 146 179 210 243 302
#     4   9  17  30  50  79 113 143 173 211 257 314
#     4  10  18  34  57  82 104 132 170 214 275 325
#     4  11  24  40  58  79 100 127 173 233 279 312
#     4  10  20  33  52  80 113 146 179 210 243 302
#     4   9  17  30  50  79 113 143 173 211 257 314
#
# _framework density 19.390810999999999
#
# number of rings (size 3 to 8) (size 9 to 14) (size 15 to 20)
#    0.000    2.000    2.857    2.143    0.000    3.714 
#    0.000    8.571    0.000    6.857    0.000    0.000 
#    0.000    4.571    0.000    0.000    0.000    0.000 
#
# Total GULP energy -155876.574568 kJ/mol
# GULP energy per Si atom -5567.020520 kJ/mol
# Density = 1.934668 g / cm^3
# Si number density = 19.390811 Si / 1000 Ang^3
#
#
#
# Elastic Constant Matrix: (Units=GPa)
#
#
# Indices 1 2 3 4 5 6 
#
# 1 147.3684 17.7800 23.2691 0.0000 0.0000 0.0000
# 2 17.7800 31.2626 17.0437 0.0000 0.0000 0.0000
# 3 23.2691 17.0437 49.4527 0.0000 0.0000 0.0000
# 4 0.0000 0.0000 0.0000 13.2211 0.0000 0.0000
# 5 0.0000 0.0000 0.0000 0.0000 23.1872 0.0000
# 6 0.0000 0.0000 0.0000 0.0000 0.0000 10.0649
#
#
#
# Elastic Compliance Matrix: (Units=1/GPa)
#
#
# Indices 1 2 3 4 5 6 
#
# 1 0.007538 -0.002898 -0.002548 0.000000 0.000000 0.000000
# 2 -0.002898 0.040502 -0.012595 0.000000 0.000000 0.000000
# 3 -0.002548 -0.012595 0.025761 0.000000 0.000000 0.000000
# 4 0.000000 0.000000 0.000000 0.075637 0.000000 0.000000
# 5 0.000000 0.000000 0.000000 0.000000 0.043127 0.000000
# 6 0.000000 0.000000 0.000000 0.000000 0.000000 0.099355
#
#
# Mechanical properties :
#
#
# Convention : Reuss Voigt Hill
#
# Bulk Modulus (GPa) = 26.51219 38.25215 32.38217
# Shear Modulus (GPa) = 14.68108 20.62737 17.65423
#
# Velocity S-wave (km/s) = 2.75456 3.26509 3.02063
# Velocity P-wave (km/s) = 4.88047 5.82959 5.37602
#
# Compressibility (1/GPa) = 0.03771850
#
# Stress axis : x y z
#
# Youngs Moduli (GPa) = 132.66727 24.69026 38.81809
#
# Poissons Ratio (x) = 0.07155 0.09891
# Poissons Ratio (y) = 0.38444 0.48893
# Poissons Ratio (z) = 0.33804 0.31098
#
# Static dielectric constant tensor:
#      x y z
#    x 1.781480 0.000000 0.000000 
#    y 0.000000 1.672050 0.000000 
#    z 0.000000 0.000000 1.684940 
# 
# From -- ./inp_files/6893.got.cif
#   From: 2010.05.17/outbox.cif.g08.bks.cpg/sg16_4_cif.got.tgz:6893.got - 2010.06.03 22:28:35.
