data_PCOD9309991
_publ_section_title
;
Structure prediction by ZEFSAII (Michael W. Deem and Ramdas Pophale) SiO2 
 PCOD9309991
Probable space group: P 2 2 2
;
_chemical_formula_sum "Si O2"
_cell_formula_units_Z 19
_cell_length_a 11.323359
_cell_length_b 14.228921
_cell_length_c 6.109483
_cell_angle_alpha 90.000000
_cell_angle_beta 90.000000
_cell_angle_gamma 90.000000
_cell_volume 984.354895
_symmetry_space_group_name_H-M "P 2 2 2"
_symmetry_group_IT_number 16
_symmetry_cell_setting 'orthorhombic'
loop_
_space_group_symop_operation_xyz
x,y,z
-x,-y,z
x,-y,-z
-x,y,-z
loop_
_atom_site_type_symbol
_atom_site_label
_atom_site_fract_x
_atom_site_fract_y
_atom_site_fract_z
Si Si1 0.134301 0.843980 0.441947
Si Si2 0.332727 0.086128 0.838664
Si Si3 0.119632 0.678887 0.103854
Si Si4 0.500000 0.180882 0.500000
Si Si5 0.000000 0.500000 0.000000
Si Si6 0.702476 0.235640 0.800422
O O1 0.205608 0.914821 0.283927
O O2 0.143897 0.743076 0.313967
O O3 0.206091 0.828376 0.664154
O O4 0.000000 0.866825 0.500000
O O5 0.427313 0.110437 0.654667
O O6 0.339762 0.176122 0.994257
O O7 0.352178 0.000000 0.000000
O O8 0.221085 0.683163 0.917961
O O9 0.000000 0.723140 0.000000
O O10 0.080126 0.571465 0.140939
O O11 0.591801 0.245014 0.637381
#
# Coordination Sequence:
#
# PCOD9309991 Si02
#       6
#     4   4   4   2   1   4
#     4  10  18  34  57  78 115 155 182 224 289 356
#     4  10  23  38  56  82 110 146 200 251 289 334
#     4   9  17  32  56  84 118 144 185 229 288 348
#     4  10  22  37  58  80 109 154 202 244 295 338
#     4   8  16  32  58  88 116 142 180 236 282 342
#     4  10  20  35  55  83 112 150 190 237 286 346
#
# _framework density 19.301981000000001
#
# number of rings (size 3 to 8) (size 9 to 14) (size 15 to 20)
#    0.632    1.684    2.105    0.632    0.000    5.895 
#    0.000    7.895    0.000    1.263    0.000   42.737 
#    0.000    0.000    0.000    0.000    0.000    0.000 
#
# Total GULP energy -105784.254857 kJ/mol
# GULP energy per Si atom -5567.592361 kJ/mol
# Density = 1.925805 g / cm^3
# Si number density = 19.301981 Si / 1000 Ang^3
#
#
#
# Elastic Constant Matrix: (Units=GPa)
#
#
# Indices 1 2 3 4 5 6 
#
# 1 139.5501 21.1093 60.5663 0.0000 0.0000 0.0000
# 2 21.1093 65.8455 24.5566 0.0000 0.0000 0.0000
# 3 60.5663 24.5566 104.6486 0.0000 0.0000 0.0000
# 4 0.0000 0.0000 0.0000 12.4066 0.0000 0.0000
# 5 0.0000 0.0000 0.0000 0.0000 39.9163 0.0000
# 6 0.0000 0.0000 0.0000 0.0000 0.0000 13.5635
#
#
#
# Elastic Compliance Matrix: (Units=1/GPa)
#
#
# Indices 1 2 3 4 5 6 
#
# 1 0.009643 -0.001107 -0.005321 0.000000 0.000000 0.000000
# 2 -0.001107 0.016771 -0.003295 0.000000 0.000000 0.000000
# 3 -0.005321 -0.003295 0.013409 0.000000 0.000000 0.000000
# 4 0.000000 0.000000 0.000000 0.080602 0.000000 0.000000
# 5 0.000000 0.000000 0.000000 0.000000 0.025052 0.000000
# 6 0.000000 0.000000 0.000000 0.000000 0.000000 0.073727
#
#
# Mechanical properties :
#
#
# Convention : Reuss Voigt Hill
#
# Bulk Modulus (GPa) = 49.07607 58.05651 53.56629
# Shear Modulus (GPa) = 20.37144 26.76475 23.56810
#
# Velocity S-wave (km/s) = 3.25223 3.72779 3.49810
# Velocity P-wave (km/s) = 6.29152 6.97652 6.64286
#
# Compressibility (1/GPa) = 0.02037653
#
# Stress axis : x y z
#
# Youngs Moduli (GPa) = 103.70513 59.62793 74.57939
#
# Poissons Ratio (x) = 0.06600 0.39684
# Poissons Ratio (y) = 0.11479 0.24572
# Poissons Ratio (z) = 0.55182 0.19646
#
# Static dielectric constant tensor:
#      x y z
#    x 1.752180 0.000000 0.000000 
#    y 0.000000 1.667950 0.000000 
#    z 0.000000 0.000000 1.719070 
# 
# From -- ./inp_files/1394.got.cif
#   From: 2010.05.17/outbox.cif.g08.bks.cpg/sg16_1_cif.got.tgz:1394.got - 2010.06.03 22:28:35.
