data_PCOD9309433
_publ_section_title
;
Structure prediction by ZEFSAII (Michael W. Deem and Ramdas Pophale) SiO2 
 PCOD9309433
Probable space group: C 2/C
;
_chemical_formula_sum "Si O2"
_cell_formula_units_Z 30
_cell_length_a 9.000000
_cell_length_b 18.000000
_cell_length_c 27.000000
_cell_angle_alpha 90.000000
_cell_angle_beta 50.000000
_cell_angle_gamma 90.000000
_cell_volume 3350.678394
_symmetry_space_group_name_H-M "C 2/C"
_symmetry_group_IT_number 15
_symmetry_cell_setting 'monoclinic'
loop_
_space_group_symop_operation_xyz
x,y,z
-x,y,1/2-z
-x,-y,-z
x,-y,1/2+z
1/2+x,1/2+y,z
1/2-x,1/2+y,1/2-z
1/2-x,1/2-y,-z
1/2+x,1/2-y,1/2+z
loop_
_atom_site_type_symbol
_atom_site_label
_atom_site_fract_x
_atom_site_fract_y
_atom_site_fract_z
Si Si1 0.929229 0.535805 0.355477
Si Si2 0.198622 0.937714 0.234618
Si Si3 0.636415 0.242966 0.672686
Si Si4 0.267648 0.678762 0.929998
Si Si5 0.304767 0.219138 0.669172
Si Si6 0.000000 0.351223 0.750000
Si Si7 0.469295 0.168549 0.422628
Si Si8 0.157537 0.917338 0.357949
O O1 0.989760 0.593315 0.298856
O O2 0.910327 0.592727 0.406211
O O3 0.749454 0.481398 0.375266
O O4 0.111913 0.481032 0.325040
O O5 0.223765 0.849652 0.219050
O O6 0.189034 0.947992 0.295729
O O7 0.000000 0.961488 0.250000
O O8 0.500000 0.257662 0.750000
O O9 0.512077 0.239025 0.648739
O O10 0.722440 0.159472 0.660836
O O11 0.807436 0.304472 0.632414
O O12 0.207583 0.688748 0.884956
O O13 0.353440 0.760195 0.925401
O O14 0.434768 0.615649 0.904758
O O15 0.094532 0.663388 0.006065
O O16 0.177227 0.293136 0.705143
#
# Coordination Sequence:
#
# PCOD9309433 Si02
#       8
#     8   8   8   8   8   4   8   8
#     4  12  23  39  61  96 130 158 205 281 318 361
#     4  12  22  37  63  95 129 159 205 258 323 380
#     4  11  21  37  65  93 125 163 206 263 319 380
#     4  10  22  42  66  87 123 180 215 247 309 394
#     4  12  21  37  67  91 122 174 209 250 316 390
#     4  12  22  36  62  98 128 150 208 264 310 364
#     4  10  24  43  60  92 131 163 216 265 307 368
#     4  11  20  38  63  91 124 167 209 250 324 383
#
# _framework density 8.9534109999999991
#
# number of rings (size 3 to 8) (size 9 to 14) (size 15 to 20)
#    0.000    0.800    7.333    0.800    0.000    2.667 
#    0.000    0.667    0.000    0.000    0.000    0.000 
#    0.000    0.000    0.000    0.000    0.000    0.000 
#
# Total GULP energy -167281.104149 kJ/mol
# GULP energy per Si atom -5576.036805 kJ/mol
# Density = 0.893303 g / cm^3
# Si number density = 8.953411 Si / 1000 Ang^3
#
#
#
# Elastic Constant Matrix: (Units=GPa)
#
#
# Indices 1 2 3 4 5 6 
#
# 1 125.5734 31.1020 39.0320 0.0001 3.8589 -0.0003
# 2 31.1020 99.5923 22.2599 0.0003 -5.8624 -0.0002
# 3 39.0320 22.2599 91.4901 0.0004 -1.4787 0.0001
# 4 0.0001 0.0003 0.0004 26.9646 0.0000 6.7339
# 5 3.8589 -5.8624 -1.4787 0.0000 24.0300 0.0000
# 6 -0.0003 -0.0002 0.0001 6.7339 0.0000 40.8114
#
#
#
# Elastic Compliance Matrix: (Units=1/GPa)
#
#
# Indices 1 2 3 4 5 6 
#
# 1 0.009750 -0.002375 -0.003620 0.000000 -0.002368 0.000000
# 2 -0.002375 0.011341 -0.001697 0.000000 0.003044 0.000000
# 3 -0.003620 -0.001697 0.012903 0.000000 0.000961 0.000000
# 4 0.000000 0.000000 0.000000 0.038679 0.000000 -0.006382
# 5 -0.002368 0.003044 0.000961 0.000000 0.042797 0.000000
# 6 0.000000 0.000000 0.000000 -0.006382 0.000000 0.025556
#
#
# Mechanical properties :
#
#
# Convention : Reuss Voigt Hill
#
# Bulk Modulus (GPa) = 53.73449 55.71595 54.72522
# Shear Modulus (GPa) = 30.74792 33.31198 32.02995
#
# Velocity S-wave (km/s) = 4.14829 4.31779 4.23389
# Velocity P-wave (km/s) = 7.28131 7.48597 7.38435
#
# Compressibility (1/GPa) = 0.01861002
#
# Stress axis : x y z
#
# Youngs Moduli (GPa) = 102.56782 88.17495 77.50218
#
# Poissons Ratio (x) = 0.20942 0.28055
# Poissons Ratio (y) = 0.24360 0.13151
# Poissons Ratio (z) = 0.37128 0.14962
#
# Static dielectric constant tensor:
#      x y z
#    x 1.648440 0.000000 -0.011810 
#    y 0.000000 1.596630 0.000000 
#    z -0.011810 0.000000 1.634470 
# 
# From -- ./inp_files/289563.got.cif
#   From: 2010.05.17/outbox.ucp.g08.bks.cvg/sg15_145_cif.got.tgz:289563.got - 2010.06.11 12:40:34.
