data_PCOD9309285
_publ_section_title
;
Structure prediction by ZEFSAII (Michael W. Deem and Ramdas Pophale) SiO2 
 PCOD9309285
Probable space group: C 2/C
;
_chemical_formula_sum "Si O2"
_cell_formula_units_Z 24
_cell_length_a 12.000000
_cell_length_b 27.000000
_cell_length_c 21.000000
_cell_angle_alpha 90.000000
_cell_angle_beta 160.000000
_cell_angle_gamma 90.000000
_cell_volume 2327.105055
_symmetry_space_group_name_H-M "C 2/C"
_symmetry_group_IT_number 15
_symmetry_cell_setting 'monoclinic'
loop_
_space_group_symop_operation_xyz
x,y,z
-x,y,1/2-z
-x,-y,-z
x,-y,1/2+z
1/2+x,1/2+y,z
1/2-x,1/2+y,1/2-z
1/2-x,1/2-y,-z
1/2+x,1/2-y,1/2+z
loop_
_atom_site_type_symbol
_atom_site_label
_atom_site_fract_x
_atom_site_fract_y
_atom_site_fract_z
Si Si1 0.831366 0.136049 0.887979
Si Si2 0.210167 0.069908 0.754583
Si Si3 0.907051 0.302384 0.068265
Si Si4 0.148087 0.341190 0.070386
Si Si5 0.569293 0.533740 0.361970
Si Si6 0.325294 0.372547 0.796374
O O1 0.500000 0.122290 0.750000
O O2 0.914606 0.097646 0.875937
O O3 0.706162 0.183459 0.777487
O O4 0.114460 0.137573 0.095004
O O5 0.278111 0.108589 0.848680
O O6 0.559372 0.046916 0.925509
O O7 0.994432 0.023972 0.660739
O O8 0.973279 0.306781 0.028573
O O9 0.750000 0.250000 0.000000
O O10 0.640989 0.344966 0.937370
O O11 0.500000 0.317753 0.250000
O O12 0.969419 0.351866 0.906996
O O13 0.500000 0.545105 0.250000
O O14 0.358188 0.569772 0.294202
#
# Coordination Sequence:
#
# PCOD9309285 Si02
#       6
#     8   8   8   8   8   8
#     4   9  19  40  59  91 127 158 209 271 313 388
#     4  11  23  37  59  87 128 168 219 261 318 379
#     4  10  21  42  72  97 121 166 213 260 324 396
#     4  11  23  41  63  95 129 165 213 273 316 377
#     4  12  21  36  59  91 121 169 222 267 309 378
#     4  11  21  39  64  90 127 163 216 264 318 387
#
# _framework density 10.313243
#
# number of rings (size 3 to 8) (size 9 to 14) (size 15 to 20)
#    0.000    1.333    6.667    1.500    2.333    4.667 
#    0.000    4.167    0.000    0.000    0.000    0.000 
#    0.000    0.000    0.000    0.000    0.000    0.000 
#
# Total GULP energy -133804.274522 kJ/mol
# GULP energy per Si atom -5575.178105 kJ/mol
# Density = 1.028977 g / cm^3
# Si number density = 10.313243 Si / 1000 Ang^3
#
#
#
# Elastic Constant Matrix: (Units=GPa)
#
#
# Indices 1 2 3 4 5 6 
#
# 1 74.0139 22.2188 56.2473 -0.0353 -45.3637 -0.0278
# 2 22.2188 94.5103 12.4807 -0.0306 -9.3016 0.0676
# 3 56.2473 12.4807 109.6699 0.2238 -47.6569 0.0496
# 4 -0.0353 -0.0306 0.2238 17.1855 0.0382 3.7635
# 5 -45.3637 -9.3016 -47.6569 0.0382 50.0243 -0.0050
# 6 -0.0278 0.0676 0.0496 3.7635 -0.0050 30.3074
#
#
#
# Elastic Compliance Matrix: (Units=1/GPa)
#
#
# Indices 1 2 3 4 5 6 
#
# 1 0.035218 -0.004964 -0.006861 0.000088 0.024477 0.000048
# 2 -0.004964 0.011502 0.000359 0.000017 -0.002021 -0.000033
# 3 -0.006861 0.000359 0.016932 -0.000256 0.009975 -0.000001
# 4 0.000088 0.000017 -0.000256 0.059819 -0.000207 -0.007428
# 5 0.024477 -0.002021 0.009975 -0.000207 0.051314 0.000045
# 6 0.000048 -0.000033 -0.000001 -0.007428 0.000045 0.033918
#
#
# Mechanical properties :
#
#
# Convention : Reuss Voigt Hill
#
# Bulk Modulus (GPa) = 24.55964 51.12087 37.84025
# Shear Modulus (GPa) = 20.39082 31.98657 26.18870
#
# Velocity S-wave (km/s) = 3.14757 3.94223 3.56710
# Velocity P-wave (km/s) = 5.01421 6.74978 5.94566
#
# Compressibility (1/GPa) = 0.04071721
#
# Stress axis : x y z
#
# Youngs Moduli (GPa) = 28.39493 86.94395 59.06077
#
# Poissons Ratio (x) = 0.43163 0.40523
# Poissons Ratio (y) = 0.14096 -0.02119
# Poissons Ratio (z) = 0.19482 -0.03119
#
# Static dielectric constant tensor:
#      x y z
#    x 1.779000 -0.000100 0.031670 
#    y -0.000100 1.771820 -0.000170 
#    z 0.031670 -0.000170 1.778500 
# 
# From -- ./inp_files/241057.got.cif
#   From: 2010.05.17/outbox.ucp.g08.bks.cvg/sg15_121_cif.got.tgz:241057.got - 2010.06.11 12:40:34.
