data_PCOD9309055
_publ_section_title
;
Structure prediction by ZEFSAII (Michael W. Deem and Ramdas Pophale) SiO2 
 PCOD9309055
Probable space group: C 2/C
;
_chemical_formula_sum "Si O2"
_cell_formula_units_Z 24
_cell_length_a 9.000000
_cell_length_b 27.000000
_cell_length_c 12.000000
_cell_angle_alpha 90.000000
_cell_angle_beta 120.000000
_cell_angle_gamma 90.000000
_cell_volume 2525.330077
_symmetry_space_group_name_H-M "C 2/C"
_symmetry_group_IT_number 15
_symmetry_cell_setting 'monoclinic'
loop_
_space_group_symop_operation_xyz
x,y,z
-x,y,1/2-z
-x,-y,-z
x,-y,1/2+z
1/2+x,1/2+y,z
1/2-x,1/2+y,1/2-z
1/2-x,1/2-y,-z
1/2+x,1/2-y,1/2+z
loop_
_atom_site_type_symbol
_atom_site_label
_atom_site_fract_x
_atom_site_fract_y
_atom_site_fract_z
Si Si1 0.955608 0.793487 0.478041
Si Si2 0.868875 0.319102 0.995976
Si Si3 0.146292 0.136517 0.215680
Si Si4 0.832206 0.432299 0.624131
Si Si5 0.843052 0.601884 0.872558
Si Si6 0.000000 0.471100 0.250000
Si Si7 0.500000 0.663018 0.750000
O O1 0.939516 0.735078 0.492664
O O2 0.773804 0.814475 0.459239
O O3 0.089605 0.818749 0.613250
O O4 0.004984 0.805975 0.368416
O O5 0.790833 0.343089 0.853965
O O6 0.019320 0.354694 0.089147
O O7 0.185123 0.091595 0.145351
O O8 0.000000 0.122439 0.250000
O O9 0.837396 0.417833 0.497532
O O10 0.000000 0.410992 0.750000
O O11 0.859509 0.491219 0.644907
O O12 0.660175 0.627115 0.788437
O O13 0.903898 0.560608 0.807791
#
# Coordination Sequence:
#
# PCOD9309055 Si02
#       7
#     8   8   8   8   8   4   4
#     4  10  23  39  59  97 126 169 213 250 309 379
#     4  10  22  40  66  85 128 175 209 253 312 373
#     4  10  20  40  64  92 127 162 215 263 308 369
#     4  10  21  41  68  89 115 161 214 259 308 380
#     4  12  23  43  63  93 129 164 208 264 316 374
#     4  10  24  42  69  92 120 165 210 260 330 378
#     4  12  26  38  61  92 140 157 208 264 310 368
#
# _framework density 9.5037079999999996
#
# number of rings (size 3 to 8) (size 9 to 14) (size 15 to 20)
#    0.500    1.000    3.333    1.500    2.333    2.000 
#    3.000    0.833    0.000    0.000    0.000    0.000 
#    0.000    0.000    0.000    0.000    0.000    0.000 
#
# Total GULP energy -133748.133510 kJ/mol
# GULP energy per Si atom -5572.838896 kJ/mol
# Density = 0.948208 g / cm^3
# Si number density = 9.503708 Si / 1000 Ang^3
#
#
#
# Elastic Constant Matrix: (Units=GPa)
#
#
# Indices 1 2 3 4 5 6 
#
# 1 46.8028 42.6747 6.6595 0.0000 -19.5145 0.0000
# 2 42.6747 96.2039 8.1720 0.0000 -1.5350 0.0000
# 3 6.6595 8.1720 28.7426 0.0000 -16.1123 0.0000
# 4 0.0000 0.0000 0.0000 11.1904 0.0000 -3.2575
# 5 -19.5145 -1.5350 -16.1123 0.0000 46.2632 0.0000
# 6 0.0000 0.0000 0.0000 -3.2575 0.0000 30.6280
#
#
#
# Elastic Compliance Matrix: (Units=1/GPa)
#
#
# Indices 1 2 3 4 5 6 
#
# 1 0.050850 -0.022849 0.007845 0.000000 0.023424 0.000000
# 2 -0.022849 0.020947 -0.007052 0.000000 -0.011399 0.000000
# 3 0.007845 -0.007052 0.045607 0.000000 0.018959 0.000000
# 4 0.000000 0.000000 0.000000 0.092217 0.000000 0.009808
# 5 0.023424 -0.011399 0.018959 0.000000 0.037721 0.000000
# 6 0.000000 0.000000 0.000000 0.009808 0.000000 0.033693
#
#
# Mechanical properties :
#
#
# Convention : Reuss Voigt Hill
#
# Bulk Modulus (GPa) = 13.64384 31.86241 22.75312
# Shear Modulus (GPa) = 14.30302 25.23253 19.76777
#
# Velocity S-wave (km/s) = 2.74614 3.64745 3.22841
# Velocity P-wave (km/s) = 4.15317 5.87691 5.08856
#
# Compressibility (1/GPa) = 0.07329317
#
# Stress axis : x y z
#
# Youngs Moduli (GPa) = 19.66556 47.73892 21.92669
#
# Poissons Ratio (x) = 1.09079 -0.17202
# Poissons Ratio (y) = 0.44934 0.15462
# Poissons Ratio (z) = -0.15428 0.33664
#
# Static dielectric constant tensor:
#      x y z
#    x 1.684920 0.000000 0.034900 
#    y 0.000000 1.644140 0.000000 
#    z 0.034900 0.000000 1.670470 
# 
# From -- ./inp_files/80580.got.cif
#   From: 2010.05.17/outbox.ucp.g08.bks.cvg/sg15_41_cif.got.tgz:80580.got - 2010.06.11 12:40:34.
