data_PCOD9309624
_publ_section_title
;
Structure prediction by ZEFSAII (Michael W. Deem and Ramdas Pophale) SiO2 
 PCOD9309624
Probable space group: C 2/C
;
_chemical_formula_sum "Si O2"
_cell_formula_units_Z 24
_cell_length_a 18.000000
_cell_length_b 12.000000
_cell_length_c 12.000000
_cell_angle_alpha 90.000000
_cell_angle_beta 110.000000
_cell_angle_gamma 90.000000
_cell_volume 2435.683273
_symmetry_space_group_name_H-M "C 2/C"
_symmetry_group_IT_number 15
_symmetry_cell_setting 'monoclinic'
loop_
_space_group_symop_operation_xyz
x,y,z
-x,y,1/2-z
-x,-y,-z
x,-y,1/2+z
1/2+x,1/2+y,z
1/2-x,1/2+y,1/2-z
1/2-x,1/2-y,-z
1/2+x,1/2-y,1/2+z
loop_
_atom_site_type_symbol
_atom_site_label
_atom_site_fract_x
_atom_site_fract_y
_atom_site_fract_z
Si Si1 0.378829 0.251561 0.979632
Si Si2 0.064280 0.175498 0.562594
Si Si3 0.406702 0.153117 0.231083
Si Si4 0.843233 0.961783 0.826049
Si Si5 0.404840 0.714489 0.176145
Si Si6 0.171870 0.419212 0.239113
O O1 0.333739 0.363775 0.914970
O O2 0.356187 0.147211 0.887410
O O3 0.471044 0.290758 0.012881
O O4 0.368411 0.208488 0.100595
O O5 0.101626 0.260200 0.671564
O O6 0.098910 0.192238 0.457116
O O7 0.086537 0.049669 0.610538
O O8 0.500000 0.141767 0.250000
O O9 0.374485 0.032791 0.252490
O O10 0.869631 0.888771 0.731073
O O11 0.763044 0.036833 0.776919
O O12 0.500000 0.728795 0.250000
O O13 0.353974 0.824304 0.183789
#
# Coordination Sequence:
#
# PCOD9309624 Si02
#       6
#     8   8   8   8   8   8
#     4  10  24  47  69 101 143 188 238 293 350 430
#     4  11  24  44  73 104 136 188 251 282 353 431
#     4  10  25  41  72 102 140 190 240 286 355 436
#     4  11  26  42  72 104 141 182 239 301 358 407
#     4  11  24  46  75 100 139 192 238 289 348 429
#     4  11  25  44  68 105 144 184 231 300 365 409
#
# _framework density 9.8534980000000001
#
# number of rings (size 3 to 8) (size 9 to 14) (size 15 to 20)
#    0.000    1.333    3.333    1.000    9.333    4.667 
#    0.000    0.000    0.000    0.000    0.000    0.000 
#    0.000    0.000    0.000    0.000    0.000    0.000 
#
# Total GULP energy -134025.992716 kJ/mol
# GULP energy per Si atom -5584.416363 kJ/mol
# Density = 0.983107 g / cm^3
# Si number density = 9.853498 Si / 1000 Ang^3
#
#
#
# Elastic Constant Matrix: (Units=GPa)
#
#
# Indices 1 2 3 4 5 6 
#
# 1 100.7654 57.2602 40.6326 0.0000 2.2312 0.0000
# 2 57.2602 195.8593 86.2090 0.0000 -4.8842 0.0000
# 3 40.6326 86.2090 150.8417 0.0000 -18.8815 0.0000
# 4 0.0000 0.0000 0.0000 35.8616 0.0000 5.7521
# 5 2.2312 -4.8842 -18.8815 0.0000 28.3782 0.0000
# 6 0.0000 0.0000 0.0000 5.7521 0.0000 50.0214
#
#
#
# Elastic Compliance Matrix: (Units=1/GPa)
#
#
# Indices 1 2 3 4 5 6 
#
# 1 0.012415 -0.002767 -0.002121 0.000000 -0.002864 0.000000
# 2 -0.002767 0.007502 -0.003658 0.000000 -0.000925 0.000000
# 3 -0.002121 -0.003658 0.010072 0.000000 0.006239 0.000000
# 4 0.000000 0.000000 0.000000 0.028409 0.000000 -0.003267
# 5 -0.002864 -0.000925 0.006239 0.000000 0.039455 0.000000
# 6 0.000000 0.000000 0.000000 -0.003267 0.000000 0.020367
#
#
# Mechanical properties :
#
#
# Convention : Reuss Voigt Hill
#
# Bulk Modulus (GPa) = 77.53912 90.62999 84.08455
# Shear Modulus (GPa) = 35.81350 40.40988 38.11169
#
# Velocity S-wave (km/s) = 4.26760 4.53320 4.40240
# Velocity P-wave (km/s) = 7.98215 8.57254 8.28260
#
# Compressibility (1/GPa) = 0.01289672
#
# Stress axis : x y z
#
# Youngs Moduli (GPa) = 80.54507 133.30391 99.28301
#
# Poissons Ratio (x) = 0.36891 0.21060
# Poissons Ratio (y) = 0.22290 0.36314
# Poissons Ratio (z) = 0.17085 0.48758
#
# Static dielectric constant tensor:
#      x y z
#    x 1.715760 0.000000 0.022200 
#    y 0.000000 1.653090 0.000000 
#    z 0.022200 0.000000 1.731930 
# 
# From -- ./inp_files/104285.got.cif
#   From: 2010.05.17/outbox.ucp.g08.bks.cvg/sg15_53_cif.got.tgz:104285.got - 2010.06.11 12:40:34.
