data_PCOD9309828
_publ_section_title
;
Structure prediction by ZEFSAII (Michael W. Deem and Ramdas Pophale) SiO2 
 PCOD9309828
Probable space group: C 2/C
;
_chemical_formula_sum "Si O2"
_cell_formula_units_Z 24
_cell_length_a 30.000000
_cell_length_b 9.000000
_cell_length_c 18.000000
_cell_angle_alpha 90.000000
_cell_angle_beta 150.000000
_cell_angle_gamma 90.000000
_cell_volume 2430.000000
_symmetry_space_group_name_H-M "C 2/C"
_symmetry_group_IT_number 15
_symmetry_cell_setting 'monoclinic'
loop_
_space_group_symop_operation_xyz
x,y,z
-x,y,1/2-z
-x,-y,-z
x,-y,1/2+z
1/2+x,1/2+y,z
1/2-x,1/2+y,1/2-z
1/2-x,1/2-y,-z
1/2+x,1/2-y,1/2+z
loop_
_atom_site_type_symbol
_atom_site_label
_atom_site_fract_x
_atom_site_fract_y
_atom_site_fract_z
Si Si1 0.315856 0.156415 0.650690
Si Si2 0.926172 0.571644 0.203480
Si Si3 0.744142 0.869266 0.148307
Si Si4 0.088107 0.954028 0.674182
Si Si5 0.273574 0.533057 0.343912
Si Si6 0.015481 0.119283 0.858493
O O1 0.250000 0.250000 0.500000
O O2 0.378885 0.043195 0.693208
O O3 0.379227 0.283105 0.779832
O O4 0.256584 0.068868 0.628193
O O5 0.978506 0.710330 0.320110
O O6 0.000000 0.510823 0.250000
O O7 0.843291 0.625246 0.031099
O O8 0.764294 0.697530 0.195323
O O9 0.827081 0.947852 0.227246
O O10 0.734531 0.956186 0.213042
O O11 0.052925 0.004577 0.703281
O O12 0.000000 0.000000 0.500000
O O13 0.380119 0.569587 0.480361
O O14 0.000000 0.109249 0.750000
#
# Coordination Sequence:
#
# PCOD9309828 Si02
#       6
#     8   8   8   8   8   8
#     4  12  27  44  74 110 147 191 245 303 362 433
#     4  11  25  47  75 106 142 191 247 302 360 436
#     4  12  25  47  74 105 152 189 241 304 371 431
#     4  12  26  47  70 106 148 193 241 299 361 435
#     4  12  26  46  74 110 145 192 238 306 371 429
#     4  11  23  45  74 103 140 190 242 296 363 427
#
# _framework density 9.8765429999999999
#
# number of rings (size 3 to 8) (size 9 to 14) (size 15 to 20)
#    0.000    0.333    6.667    3.000    0.000    4.667 
#    0.000    2.500    0.000    0.000    0.000    0.000 
#    0.000    0.000    0.000    0.000    0.000    0.000 
#
# Total GULP energy -133907.304717 kJ/mol
# GULP energy per Si atom -5579.471030 kJ/mol
# Density = 0.985406 g / cm^3
# Si number density = 9.876543 Si / 1000 Ang^3
#
#
#
# Elastic Constant Matrix: (Units=GPa)
#
#
# Indices 1 2 3 4 5 6 
#
# 1 120.9901 62.1069 10.6935 0.0000 32.0134 0.0000
# 2 62.1069 158.2922 41.8143 0.0000 7.2339 0.0000
# 3 10.6935 41.8143 96.8379 0.0000 16.3800 0.0000
# 4 0.0000 0.0000 0.0000 37.9392 0.0000 4.8020
# 5 32.0134 7.2339 16.3800 0.0000 34.2688 0.0000
# 6 0.0000 0.0000 0.0000 4.8020 0.0000 58.4145
#
#
#
# Elastic Compliance Matrix: (Units=1/GPa)
#
#
# Indices 1 2 3 4 5 6 
#
# 1 0.014836 -0.006066 0.003382 0.000000 -0.014196 0.000000
# 2 -0.006066 0.009611 -0.004456 0.000000 0.005767 0.000000
# 3 0.003382 -0.004456 0.013330 0.000000 -0.008590 0.000000
# 4 0.000000 0.000000 0.000000 0.026635 0.000000 -0.002190
# 5 -0.014196 0.005767 -0.008590 0.000000 0.045331 0.000000
# 6 0.000000 0.000000 0.000000 -0.002190 0.000000 0.017299
#
#
# Mechanical properties :
#
#
# Convention : Reuss Voigt Hill
#
# Bulk Modulus (GPa) = 42.55631 67.26107 54.90869
# Shear Modulus (GPa) = 33.52257 43.55821 38.54039
#
# Velocity S-wave (km/s) = 4.12403 4.70098 4.42193
# Velocity P-wave (km/s) = 6.65340 7.97436 7.34364
#
# Compressibility (1/GPa) = 0.02349828
#
# Stress axis : x y z
#
# Youngs Moduli (GPa) = 67.40381 104.05020 75.01837
#
# Poissons Ratio (x) = 0.63113 -0.25371
# Poissons Ratio (y) = 0.40885 0.33425
# Poissons Ratio (z) = -0.22796 0.46361
#
# Static dielectric constant tensor:
#      x y z
#    x 1.795790 0.000000 -0.050700 
#    y 0.000000 1.754880 0.000000 
#    z -0.050700 0.000000 1.736120 
# 
# From -- ./inp_files/224698.got.cif
#   From: 2010.05.17/outbox.ucp.g08.bks.cvg/sg15_113_cif.got.tgz:224698.got - 2010.06.11 12:40:34.
