data_PCOD9309520
_publ_section_title
;
Structure prediction by ZEFSAII (Michael W. Deem and Ramdas Pophale) SiO2 
 PCOD9309520
Probable space group: C 2/C
;
_chemical_formula_sum "Si O2"
_cell_formula_units_Z 28
_cell_length_a 24.000000
_cell_length_b 18.000000
_cell_length_c 21.000000
_cell_angle_alpha 90.000000
_cell_angle_beta 160.000000
_cell_angle_gamma 90.000000
_cell_volume 3102.806740
_symmetry_space_group_name_H-M "C 2/C"
_symmetry_group_IT_number 15
_symmetry_cell_setting 'monoclinic'
loop_
_space_group_symop_operation_xyz
x,y,z
-x,y,1/2-z
-x,-y,-z
x,-y,1/2+z
1/2+x,1/2+y,z
1/2-x,1/2+y,1/2-z
1/2-x,1/2-y,-z
1/2+x,1/2-y,1/2+z
loop_
_atom_site_type_symbol
_atom_site_label
_atom_site_fract_x
_atom_site_fract_y
_atom_site_fract_z
Si Si1 0.972954 0.660803 0.795762
Si Si2 0.814506 0.442018 0.746773
Si Si3 0.241037 0.158715 0.061848
Si Si4 0.500000 0.219564 0.250000
Si Si5 0.021001 0.032667 0.139450
Si Si6 0.500000 0.538203 0.750000
Si Si7 0.589344 0.674435 0.414435
Si Si8 0.869601 0.466292 0.951526
O O1 0.050050 0.741443 0.891426
O O2 0.000000 0.647183 0.750000
O O3 0.781529 0.661478 0.608486
O O4 0.067602 0.598024 0.935244
O O5 0.773261 0.364338 0.668532
O O6 0.649394 0.492562 0.563619
O O7 0.854208 0.436823 0.863247
O O8 0.978190 0.475228 0.888608
O O9 0.403745 0.172193 0.197651
O O10 0.125686 0.228660 0.923858
O O11 0.147287 0.089528 0.930627
O O12 0.184161 0.013417 0.274672
O O13 0.979633 0.119290 0.105587
O O14 0.054845 0.006949 0.247956
O O15 0.500000 0.663291 0.250000
#
# Coordination Sequence:
#
# PCOD9309520 Si02
#       8
#     8   8   8   4   8   4   8   8
#     4  11  22  36  58  86 117 157 196 244 294 347
#     4  10  23  41  58  86 120 155 203 241 286 358
#     4   9  19  36  58  86 118 145 190 241 288 353
#     4   9  18  36  62  86 115 150 184 240 307 334
#     4  11  20  37  59  88 121 155 191 245 292 342
#     4   9  20  32  56  92 117 142 194 238 291 350
#     4  11  20  36  55  86 121 149 190 240 294 354
#     4  11  23  39  60  83 118 161 198 241 295 346
#
# _framework density 9.0240880000000008
#
# number of rings (size 3 to 8) (size 9 to 14) (size 15 to 20)
#    0.000    1.714    2.143    3.857    2.000    0.000 
#    0.000    2.857    0.000    0.000    0.000    0.000 
#    0.000    0.000    0.000    0.000    0.000    0.000 
#
# Total GULP energy -156057.112624 kJ/mol
# GULP energy per Si atom -5573.468308 kJ/mol
# Density = 0.900355 g / cm^3
# Si number density = 9.024088 Si / 1000 Ang^3
#
#
#
# Elastic Constant Matrix: (Units=GPa)
#
#
# Indices 1 2 3 4 5 6 
#
# 1 87.1956 35.5090 31.2904 -0.0003 19.2993 0.0003
# 2 35.5090 46.4596 8.4126 0.0016 0.1846 -0.0012
# 3 31.2904 8.4126 84.3755 0.0060 25.1012 -0.0038
# 4 -0.0003 0.0016 0.0060 6.3485 0.0043 11.1721
# 5 19.2993 0.1846 25.1012 0.0043 39.6641 -0.0015
# 6 0.0003 -0.0012 -0.0038 11.1721 -0.0015 -5.0758
#
#
#
# Elastic Compliance Matrix: (Units=1/GPa)
#
#
# Indices 1 2 3 4 5 6 
#
# 1 0.020672 -0.015057 -0.003934 -0.000001 -0.007498 0.000008
# 2 -0.015057 0.032968 0.000201 0.000001 0.007046 -0.000008
# 3 -0.003934 0.000201 0.015672 0.000002 -0.008005 -0.000006
# 4 -0.000001 0.000001 0.000002 0.032322 -0.000001 0.071142
# 5 -0.007498 0.007046 -0.008005 -0.000001 0.033893 -0.000009
# 6 0.000008 -0.000008 -0.000006 0.071142 -0.000009 -0.040426
#
#
# Mechanical properties :
#
#
# Convention : Reuss Voigt Hill
#
# Bulk Modulus (GPa) = 31.51517 40.93943 36.22730
# Shear Modulus (GPa) = 34.90196 17.70859 26.30527
#
# Velocity S-wave (km/s) = 4.40229 3.13578 3.82187
# Velocity P-wave (km/s) = 6.58330 5.98695 6.29219
#
# Compressibility (1/GPa) = 0.03173075
#
# Stress axis : x y z
#
# Youngs Moduli (GPa) = 48.37545 30.33259 63.80797
#
# Poissons Ratio (x) = 0.45672 0.25102
# Poissons Ratio (y) = 0.72840 -0.01281
# Poissons Ratio (z) = 0.19031 -0.00609
#
# Static dielectric constant tensor:
#      x y z
#    x 1.595770 0.000000 0.008310 
#    y 0.000000 1.630930 0.000000 
#    z 0.008310 0.000000 1.629440 
# 
# From -- ./inp_files/253357.got.cif
#   From: 2010.05.17/outbox.ucp.g08.bks.cvg/sg15_127_cif.got.tgz:253357.got - 2010.06.11 12:40:34.
