data_PCOD9309288
_publ_section_title
;
Structure prediction by ZEFSAII (Michael W. Deem and Ramdas Pophale) SiO2 
 PCOD9309288
Probable space group: C 2/C
;
_chemical_formula_sum "Si O2"
_cell_formula_units_Z 28
_cell_length_a 21.000000
_cell_length_b 18.000000
_cell_length_c 21.000000
_cell_angle_alpha 90.000000
_cell_angle_beta 160.000000
_cell_angle_gamma 90.000000
_cell_volume 2714.955898
_symmetry_space_group_name_H-M "C 2/C"
_symmetry_group_IT_number 15
_symmetry_cell_setting 'monoclinic'
loop_
_space_group_symop_operation_xyz
x,y,z
-x,y,1/2-z
-x,-y,-z
x,-y,1/2+z
1/2+x,1/2+y,z
1/2-x,1/2+y,1/2-z
1/2-x,1/2-y,-z
1/2+x,1/2-y,1/2+z
loop_
_atom_site_type_symbol
_atom_site_label
_atom_site_fract_x
_atom_site_fract_y
_atom_site_fract_z
Si Si1 0.668618 0.425415 0.604253
Si Si2 0.407086 0.447077 0.824299
Si Si3 0.979744 0.815882 0.653781
Si Si4 0.298650 0.851092 0.496103
Si Si5 0.050262 0.510178 0.432575
Si Si6 0.561111 0.145928 0.734515
Si Si7 0.099957 0.812027 0.435405
O O1 0.581439 0.419858 0.592262
O O2 0.572015 0.492289 0.473009
O O3 0.647193 0.348889 0.546547
O O4 0.881215 0.450121 0.809047
O O5 0.394902 0.377216 0.764361
O O6 0.223463 0.495615 0.640931
O O7 0.780703 0.844053 0.444188
O O8 0.000000 0.820092 0.750000
O O9 0.991986 0.728279 0.647860
O O10 0.386828 0.930236 0.562191
O O11 0.253536 0.838707 0.528066
O O12 0.406241 0.777342 0.573235
O O13 0.097702 0.843935 0.273255
O O14 0.992971 0.428992 0.352626
O O15 0.500000 0.137051 0.750000
#
# Coordination Sequence:
#
# PCOD9309288 Si02
#       7
#     8   8   8   8   8   8   8
#     4  11  24  42  66  91 133 170 217 265 324 379
#     4  11  24  44  64  94 128 172 217 268 316 389
#     4  11  22  44  67  94 132 171 215 274 321 382
#     4  10  22  38  69  95 134 168 217 268 324 378
#     4  12  23  41  67  98 132 170 215 266 327 383
#     4  11  23  39  65 100 130 166 212 267 327 386
#     4  10  21  43  62  98 132 172 214 270 319 384
#
# _framework density 10.313243
#
# number of rings (size 3 to 8) (size 9 to 14) (size 15 to 20)
#    0.000    1.143    2.857    4.714    2.000    2.286 
#    0.000    7.143    0.000    0.000    0.000    0.000 
#    0.000    0.000    0.000    0.000    0.000    0.000 
#
# Total GULP energy -156350.108633 kJ/mol
# GULP energy per Si atom -5583.932451 kJ/mol
# Density = 1.028977 g / cm^3
# Si number density = 10.313243 Si / 1000 Ang^3
#
#
#
# Elastic Constant Matrix: (Units=GPa)
#
#
# Indices 1 2 3 4 5 6 
#
# 1 44.4247 33.6356 5.5999 0.0073 -8.5813 0.0028
# 2 33.6356 129.5865 30.2844 0.0333 -6.6541 0.0182
# 3 5.5999 30.2844 65.1435 0.0357 9.5840 0.0247
# 4 0.0073 0.0333 0.0357 21.4169 0.0119 1.2374
# 5 -8.5813 -6.6541 9.5840 0.0119 22.5105 0.0011
# 6 0.0028 0.0182 0.0247 1.2374 0.0011 24.4593
#
#
#
# Elastic Compliance Matrix: (Units=1/GPa)
#
#
# Indices 1 2 3 4 5 6 
#
# 1 0.029808 -0.007089 -0.000672 -0.000003 0.009554 0.000002
# 2 -0.007089 0.010805 -0.004786 -0.000008 0.002529 -0.000002
# 3 -0.000672 -0.004786 0.019074 -0.000018 -0.009792 -0.000014
# 4 -0.000003 -0.000008 -0.000018 0.046829 -0.000021 -0.002369
# 5 0.009554 0.002529 -0.009792 -0.000021 0.052982 0.000006
# 6 0.000002 -0.000002 -0.000014 -0.002369 0.000006 0.041004
#
#
# Mechanical properties :
#
#
# Convention : Reuss Voigt Hill
#
# Bulk Modulus (GPa) = 28.90813 42.02160 35.46486
# Shear Modulus (GPa) = 21.08564 24.98631 23.03597
#
# Velocity S-wave (km/s) = 3.20075 3.48425 3.34550
# Velocity P-wave (km/s) = 5.26357 6.05009 5.67048
#
# Compressibility (1/GPa) = 0.03459235
#
# Stress axis : x y z
#
# Youngs Moduli (GPa) = 33.54829 92.54716 52.42727
#
# Poissons Ratio (x) = 0.65609 0.03524
# Poissons Ratio (y) = 0.23783 0.25091
# Poissons Ratio (z) = 0.02255 0.44292
#
# Static dielectric constant tensor:
#      x y z
#    x 1.686990 -0.000010 -0.003850 
#    y -0.000010 1.717910 -0.000010 
#    z -0.003850 -0.000010 1.757470 
# 
# From -- ./inp_files/253377.got.cif
#   From: 2010.05.17/outbox.ucp.g08.bks.cvg/sg15_127_cif.got.tgz:253377.got - 2010.06.11 12:40:34.
