data_PCOD9309389
_publ_section_title
;
Structure prediction by ZEFSAII (Michael W. Deem and Ramdas Pophale) SiO2 
 PCOD9309389
Probable space group: C 2/C
;
_chemical_formula_sum "Si O2"
_cell_formula_units_Z 32
_cell_length_a 18.000000
_cell_length_b 15.000000
_cell_length_c 15.000000
_cell_angle_alpha 90.000000
_cell_angle_beta 50.000000
_cell_angle_gamma 90.000000
_cell_volume 3102.479995
_symmetry_space_group_name_H-M "C 2/C"
_symmetry_group_IT_number 15
_symmetry_cell_setting 'monoclinic'
loop_
_space_group_symop_operation_xyz
x,y,z
-x,y,1/2-z
-x,-y,-z
x,-y,1/2+z
1/2+x,1/2+y,z
1/2-x,1/2+y,1/2-z
1/2-x,1/2-y,-z
1/2+x,1/2-y,1/2+z
loop_
_atom_site_type_symbol
_atom_site_label
_atom_site_fract_x
_atom_site_fract_y
_atom_site_fract_z
Si Si1 0.630878 0.735830 0.490265
Si Si2 0.023978 0.377284 0.897417
Si Si3 0.036589 0.091305 0.426648
Si Si4 0.353774 0.361641 0.947571
Si Si5 0.639871 0.177157 0.659561
Si Si6 0.985864 0.416221 0.392488
Si Si7 0.643348 0.723629 0.692813
Si Si8 0.392788 0.515767 0.788743
O O1 0.580839 0.831055 0.512837
O O2 0.582813 0.659926 0.463189
O O3 0.615634 0.720869 0.608565
O O4 0.745373 0.744553 0.385969
O O5 0.014662 0.478056 0.864335
O O6 0.083875 0.299990 0.795681
O O7 0.053317 0.394302 0.978076
O O8 0.945007 0.133508 0.444355
O O9 0.106685 0.051887 0.295647
O O10 0.000000 0.000000 0.500000
O O11 0.373050 0.279889 0.863059
O O12 0.340521 0.456807 0.906596
O O13 0.254589 0.339340 0.075845
O O14 0.595004 0.114251 0.616288
O O15 0.578298 0.145954 0.793109
O O16 0.635291 0.616614 0.720708
O O17 0.500000 0.524375 0.750000
#
# Coordination Sequence:
#
# PCOD9309389 Si02
#       8
#     8   8   8   8   8   8   8   8
#     4  11  25  42  71 100 138 187 234 291 344 421
#     4  11  24  46  67 100 142 184 228 291 347 418
#     4  11  23  42  66 100 139 181 230 295 346 410
#     4  10  23  42  72  99 144 177 234 292 355 419
#     4  10  23  43  69 106 132 188 226 287 358 423
#     4  10  25  42  71 100 141 179 232 282 352 428
#     4  11  25  45  70  99 141 189 237 284 355 420
#     4  10  22  40  68  99 137 183 230 291 351 421
#
# _framework density 10.314329000000001
#
# number of rings (size 3 to 8) (size 9 to 14) (size 15 to 20)
#    0.000    1.500    0.000    4.125   12.250    3.000 
#    9.000    0.000    0.000    0.000    0.000    0.000 
#    0.000    0.000    0.000    0.000    0.000    0.000 
#
# Total GULP energy -178635.837991 kJ/mol
# GULP energy per Si atom -5582.369937 kJ/mol
# Density = 1.029085 g / cm^3
# Si number density = 10.314329 Si / 1000 Ang^3
#
#
#
# Elastic Constant Matrix: (Units=GPa)
#
#
# Indices 1 2 3 4 5 6 
#
# 1 85.2054 45.7590 42.6582 0.0000 4.3108 0.0000
# 2 45.7590 165.5566 47.3568 0.0000 0.1320 0.0000
# 3 42.6582 47.3568 95.1716 0.0000 2.1060 0.0000
# 4 0.0000 0.0000 0.0000 41.5455 0.0000 9.9175
# 5 4.3108 0.1320 2.1060 0.0000 32.4085 0.0000
# 6 0.0000 0.0000 0.0000 9.9175 0.0000 38.6438
#
#
#
# Elastic Compliance Matrix: (Units=1/GPa)
#
#
# Indices 1 2 3 4 5 6 
#
# 1 0.016270 -0.002822 -0.005849 0.000000 -0.001773 0.000000
# 2 -0.002822 0.007534 -0.002495 0.000000 0.000507 0.000000
# 3 -0.005849 -0.002495 0.014374 0.000000 -0.000146 0.000000
# 4 0.000000 0.000000 0.000000 0.025641 0.000000 -0.006580
# 5 -0.001773 0.000507 -0.000146 0.000000 0.031099 0.000000
# 6 0.000000 0.000000 0.000000 -0.006580 0.000000 0.027566
#
#
# Mechanical properties :
#
#
# Convention : Reuss Voigt Hill
#
# Bulk Modulus (GPa) = 63.11211 68.60905 65.86058
# Shear Modulus (GPa) = 33.31164 36.53019 34.92092
#
# Velocity S-wave (km/s) = 4.02285 4.21271 4.11887
# Velocity P-wave (km/s) = 7.22762 7.54943 7.39028
#
# Compressibility (1/GPa) = 0.01584482
#
# Stress axis : x y z
#
# Youngs Moduli (GPa) = 61.46232 132.73932 69.57202
#
# Poissons Ratio (x) = 0.37466 0.40693
# Poissons Ratio (y) = 0.17348 0.17357
# Poissons Ratio (z) = 0.35949 0.33115
#
# Static dielectric constant tensor:
#      x y z
#    x 1.745880 0.000000 0.017590 
#    y 0.000000 1.734800 0.000000 
#    z 0.017590 0.000000 1.801620 
# 
# From -- ./inp_files/162517.got.cif
#   From: 2010.05.17/outbox.ucp.g08.bks.cvg/sg15_82_cif.got.tgz:162517.got - 2010.06.11 12:40:34.
