data_PCOD9309619
_publ_section_title
;
Structure prediction by ZEFSAII (Michael W. Deem and Ramdas Pophale) SiO2 
 PCOD9309619
Probable space group: C 2/C
;
_chemical_formula_sum "Si O2"
_cell_formula_units_Z 32
_cell_length_a 21.000000
_cell_length_b 24.000000
_cell_length_c 18.000000
_cell_angle_alpha 90.000000
_cell_angle_beta 20.000000
_cell_angle_gamma 90.000000
_cell_volume 3102.806740
_symmetry_space_group_name_H-M "C 2/C"
_symmetry_group_IT_number 15
_symmetry_cell_setting 'monoclinic'
loop_
_space_group_symop_operation_xyz
x,y,z
-x,y,1/2-z
-x,-y,-z
x,-y,1/2+z
1/2+x,1/2+y,z
1/2-x,1/2+y,1/2-z
1/2-x,1/2-y,-z
1/2+x,1/2-y,1/2+z
loop_
_atom_site_type_symbol
_atom_site_label
_atom_site_fract_x
_atom_site_fract_y
_atom_site_fract_z
Si Si1 0.824078 0.900561 0.475003
Si Si2 0.739713 0.834335 0.717867
Si Si3 0.538064 0.000870 0.292844
Si Si4 0.633062 0.472620 0.292633
Si Si5 0.532160 0.373051 0.497789
Si Si6 0.291982 0.806402 0.998127
Si Si7 0.672617 0.207690 0.867299
Si Si8 0.582043 0.453238 0.579314
O O1 0.810564 0.867823 0.567782
O O2 0.642515 0.939599 0.672132
O O3 0.824229 0.854716 0.409894
O O4 0.000000 0.933631 0.250000
O O5 0.836986 0.774415 0.622575
O O6 0.820576 0.866979 0.700328
O O7 0.521571 0.820965 0.944417
O O8 0.500000 0.981902 0.250000
O O9 0.344094 0.006947 0.549314
O O10 0.696464 0.963666 0.157888
O O11 0.500000 0.500000 0.500000
O O12 0.634199 0.409606 0.320988
O O13 0.518469 0.492974 0.347125
O O14 0.656534 0.317579 0.366211
O O15 0.540344 0.404775 0.566255
O O16 0.500000 0.821499 0.750000
O O17 0.250000 0.750000 0.000000
O O18 0.280431 0.801902 0.097877
O O19 0.500000 0.440862 0.750000
#
# Coordination Sequence:
#
# PCOD9309619 Si02
#       8
#     8   8   8   8   8   8   8   8
#     4  12  25  36  60  94 141 188 233 274 327 387
#     4  12  24  40  60  90 132 178 231 276 333 391
#     4  12  25  41  69 102 136 177 227 282 343 408
#     4  10  24  45  69  99 137 171 221 281 343 410
#     4  11  26  42  67  97 133 176 226 278 347 409
#     4  12  22  36  54  89 133 189 235 276 309 386
#     4  12  23  41  61  89 134 182 231 278 328 392
#     4  11  24  48  73  99 132 173 227 293 353 419
#
# _framework density 10.313243
#
# number of rings (size 3 to 8) (size 9 to 14) (size 15 to 20)
#    0.000    0.500    5.000    3.375    3.500    4.000 
#    0.000    0.000    0.000    0.750    0.000    0.000 
#    0.000    0.000    0.000    0.000    0.000    0.000 
#
# Total GULP energy -178527.586214 kJ/mol
# GULP energy per Si atom -5578.987069 kJ/mol
# Density = 1.028977 g / cm^3
# Si number density = 10.313243 Si / 1000 Ang^3
#
#
#
# Elastic Constant Matrix: (Units=GPa)
#
#
# Indices 1 2 3 4 5 6 
#
# 1 160.4947 56.8089 51.8685 0.0210 -10.8980 0.0158
# 2 56.8089 59.1882 13.6927 -0.0615 5.9495 0.0223
# 3 51.8685 13.6927 115.8320 -0.0190 -17.9546 0.0038
# 4 0.0210 -0.0615 -0.0190 26.4328 -0.0611 -10.0076
# 5 -10.8980 5.9495 -17.9546 -0.0611 33.3682 -0.0196
# 6 0.0158 0.0223 0.0038 -10.0076 -0.0196 48.4049
#
#
#
# Elastic Compliance Matrix: (Units=1/GPa)
#
#
# Indices 1 2 3 4 5 6 
#
# 1 0.011200 -0.010390 -0.003200 -0.000028 0.003789 -0.000003
# 2 -0.010390 0.027677 0.000098 0.000053 -0.008275 -0.000002
# 3 -0.003200 0.000098 0.010790 0.000024 0.004743 0.000007
# 4 -0.000028 0.000053 0.000024 0.041045 0.000075 0.008486
# 5 0.003789 -0.008275 0.004743 0.000075 0.035234 0.000032
# 6 -0.000003 -0.000002 0.000007 0.008486 0.000032 0.022414
#
#
# Mechanical properties :
#
#
# Convention : Reuss Voigt Hill
#
# Bulk Modulus (GPa) = 44.08589 64.47279 54.27934
# Shear Modulus (GPa) = 27.33689 35.85083 31.59386
#
# Velocity S-wave (km/s) = 3.64446 4.17357 3.91796
# Velocity P-wave (km/s) = 6.25534 7.38580 6.84395
#
# Compressibility (1/GPa) = 0.02268299
#
# Stress axis : x y z
#
# Youngs Moduli (GPa) = 89.28724 36.13109 92.68199
#
# Poissons Ratio (x) = 0.37541 0.29655
# Poissons Ratio (y) = 0.92772 -0.00910
# Poissons Ratio (z) = 0.28569 -0.00355
#
# Static dielectric constant tensor:
#      x y z
#    x 1.697580 0.000050 -0.019920 
#    y 0.000050 1.847870 -0.000260 
#    z -0.019920 -0.000260 1.712560 
# 
# From -- ./inp_files/216951.got.cif
#   From: 2010.05.17/outbox.ucp.g08.bks.cvg/sg15_109_cif.got.tgz:216951.got - 2010.06.11 12:40:34.
