data_PCOD9309999
_publ_section_title
;
Structure prediction by ZEFSAII (Michael W. Deem and Ramdas Pophale) SiO2 
 PCOD9309999
Probable space group: P 2 2 2
;
_chemical_formula_sum "Si O2"
_cell_formula_units_Z 18
_cell_length_a 5.102785
_cell_length_b 27.549502
_cell_length_c 5.231333
_cell_angle_alpha 90.000000
_cell_angle_beta 90.000000
_cell_angle_gamma 90.000000
_cell_volume 735.416533
_symmetry_space_group_name_H-M "P 2 2 2"
_symmetry_group_IT_number 16
_symmetry_cell_setting 'orthorhombic'
loop_
_space_group_symop_operation_xyz
x,y,z
-x,-y,z
x,-y,-z
-x,y,-z
loop_
_atom_site_type_symbol
_atom_site_label
_atom_site_fract_x
_atom_site_fract_y
_atom_site_fract_z
Si Si1 0.500000 0.500000 0.500000
Si Si2 0.000000 0.000000 0.500000
Si Si3 0.000000 0.725895 0.000000
Si Si4 0.500000 0.336784 0.000000
Si Si5 0.249865 0.082155 0.816245
Si Si6 0.824645 0.584111 0.744387
Si Si7 0.757893 0.185132 0.172755
O O1 0.676026 0.534538 0.676648
O O2 0.198986 0.037016 0.637090
O O3 0.249059 0.694725 0.911118
O O4 0.131828 0.760534 0.222845
O O5 0.381984 0.373066 0.790406
O O6 0.270397 0.135139 0.671481
O O7 0.500000 0.079224 0.000000
O O8 0.000000 0.078075 0.000000
O O9 0.000000 0.595688 0.500000
O O10 0.000000 0.579857 0.000000
O O11 0.500000 0.191630 0.000000
O O12 0.000000 0.169884 0.000000
#
# Coordination Sequence:
#
# PCOD9309999 Si02
#       7
#     1   1   2   2   4   4   4
#     4  12  30  50  84 116 160 224 276 324 400 474
#     4  12  26  42  72 104 144 190 250 302 380 454
#     4  10  18  38  74 104 146 200 240 318 384 454
#     4  12  24  43  76 116 152 195 260 318 398 464
#     4  10  23  42  66  96 140 184 237 302 364 440
#     4  12  29  52  79 117 167 213 270 335 398 475
#     4   8  15  33  63  95 130 190 232 295 372 443
#
# _framework density 24.475923999999999
#
# number of rings (size 3 to 8) (size 9 to 14) (size 15 to 20)
#    0.667    0.889    2.222    2.000    0.000   10.222 
#    0.000    0.000    2.444    5.333    0.000    0.000 
#    0.000    0.000    0.000    0.000    0.000    0.000 
#
# Total GULP energy -100307.460740 kJ/mol
# GULP energy per Si atom -5572.636708 kJ/mol
# Density = 2.442022 g / cm^3
# Si number density = 24.475924 Si / 1000 Ang^3
#
#
#
# Elastic Constant Matrix: (Units=GPa)
#
#
# Indices 1 2 3 4 5 6 
#
# 1 216.7391 91.5371 67.0867 0.0000 0.0000 0.0000
# 2 91.5371 225.1167 59.5568 0.0000 0.0000 0.0000
# 3 67.0867 59.5568 97.7733 0.0000 0.0000 0.0000
# 4 0.0000 0.0000 0.0000 59.0539 0.0000 0.0000
# 5 0.0000 0.0000 0.0000 0.0000 34.3367 0.0000
# 6 0.0000 0.0000 0.0000 0.0000 0.0000 70.7251
#
#
#
# Elastic Compliance Matrix: (Units=1/GPa)
#
#
# Indices 1 2 3 4 5 6 
#
# 1 0.006365 -0.001708 -0.003327 0.000000 0.000000 0.000000
# 2 -0.001708 0.005754 -0.002333 0.000000 0.000000 0.000000
# 3 -0.003327 -0.002333 0.013932 0.000000 0.000000 0.000000
# 4 0.000000 0.000000 0.000000 0.016934 0.000000 0.000000
# 5 0.000000 0.000000 0.000000 0.000000 0.029123 0.000000
# 6 0.000000 0.000000 0.000000 0.000000 0.000000 0.014139
#
#
# Mechanical properties :
#
#
# Convention : Reuss Voigt Hill
#
# Bulk Modulus (GPa) = 88.38038 108.44334 98.41186
# Shear Modulus (GPa) = 47.73098 54.25303 50.99201
#
# Velocity S-wave (km/s) = 4.42081 4.71317 4.56933
# Velocity P-wave (km/s) = 7.88958 8.60354 8.25429
#
# Compressibility (1/GPa) = 0.01131473
#
# Stress axis : x y z
#
# Youngs Moduli (GPa) = 157.11058 173.79726 71.77958
#
# Poissons Ratio (x) = 0.29684 0.23880
# Poissons Ratio (y) = 0.26834 0.16746
# Poissons Ratio (z) = 0.52269 0.40546
#
# Static dielectric constant tensor:
#      x y z
#    x 1.896170 0.000000 0.000000 
#    y 0.000000 2.135610 0.000000 
#    z 0.000000 0.000000 1.983940 
# 
# From -- ./inp_files/340.got.cif
#   From: 2010.05.17/outbox.cif.g08.bks.cpg/sg16_1_cif.got.tgz:340.got - 2010.06.03 22:28:35.
