data_PCOD9309535
_publ_section_title
;
Structure prediction by ZEFSAII (Michael W. Deem and Ramdas Pophale) SiO2 
 PCOD9309535
Probable space group: C 2/C
;
_chemical_formula_sum "Si O2"
_cell_formula_units_Z 28
_cell_length_a 18.000000
_cell_length_b 27.000000
_cell_length_c 9.000000
_cell_angle_alpha 90.000000
_cell_angle_beta 40.000000
_cell_angle_gamma 90.000000
_cell_volume 2811.553005
_symmetry_space_group_name_H-M "C 2/C"
_symmetry_group_IT_number 15
_symmetry_cell_setting 'monoclinic'
loop_
_space_group_symop_operation_xyz
x,y,z
-x,y,1/2-z
-x,-y,-z
x,-y,1/2+z
1/2+x,1/2+y,z
1/2-x,1/2+y,1/2-z
1/2-x,1/2-y,-z
1/2+x,1/2-y,1/2+z
loop_
_atom_site_type_symbol
_atom_site_label
_atom_site_fract_x
_atom_site_fract_y
_atom_site_fract_z
Si Si1 0.598077 0.213406 0.213559
Si Si2 0.902959 0.461156 0.201887
Si Si3 0.963104 0.087518 0.477394
Si Si4 0.322493 0.403157 0.621473
Si Si5 0.350374 0.674759 0.803032
Si Si6 0.762690 0.009419 0.785450
Si Si7 0.066175 0.634363 0.518947
O O1 0.500000 0.200589 0.250000
O O2 0.587250 0.272536 0.262170
O O3 0.581794 0.175554 0.372213
O O4 0.723515 0.196503 0.962968
O O5 0.822701 0.485393 0.456878
O O6 0.815643 0.455218 0.197746
O O7 0.979534 0.412045 0.117117
O O8 0.000000 0.500000 0.000000
O O9 0.897797 0.139929 0.599918
O O10 0.874897 0.042496 0.658239
O O11 0.000000 0.079160 0.250000
O O12 0.076434 0.093958 0.409400
O O13 0.352540 0.364490 0.441041
O O14 0.302604 0.462060 0.624180
O O15 0.194270 0.384888 0.865019
O O16 0.000000 0.661704 0.750000
#
# Coordination Sequence:
#
# PCOD9309535 Si02
#       7
#     8   8   8   8   8   8   8
#     4  10  23  42  72 101 126 166 237 281 339 403
#     4  12  23  41  64  96 136 174 220 271 343 400
#     4  12  27  41  64  96 137 176 230 274 326 400
#     4  11  22  45  66  89 136 180 222 263 335 401
#     4  10  24  46  68  96 131 183 219 280 343 397
#     4  12  25  41  66  98 135 183 222 272 325 405
#     4  11  23  41  67  99 132 174 213 284 346 400
#
# _framework density 9.9589090000000002
#
# number of rings (size 3 to 8) (size 9 to 14) (size 15 to 20)
#    0.000    0.857    2.857    3.857    4.000    1.714 
#    0.000    0.000    0.000    6.857    0.000    0.000 
#    0.000    0.000    0.000    0.000    0.000    0.000 
#
# Total GULP energy -156057.608939 kJ/mol
# GULP energy per Si atom -5573.486034 kJ/mol
# Density = 0.993624 g / cm^3
# Si number density = 9.958909 Si / 1000 Ang^3
#
#
#
# Elastic Constant Matrix: (Units=GPa)
#
#
# Indices 1 2 3 4 5 6 
#
# 1 98.6404 13.7003 31.9449 0.0000 -28.9181 0.0000
# 2 13.7003 98.4179 37.3460 0.0000 -19.5982 0.0000
# 3 31.9449 37.3460 112.0121 0.0000 -7.4549 0.0000
# 4 0.0000 0.0000 0.0000 34.9212 0.0000 -6.5690
# 5 -28.9181 -19.5982 -7.4549 0.0000 18.1729 0.0000
# 6 0.0000 0.0000 0.0000 -6.5690 0.0000 27.7953
#
#
#
# Elastic Compliance Matrix: (Units=1/GPa)
#
#
# Indices 1 2 3 4 5 6 
#
# 1 0.024170 0.007971 -0.006599 0.000000 0.044350 0.000000
# 2 0.007971 0.017038 -0.006052 0.000000 0.028576 0.000000
# 3 -0.006599 -0.006052 0.012022 0.000000 -0.012096 0.000000
# 4 0.000000 0.000000 0.000000 0.029968 0.000000 0.007083
# 5 0.044350 0.028576 -0.012096 0.000000 0.151456 0.000000
# 6 0.000000 0.000000 0.000000 0.007083 0.000000 0.037651
#
#
# Mechanical properties :
#
#
# Convention : Reuss Voigt Hill
#
# Bulk Modulus (GPa) = 22.79446 52.78363 37.78904
# Shear Modulus (GPa) = 16.87540 31.24982 24.06261
#
# Velocity S-wave (km/s) = 2.91392 3.96528 3.47954
# Velocity P-wave (km/s) = 4.77392 6.89368 5.92930
#
# Compressibility (1/GPa) = 0.04387031
#
# Stress axis : x y z
#
# Youngs Moduli (GPa) = 41.37380 58.69204 83.17811
#
# Poissons Ratio (x) = -0.46784 0.54889
# Poissons Ratio (y) = -0.32979 0.50340
# Poissons Ratio (z) = 0.27303 0.35521
#
# Static dielectric constant tensor:
#      x y z
#    x 1.799300 0.000000 0.043670 
#    y 0.000000 1.689010 0.000000 
#    z 0.043670 0.000000 1.798150 
# 
# From -- ./inp_files/52306.got.cif
#   From: 2010.05.17/outbox.ucp.g08.bks.cvg/sg15_27_cif.got.tgz:52306.got - 2010.06.11 12:40:34.
