data_PCOD9309213
_publ_section_title
;
Structure prediction by ZEFSAII (Michael W. Deem and Ramdas Pophale) SiO2 
 PCOD9309213
Probable space group: C 2/C
;
_chemical_formula_sum "Si O2"
_cell_formula_units_Z 28
_cell_length_a 12.000000
_cell_length_b 27.000000
_cell_length_c 9.000000
_cell_angle_alpha 90.000000
_cell_angle_beta 110.000000
_cell_angle_gamma 90.000000
_cell_volume 2740.143682
_symmetry_space_group_name_H-M "C 2/C"
_symmetry_group_IT_number 15
_symmetry_cell_setting 'monoclinic'
loop_
_space_group_symop_operation_xyz
x,y,z
-x,y,1/2-z
-x,-y,-z
x,-y,1/2+z
1/2+x,1/2+y,z
1/2-x,1/2+y,1/2-z
1/2-x,1/2-y,-z
1/2+x,1/2-y,1/2+z
loop_
_atom_site_type_symbol
_atom_site_label
_atom_site_fract_x
_atom_site_fract_y
_atom_site_fract_z
Si Si1 0.613640 0.156575 0.489110
Si Si2 0.869077 0.187428 0.758098
Si Si3 0.373115 0.327325 0.616780
Si Si4 0.592682 0.045286 0.547595
Si Si5 0.365157 0.199447 0.316707
Si Si6 0.630499 0.555200 0.352425
Si Si7 0.239855 0.499199 0.849965
O O1 0.742381 0.166846 0.630509
O O2 0.563333 0.102528 0.510953
O O3 0.494639 0.191313 0.454596
O O4 0.640733 0.161219 0.324727
O O5 0.863140 0.246745 0.739075
O O6 0.000000 0.170959 0.750000
O O7 0.873886 0.179428 0.938809
O O8 0.500000 0.310843 0.750000
O O9 0.252486 0.304833 0.634368
O O10 0.363749 0.386010 0.640282
O O11 0.680260 0.033234 0.450651
O O12 0.500000 0.000000 0.500000
O O13 0.651825 0.038437 0.734986
O O14 0.500000 0.539122 0.250000
O O15 0.660648 0.530959 0.523317
O O16 0.717123 0.534551 0.265317
#
# Coordination Sequence:
#
# PCOD9309213 Si02
#       7
#     8   8   8   8   8   8   8
#     4  11  25  43  73 104 140 185 235 283 364 415
#     4  12  25  47  71 105 139 183 233 299 350 428
#     4  11  25  42  69  97 140 182 233 285 358 414
#     4  11  24  40  64  98 135 182 222 282 336 415
#     4  11  25  44  72 100 141 180 236 290 356 428
#     4  10  21  40  62  96 125 179 222 280 338 416
#     4  10  22  38  63  89 137 168 228 274 339 396
#
# _framework density 10.218442
#
# number of rings (size 3 to 8) (size 9 to 14) (size 15 to 20)
#    0.000    1.143    1.429    4.286   10.000    1.714 
#    2.571    3.571    0.000    0.000    0.000    0.000 
#    0.000    0.000    0.000    0.000    0.000    0.000 
#
# Total GULP energy -156158.126224 kJ/mol
# GULP energy per Si atom -5577.075937 kJ/mol
# Density = 1.019518 g / cm^3
# Si number density = 10.218442 Si / 1000 Ang^3
#
#
#
# Elastic Constant Matrix: (Units=GPa)
#
#
# Indices 1 2 3 4 5 6 
#
# 1 130.2250 12.1805 41.3126 0.0000 13.5802 0.0000
# 2 12.1805 70.7678 4.1017 0.0000 19.8022 0.0000
# 3 41.3126 4.1017 127.5343 0.0000 25.3880 0.0000
# 4 0.0000 0.0000 0.0000 23.9714 0.0000 2.0373
# 5 13.5802 19.8022 25.3880 0.0000 36.5714 0.0000
# 6 0.0000 0.0000 0.0000 2.0373 0.0000 30.6010
#
#
#
# Elastic Compliance Matrix: (Units=1/GPa)
#
#
# Indices 1 2 3 4 5 6 
#
# 1 0.008699 -0.001121 -0.002622 0.000000 -0.000803 0.000000
# 2 -0.001121 0.017036 0.001820 0.000000 -0.010072 0.000000
# 3 -0.002622 0.001820 0.010019 0.000000 -0.006967 0.000000
# 4 0.000000 0.000000 0.000000 0.041954 0.000000 -0.002793
# 5 -0.000803 -0.010072 -0.006967 0.000000 0.037932 0.000000
# 6 0.000000 0.000000 0.000000 -0.002793 0.000000 0.032865
#
#
# Mechanical properties :
#
#
# Convention : Reuss Voigt Hill
#
# Bulk Modulus (GPa) = 31.33856 49.30185 40.32021
# Shear Modulus (GPa) = 30.67734 36.29092 33.48413
#
# Velocity S-wave (km/s) = 3.87858 4.21854 4.05213
# Velocity P-wave (km/s) = 5.95193 6.92131 6.45484
#
# Compressibility (1/GPa) = 0.03190957
#
# Stress axis : x y z
#
# Youngs Moduli (GPa) = 114.94999 58.69768 99.81280
#
# Poissons Ratio (x) = 0.06577 0.26172
# Poissons Ratio (y) = 0.12881 -0.18167
# Poissons Ratio (z) = 0.30141 -0.10684
#
# Static dielectric constant tensor:
#      x y z
#    x 1.912000 0.000000 0.132570 
#    y 0.000000 1.758890 0.000000 
#    z 0.132570 0.000000 1.808880 
# 
# From -- ./inp_files/34347.got.cif
#   From: 2010.05.17/outbox.ucp.g08.bks.cvg/sg15_18_cif.got.tgz:34347.got - 2010.06.11 12:40:34.
