data_PCOD9309283
_publ_section_title
;
Structure prediction by ZEFSAII (Michael W. Deem and Ramdas Pophale) SiO2 
 PCOD9309283
Probable space group: C 2/C
;
_chemical_formula_sum "Si O2"
_cell_formula_units_Z 24
_cell_length_a 27.000000
_cell_length_b 9.000000
_cell_length_c 15.000000
_cell_angle_alpha 90.000000
_cell_angle_beta 140.000000
_cell_angle_gamma 90.000000
_cell_volume 2342.960837
_symmetry_space_group_name_H-M "C 2/C"
_symmetry_group_IT_number 15
_symmetry_cell_setting 'monoclinic'
loop_
_space_group_symop_operation_xyz
x,y,z
-x,y,1/2-z
-x,-y,-z
x,-y,1/2+z
1/2+x,1/2+y,z
1/2-x,1/2+y,1/2-z
1/2-x,1/2-y,-z
1/2+x,1/2-y,1/2+z
loop_
_atom_site_type_symbol
_atom_site_label
_atom_site_fract_x
_atom_site_fract_y
_atom_site_fract_z
Si Si1 0.864220 0.170102 0.376016
Si Si2 0.683824 0.087334 0.986944
Si Si3 0.718559 0.004028 0.729487
Si Si4 0.529959 0.347522 0.197120
Si Si5 0.674780 0.164967 0.352811
Si Si6 0.640323 0.616695 0.334481
O O1 0.809255 0.036064 0.337328
O O2 0.813533 0.324900 0.316816
O O3 0.881350 0.163376 0.294870
O O4 0.948843 0.153377 0.534096
O O5 0.650040 0.244233 0.912530
O O6 0.643686 0.951738 0.882767
O O7 0.683532 0.068351 0.091888
O O8 0.770317 0.069429 0.062843
O O9 0.696427 0.920791 0.791143
O O10 0.500000 0.283122 0.250000
O O11 0.599727 0.268625 0.238771
O O12 0.576491 0.501538 0.280818
O O13 0.750000 0.250000 0.500000
#
# Coordination Sequence:
#
# PCOD9309283 Si02
#       6
#     8   8   8   8   8   8
#     4  11  25  45  68 103 138 186 236 289 356 418
#     4  10  21  42  70  99 131 182 236 277 350 413
#     4  11  24  43  74 100 137 189 239 288 350 428
#     4  12  26  43  67 102 140 181 234 292 352 417
#     4  12  23  44  71 100 141 184 232 292 349 413
#     4  10  22  44  65  96 140 176 229 294 336 419
#
# _framework density 10.243449
#
# number of rings (size 3 to 8) (size 9 to 14) (size 15 to 20)
#    0.000    1.000    3.333    3.500    2.333    0.667 
#    3.000    0.833    0.000    0.000    0.000    0.000 
#    0.000    0.000    0.000    0.000    0.000    0.000 
#
# Total GULP energy -133705.847152 kJ/mol
# GULP energy per Si atom -5571.076965 kJ/mol
# Density = 1.022013 g / cm^3
# Si number density = 10.243449 Si / 1000 Ang^3
#
#
#
# Elastic Constant Matrix: (Units=GPa)
#
#
# Indices 1 2 3 4 5 6 
#
# 1 67.5475 -6.6112 17.3952 0.0000 -4.1416 0.0000
# 2 -6.6112 63.4798 13.8185 0.0000 8.3729 0.0000
# 3 17.3952 13.8185 80.1796 0.0000 13.9247 0.0000
# 4 0.0000 0.0000 0.0000 27.0162 0.0000 3.3782
# 5 -4.1416 8.3729 13.9247 0.0000 43.4464 0.0000
# 6 0.0000 0.0000 0.0000 3.3782 0.0000 33.9516
#
#
#
# Elastic Compliance Matrix: (Units=1/GPa)
#
#
# Indices 1 2 3 4 5 6 
#
# 1 0.016312 0.002320 -0.004375 0.000000 0.002510 0.000000
# 2 0.002320 0.016933 -0.003064 0.000000 -0.002060 0.000000
# 3 -0.004375 -0.003064 0.014739 0.000000 -0.004551 0.000000
# 4 0.000000 0.000000 0.000000 0.037481 0.000000 -0.003729
# 5 0.002510 -0.002060 -0.004551 0.000000 0.025112 0.000000
# 6 0.000000 0.000000 0.000000 -0.003729 0.000000 0.029825
#
#
# Mechanical properties :
#
#
# Convention : Reuss Voigt Hill
#
# Bulk Modulus (GPa) = 26.49168 28.93466 27.71317
# Shear Modulus (GPa) = 30.63312 33.32312 31.97812
#
# Velocity S-wave (km/s) = 3.87105 4.03744 3.95512
# Velocity P-wave (km/s) = 5.73926 5.99072 5.86634
#
# Compressibility (1/GPa) = 0.03774770
#
# Stress axis : x y z
#
# Youngs Moduli (GPa) = 61.30476 59.05498 67.84517
#
# Poissons Ratio (x) = -0.13701 0.29680
# Poissons Ratio (y) = -0.14223 0.20787
# Poissons Ratio (z) = 0.26819 0.18094
#
# Static dielectric constant tensor:
#      x y z
#    x 1.670740 0.000000 -0.009760 
#    y 0.000000 1.843070 0.000000 
#    z -0.009760 0.000000 1.869580 
# 
# From -- ./inp_files/176997.got.cif
#   From: 2010.05.17/outbox.ucp.g08.bks.cvg/sg15_89_cif.got.tgz:176997.got - 2010.06.11 12:40:34.
