data_PCOD9309127
_publ_section_title
;
Structure prediction by ZEFSAII (Michael W. Deem and Ramdas Pophale) SiO2 
 PCOD9309127
Probable space group: C 2/C
;
_chemical_formula_sum "Si O2"
_cell_formula_units_Z 32
_cell_length_a 12.000000
_cell_length_b 21.000000
_cell_length_c 27.000000
_cell_angle_alpha 90.000000
_cell_angle_beta 150.000000
_cell_angle_gamma 90.000000
_cell_volume 3402.000000
_symmetry_space_group_name_H-M "C 2/C"
_symmetry_group_IT_number 15
_symmetry_cell_setting 'monoclinic'
loop_
_space_group_symop_operation_xyz
x,y,z
-x,y,1/2-z
-x,-y,-z
x,-y,1/2+z
1/2+x,1/2+y,z
1/2-x,1/2+y,1/2-z
1/2-x,1/2-y,-z
1/2+x,1/2-y,1/2+z
loop_
_atom_site_type_symbol
_atom_site_label
_atom_site_fract_x
_atom_site_fract_y
_atom_site_fract_z
Si Si1 0.461457 0.077784 0.873339
Si Si2 0.963070 0.954044 0.533889
Si Si3 0.731128 0.643958 0.312620
Si Si4 0.359720 0.123334 0.153169
Si Si5 0.740083 0.039874 0.257708
Si Si6 0.484448 0.641872 0.803316
Si Si7 0.054911 0.575124 0.517306
Si Si8 0.060831 0.730435 0.390252
O O1 0.486714 0.094773 0.941229
O O2 0.269808 0.125107 0.779100
O O3 0.331443 0.012251 0.810194
O O4 0.708083 0.067022 0.945423
O O5 0.119484 0.894532 0.580451
O O6 0.079016 0.978504 0.630272
O O7 0.000000 0.000000 0.500000
O O8 0.500000 0.655536 0.250000
O O9 0.686383 0.599643 0.247250
O O10 0.897906 0.608800 0.415921
O O11 0.843596 0.708189 0.336208
O O12 0.500000 0.157597 0.250000
O O13 0.513571 0.062214 0.198706
O O14 0.354246 0.167225 0.104068
O O15 0.500000 0.640149 0.750000
O O16 0.687919 0.593934 0.897045
O O17 0.530062 0.711701 0.841202
O O18 0.000000 0.500000 0.500000
O O19 0.250000 0.750000 0.500000
#
# Coordination Sequence:
#
# PCOD9309127 Si02
#       8
#     8   8   8   8   8   8   8   8
#     4  11  23  36  60  95 131 162 200 261 316 373
#     4  11  22  38  60  92 128 161 209 250 308 384
#     4  11  23  39  65  95 126 163 212 265 315 376
#     4   9  20  39  62  83 114 166 206 247 305 372
#     4  10  21  36  60  90 126 166 201 247 318 384
#     4  10  24  42  61  91 125 168 212 259 322 375
#     4  11  22  38  64  94 129 165 202 258 324 384
#     4  11  22  43  65  85 118 167 219 254 309 382
#
# _framework density 9.4062319999999993
#
# number of rings (size 3 to 8) (size 9 to 14) (size 15 to 20)
#    0.000    1.500    3.750    1.125    3.500    1.000 
#    2.250    0.000    0.000    5.250    0.000    0.000 
#    0.000    0.000    0.000    0.000    0.000    0.000 
#
# Total GULP energy -178240.325117 kJ/mol
# GULP energy per Si atom -5570.010160 kJ/mol
# Density = 0.938482 g / cm^3
# Si number density = 9.406232 Si / 1000 Ang^3
#
#
#
# Elastic Constant Matrix: (Units=GPa)
#
#
# Indices 1 2 3 4 5 6 
#
# 1 82.6719 5.8343 40.2742 0.0002 16.0445 0.0001
# 2 5.8343 48.3402 27.1890 0.0000 5.7145 0.0001
# 3 40.2742 27.1890 120.4551 0.0004 9.6251 0.0006
# 4 0.0002 0.0000 0.0004 16.6038 0.0005 -4.3518
# 5 16.0445 5.7145 9.6251 0.0005 44.0839 0.0002
# 6 0.0001 0.0001 0.0006 -4.3518 0.0002 31.5782
#
#
#
# Elastic Compliance Matrix: (Units=1/GPa)
#
#
# Indices 1 2 3 4 5 6 
#
# 1 0.015393 0.001581 -0.005129 0.000000 -0.004687 0.000000
# 2 0.001581 0.024021 -0.005756 0.000000 -0.002432 0.000000
# 3 -0.005129 -0.005756 0.011304 0.000000 0.000145 0.000000
# 4 0.000000 0.000000 0.000000 0.062484 -0.000001 0.008611
# 5 -0.004687 -0.002432 0.000145 -0.000001 0.024674 0.000000
# 6 0.000000 0.000000 0.000000 0.008611 0.000000 0.032854
#
#
# Mechanical properties :
#
#
# Convention : Reuss Voigt Hill
#
# Bulk Modulus (GPa) = 31.14290 44.22912 37.68601
# Shear Modulus (GPa) = 24.99482 30.33116 27.66299
#
# Velocity S-wave (km/s) = 3.64899 4.01969 3.83882
# Velocity P-wave (km/s) = 5.86036 6.71606 6.30275
#
# Compressibility (1/GPa) = 0.03211004
#
# Stress axis : x y z
#
# Youngs Moduli (GPa) = 64.96581 41.63012 88.46088
#
# Poissons Ratio (x) = -0.06582 0.45371
# Poissons Ratio (y) = -0.10272 0.50921
# Poissons Ratio (z) = 0.33320 0.23963
#
# Static dielectric constant tensor:
#      x y z
#    x 1.537820 -0.000020 -0.015160 
#    y -0.000020 1.585690 0.000000 
#    z -0.015160 0.000000 1.669010 
# 
# From -- ./inp_files/293768.got.cif
#   From: 2010.05.17/outbox.ucp.g08.bks.cvg/sg15_147_cif.got.tgz:293768.got - 2010.06.11 12:40:34.
