data_PCOD9309623
_publ_section_title
;
Structure prediction by ZEFSAII (Michael W. Deem and Ramdas Pophale) SiO2 
 PCOD9309623
Probable space group: C 2/C
;
_chemical_formula_sum "Si O2"
_cell_formula_units_Z 32
_cell_length_a 30.000000
_cell_length_b 9.000000
_cell_length_c 12.000000
_cell_angle_alpha 90.000000
_cell_angle_beta 90.000000
_cell_angle_gamma 90.000000
_cell_volume 3240.000000
_symmetry_space_group_name_H-M "C 2/C"
_symmetry_group_IT_number 15
_symmetry_cell_setting 'monoclinic'
loop_
_space_group_symop_operation_xyz
x,y,z
-x,y,1/2-z
-x,-y,-z
x,-y,1/2+z
1/2+x,1/2+y,z
1/2-x,1/2+y,1/2-z
1/2-x,1/2-y,-z
1/2+x,1/2-y,1/2+z
loop_
_atom_site_type_symbol
_atom_site_label
_atom_site_fract_x
_atom_site_fract_y
_atom_site_fract_z
Si Si1 0.755039 0.398088 0.352363
Si Si2 0.572708 0.710069 0.583432
Si Si3 0.227414 0.230405 0.376794
Si Si4 0.673886 0.760919 0.981369
Si Si5 0.395598 0.889065 0.697186
Si Si6 0.878968 0.270875 0.152523
Si Si7 0.977525 0.660789 0.029372
Si Si8 0.910140 0.860283 0.881139
O O1 0.758612 0.336008 0.226484
O O2 0.745251 0.570401 0.341659
O O3 0.712994 0.331870 0.421216
O O4 0.799049 0.362330 0.428141
O O5 0.595924 0.803721 0.685200
O O6 0.594896 0.755029 0.464649
O O7 0.520040 0.746479 0.573087
O O8 0.578318 0.533421 0.601556
O O9 0.250000 0.250000 0.500000
O O10 0.173226 0.239857 0.375509
O O11 0.645620 0.833534 0.880120
O O12 0.635843 0.674457 0.051509
O O13 0.440604 0.864815 0.625014
O O14 0.386260 0.064856 0.704793
O O15 0.899096 0.167167 0.250475
O O16 0.949265 0.750630 0.932341
O O17 0.000000 0.500000 0.000000
#
# Coordination Sequence:
#
# PCOD9309623 Si02
#       8
#     8   8   8   8   8   8   8   8
#     4  11  26  46  71 101 142 188 236 299 354 425
#     4  12  27  45  74 107 143 187 235 297 365 420
#     4  12  29  44  72 105 143 184 244 293 362 423
#     4  10  24  46  73  97 143 188 240 290 358 413
#     4  11  26  45  75 100 140 186 238 291 352 430
#     4  12  27  46  71 104 143 185 241 292 360 429
#     4  11  23  50  73 104 142 191 237 289 357 425
#     4  11  26  45  72 105 148 185 238 300 353 429
#
# _framework density 9.8765429999999999
#
# number of rings (size 3 to 8) (size 9 to 14) (size 15 to 20)
#    0.000    0.750    2.500    3.000   14.000    0.500 
#    2.250    0.000    0.000    0.000    0.000    0.000 
#    0.000    0.000    0.000    0.000    0.000    0.000 
#
# Total GULP energy -178811.791392 kJ/mol
# GULP energy per Si atom -5587.868481 kJ/mol
# Density = 0.985406 g / cm^3
# Si number density = 9.876543 Si / 1000 Ang^3
#
#
#
# Elastic Constant Matrix: (Units=GPa)
#
#
# Indices 1 2 3 4 5 6 
#
# 1 155.9184 64.1932 54.1344 0.0000 26.4234 0.0000
# 2 64.1932 145.1031 55.9854 0.0000 13.0751 0.0000
# 3 54.1344 55.9854 161.1133 0.0000 20.4030 0.0000
# 4 0.0000 0.0000 0.0000 36.1354 0.0000 4.8972
# 5 26.4234 13.0751 20.4030 0.0000 39.2465 0.0000
# 6 0.0000 0.0000 0.0000 4.8972 0.0000 35.0863
#
#
#
# Elastic Compliance Matrix: (Units=1/GPa)
#
#
# Indices 1 2 3 4 5 6 
#
# 1 0.008849 -0.002994 -0.001397 0.000000 -0.004234 0.000000
# 2 -0.002994 0.009034 -0.002149 0.000000 0.000123 0.000000
# 3 -0.001397 -0.002149 0.007721 0.000000 -0.002358 0.000000
# 4 0.000000 0.000000 0.000000 0.028207 0.000000 -0.003937
# 5 -0.004234 0.000123 -0.002358 0.000000 0.029515 0.000000
# 6 0.000000 0.000000 0.000000 -0.003937 0.000000 0.029051
#
#
# Mechanical properties :
#
#
# Convention : Reuss Voigt Hill
#
# Bulk Modulus (GPa) = 79.83993 90.08455 84.96224
# Shear Modulus (GPa) = 38.57063 41.28176 39.92620
#
# Velocity S-wave (km/s) = 4.42366 4.57649 4.50072
# Velocity P-wave (km/s) = 8.16078 8.58079 8.37342
#
# Compressibility (1/GPa) = 0.01252506
#
# Stress axis : x y z
#
# Youngs Moduli (GPa) = 113.00936 110.68885 129.51087
#
# Poissons Ratio (x) = 0.33144 0.18086
# Poissons Ratio (y) = 0.33839 0.27830
# Poissons Ratio (z) = 0.15782 0.23785
#
# Static dielectric constant tensor:
#      x y z
#    x 1.681390 0.000000 -0.006900 
#    y 0.000000 1.810060 0.000000 
#    z -0.006900 0.000000 1.702750 
# 
# From -- ./inp_files/125904.got.cif
#   From: 2010.05.17/outbox.ucp.g08.bks.cvg/sg15_63_cif.got.tgz:125904.got - 2010.06.11 12:40:34.
