data_PCOD9309889
_publ_section_title
;
Structure prediction by ZEFSAII (Michael W. Deem and Ramdas Pophale) SiO2 
 PCOD9309889
Probable space group: C 2/C
;
_chemical_formula_sum "Si O2"
_cell_formula_units_Z 26
_cell_length_a 27.000000
_cell_length_b 12.000000
_cell_length_c 9.000000
_cell_angle_alpha 90.000000
_cell_angle_beta 120.000000
_cell_angle_gamma 90.000000
_cell_volume 2525.330077
_symmetry_space_group_name_H-M "C 2/C"
_symmetry_group_IT_number 15
_symmetry_cell_setting 'monoclinic'
loop_
_space_group_symop_operation_xyz
x,y,z
-x,y,1/2-z
-x,-y,-z
x,-y,1/2+z
1/2+x,1/2+y,z
1/2-x,1/2+y,1/2-z
1/2-x,1/2-y,-z
1/2+x,1/2-y,1/2+z
loop_
_atom_site_type_symbol
_atom_site_label
_atom_site_fract_x
_atom_site_fract_y
_atom_site_fract_z
Si Si1 0.445042 0.043551 0.335207
Si Si2 0.212631 0.404775 0.036579
Si Si3 0.209367 0.003970 0.092877
Si Si4 0.870209 0.788667 0.967805
Si Si5 0.500000 0.245404 0.250000
Si Si6 0.125779 0.407092 0.493918
Si Si7 0.817338 0.219230 0.079467
O O1 0.467503 0.161800 0.311905
O O2 0.392843 0.064739 0.368233
O O3 0.500000 0.000000 0.500000
O O4 0.426634 0.953116 0.184968
O O5 0.261706 0.424453 0.237133
O O6 0.168659 0.300312 0.992351
O O7 0.243264 0.421475 0.923705
O O8 0.175784 0.514157 0.011564
O O9 0.160885 0.091863 0.065463
O O10 0.182793 0.912821 0.942524
O O11 0.854180 0.746506 0.778682
O O12 0.939854 0.799003 0.094464
O O13 0.150292 0.284265 0.503878
O O14 0.750000 0.250000 0.000000
#
# Coordination Sequence:
#
# PCOD9309889 Si02
#       7
#     8   8   8   8   4   8   8
#     4  12  22  41  65 100 131 177 231 282 338 392
#     4  12  22  41  69 104 136 173 227 291 352 411
#     4  12  25  42  70 101 141 181 223 289 352 420
#     4  12  25  46  68 102 137 186 238 280 353 409
#     4  12  26  44  70  94 146 190 232 292 322 422
#     4  12  23  38  68 100 138 172 221 282 352 405
#     4  12  23  43  68 100 143 175 222 291 349 416
#
# _framework density 10.295684
#
# number of rings (size 3 to 8) (size 9 to 14) (size 15 to 20)
#    0.000    0.000    7.692    3.231    0.000    1.231 
#    0.000    0.769    3.385    0.000    0.000    0.000 
#    0.000    0.000    0.000    0.000    0.000    0.000 
#
# Total GULP energy -144925.697207 kJ/mol
# GULP energy per Si atom -5574.065277 kJ/mol
# Density = 1.027225 g / cm^3
# Si number density = 10.295684 Si / 1000 Ang^3
#
#
#
# Elastic Constant Matrix: (Units=GPa)
#
#
# Indices 1 2 3 4 5 6 
#
# 1 103.7643 15.9345 31.2263 0.0000 16.1093 0.0000
# 2 15.9345 72.7473 9.0701 0.0000 8.7963 0.0000
# 3 31.2263 9.0701 88.9450 0.0000 20.9084 0.0000
# 4 0.0000 0.0000 0.0000 30.0020 0.0000 3.1665
# 5 16.1093 8.7963 20.9084 0.0000 40.3653 0.0000
# 6 0.0000 0.0000 0.0000 3.1665 0.0000 42.9775
#
#
#
# Elastic Compliance Matrix: (Units=1/GPa)
#
#
# Indices 1 2 3 4 5 6 
#
# 1 0.011250 -0.001770 -0.003193 0.000000 -0.002450 0.000000
# 2 -0.001770 0.014449 -0.000316 0.000000 -0.002278 0.000000
# 3 -0.003193 -0.000316 0.013755 0.000000 -0.005782 0.000000
# 4 0.000000 0.000000 0.000000 0.033592 0.000000 -0.002475
# 5 -0.002450 -0.002278 -0.005782 0.000000 0.029243 0.000000
# 6 0.000000 0.000000 0.000000 -0.002475 0.000000 0.023450
#
#
# Mechanical properties :
#
#
# Convention : Reuss Voigt Hill
#
# Bulk Modulus (GPa) = 34.60769 41.99094 38.29931
# Shear Modulus (GPa) = 34.26276 36.61735 35.44005
#
# Velocity S-wave (km/s) = 4.08356 4.22155 4.15313
# Velocity P-wave (km/s) = 6.25119 6.64821 6.45276
#
# Compressibility (1/GPa) = 0.02889531
#
# Stress axis : x y z
#
# Youngs Moduli (GPa) = 88.88597 69.20972 72.69903
#
# Poissons Ratio (x) = 0.12249 0.23215
# Poissons Ratio (y) = 0.15732 0.02301
# Poissons Ratio (z) = 0.28384 0.02190
#
# Static dielectric constant tensor:
#      x y z
#    x 1.726080 0.000000 -0.052580 
#    y 0.000000 1.806750 0.000000 
#    z -0.052580 0.000000 1.871280 
# 
# From -- ./inp_files/65608.got.cif
#   From: 2010.05.17/outbox.ucp.g08.bks.cvg/sg15_33_cif.got.tgz:65608.got - 2010.06.11 12:40:34.
