data_PCOD9309710
_publ_section_title
;
Structure prediction by ZEFSAII (Michael W. Deem and Ramdas Pophale) SiO2 
 PCOD9309710
Probable space group: C 2/C
;
_chemical_formula_sum "Si O2"
_cell_formula_units_Z 26
_cell_length_a 18.000000
_cell_length_b 15.000000
_cell_length_c 30.000000
_cell_angle_alpha 90.000000
_cell_angle_beta 160.000000
_cell_angle_gamma 90.000000
_cell_volume 2770.363161
_symmetry_space_group_name_H-M "C 2/C"
_symmetry_group_IT_number 15
_symmetry_cell_setting 'monoclinic'
loop_
_space_group_symop_operation_xyz
x,y,z
-x,y,1/2-z
-x,-y,-z
x,-y,1/2+z
1/2+x,1/2+y,z
1/2-x,1/2+y,1/2-z
1/2-x,1/2-y,-z
1/2+x,1/2-y,1/2+z
loop_
_atom_site_type_symbol
_atom_site_label
_atom_site_fract_x
_atom_site_fract_y
_atom_site_fract_z
Si Si1 0.500000 0.847266 0.250000
Si Si2 0.374525 0.191985 0.132466
Si Si3 0.123317 0.579860 0.663874
Si Si4 0.141746 0.483261 0.402250
Si Si5 0.413563 0.248288 0.341092
Si Si6 0.401120 0.587685 0.302168
Si Si7 0.777263 0.203533 0.065833
O O1 0.499080 0.918325 0.290055
O O2 0.324960 0.778009 0.130107
O O3 0.500000 0.205555 0.250000
O O4 0.512177 0.230089 0.168114
O O5 0.346932 0.084939 0.108551
O O6 0.137739 0.239796 0.995579
O O7 0.289938 0.656443 0.774839
O O8 0.259469 0.502724 0.714865
O O9 0.992153 0.523870 0.627363
O O10 0.929506 0.644007 0.536582
O O11 0.387630 0.444357 0.548844
O O12 0.254746 0.166184 0.265683
O O13 0.519513 0.636663 0.327369
O O14 0.750000 0.250000 0.000000
#
# Coordination Sequence:
#
# PCOD9309710 Si02
#       7
#     4   8   8   8   8   8   8
#     4  12  20  40  66  92 132 158 210 276 326 346
#     4  11  24  41  62 100 133 159 207 265 328 380
#     4  11  21  41  66  93 127 174 214 252 321 383
#     4  11  21  38  67  99 130 155 211 281 317 367
#     4  11  22  41  66  92 130 177 202 259 324 384
#     4  11  21  41  66  93 127 174 214 252 321 383
#     4  11  22  39  63  93 131 167 210 265 312 382
#
# _framework density 9.3850510000000007
#
# number of rings (size 3 to 8) (size 9 to 14) (size 15 to 20)
#    0.000    0.923    8.462    0.000    0.000    0.000 
#   11.077    3.077    3.385    0.000    0.000    0.000 
#    0.000    0.000    0.000    0.000    0.000    0.000 
#
# Total GULP energy -144762.883230 kJ/mol
# GULP energy per Si atom -5567.803201 kJ/mol
# Density = 0.936369 g / cm^3
# Si number density = 9.385051 Si / 1000 Ang^3
#
#
#
# Elastic Constant Matrix: (Units=GPa)
#
#
# Indices 1 2 3 4 5 6 
#
# 1 34.6249 15.1143 44.8593 -0.0025 2.1804 0.0001
# 2 15.1143 113.8749 38.9668 0.0016 5.3710 -0.0015
# 3 44.8593 38.9668 112.0354 0.0024 9.6056 -0.0004
# 4 -0.0025 0.0016 0.0024 45.8446 -0.0001 -2.3581
# 5 2.1804 5.3710 9.6056 -0.0001 36.4421 0.0002
# 6 0.0001 -0.0015 -0.0004 -2.3581 0.0002 33.4971
#
#
#
# Elastic Compliance Matrix: (Units=1/GPa)
#
#
# Indices 1 2 3 4 5 6 
#
# 1 0.060300 0.000237 -0.024467 0.000005 0.002806 0.000000
# 2 0.000237 0.009980 -0.003518 0.000000 -0.000558 0.000000
# 3 -0.024467 -0.003518 0.020233 -0.000002 -0.003351 0.000000
# 4 0.000005 0.000000 -0.000002 0.021892 0.000000 0.001541
# 5 0.002806 -0.000558 -0.003351 0.000000 0.028238 0.000000
# 6 0.000000 0.000000 0.000000 0.001541 0.000000 0.029962
#
#
# Mechanical properties :
#
#
# Convention : Reuss Voigt Hill
#
# Bulk Modulus (GPa) = 28.55816 50.93512 39.74664
# Shear Modulus (GPa) = 21.02822 33.92974 27.47898
#
# Velocity S-wave (km/s) = 3.35073 4.25626 3.83034
# Velocity P-wave (km/s) = 5.49705 7.16586 6.38620
#
# Compressibility (1/GPa) = 0.03501626
#
# Stress axis : x y z
#
# Youngs Moduli (GPa) = 16.58373 100.19688 49.42321
#
# Poissons Ratio (x) = -0.02370 1.20925
# Poissons Ratio (y) = -0.00392 0.17388
# Poissons Ratio (z) = 0.40576 0.35251
#
# Static dielectric constant tensor:
#      x y z
#    x 1.658330 0.000000 -0.003370 
#    y 0.000000 1.661670 0.000000 
#    z -0.003370 0.000000 1.689990 
# 
# From -- ./inp_files/316462.got.cif
#   From: 2010.05.17/outbox.ucp.g08.bks.cvg/sg15_159_cif.got.tgz:316462.got - 2010.06.11 12:40:34.
