data_PCOD9309993
_publ_section_title
;
Structure prediction by ZEFSAII (Michael W. Deem and Ramdas Pophale) SiO2 
 PCOD9309993
Probable space group: P 2 2 2
;
_chemical_formula_sum "Si O2"
_cell_formula_units_Z 32
_cell_length_a 9.186646
_cell_length_b 15.369127
_cell_length_c 12.203849
_cell_angle_alpha 90.000000
_cell_angle_beta 90.000000
_cell_angle_gamma 90.000000
_cell_volume 1723.070338
_symmetry_space_group_name_H-M "P 2 2 2"
_symmetry_group_IT_number 16
_symmetry_cell_setting 'orthorhombic'
loop_
_space_group_symop_operation_xyz
x,y,z
-x,-y,z
x,-y,-z
-x,y,-z
loop_
_atom_site_type_symbol
_atom_site_label
_atom_site_fract_x
_atom_site_fract_y
_atom_site_fract_z
Si Si1 0.824841 0.999144 0.131482
Si Si2 0.321319 0.175418 0.217533
Si Si3 0.838905 0.689438 0.368379
Si Si4 0.849851 0.428651 0.067923
Si Si5 0.656346 0.835607 0.779807
Si Si6 0.837771 0.494777 0.315153
Si Si7 0.182662 0.307974 0.627668
Si Si8 0.345335 0.724130 0.008304
O O1 0.753490 0.078767 0.199896
O O2 0.762432 0.911593 0.184464
O O3 0.000000 0.000000 0.138929
O O4 0.788005 0.000000 0.000000
O O5 0.243549 0.233475 0.308131
O O6 0.487020 0.152303 0.252234
O O7 0.313807 0.236538 0.109514
O O8 0.781010 0.592636 0.333855
O O9 0.820122 0.705704 0.497542
O O10 0.011363 0.691780 0.337432
O O11 0.858457 0.467736 0.188417
O O12 0.774402 0.337340 0.059662
O O13 0.760668 0.500000 0.000000
O O14 0.000000 0.418065 0.000000
O O15 0.731312 0.763887 0.699353
O O16 0.639455 0.799528 0.903250
O O17 0.760386 0.407936 0.359630
O O18 0.000000 0.500000 0.366940
O O19 0.500000 0.676435 0.000000
#
# Coordination Sequence:
#
# PCOD9309993 Si02
#       8
#     4   4   4   4   4   4   4   4
#     4  11  23  39  64  96 125 156 194 238 296 367
#     4  11  23  39  61  88 126 160 198 243 300 366
#     4  10  22  39  60  89 117 159 208 259 302 349
#     4  11  20  30  51  84 117 156 198 249 298 350
#     4  11  22  40  62  88 122 161 197 244 299 364
#     4  10  18  34  57  86 119 155 205 250 303 355
#     4  10  21  39  63  86 119 158 209 258 301 348
#     4  10  22  36  53  82 120 162 194 234 299 364
#
# _framework density 18.5715
#
# number of rings (size 3 to 8) (size 9 to 14) (size 15 to 20)
#    0.000    1.500    3.750    2.250    1.750    3.750 
#    0.000    1.250    0.000    5.250    0.000    0.000 
#    0.000    0.000    0.000    0.000    0.000    0.000 
#
# Total GULP energy -178218.947153 kJ/mol
# GULP energy per Si atom -5569.342099 kJ/mol
# Density = 1.852923 g / cm^3
# Si number density = 18.571500 Si / 1000 Ang^3
#
#
#
# Elastic Constant Matrix: (Units=GPa)
#
#
# Indices 1 2 3 4 5 6 
#
# 1 85.7805 63.1931 38.8992 0.0000 0.0000 0.0000
# 2 63.1931 132.6523 46.7567 0.0000 0.0000 0.0000
# 3 38.8992 46.7567 99.7039 0.0000 0.0000 0.0000
# 4 0.0000 0.0000 0.0000 14.4424 0.0000 0.0000
# 5 0.0000 0.0000 0.0000 0.0000 11.3363 0.0000
# 6 0.0000 0.0000 0.0000 0.0000 0.0000 35.7157
#
#
#
# Elastic Compliance Matrix: (Units=1/GPa)
#
#
# Indices 1 2 3 4 5 6 
#
# 1 0.019100 -0.007754 -0.003816 0.000000 0.000000 0.000000
# 2 -0.007754 0.012179 -0.002686 0.000000 0.000000 0.000000
# 3 -0.003816 -0.002686 0.012778 0.000000 0.000000 0.000000
# 4 0.000000 0.000000 0.000000 0.069241 0.000000 0.000000
# 5 0.000000 0.000000 0.000000 0.000000 0.088212 0.000000
# 6 0.000000 0.000000 0.000000 0.000000 0.000000 0.027999
#
#
# Mechanical properties :
#
#
# Convention : Reuss Voigt Hill
#
# Bulk Modulus (GPa) = 64.32666 68.42607 66.37636
# Shear Modulus (GPa) = 18.99671 23.58472 21.29072
#
# Velocity S-wave (km/s) = 3.20174 3.56749 3.38955
# Velocity P-wave (km/s) = 6.95562 7.34125 7.15104
#
# Compressibility (1/GPa) = 0.01554565
#
# Stress axis : x y z
#
# Youngs Moduli (GPa) = 52.35535 82.10667 78.25896
#
# Poissons Ratio (x) = 0.63666 0.29860
# Poissons Ratio (y) = 0.40597 0.21023
# Poissons Ratio (z) = 0.19977 0.22056
#
# Static dielectric constant tensor:
#      x y z
#    x 1.705280 0.000000 0.000000 
#    y 0.000000 1.694870 0.000000 
#    z 0.000000 0.000000 1.665430 
# 
# From -- ./inp_files/6643.got.cif
#   From: 2010.05.17/outbox.cif.g08.bks.cpg/sg16_4_cif.got.tgz:6643.got - 2010.06.03 22:28:35.
