data_PCOD9309813
_publ_section_title
;
Structure prediction by ZEFSAII (Michael W. Deem and Ramdas Pophale) SiO2 
 PCOD9309813
Probable space group: C 2/C
;
_chemical_formula_sum "Si O2"
_cell_formula_units_Z 20
_cell_length_a 9.000000
_cell_length_b 15.000000
_cell_length_c 15.000000
_cell_angle_alpha 90.000000
_cell_angle_beta 70.000000
_cell_angle_gamma 90.000000
_cell_volume 1902.877557
_symmetry_space_group_name_H-M "C 2/C"
_symmetry_group_IT_number 15
_symmetry_cell_setting 'monoclinic'
loop_
_space_group_symop_operation_xyz
x,y,z
-x,y,1/2-z
-x,-y,-z
x,-y,1/2+z
1/2+x,1/2+y,z
1/2-x,1/2+y,1/2-z
1/2-x,1/2-y,-z
1/2+x,1/2-y,1/2+z
loop_
_atom_site_type_symbol
_atom_site_label
_atom_site_fract_x
_atom_site_fract_y
_atom_site_fract_z
Si Si1 0.332243 0.293270 0.332733
Si Si2 0.957934 0.236641 0.997555
Si Si3 0.330611 0.055550 0.754596
Si Si4 0.393096 0.931749 0.577483
Si Si5 0.852798 0.065806 0.523248
O O1 0.500000 0.261465 0.250000
O O2 0.380308 0.309387 0.425777
O O3 0.270850 0.375630 0.285211
O O4 0.167738 0.239736 0.393535
O O5 0.024210 0.334406 0.953802
O O6 0.100329 0.169750 0.985697
O O7 0.500000 0.094776 0.750000
O O8 0.247084 0.041605 0.867254
O O9 0.367015 0.969306 0.683482
O O10 0.232689 0.941393 0.554241
O O11 0.500000 0.000000 0.500000
O O12 0.000000 0.000000 0.500000
#
# Coordination Sequence:
#
# PCOD9309813 Si02
#       5
#     8   8   8   8   8
#     4  11  23  43  74 101 141 184 242 294 362 426
#     4  11  25  44  74 105 144 190 245 303 359 427
#     4  12  25  47  73 104 148 189 237 299 368 427
#     4  12  25  45  75 105 146 191 245 296 365 431
#     4  12  27  47  73 107 149 191 245 301 362 431
#
# _framework density 10.510398
#
# number of rings (size 3 to 8) (size 9 to 14) (size 15 to 20)
#    0.000    0.400    6.000    1.800    2.800    2.400 
#    0.000    0.000    0.000    0.000    0.000    0.000 
#    0.000    0.000    0.000    0.000    0.000    0.000 
#
# Total GULP energy -111453.417063 kJ/mol
# GULP energy per Si atom -5572.670853 kJ/mol
# Density = 1.048648 g / cm^3
# Si number density = 10.510398 Si / 1000 Ang^3
#
#
#
# Elastic Constant Matrix: (Units=GPa)
#
#
# Indices 1 2 3 4 5 6 
#
# 1 95.1315 23.3385 17.9631 0.0000 4.9049 0.0000
# 2 23.3385 87.4928 13.7561 0.0000 -4.4178 0.0000
# 3 17.9631 13.7561 146.1903 0.0000 -30.1829 0.0000
# 4 0.0000 0.0000 0.0000 26.3688 0.0000 -4.5107
# 5 4.9049 -4.4178 -30.1829 0.0000 54.2999 0.0000
# 6 0.0000 0.0000 0.0000 -4.5107 0.0000 15.6859
#
#
#
# Elastic Compliance Matrix: (Units=1/GPa)
#
#
# Indices 1 2 3 4 5 6 
#
# 1 0.011655 -0.002967 -0.001604 0.000000 -0.002186 0.000000
# 2 -0.002967 0.012363 -0.000605 0.000000 0.000937 0.000000
# 3 -0.001604 -0.000605 0.008037 0.000000 0.004563 0.000000
# 4 0.000000 0.000000 0.000000 0.039886 0.000000 0.011470
# 5 -0.002186 0.000937 0.004563 0.000000 0.021226 0.000000
# 6 0.000000 0.000000 0.000000 0.011470 0.000000 0.067050
#
#
# Mechanical properties :
#
#
# Convention : Reuss Voigt Hill
#
# Bulk Modulus (GPa) = 46.07868 48.77002 47.42435
# Shear Modulus (GPa) = 28.12080 37.52137 32.82109
#
# Velocity S-wave (km/s) = 3.66151 4.22947 3.95570
# Velocity P-wave (km/s) = 6.31218 6.86312 6.59341
#
# Compressibility (1/GPa) = 0.02170201
#
# Stress axis : x y z
#
# Youngs Moduli (GPa) = 85.79767 80.88332 124.43184
#
# Poissons Ratio (x) = 0.24000 0.19962
# Poissons Ratio (y) = 0.25458 0.07531
# Poissons Ratio (z) = 0.13764 0.04895
#
# Static dielectric constant tensor:
#      x y z
#    x 1.902530 0.000000 -0.034200 
#    y 0.000000 1.786970 0.000000 
#    z -0.034200 0.000000 1.741950 
# 
# From -- ./inp_files/133097.got.cif
#   From: 2010.05.17/outbox.ucp.g08.bks.cvg/sg15_67_cif.got.tgz:133097.got - 2010.06.11 12:40:34.
