data_PCOD9309755
_publ_section_title
;
Structure prediction by ZEFSAII (Michael W. Deem and Ramdas Pophale) SiO2 
 PCOD9309755
Probable space group: C 2/C
;
_chemical_formula_sum "Si O2"
_cell_formula_units_Z 28
_cell_length_a 21.000000
_cell_length_b 15.000000
_cell_length_c 9.000000
_cell_angle_alpha 90.000000
_cell_angle_beta 90.000000
_cell_angle_gamma 90.000000
_cell_volume 2835.000000
_symmetry_space_group_name_H-M "C 2/C"
_symmetry_group_IT_number 15
_symmetry_cell_setting 'monoclinic'
loop_
_space_group_symop_operation_xyz
x,y,z
-x,y,1/2-z
-x,-y,-z
x,-y,1/2+z
1/2+x,1/2+y,z
1/2-x,1/2+y,1/2-z
1/2-x,1/2-y,-z
1/2+x,1/2-y,1/2+z
loop_
_atom_site_type_symbol
_atom_site_label
_atom_site_fract_x
_atom_site_fract_y
_atom_site_fract_z
Si Si1 0.296215 0.654236 0.684383
Si Si2 0.851144 0.345067 0.211663
Si Si3 0.736053 0.464717 0.892666
Si Si4 0.888407 0.737092 0.010351
Si Si5 0.861736 0.185120 0.985573
Si Si6 0.832583 0.549081 0.137735
Si Si7 0.999481 0.104112 0.569854
O O1 0.222230 0.661730 0.730313
O O2 0.305658 0.547362 0.669972
O O3 0.323267 0.707034 0.542370
O O4 0.339281 0.693579 0.815884
O O5 0.892534 0.299064 0.341833
O O6 0.857220 0.279716 0.070188
O O7 0.864562 0.451475 0.181716
O O8 0.689107 0.387391 0.949262
O O9 0.785256 0.426059 0.772295
O O10 0.782776 0.514910 0.010657
O O11 0.875161 0.637572 0.094380
O O12 0.944110 0.815704 0.038717
O O13 0.933447 0.146548 0.985318
O O14 0.000000 0.094010 0.750000
O O15 0.000000 0.000000 0.500000
#
# Coordination Sequence:
#
# PCOD9309755 Si02
#       7
#     8   8   8   8   8   8   8
#     4  11  22  40  65 105 142 183 233 292 378 422
#     4  11  25  40  70 110 136 188 231 304 371 427
#     4  11  22  38  65 109 148 183 228 304 368 433
#     4  12  25  46  71  98 151 191 241 300 358 437
#     4  12  25  42  69 100 147 187 241 288 357 432
#     4  11  23  42  67 107 147 178 236 293 375 431
#     4  12  30  52  74 102 138 196 245 295 348 436
#
# _framework density 9.8765429999999999
#
# number of rings (size 3 to 8) (size 9 to 14) (size 15 to 20)
#    0.000    0.571    7.143    2.571    6.000    0.000 
#    0.000    0.714    0.000    0.000    0.000    0.000 
#    0.000    0.000    0.000    0.000    0.000    0.000 
#
# Total GULP energy -155982.918683 kJ/mol
# GULP energy per Si atom -5570.818524 kJ/mol
# Density = 0.985406 g / cm^3
# Si number density = 9.876543 Si / 1000 Ang^3
#
#
#
# Elastic Constant Matrix: (Units=GPa)
#
#
# Indices 1 2 3 4 5 6 
#
# 1 83.9236 36.2382 15.4558 0.0000 -2.7568 0.0000
# 2 36.2382 159.3612 29.0930 0.0000 -0.5233 0.0000
# 3 15.4558 29.0930 76.6910 0.0000 0.1121 0.0000
# 4 0.0000 0.0000 0.0000 51.3662 0.0000 -4.6764
# 5 -2.7568 -0.5233 0.1121 0.0000 26.0056 0.0000
# 6 0.0000 0.0000 0.0000 -4.6764 0.0000 44.0820
#
#
#
# Elastic Compliance Matrix: (Units=1/GPa)
#
#
# Indices 1 2 3 4 5 6 
#
# 1 0.013456 -0.002750 -0.001671 0.000000 0.001378 0.000000
# 2 -0.002750 0.007305 -0.002217 0.000000 -0.000135 0.000000
# 3 -0.001671 -0.002217 0.014217 0.000000 -0.000283 0.000000
# 4 0.000000 0.000000 0.000000 0.019658 0.000000 0.002085
# 5 0.001378 -0.000135 -0.000283 0.000000 0.038598 0.000000
# 6 0.000000 0.000000 0.000000 0.002085 0.000000 0.022906
#
#
# Mechanical properties :
#
#
# Convention : Reuss Voigt Hill
#
# Bulk Modulus (GPa) = 46.07617 53.50552 49.79085
# Shear Modulus (GPa) = 36.58999 40.23668 38.41334
#
# Velocity S-wave (km/s) = 4.30858 4.51819 4.41463
# Velocity P-wave (km/s) = 6.93748 7.37324 7.15868
#
# Compressibility (1/GPa) = 0.02170319
#
# Stress axis : x y z
#
# Youngs Moduli (GPa) = 74.31549 136.89818 70.33699
#
# Poissons Ratio (x) = 0.37652 0.11750
# Poissons Ratio (y) = 0.20440 0.15591
# Poissons Ratio (z) = 0.12414 0.30344
#
# Static dielectric constant tensor:
#      x y z
#    x 1.698360 0.000000 0.029320 
#    y 0.000000 1.728300 0.000000 
#    z 0.029320 0.000000 1.798680 
# 
# From -- ./inp_files/55609.got.cif
#   From: 2010.05.17/outbox.ucp.g08.bks.cvg/sg15_28_cif.got.tgz:55609.got - 2010.06.11 12:40:34.
