data_PCOD9309870
_publ_section_title
;
Structure prediction by ZEFSAII (Michael W. Deem and Ramdas Pophale) SiO2 
 PCOD9309870
Probable space group: C 2/C
;
_chemical_formula_sum "Si O2"
_cell_formula_units_Z 24
_cell_length_a 15.000000
_cell_length_b 15.000000
_cell_length_c 30.000000
_cell_angle_alpha 90.000000
_cell_angle_beta 160.000000
_cell_angle_gamma 90.000000
_cell_volume 2308.635967
_symmetry_space_group_name_H-M "C 2/C"
_symmetry_group_IT_number 15
_symmetry_cell_setting 'monoclinic'
loop_
_space_group_symop_operation_xyz
x,y,z
-x,y,1/2-z
-x,-y,-z
x,-y,1/2+z
1/2+x,1/2+y,z
1/2-x,1/2+y,1/2-z
1/2-x,1/2-y,-z
1/2+x,1/2-y,1/2+z
loop_
_atom_site_type_symbol
_atom_site_label
_atom_site_fract_x
_atom_site_fract_y
_atom_site_fract_z
Si Si1 0.744378 0.748464 0.661367
Si Si2 0.929014 0.252563 0.350832
Si Si3 0.113704 0.094623 0.757822
Si Si4 0.038676 0.059078 0.974304
Si Si5 0.649784 0.066538 0.235057
Si Si6 0.983444 0.437306 0.552766
O O1 0.839191 0.743240 0.757179
O O2 0.571221 0.659824 0.571818
O O3 0.583384 0.841363 0.581091
O O4 0.000000 0.749284 0.750000
O O5 0.786374 0.335316 0.309765
O O6 0.805186 0.160794 0.312592
O O7 0.250000 0.250000 0.500000
O O8 0.000000 0.136763 0.750000
O O9 0.837366 0.059817 0.604175
O O10 0.322877 0.017872 0.872479
O O11 0.354897 0.062841 0.116652
O O12 0.851046 0.008916 0.848937
O O13 0.000000 0.000000 0.000000
O O14 0.571402 0.058777 0.146099
#
# Coordination Sequence:
#
# PCOD9309870 Si02
#       6
#     8   8   8   8   8   8
#     4  11  25  45  72 105 150 189 244 304 370 436
#     4  11  28  46  74 107 143 198 245 303 372 437
#     4  12  27  45  73 105 147 185 245 301 366 446
#     4  12  26  44  73 109 144 195 243 308 374 437
#     4  11  25  45  70 100 145 186 246 298 368 445
#     4  11  25  45  74 102 142 194 236 302 372 438
#
# _framework density 10.395749
#
# number of rings (size 3 to 8) (size 9 to 14) (size 15 to 20)
#    0.000    0.667    0.000    6.500   14.000    4.000 
#    0.000    0.000    0.000    0.000    0.000    0.000 
#    0.000    0.000    0.000    0.000    0.000    0.000 
#
# Total GULP energy -134031.443038 kJ/mol
# GULP energy per Si atom -5584.643460 kJ/mol
# Density = 1.037209 g / cm^3
# Si number density = 10.395749 Si / 1000 Ang^3
#
#
#
# Elastic Constant Matrix: (Units=GPa)
#
#
# Indices 1 2 3 4 5 6 
#
# 1 119.8829 46.5026 35.5658 -0.0024 30.4516 -0.0005
# 2 46.5026 156.7952 56.3431 0.0045 28.2279 0.0004
# 3 35.5658 56.3431 190.7403 0.0031 36.2730 0.0062
# 4 -0.0024 0.0045 0.0031 47.2665 0.0012 5.8806
# 5 30.4516 28.2279 36.2730 0.0012 52.9425 -0.0015
# 6 -0.0005 0.0004 0.0062 5.8806 -0.0015 41.8160
#
#
#
# Elastic Compliance Matrix: (Units=1/GPa)
#
#
# Indices 1 2 3 4 5 6 
#
# 1 0.010459 -0.002114 -0.000455 0.000001 -0.004577 0.000000
# 2 -0.002114 0.007919 -0.001579 -0.000001 -0.001924 0.000000
# 3 -0.000455 -0.001579 0.006421 0.000000 -0.003295 -0.000001
# 4 0.000001 -0.000001 0.000000 0.021533 -0.000001 -0.003028
# 5 -0.004577 -0.001924 -0.003295 -0.000001 0.024804 0.000001
# 6 0.000000 0.000000 -0.000001 -0.003028 0.000001 0.024340
#
#
# Mechanical properties :
#
#
# Convention : Reuss Voigt Hill
#
# Bulk Modulus (GPa) = 60.60186 82.69350 71.64768
# Shear Modulus (GPa) = 45.75635 50.33880 48.04758
#
# Velocity S-wave (km/s) = 4.69628 4.92583 4.81242
# Velocity P-wave (km/s) = 7.65620 8.49770 8.08790
#
# Compressibility (1/GPa) = 0.01650114
#
# Stress axis : x y z
#
# Youngs Moduli (GPa) = 95.60889 126.28449 155.74620
#
# Poissons Ratio (x) = 0.26703 0.07091
# Poissons Ratio (y) = 0.20216 0.24591
# Poissons Ratio (z) = 0.04353 0.19939
#
# Static dielectric constant tensor:
#      x y z
#    x 1.818880 0.000000 -0.016820 
#    y 0.000000 1.763330 0.000000 
#    z -0.016820 0.000000 1.733230 
# 
# From -- ./inp_files/314115.got.cif
#   From: 2010.05.17/outbox.ucp.g08.bks.cvg/sg15_158_cif.got.tgz:314115.got - 2010.06.11 12:40:34.
