data_PCOD9309356
_publ_section_title
;
Structure prediction by ZEFSAII (Michael W. Deem and Ramdas Pophale) SiO2 
 PCOD9309356
Probable space group: C 2/C
;
_chemical_formula_sum "Si O2"
_cell_formula_units_Z 28
_cell_length_a 9.000000
_cell_length_b 27.000000
_cell_length_c 18.000000
_cell_angle_alpha 90.000000
_cell_angle_beta 40.000000
_cell_angle_gamma 90.000000
_cell_volume 2811.553005
_symmetry_space_group_name_H-M "C 2/C"
_symmetry_group_IT_number 15
_symmetry_cell_setting 'monoclinic'
loop_
_space_group_symop_operation_xyz
x,y,z
-x,y,1/2-z
-x,-y,-z
x,-y,1/2+z
1/2+x,1/2+y,z
1/2-x,1/2+y,1/2-z
1/2-x,1/2-y,-z
1/2+x,1/2-y,1/2+z
loop_
_atom_site_type_symbol
_atom_site_label
_atom_site_fract_x
_atom_site_fract_y
_atom_site_fract_z
Si Si1 0.930062 0.294098 0.938420
Si Si2 0.410888 0.180631 0.965601
Si Si3 0.754645 0.523872 0.186123
Si Si4 0.056365 0.567051 0.527789
Si Si5 0.968526 0.041817 0.074919
Si Si6 0.238471 0.358727 0.618860
Si Si7 0.589693 0.720732 0.332837
O O1 0.827103 0.342144 0.937753
O O2 0.947358 0.304537 0.017326
O O3 0.186059 0.282550 0.806244
O O4 0.750000 0.250000 0.000000
O O5 0.460032 0.122882 0.935538
O O6 0.142466 0.188638 0.092344
O O7 0.491938 0.222952 0.876266
O O8 0.500000 0.528923 0.250000
O O9 0.907460 0.561237 0.075831
O O10 0.722959 0.532125 0.286608
O O11 0.853298 0.469467 0.130733
O O12 0.288205 0.545473 0.476053
O O13 0.908965 0.095345 0.062475
O O14 0.000000 0.000000 0.000000
O O15 0.323640 0.307811 0.626015
O O16 0.000000 0.372820 0.750000
#
# Coordination Sequence:
#
# PCOD9309356 Si02
#       7
#     8   8   8   8   8   8   8
#     4  11  23  39  62  94 127 166 207 260 315 378
#     4  11  22  40  66  91 126 168 207 257 319 377
#     4   9  22  42  62  91 126 160 215 266 311 380
#     4  10  22  41  66  93 124 164 217 261 321 376
#     4  11  24  40  64  92 127 168 211 265 322 381
#     4  10  22  39  61  88 123 157 213 256 302 371
#     4  10  22  41  62  91 125 161 210 256 304 381
#
# _framework density 9.9589090000000002
#
# number of rings (size 3 to 8) (size 9 to 14) (size 15 to 20)
#    0.000    1.714    2.857    0.429    6.000    3.429 
#    5.143    0.000    3.143    0.000    0.000    0.000 
#    0.000    0.000    0.000    0.000    0.000    0.000 
#
# Total GULP energy -156011.022850 kJ/mol
# GULP energy per Si atom -5571.822245 kJ/mol
# Density = 0.993624 g / cm^3
# Si number density = 9.958909 Si / 1000 Ang^3
#
#
#
# Elastic Constant Matrix: (Units=GPa)
#
#
# Indices 1 2 3 4 5 6 
#
# 1 38.7548 -8.6316 -4.5185 0.0000 12.3075 0.0000
# 2 -8.6316 96.4687 15.5818 0.0000 14.4306 0.0000
# 3 -4.5185 15.5818 45.3805 0.0000 10.7374 0.0000
# 4 0.0000 0.0000 0.0000 10.5128 0.0000 -13.1924
# 5 12.3075 14.4306 10.7374 0.0000 17.6256 0.0000
# 6 0.0000 0.0000 0.0000 -13.1924 0.0000 36.8081
#
#
#
# Elastic Compliance Matrix: (Units=1/GPa)
#
#
# Indices 1 2 3 4 5 6 
#
# 1 0.043217 0.008599 0.011867 0.000000 -0.044446 0.000000
# 2 0.008599 0.013692 0.000266 0.000000 -0.017376 0.000000
# 3 0.011867 0.000266 0.029372 0.000000 -0.026397 0.000000
# 4 0.000000 0.000000 0.000000 0.172875 0.000000 0.061961
# 5 -0.044446 -0.017376 -0.026397 0.000000 0.118079 0.000000
# 6 0.000000 0.000000 0.000000 0.061961 0.000000 0.049375
#
#
# Mechanical properties :
#
#
# Convention : Reuss Voigt Hill
#
# Bulk Modulus (GPa) = 7.82811 20.60749 14.21780
# Shear Modulus (GPa) = 11.68969 24.86747 18.27858
#
# Velocity S-wave (km/s) = 2.42522 3.53725 3.03264
# Velocity P-wave (km/s) = 3.43235 5.20111 4.40639
#
# Compressibility (1/GPa) = 0.12774483
#
# Stress axis : x y z
#
# Youngs Moduli (GPa) = 23.13904 73.03681 34.04622
#
# Poissons Ratio (x) = -0.62803 -0.40402
# Poissons Ratio (y) = -0.19897 -0.00907
# Poissons Ratio (z) = -0.27459 -0.01946
#
# Static dielectric constant tensor:
#      x y z
#    x 1.467170 0.000000 -0.064580 
#    y 0.000000 1.681800 0.000000 
#    z -0.064580 0.000000 1.675760 
# 
# From -- ./inp_files/82140.got.cif
#   From: 2010.05.17/outbox.ucp.g08.bks.cvg/sg15_42_cif.got.tgz:82140.got - 2010.06.11 12:40:34.
