data_PCOD9309102
_publ_section_title
;
Structure prediction by ZEFSAII (Michael W. Deem and Ramdas Pophale) SiO2 
 PCOD9309102
Probable space group: C 2/C
;
_chemical_formula_sum "Si O2"
_cell_formula_units_Z 28
_cell_length_a 18.000000
_cell_length_b 21.000000
_cell_length_c 15.000000
_cell_angle_alpha 90.000000
_cell_angle_beta 30.000000
_cell_angle_gamma 90.000000
_cell_volume 2835.000000
_symmetry_space_group_name_H-M "C 2/C"
_symmetry_group_IT_number 15
_symmetry_cell_setting 'monoclinic'
loop_
_space_group_symop_operation_xyz
x,y,z
-x,y,1/2-z
-x,-y,-z
x,-y,1/2+z
1/2+x,1/2+y,z
1/2-x,1/2+y,1/2-z
1/2-x,1/2-y,-z
1/2+x,1/2-y,1/2+z
loop_
_atom_site_type_symbol
_atom_site_label
_atom_site_fract_x
_atom_site_fract_y
_atom_site_fract_z
Si Si1 0.869445 0.645627 0.573712
Si Si2 0.172126 0.607357 0.485189
Si Si3 0.817427 0.383439 0.326442
Si Si4 0.783531 0.627922 0.253749
Si Si5 0.863431 0.772060 0.457338
Si Si6 0.199778 0.035199 0.637700
Si Si7 0.347608 0.517768 0.014397
O O1 0.806866 0.652694 0.741135
O O2 0.879653 0.710357 0.505066
O O3 0.775893 0.591178 0.617143
O O4 0.041860 0.626365 0.405120
O O5 0.218311 0.637714 0.533321
O O6 0.234773 0.642927 0.332280
O O7 0.223245 0.533655 0.431475
O O8 0.994090 0.604651 0.655440
O O9 0.717303 0.446589 0.417797
O O10 0.696696 0.673621 0.413119
O O11 0.722824 0.557423 0.333019
O O12 0.750000 0.750000 0.500000
O O13 0.000000 0.791754 0.250000
O O14 0.204141 0.048548 0.526465
O O15 0.024906 0.024072 0.838255
#
# Coordination Sequence:
#
# PCOD9309102 Si02
#       7
#     8   8   8   8   8   8   8
#     4  11  23  39  60  85 113 157 199 240 290 347
#     4   9  19  38  60  87 116 155 193 237 286 349
#     4   9  19  38  61  85 119 152 194 239 285 348
#     4  11  23  38  61  84 115 155 199 239 291 349
#     4  12  26  44  61  86 117 150 195 249 295 346
#     4  10  21  34  56  88 125 155 191 236 293 348
#     4  10  21  34  55  89 123 157 190 237 293 346
#
# _framework density 9.8765429999999999
#
# number of rings (size 3 to 8) (size 9 to 14) (size 15 to 20)
#    0.000    1.714    1.429    2.571    4.000    5.714 
#    0.000    0.714    0.000    0.000    0.000    0.000 
#    0.000    0.000    0.000    0.000    0.000    0.000 
#
# Total GULP energy -156071.662744 kJ/mol
# GULP energy per Si atom -5573.987955 kJ/mol
# Density = 0.985406 g / cm^3
# Si number density = 9.876543 Si / 1000 Ang^3
#
#
#
# Elastic Constant Matrix: (Units=GPa)
#
#
# Indices 1 2 3 4 5 6 
#
# 1 106.5040 15.1782 47.9995 0.0002 36.7427 -0.0001
# 2 15.1782 30.6804 16.2646 0.0023 14.8188 -0.0007
# 3 47.9995 16.2646 99.2244 0.0050 33.9110 -0.0066
# 4 0.0002 0.0023 0.0050 31.8021 -0.0054 8.8955
# 5 36.7427 14.8188 33.9110 -0.0054 36.9554 0.0047
# 6 -0.0001 -0.0007 -0.0066 8.8955 0.0047 22.2088
#
#
#
# Elastic Compliance Matrix: (Units=1/GPa)
#
#
# Indices 1 2 3 4 5 6 
#
# 1 0.014931 0.000069 -0.003134 -0.000002 -0.011997 0.000003
# 2 0.000069 0.040595 -0.001604 -0.000007 -0.014876 0.000007
# 3 -0.003134 -0.001604 0.015403 -0.000007 -0.010375 0.000009
# 4 -0.000002 -0.000007 -0.000007 0.035412 0.000018 -0.014184
# 5 -0.011997 -0.014876 -0.010375 0.000018 0.054472 -0.000022
# 6 0.000003 0.000007 0.000009 -0.014184 -0.000022 0.050708
#
#
# Mechanical properties :
#
#
# Convention : Reuss Voigt Hill
#
# Bulk Modulus (GPa) = 16.23603 43.92148 30.07875
# Shear Modulus (GPa) = 20.71348 28.65768 24.68558
#
# Velocity S-wave (km/s) = 3.24175 3.81306 3.53896
# Velocity P-wave (km/s) = 4.71691 6.45519 5.65326
#
# Compressibility (1/GPa) = 0.06159143
#
# Stress axis : x y z
#
# Youngs Moduli (GPa) = 66.97655 24.63360 64.92299
#
# Poissons Ratio (x) = -0.00171 0.20347
# Poissons Ratio (y) = -0.00465 0.10413
# Poissons Ratio (z) = 0.20991 0.03951
#
# Static dielectric constant tensor:
#      x y z
#    x 1.720690 0.000010 -0.018880 
#    y 0.000010 1.647830 0.000050 
#    z -0.018880 0.000050 1.605100 
# 
# From -- ./inp_files/163747.got.cif
#   From: 2010.05.17/outbox.ucp.g08.bks.cvg/sg15_82_cif.got.tgz:163747.got - 2010.06.11 12:40:34.
