data_PCOD9309247
_publ_section_title
;
Structure prediction by ZEFSAII (Michael W. Deem and Ramdas Pophale) SiO2 
 PCOD9309247
Probable space group: C 2/C
;
_chemical_formula_sum "Si O2"
_cell_formula_units_Z 26
_cell_length_a 15.000000
_cell_length_b 15.000000
_cell_length_c 12.000000
_cell_angle_alpha 90.000000
_cell_angle_beta 70.000000
_cell_angle_gamma 90.000000
_cell_volume 2537.170076
_symmetry_space_group_name_H-M "C 2/C"
_symmetry_group_IT_number 15
_symmetry_cell_setting 'monoclinic'
loop_
_space_group_symop_operation_xyz
x,y,z
-x,y,1/2-z
-x,-y,-z
x,-y,1/2+z
1/2+x,1/2+y,z
1/2-x,1/2+y,1/2-z
1/2-x,1/2-y,-z
1/2+x,1/2-y,1/2+z
loop_
_atom_site_type_symbol
_atom_site_label
_atom_site_fract_x
_atom_site_fract_y
_atom_site_fract_z
Si Si1 0.204790 0.392329 0.136968
Si Si2 0.358644 0.626805 0.930302
Si Si3 0.254014 0.095732 0.314597
Si Si4 0.152579 0.233998 0.793254
Si Si5 0.990807 0.183480 0.452547
Si Si6 0.500000 0.184661 0.750000
Si Si7 0.659340 0.422854 0.624480
O O1 0.222736 0.491970 0.176614
O O2 0.256562 0.320439 0.195741
O O3 0.094075 0.370236 0.179572
O O4 0.254358 0.390476 0.993310
O O5 0.370819 0.690097 0.817789
O O6 0.351183 0.528437 0.883144
O O7 0.269818 0.636416 0.052815
O O8 0.438359 0.634378 0.992579
O O9 0.332406 0.161862 0.233980
O O10 0.176110 0.099609 0.247064
O O11 0.079354 0.224685 0.925336
O O12 0.026153 0.257150 0.349122
O O13 0.931899 0.118758 0.396469
#
# Coordination Sequence:
#
# PCOD9309247 Si02
#       7
#     8   8   8   8   8   4   8
#     4  10  23  42  64  91 126 166 215 262 303 372
#     4  11  22  39  63  97 131 160 208 262 312 379
#     4  11  22  40  67  91 121 178 209 252 320 366
#     4  11  22  42  64  91 131 164 208 260 313 379
#     4  11  23  39  64  97 127 165 204 262 320 366
#     4  12  24  44  62  92 126 166 220 258 300 378
#     4  10  21  41  65  94 126 163 209 260 320 373
#
# _framework density 10.247638
#
# number of rings (size 3 to 8) (size 9 to 14) (size 15 to 20)
#    0.000    1.231    1.538    5.077    0.000    2.462 
#    8.308    1.538    0.000    0.000    0.000    0.000 
#    0.000    0.000    0.000    0.000    0.000    0.000 
#
# Total GULP energy -145037.379254 kJ/mol
# GULP energy per Si atom -5578.360741 kJ/mol
# Density = 1.022431 g / cm^3
# Si number density = 10.247638 Si / 1000 Ang^3
#
#
#
# Elastic Constant Matrix: (Units=GPa)
#
#
# Indices 1 2 3 4 5 6 
#
# 1 48.9260 4.0877 18.5979 0.0000 2.0976 0.0000
# 2 4.0877 -4.4387 49.2647 0.0000 1.8823 0.0000
# 3 18.5979 49.2647 93.8246 0.0000 24.2095 0.0000
# 4 0.0000 0.0000 0.0000 21.4845 0.0000 10.5534
# 5 2.0976 1.8823 24.2095 0.0000 39.3877 0.0000
# 6 0.0000 0.0000 0.0000 10.5534 0.0000 14.5846
#
#
#
# Elastic Compliance Matrix: (Units=1/GPa)
#
#
# Indices 1 2 3 4 5 6 
#
# 1 0.021603 -0.004187 -0.002185 0.000000 0.000392 0.000000
# 2 -0.004187 -0.028735 0.018429 0.000000 -0.009731 0.000000
# 3 -0.002185 0.018429 0.001916 0.000000 -0.001942 0.000000
# 4 0.000000 0.000000 0.000000 0.072212 0.000000 -0.052253
# 5 0.000392 -0.009731 -0.001942 0.000000 0.027026 0.000000
# 6 0.000000 0.000000 0.000000 -0.052253 0.000000 0.106375
#
#
# Mechanical properties :
#
#
# Convention : Reuss Voigt Hill
#
# Bulk Modulus (GPa) = 52.91800 31.35695 42.13747
# Shear Modulus (GPa) = 27.38484 19.51546 23.45015
#
# Velocity S-wave (km/s) = 3.65931 3.08911 3.38623
# Velocity P-wave (km/s) = 6.61285 5.29682 5.99108
#
# Compressibility (1/GPa) = 0.01889716
#
# Stress axis : x y z
#
# Youngs Moduli (GPa) = 46.29092 -34.80092 521.95025
#
# Poissons Ratio (x) = -0.14572 1.14032
# Poissons Ratio (y) = 0.19383 -9.61890
# Poissons Ratio (z) = 0.10113 0.64134
#
# Static dielectric constant tensor:
#      x y z
#    x 1.801790 0.000000 -0.064880 
#    y 0.000000 1.725800 0.000000 
#    z -0.064880 0.000000 1.714190 
# 
# From -- ./inp_files/96932.got.cif
#   From: 2010.05.17/outbox.ucp.g08.bks.cvg/sg15_49_cif.got.tgz:96932.got - 2010.06.11 12:40:34.
