data_PCOD9309867
_publ_section_title
;
Structure prediction by ZEFSAII (Michael W. Deem and Ramdas Pophale) SiO2 
 PCOD9309867
Probable space group: C 2/C
;
_chemical_formula_sum "Si O2"
_cell_formula_units_Z 28
_cell_length_a 12.000000
_cell_length_b 15.000000
_cell_length_c 30.000000
_cell_angle_alpha 90.000000
_cell_angle_beta 30.000000
_cell_angle_gamma 90.000000
_cell_volume 2700.000000
_symmetry_space_group_name_H-M "C 2/C"
_symmetry_group_IT_number 15
_symmetry_cell_setting 'monoclinic'
loop_
_space_group_symop_operation_xyz
x,y,z
-x,y,1/2-z
-x,-y,-z
x,-y,1/2+z
1/2+x,1/2+y,z
1/2-x,1/2+y,1/2-z
1/2-x,1/2-y,-z
1/2+x,1/2-y,1/2+z
loop_
_atom_site_type_symbol
_atom_site_label
_atom_site_fract_x
_atom_site_fract_y
_atom_site_fract_z
Si Si1 0.015003 0.492355 0.353729
Si Si2 0.612496 0.540367 0.555036
Si Si3 0.159044 0.817277 0.654141
Si Si4 0.701274 0.108811 0.647812
Si Si5 0.851375 0.875605 0.681883
Si Si6 0.094983 0.599994 0.972862
Si Si7 0.260037 0.174390 0.672016
O O1 0.854119 0.528716 0.448461
O O2 0.833878 0.451755 0.382626
O O3 0.160219 0.568029 0.276347
O O4 0.158381 0.406852 0.323107
O O5 0.442164 0.600732 0.586414
O O6 0.472471 0.447821 0.607875
O O7 0.671287 0.585307 0.582335
O O8 0.155990 0.711172 0.652796
O O9 0.412593 0.849525 0.566254
O O10 0.000000 0.846173 0.750000
O O11 0.043271 0.854697 0.650656
O O12 0.500000 0.079700 0.750000
O O13 0.792541 0.777518 0.679907
O O14 0.118026 0.652002 0.917704
O O15 0.000000 0.500000 0.000000
O O16 0.000000 0.164782 0.750000
#
# Coordination Sequence:
#
# PCOD9309867 Si02
#       7
#     8   8   8   8   8   8   8
#     4  12  25  47  75 106 148 193 246 296 374 425
#     4  12  26  45  78 104 148 194 241 304 363 440
#     4  11  25  43  74 103 148 187 243 298 367 433
#     4  11  25  46  69 103 144 192 243 303 362 429
#     4  12  26  46  74 107 147 195 245 300 367 439
#     4  12  25  46  73 111 144 189 243 298 368 438
#     4  12  29  45  76 111 148 192 245 306 364 435
#
# _framework density 10.370369999999999
#
# number of rings (size 3 to 8) (size 9 to 14) (size 15 to 20)
#    0.000    0.286    5.714    2.143    4.000    2.857 
#    0.000    0.000    0.000    0.000    0.000    0.000 
#    0.000    0.000    0.000    0.000    0.000    0.000 
#
# Total GULP energy -156304.560207 kJ/mol
# GULP energy per Si atom -5582.305722 kJ/mol
# Density = 1.034677 g / cm^3
# Si number density = 10.370370 Si / 1000 Ang^3
#
#
#
# Elastic Constant Matrix: (Units=GPa)
#
#
# Indices 1 2 3 4 5 6 
#
# 1 81.3262 13.6668 4.6251 -0.0094 -13.5411 0.0240
# 2 13.6668 83.2986 36.9146 0.0068 10.7243 0.0200
# 3 4.6251 36.9146 115.2590 -0.0551 4.6534 0.0899
# 4 -0.0094 0.0068 -0.0551 31.8107 0.0188 -4.1859
# 5 -13.5411 10.7243 4.6534 0.0188 39.2695 -0.0098
# 6 0.0240 0.0200 0.0899 -4.1859 -0.0098 43.6431
#
#
#
# Elastic Compliance Matrix: (Units=1/GPa)
#
#
# Indices 1 2 3 4 5 6 
#
# 1 0.013721 -0.003055 0.000204 0.000001 0.005541 -0.000005
# 2 -0.003055 0.015111 -0.004530 -0.000009 -0.004644 0.000002
# 3 0.000204 -0.004530 0.010114 0.000016 0.000109 -0.000017
# 4 0.000001 -0.000009 0.000016 0.031838 -0.000014 0.003054
# 5 0.005541 -0.004644 0.000109 -0.000014 0.028631 0.000004
# 6 -0.000005 0.000002 -0.000017 0.003054 0.000004 0.023206
#
#
# Mechanical properties :
#
#
# Convention : Reuss Voigt Hill
#
# Bulk Modulus (GPa) = 41.34775 43.36630 42.35703
# Shear Modulus (GPa) = 34.37743 37.92317 36.15030
#
# Velocity S-wave (km/s) = 4.07564 4.28066 4.17941
# Velocity P-wave (km/s) = 6.49050 6.73693 6.61486
#
# Compressibility (1/GPa) = 0.02418511
#
# Stress axis : x y z
#
# Youngs Moduli (GPa) = 72.88318 66.17485 98.86976
#
# Poissons Ratio (x) = 0.20217 -0.02018
# Poissons Ratio (y) = 0.22266 0.44786
# Poissons Ratio (z) = -0.01488 0.29976
#
# Static dielectric constant tensor:
#      x y z
#    x 1.804900 -0.000010 0.081990 
#    y -0.000010 1.734410 -0.000010 
#    z 0.081990 -0.000010 1.798670 
# 
# From -- ./inp_files/311298.got.cif
#   From: 2010.05.17/outbox.ucp.g08.bks.cvg/sg15_156_cif.got.tgz:311298.got - 2010.06.11 12:40:34.
