data_PCOD9309406
_publ_section_title
;
Structure prediction by ZEFSAII (Michael W. Deem and Ramdas Pophale) SiO2 
 PCOD9309406
Probable space group: C 2/C
;
_chemical_formula_sum "Si O2"
_cell_formula_units_Z 24
_cell_length_a 9.000000
_cell_length_b 27.000000
_cell_length_c 12.000000
_cell_angle_alpha 90.000000
_cell_angle_beta 60.000000
_cell_angle_gamma 90.000000
_cell_volume 2525.330077
_symmetry_space_group_name_H-M "C 2/C"
_symmetry_group_IT_number 15
_symmetry_cell_setting 'monoclinic'
loop_
_space_group_symop_operation_xyz
x,y,z
-x,y,1/2-z
-x,-y,-z
x,-y,1/2+z
1/2+x,1/2+y,z
1/2-x,1/2+y,1/2-z
1/2-x,1/2-y,-z
1/2+x,1/2-y,1/2+z
loop_
_atom_site_type_symbol
_atom_site_label
_atom_site_fract_x
_atom_site_fract_y
_atom_site_fract_z
Si Si1 0.406058 0.641033 0.572853
Si Si2 0.044035 0.249602 0.553205
Si Si3 0.248847 0.586426 0.066919
Si Si4 0.500000 0.172432 0.250000
Si Si5 0.000000 0.499895 0.750000
Si Si6 0.837392 0.414068 0.157709
Si Si7 0.568812 0.820100 0.098819
O O1 0.487260 0.692480 0.588757
O O2 0.556752 0.603688 0.476403
O O3 0.300257 0.609922 0.705169
O O4 0.267226 0.662933 0.536684
O O5 0.250000 0.250000 0.500000
O O6 0.951863 0.288407 0.671575
O O7 0.987791 0.273651 0.455828
O O8 0.139894 0.634779 0.146752
O O9 0.154717 0.537777 0.155029
O O10 0.238666 0.577935 0.936989
O O11 0.073663 0.537635 0.818029
O O12 0.974901 0.369849 0.091880
O O13 0.500000 0.810733 0.250000
#
# Coordination Sequence:
#
# PCOD9309406 Si02
#       7
#     8   8   8   4   4   8   8
#     4  11  23  40  66  99 130 172 222 268 329 406
#     4  12  24  40  66  99 136 184 217 258 327 402
#     4  11  24  41  67  96 129 170 224 280 336 407
#     4  11  24  38  64 100 138 168 222 263 328 394
#     4  11  24  44  70  88 126 176 226 287 358 382
#     4  11  21  45  65  92 128 174 222 280 335 403
#     4  10  22  41  66  92 139 176 216 271 324 389
#
# _framework density 9.5037079999999996
#
# number of rings (size 3 to 8) (size 9 to 14) (size 15 to 20)
#    0.000    1.000    5.833    1.500    7.000    0.667 
#    0.000    0.833    0.000    0.000    0.000    0.000 
#    0.000    0.000    0.000    0.000    0.000    0.000 
#
# Total GULP energy -133851.318964 kJ/mol
# GULP energy per Si atom -5577.138290 kJ/mol
# Density = 0.948208 g / cm^3
# Si number density = 9.503708 Si / 1000 Ang^3
#
#
#
# Elastic Constant Matrix: (Units=GPa)
#
#
# Indices 1 2 3 4 5 6 
#
# 1 107.7550 26.3907 31.8124 0.0000 -13.5498 0.0000
# 2 26.3907 134.6930 31.1324 0.0000 -11.2897 0.0000
# 3 31.8124 31.1324 58.7597 0.0000 0.3790 0.0000
# 4 0.0000 0.0000 0.0000 35.0433 0.0000 2.3403
# 5 -13.5498 -11.2897 0.3790 0.0000 39.3201 0.0000
# 6 0.0000 0.0000 0.0000 2.3403 0.0000 37.9953
#
#
#
# Elastic Compliance Matrix: (Units=1/GPa)
#
#
# Indices 1 2 3 4 5 6 
#
# 1 0.011702 -0.000562 -0.006063 0.000000 0.003930 0.000000
# 2 -0.000562 0.008735 -0.004339 0.000000 0.002356 0.000000
# 3 -0.006063 -0.004339 0.022623 0.000000 -0.003553 0.000000
# 4 0.000000 0.000000 0.000000 0.028654 0.000000 -0.001765
# 5 0.003930 0.002356 -0.003553 0.000000 0.027497 0.000000
# 6 0.000000 0.000000 0.000000 -0.001765 0.000000 0.026428
#
#
# Mechanical properties :
#
#
# Convention : Reuss Voigt Hill
#
# Bulk Modulus (GPa) = 47.32218 53.31988 50.32103
# Shear Modulus (GPa) = 32.33938 36.59654 34.46796
#
# Velocity S-wave (km/s) = 4.12929 4.39268 4.26302
# Velocity P-wave (km/s) = 6.90546 7.33761 7.12481
#
# Compressibility (1/GPa) = 0.02113174
#
# Stress axis : x y z
#
# Youngs Moduli (GPa) = 85.45481 114.48524 44.20338
#
# Poissons Ratio (x) = 0.06435 0.26801
# Poissons Ratio (y) = 0.04803 0.19179
# Poissons Ratio (z) = 0.51812 0.49673
#
# Static dielectric constant tensor:
#      x y z
#    x 1.707380 0.000000 0.000590 
#    y 0.000000 1.628480 0.000000 
#    z 0.000590 0.000000 1.711330 
# 
# From -- ./inp_files/80567.got.cif
#   From: 2010.05.17/outbox.ucp.g08.bks.cvg/sg15_41_cif.got.tgz:80567.got - 2010.06.11 12:40:34.
