data_PCOD9309450
_publ_section_title
;
Structure prediction by ZEFSAII (Michael W. Deem and Ramdas Pophale) SiO2 
 PCOD9309450
Probable space group: C 2/C
;
_chemical_formula_sum "Si O2"
_cell_formula_units_Z 22
_cell_length_a 9.000000
_cell_length_b 27.000000
_cell_length_c 12.000000
_cell_angle_alpha 90.000000
_cell_angle_beta 50.000000
_cell_angle_gamma 90.000000
_cell_volume 2233.785596
_symmetry_space_group_name_H-M "C 2/C"
_symmetry_group_IT_number 15
_symmetry_cell_setting 'monoclinic'
loop_
_space_group_symop_operation_xyz
x,y,z
-x,y,1/2-z
-x,-y,-z
x,-y,1/2+z
1/2+x,1/2+y,z
1/2-x,1/2+y,1/2-z
1/2-x,1/2-y,-z
1/2+x,1/2-y,1/2+z
loop_
_atom_site_type_symbol
_atom_site_label
_atom_site_fract_x
_atom_site_fract_y
_atom_site_fract_z
Si Si1 0.774015 0.225978 0.364984
Si Si2 0.500000 0.526652 0.750000
Si Si3 0.019013 0.365726 0.528372
Si Si4 0.168280 0.540818 0.274781
Si Si5 0.653175 0.679001 0.778952
Si Si6 0.139328 0.105395 0.496350
O O1 0.750000 0.250000 0.500000
O O2 0.642005 0.177547 0.402466
O O3 0.719891 0.269839 0.303116
O O4 0.000000 0.212462 0.250000
O O5 0.682466 0.496923 0.727014
O O6 0.592625 0.563770 0.613198
O O7 0.164603 0.352581 0.355993
O O8 0.168207 0.364027 0.560994
O O9 0.934756 0.421762 0.586226
O O10 0.000000 0.527374 0.250000
O O11 0.315257 0.575719 0.136340
O O12 0.500000 0.687018 0.750000
O O13 0.536657 0.643986 0.920720
#
# Coordination Sequence:
#
# PCOD9309450 Si02
#       6
#     8   4   8   8   8   8
#     4  12  26  42  65 102 137 172 230 279 342 410
#     4  12  22  44  74  98 138 182 234 284 344 414
#     4  10  22  43  63  94 136 175 218 280 336 404
#     4  10  25  41  68 104 136 178 233 286 342 405
#     4  10  22  44  69  90 133 185 218 277 344 409
#     4  10  22  45  68  96 136 177 231 277 343 415
#
# _framework density 9.8487519999999993
#
# number of rings (size 3 to 8) (size 9 to 14) (size 15 to 20)
#    0.000    1.455    4.545    0.545    3.818    8.000 
#    0.000    2.727    0.000    0.000    0.000    0.000 
#    0.000    0.000    0.000    0.000    0.000    0.000 
#
# Total GULP energy -122468.985088 kJ/mol
# GULP energy per Si atom -5566.772049 kJ/mol
# Density = 0.982634 g / cm^3
# Si number density = 9.848752 Si / 1000 Ang^3
#
#
#
# Elastic Constant Matrix: (Units=GPa)
#
#
# Indices 1 2 3 4 5 6 
#
# 1 108.1799 55.1270 30.1933 0.0000 -24.0782 0.0000
# 2 55.1270 84.3900 8.7984 0.0000 -19.3946 0.0000
# 3 30.1933 8.7984 69.3316 0.0000 -23.2736 0.0000
# 4 0.0000 0.0000 0.0000 33.4078 0.0000 -9.3918
# 5 -24.0782 -19.3946 -23.2736 0.0000 40.5003 0.0000
# 6 0.0000 0.0000 0.0000 -9.3918 0.0000 54.9061
#
#
#
# Elastic Compliance Matrix: (Units=1/GPa)
#
#
# Indices 1 2 3 4 5 6 
#
# 1 0.015888 -0.009380 -0.005038 0.000000 0.002059 0.000000
# 2 -0.009380 0.018871 0.003533 0.000000 0.005490 0.000000
# 3 -0.005038 0.003533 0.019492 0.000000 0.009898 0.000000
# 4 0.000000 0.000000 0.000000 0.031445 0.000000 0.005379
# 5 0.002059 0.005490 0.009898 0.000000 0.034232 0.000000
# 6 0.000000 0.000000 0.000000 0.005379 0.000000 0.019133
#
#
# Mechanical properties :
#
#
# Convention : Reuss Voigt Hill
#
# Bulk Modulus (GPa) = 30.78703 50.01543 40.40123
# Shear Modulus (GPa) = 29.12772 36.94837 33.03805
#
# Velocity S-wave (km/s) = 3.84963 4.33574 4.09989
# Velocity P-wave (km/s) = 5.95175 7.10716 6.55496
#
# Compressibility (1/GPa) = 0.03248121
#
# Stress axis : x y z
#
# Youngs Moduli (GPa) = 62.93934 52.99162 51.30441
#
# Poissons Ratio (x) = 0.49709 0.25846
# Poissons Ratio (y) = 0.59040 -0.18128
# Poissons Ratio (z) = 0.31707 -0.18724
#
# Static dielectric constant tensor:
#      x y z
#    x 1.748120 0.000000 -0.006970 
#    y 0.000000 1.683580 0.000000 
#    z -0.006970 0.000000 1.768470 
# 
# From -- ./inp_files/81109.got.cif
#   From: 2010.05.17/outbox.ucp.g08.bks.cvg/sg15_41_cif.got.tgz:81109.got - 2010.06.11 12:40:34.
