data_PCOD9309835
_publ_section_title
;
Structure prediction by ZEFSAII (Michael W. Deem and Ramdas Pophale) SiO2 
 PCOD9309835
Probable space group: C 2/C
;
_chemical_formula_sum "Si O2"
_cell_formula_units_Z 30
_cell_length_a 27.000000
_cell_length_b 18.000000
_cell_length_c 12.000000
_cell_angle_alpha 90.000000
_cell_angle_beta 30.000000
_cell_angle_gamma 90.000000
_cell_volume 2916.000000
_symmetry_space_group_name_H-M "C 2/C"
_symmetry_group_IT_number 15
_symmetry_cell_setting 'monoclinic'
loop_
_space_group_symop_operation_xyz
x,y,z
-x,y,1/2-z
-x,-y,-z
x,-y,1/2+z
1/2+x,1/2+y,z
1/2-x,1/2+y,1/2-z
1/2-x,1/2-y,-z
1/2+x,1/2-y,1/2+z
loop_
_atom_site_type_symbol
_atom_site_label
_atom_site_fract_x
_atom_site_fract_y
_atom_site_fract_z
Si Si1 0.823614 0.096673 0.643230
Si Si2 0.512511 0.310646 0.094417
Si Si3 0.794280 0.166770 0.926664
Si Si4 0.692864 0.432842 0.752504
Si Si5 0.353385 0.914967 0.626993
Si Si6 0.500000 0.292479 0.750000
Si Si7 0.539172 0.820524 0.364482
Si Si8 0.805824 0.571567 0.814986
O O1 0.771460 0.123679 0.857163
O O2 0.754307 0.107530 0.670651
O O3 0.917203 0.151740 0.457578
O O4 0.846778 0.008458 0.610854
O O5 0.500000 0.293735 0.250000
O O6 0.408958 0.341169 0.242991
O O7 0.608071 0.367908 0.907559
O O8 0.521046 0.235628 0.004172
O O9 0.750000 0.250000 0.000000
O O10 0.731095 0.127827 0.143022
O O11 0.798163 0.415483 0.612792
O O12 0.724640 0.452214 0.564785
O O13 0.453168 0.871850 0.473239
O O14 0.360160 0.999762 0.656732
O O15 0.446043 0.239488 0.764498
O O16 0.620944 0.874175 0.260389
#
# Coordination Sequence:
#
# PCOD9309835 Si02
#       8
#     8   8   8   8   8   4   8   8
#     4  11  26  44  69 101 138 177 225 280 345 411
#     4  12  26  41  69 105 131 179 223 279 342 405
#     4  12  23  45  71  97 140 175 220 276 341 409
#     4  11  25  44  68 101 136 176 229 280 343 406
#     4  11  23  46  69  96 138 184 224 282 346 403
#     4  12  24  44  68 102 134 182 216 288 356 398
#     4  12  26  44  68  99 137 179 235 278 339 413
#     4  11  26  44  70  99 135 183 232 283 335 408
#
# _framework density 10.288066000000001
#
# number of rings (size 3 to 8) (size 9 to 14) (size 15 to 20)
#    0.000    0.533    5.333    2.000    2.800    3.733 
#    0.000    0.000    0.000    0.000    0.000    0.000 
#    0.000    0.000    0.000    0.000    0.000    0.000 
#
# Total GULP energy -167183.695458 kJ/mol
# GULP energy per Si atom -5572.789849 kJ/mol
# Density = 1.026465 g / cm^3
# Si number density = 10.288066 Si / 1000 Ang^3
#
#
#
# Elastic Constant Matrix: (Units=GPa)
#
#
# Indices 1 2 3 4 5 6 
#
# 1 166.7989 33.4934 21.9360 0.0000 8.0916 0.0000
# 2 33.4934 94.8344 11.4955 0.0000 -4.6405 0.0000
# 3 21.9360 11.4955 23.2957 0.0000 -0.0594 0.0000
# 4 0.0000 0.0000 0.0000 16.6869 0.0000 -2.1360
# 5 8.0916 -4.6405 -0.0594 0.0000 46.2056 0.0000
# 6 0.0000 0.0000 0.0000 -2.1360 0.0000 39.7339
#
#
#
# Elastic Compliance Matrix: (Units=1/GPa)
#
#
# Indices 1 2 3 4 5 6 
#
# 1 0.007221 -0.001912 -0.005860 0.000000 -0.001464 0.000000
# 2 -0.001912 0.011780 -0.004009 0.000000 0.001513 0.000000
# 3 -0.005860 -0.004009 0.050424 0.000000 0.000688 0.000000
# 4 0.000000 0.000000 0.000000 0.060343 0.000000 0.003244
# 5 -0.001464 0.001513 0.000688 0.000000 0.022052 0.000000
# 6 0.000000 0.000000 0.000000 0.003244 0.000000 0.025342
#
#
# Mechanical properties :
#
#
# Convention : Reuss Voigt Hill
#
# Bulk Modulus (GPa) = 21.80354 46.53097 34.16725
# Shear Modulus (GPa) = 23.14714 35.05889 29.10302
#
# Velocity S-wave (km/s) = 3.35767 4.13226 3.76494
# Velocity P-wave (km/s) = 5.06472 6.74022 5.96163
#
# Compressibility (1/GPa) = 0.04586412
#
# Stress axis : x y z
#
# Youngs Moduli (GPa) = 138.49027 84.89113 19.83173
#
# Poissons Ratio (x) = 0.16227 0.11621
# Poissons Ratio (y) = 0.26473 0.07951
# Poissons Ratio (z) = 0.81152 0.34033
#
# Static dielectric constant tensor:
#      x y z
#    x 1.733630 0.000000 0.011460 
#    y 0.000000 1.793470 0.000000 
#    z 0.011460 0.000000 1.757070 
# 
# From -- ./inp_files/123991.got.cif
#   From: 2010.05.17/outbox.ucp.g08.bks.cvg/sg15_62_cif.got.tgz:123991.got - 2010.06.11 12:40:34.
