data_PCOD9309036
_publ_section_title
;
Structure prediction by ZEFSAII (Michael W. Deem and Ramdas Pophale) SiO2 
 PCOD9309036
Probable space group: C 2/C
;
_chemical_formula_sum "Si O2"
_cell_formula_units_Z 30
_cell_length_a 30.000000
_cell_length_b 15.000000
_cell_length_c 21.000000
_cell_angle_alpha 90.000000
_cell_angle_beta 20.000000
_cell_angle_gamma 90.000000
_cell_volume 3232.090354
_symmetry_space_group_name_H-M "C 2/C"
_symmetry_group_IT_number 15
_symmetry_cell_setting 'monoclinic'
loop_
_space_group_symop_operation_xyz
x,y,z
-x,y,1/2-z
-x,-y,-z
x,-y,1/2+z
1/2+x,1/2+y,z
1/2-x,1/2+y,1/2-z
1/2-x,1/2-y,-z
1/2+x,1/2-y,1/2+z
loop_
_atom_site_type_symbol
_atom_site_label
_atom_site_fract_x
_atom_site_fract_y
_atom_site_fract_z
Si Si1 0.640925 0.951823 0.185006
Si Si2 0.239328 0.718170 0.169620
Si Si3 0.000000 0.751239 0.250000
Si Si4 0.657065 0.152427 0.535536
Si Si5 0.334853 0.083588 0.116143
Si Si6 0.263426 0.121901 0.729673
Si Si7 0.352492 0.352877 0.976605
Si Si8 0.939779 0.654713 0.199758
O O1 0.689292 0.908285 0.053289
O O2 0.494520 0.918707 0.400883
O O3 0.621934 0.057256 0.208657
O O4 0.750719 0.925242 0.087816
O O5 0.210975 0.648196 0.265059
O O6 0.224130 0.816017 0.222319
O O7 0.142622 0.709297 0.240369
O O8 0.380394 0.701118 0.947069
O O9 0.945736 0.694168 0.263074
O O10 0.500000 0.152284 0.750000
O O11 0.699603 0.116243 0.409282
O O12 0.694259 0.256448 0.487596
O O13 0.272704 0.985059 0.208215
O O14 0.417504 0.147129 0.524779
O O15 0.173363 0.146388 0.911916
O O16 0.500000 0.366344 0.750000
#
# Coordination Sequence:
#
# PCOD9309036 Si02
#       8
#     8   8   4   8   8   8   8   8
#     4  10  21  36  64  89 115 155 208 251 286 353
#     4  11  21  40  63  90 121 155 197 252 299 351
#     4  10  24  40  62  90 118 158 194 252 306 348
#     4   9  19  34  59  89 116 155 199 248 295 348
#     4  10  20  39  64  89 118 156 206 246 292 348
#     4  10  22  39  64  88 119 158 201 250 290 352
#     4  11  21  38  55  88 127 161 192 241 308 359
#     4  10  22  40  67  90 112 154 209 252 293 347
#
# _framework density 9.2819190000000003
#
# number of rings (size 3 to 8) (size 9 to 14) (size 15 to 20)
#    0.000    1.867    1.333    2.400    6.533    2.133 
#    7.200    0.000    0.000    4.000    0.000    0.000 
#    0.000    0.000    0.000    0.000    0.000    0.000 
#
# Total GULP energy -167122.070908 kJ/mol
# GULP energy per Si atom -5570.735697 kJ/mol
# Density = 0.926079 g / cm^3
# Si number density = 9.281919 Si / 1000 Ang^3
#
#
#
# Elastic Constant Matrix: (Units=GPa)
#
#
# Indices 1 2 3 4 5 6 
#
# 1 112.9824 45.0385 49.6627 0.0000 20.9022 0.0000
# 2 45.0385 85.5589 44.3124 0.0000 1.5967 0.0000
# 3 49.6627 44.3124 103.9232 -0.0001 31.6889 0.0000
# 4 0.0000 0.0000 -0.0001 21.1398 0.0000 0.4163
# 5 20.9022 1.5967 31.6889 0.0000 35.5260 0.0000
# 6 0.0000 0.0000 0.0000 0.4163 0.0000 28.6174
#
#
#
# Elastic Compliance Matrix: (Units=1/GPa)
#
#
# Indices 1 2 3 4 5 6 
#
# 1 0.013076 -0.005668 -0.002148 0.000000 -0.005523 0.000000
# 2 -0.005668 0.018803 -0.008335 0.000000 0.009925 0.000000
# 3 -0.002148 -0.008335 0.018823 0.000000 -0.015152 0.000000
# 4 0.000000 0.000000 0.000000 0.047318 0.000000 -0.000688
# 5 -0.005523 0.009925 -0.015152 0.000000 0.044467 0.000000
# 6 0.000000 0.000000 0.000000 -0.000688 0.000000 0.034954
#
#
# Mechanical properties :
#
#
# Convention : Reuss Voigt Hill
#
# Bulk Modulus (GPa) = 54.34704 64.49908 59.42306
# Shear Modulus (GPa) = 23.16129 27.95336 25.55732
#
# Velocity S-wave (km/s) = 3.53605 3.88467 3.71445
# Velocity P-wave (km/s) = 6.78313 7.41220 7.10463
#
# Compressibility (1/GPa) = 0.01840027
#
# Stress axis : x y z
#
# Youngs Moduli (GPa) = 76.47454 53.18244 53.12536
#
# Poissons Ratio (x) = 0.30142 0.11412
# Poissons Ratio (y) = 0.43344 0.44282
# Poissons Ratio (z) = 0.16428 0.44330
#
# Static dielectric constant tensor:
#      x y z
#    x 1.653670 0.000000 -0.021540 
#    y 0.000000 1.666820 0.000000 
#    z -0.021540 0.000000 1.635530 
# 
# From -- ./inp_files/259381.got.cif
#   From: 2010.05.17/outbox.ucp.g08.bks.cvg/sg15_130_cif.got.tgz:259381.got - 2010.06.11 12:40:34.
