data_PCOD9309925
_publ_section_title
;
Structure prediction by ZEFSAII (Michael W. Deem and Ramdas Pophale) SiO2 
 PCOD9309925
Probable space group: P 2 2 2
;
_chemical_formula_sum "Si O2"
_cell_formula_units_Z 28
_cell_length_a 5.591439
_cell_length_b 9.389216
_cell_length_c 24.552188
_cell_angle_alpha 90.000000
_cell_angle_beta 90.000000
_cell_angle_gamma 90.000000
_cell_volume 1288.970929
_symmetry_space_group_name_H-M "P 2 2 2"
_symmetry_group_IT_number 16
_symmetry_cell_setting 'orthorhombic'
loop_
_space_group_symop_operation_xyz
x,y,z
-x,-y,z
x,-y,-z
-x,y,-z
loop_
_atom_site_type_symbol
_atom_site_label
_atom_site_fract_x
_atom_site_fract_y
_atom_site_fract_z
Si Si1 0.750000 0.742302 0.357628
Si Si2 0.250000 0.009231 0.271247
Si Si3 0.750000 0.664376 0.021583
Si Si4 0.250000 0.297527 0.677739
Si Si5 0.750000 0.837122 0.478661
Si Si6 0.750000 0.666367 0.151671
Si Si7 0.750000 0.657126 0.804793
O O1 0.496199 0.663831 0.352070
O O2 0.750000 0.829218 0.413615
O O3 0.003802 0.663831 0.352070
O O4 0.750001 0.846407 0.305432
O O5 0.250001 0.876063 0.313932
O O6 0.500000 0.000000 0.240778
O O7 0.000000 0.000000 0.240778
O O8 0.750000 0.668079 0.086659
O O9 0.750000 0.500000 0.000000
O O10 0.500000 0.727713 0.000000
O O11 0.000000 0.727713 0.000000
O O12 0.249999 0.353234 0.739560
O O13 0.500000 0.772280 0.500000
O O14 0.000000 0.772280 0.500000
O O15 0.750000 0.000000 0.500000
O O16 0.750000 0.501412 0.170601
O O17 0.499419 0.725166 0.175053
O O18 0.000581 0.725167 0.175053
#
# Coordination Sequence:
#
# PCOD9309925 Si02
#       7
#     4   4   4   4   4   4   4
#     4  10  19  31  42  61  87 113 149 171 207 257
#     4   8  16  25  41  53  77 106 140 169 203 231
#     4  10  16  25  41  63  85 115 155 167 202 255
#     4  10  19  28  45  58  81 115 152 186 200 254
#     4  10  21  27  43  62  84 114 148 160 207 258
#     4  10  19  30  45  61  95 119 145 192 208 263
#     4  10  18  30  42  62  81 120 156 176 231 237
#
# _framework density 21.722754999999999
#
# number of rings (size 3 to 8) (size 9 to 14) (size 15 to 20)
#    0.000    2.286    0.000    6.000   12.000    0.000 
#    0.000    0.000    0.000    0.000    0.000    0.000 
#    0.000    0.000    0.000  180.000    0.000 1568.571 
#
# Total GULP energy -156110.354538 kJ/mol
# GULP energy per Si atom -5575.369805 kJ/mol
# Density = 2.167331 g / cm^3
# Si number density = 21.722755 Si / 1000 Ang^3
#
#
#
# Elastic Constant Matrix: (Units=GPa)
#
#
# Indices 1 2 3 4 5 6 
#
# 1 306.3329 6.5005 67.6388 0.0000 0.0000 0.0000
# 2 6.5005 44.2628 7.5577 0.0000 0.0000 0.0000
# 3 67.6388 7.5577 149.0152 0.0000 0.0000 0.0000
# 4 0.0000 0.0000 0.0000 0.3219 0.0000 0.0000
# 5 0.0000 0.0000 0.0000 0.0000 38.1071 0.0000
# 6 0.0000 0.0000 0.0000 0.0000 0.0000 -11.6934
#
#
#
# Elastic Compliance Matrix: (Units=1/GPa)
#
#
# Indices 1 2 3 4 5 6 
#
# 1 0.003631 -0.000254 -0.001635 0.000000 0.000000 0.000000
# 2 -0.000254 0.022807 -0.001041 0.000000 0.000000 0.000000
# 3 -0.001635 -0.001041 0.007506 0.000000 0.000000 0.000000
# 4 0.000000 0.000000 0.000000 3.106520 0.000000 0.000000
# 5 0.000000 0.000000 0.000000 0.000000 0.026242 0.000000
# 6 0.000000 0.000000 0.000000 0.000000 0.000000 -0.085518
#
#
# Mechanical properties :
#
#
# Convention : Reuss Voigt Hill
#
# Bulk Modulus (GPa) = 35.60904 73.66724 54.63814
# Shear Modulus (GPa) = 1.61477 33.20804 17.41140
#
# Velocity S-wave (km/s) = 0.86312 3.91413 2.83420
# Velocity P-wave (km/s) = 4.17389 7.37654 5.99311
#
# Compressibility (1/GPa) = 0.02808276
#
# Stress axis : x y z
#
# Youngs Moduli (GPa) = 275.41644 43.84534 133.23097
#
# Poissons Ratio (x) = 0.01114 0.21786
# Poissons Ratio (y) = 0.06997 0.13875
# Poissons Ratio (z) = 0.45036 0.04566
#
# Static dielectric constant tensor:
#      x y z
#    x 1.976850 0.000000 0.000000 
#    y 0.000000 1.779420 0.000000 
#    z 0.000000 0.000000 1.714270 
# 
# From -- ./inp_files/9236.got.cif
#   From: 2010.05.17/outbox.cif.g08.bks.cpg/sg16_5_cif.got.tgz:9236.got - 2010.06.03 22:28:35.
