data_PCOD9309313
_publ_section_title
;
Structure prediction by ZEFSAII (Michael W. Deem and Ramdas Pophale) SiO2 
 PCOD9309313
Probable space group: C 2/C
;
_chemical_formula_sum "Si O2"
_cell_formula_units_Z 28
_cell_length_a 27.000000
_cell_length_b 12.000000
_cell_length_c 27.000000
_cell_angle_alpha 90.000000
_cell_angle_beta 160.000000
_cell_angle_gamma 90.000000
_cell_volume 2991.992214
_symmetry_space_group_name_H-M "C 2/C"
_symmetry_group_IT_number 15
_symmetry_cell_setting 'monoclinic'
loop_
_space_group_symop_operation_xyz
x,y,z
-x,y,1/2-z
-x,-y,-z
x,-y,1/2+z
1/2+x,1/2+y,z
1/2-x,1/2+y,1/2-z
1/2-x,1/2-y,-z
1/2+x,1/2-y,1/2+z
loop_
_atom_site_type_symbol
_atom_site_label
_atom_site_fract_x
_atom_site_fract_y
_atom_site_fract_z
Si Si1 0.982966 0.327694 0.675110
Si Si2 0.080840 0.098952 0.101736
Si Si3 0.719416 0.759563 0.762145
Si Si4 0.086310 0.473690 0.684468
Si Si5 0.804008 0.822252 0.373509
Si Si6 0.311492 0.636546 0.662596
Si Si7 0.271862 0.924475 0.868809
O O1 0.071819 0.418000 0.725427
O O2 0.050500 0.205824 0.726614
O O3 0.000000 0.347484 0.750000
O O4 0.821218 0.336633 0.499764
O O5 0.124455 0.184013 0.099830
O O6 0.216978 0.056995 0.261024
O O7 0.972867 0.152449 0.040073
O O8 0.000000 0.000000 0.000000
O O9 0.699296 0.704045 0.689153
O O10 0.718771 0.683891 0.810201
O O11 0.618763 0.866912 0.679884
O O12 0.208211 0.569294 0.794736
O O13 0.935506 0.532404 0.528848
O O14 0.764071 0.709744 0.365252
O O15 0.318579 0.503636 0.678854
#
# Coordination Sequence:
#
# PCOD9309313 Si02
#       7
#     8   8   8   8   8   8   8
#     4  10  22  41  65  86 110 145 190 250 297 340
#     4  11  21  32  49  76 113 155 196 221 259 318
#     4  10  22  34  54  80 119 156 191 227 277 338
#     4  10  22  41  55  83 112 157 191 234 287 337
#     4  11  22  36  55  80 122 159 193 225 272 340
#     4  10  22  37  60  87 116 144 192 236 295 343
#     4  10  22  35  53  77 114 154 186 229 272 340
#
# _framework density 9.3583130000000008
#
# number of rings (size 3 to 8) (size 9 to 14) (size 15 to 20)
#    0.000    1.714    1.429    3.000   10.000    2.286 
#    0.000    0.000    0.000    4.286    0.000    0.000 
#    0.000    0.000    0.000    0.000    0.000    0.000 
#
# Total GULP energy -156095.896722 kJ/mol
# GULP energy per Si atom -5574.853454 kJ/mol
# Density = 0.933701 g / cm^3
# Si number density = 9.358313 Si / 1000 Ang^3
#
#
#
# Elastic Constant Matrix: (Units=GPa)
#
#
# Indices 1 2 3 4 5 6 
#
# 1 86.6668 32.6005 18.9263 -0.0003 -12.5244 -0.0002
# 2 32.6005 108.8512 18.2950 0.0019 -0.9793 0.0001
# 3 18.9263 18.2950 33.2405 -0.0023 -7.7482 -0.0009
# 4 -0.0003 0.0019 -0.0023 23.2431 -0.0013 -0.0063
# 5 -12.5244 -0.9793 -7.7482 -0.0013 21.1044 -0.0007
# 6 -0.0002 0.0001 -0.0009 -0.0063 -0.0007 23.5498
#
#
#
# Elastic Compliance Matrix: (Units=1/GPa)
#
#
# Indices 1 2 3 4 5 6 
#
# 1 0.014964 -0.003590 -0.004935 0.000000 0.006902 0.000000
# 2 -0.003590 0.011042 -0.004823 -0.000002 -0.003389 0.000000
# 3 -0.004935 -0.004823 0.038072 0.000005 0.010825 0.000002
# 4 0.000000 -0.000002 0.000005 0.043024 0.000005 0.000012
# 5 0.006902 -0.003389 0.010825 0.000005 0.055296 0.000002
# 6 0.000000 0.000000 0.000002 0.000012 0.000002 0.042463
#
#
# Mechanical properties :
#
#
# Convention : Reuss Voigt Hill
#
# Bulk Modulus (GPa) = 26.75197 40.93357 33.84277
# Shear Modulus (GPa) = 20.49019 24.17523 22.33271
#
# Velocity S-wave (km/s) = 3.31230 3.59784 3.45802
# Velocity P-wave (km/s) = 5.38077 6.25915 5.83651
#
# Compressibility (1/GPa) = 0.03738043
#
# Stress axis : x y z
#
# Youngs Moduli (GPa) = 66.82666 90.56123 26.26615
#
# Poissons Ratio (x) = 0.32512 0.12964
# Poissons Ratio (y) = 0.23991 0.12669
# Poissons Ratio (z) = 0.32982 0.43681
#
# Static dielectric constant tensor:
#      x y z
#    x 1.637310 0.000000 0.058870 
#    y 0.000000 1.713220 0.000000 
#    z 0.058870 0.000000 1.739440 
# 
# From -- ./inp_files/303282.got.cif
#   From: 2010.05.17/outbox.ucp.g08.bks.cvg/sg15_152_cif.got.tgz:303282.got - 2010.06.11 12:40:34.
