data_PCOD9309333
_publ_section_title
;
Structure prediction by ZEFSAII (Michael W. Deem and Ramdas Pophale) SiO2 
 PCOD9309333
Probable space group: C 2/C
;
_chemical_formula_sum "Si O2"
_cell_formula_units_Z 32
_cell_length_a 24.000000
_cell_length_b 9.000000
_cell_length_c 15.000000
_cell_angle_alpha 90.000000
_cell_angle_beta 90.000000
_cell_angle_gamma 90.000000
_cell_volume 3240.000000
_symmetry_space_group_name_H-M "C 2/C"
_symmetry_group_IT_number 15
_symmetry_cell_setting 'monoclinic'
loop_
_space_group_symop_operation_xyz
x,y,z
-x,y,1/2-z
-x,-y,-z
x,-y,1/2+z
1/2+x,1/2+y,z
1/2-x,1/2+y,1/2-z
1/2-x,1/2-y,-z
1/2+x,1/2-y,1/2+z
loop_
_atom_site_type_symbol
_atom_site_label
_atom_site_fract_x
_atom_site_fract_y
_atom_site_fract_z
Si Si1 0.329273 0.314723 0.071051
Si Si2 0.714009 0.312677 0.626046
Si Si3 0.678642 0.829692 0.291604
Si Si4 0.855604 0.842151 0.542604
Si Si5 0.560144 0.849887 0.539380
Si Si6 0.798654 0.164080 0.860093
Si Si7 0.561551 0.884448 0.896481
Si Si8 0.619872 0.888117 0.719917
O O1 0.275335 0.263429 0.128688
O O2 0.342803 0.490738 0.074373
O O3 0.384917 0.219903 0.085381
O O4 0.309422 0.281493 0.971182
O O5 0.671764 0.249799 0.698147
O O6 0.712139 0.488391 0.640769
O O7 0.643904 0.766865 0.373228
O O8 0.740104 0.779591 0.323702
O O9 0.664508 0.998548 0.264629
O O10 0.912974 0.805895 0.491760
O O11 0.811789 0.799209 0.463791
O O12 0.498227 0.821434 0.575232
O O13 0.595911 0.920543 0.621210
O O14 0.563218 0.966818 0.457556
O O15 0.848056 0.231940 0.799310
O O16 0.569177 0.900005 0.789912
#
# Coordination Sequence:
#
# PCOD9309333 Si02
#       8
#     8   8   8   8   8   8   8   8
#     4  10  22  41  60  88 125 164 195 253 306 373
#     4  10  23  37  59  90 126 160 199 242 308 372
#     4  12  21  35  58  88 120 161 200 240 307 372
#     4  10  23  39  58  86 126 158 204 252 305 364
#     4  10  23  42  61  91 116 159 210 268 308 356
#     4  10  22  38  56  88 125 161 201 245 300 368
#     4  11  21  40  66  86 119 159 213 257 312 363
#     4  11  23  38  63  89 123 158 206 257 306 368
#
# _framework density 9.8765429999999999
#
# number of rings (size 3 to 8) (size 9 to 14) (size 15 to 20)
#    0.000    1.500    1.250    3.750    5.250    0.500 
#    0.000    0.000    0.000    0.000    0.000    0.000 
#    0.000    0.000    0.000    0.000    0.000    0.000 
#
# Total GULP energy -178154.277989 kJ/mol
# GULP energy per Si atom -5567.321187 kJ/mol
# Density = 0.985406 g / cm^3
# Si number density = 9.876543 Si / 1000 Ang^3
#
#
#
# Elastic Constant Matrix: (Units=GPa)
#
#
# Indices 1 2 3 4 5 6 
#
# 1 87.6139 23.7906 22.4685 0.0000 -17.1725 0.0000
# 2 23.7906 35.5075 54.4070 0.0000 2.3903 0.0000
# 3 22.4685 54.4070 90.7964 0.0000 -33.2880 0.0000
# 4 0.0000 0.0000 0.0000 34.6927 0.0000 -5.0548
# 5 -17.1725 2.3903 -33.2880 0.0000 25.1349 0.0000
# 6 0.0000 0.0000 0.0000 -5.0548 0.0000 32.4431
#
#
#
# Elastic Compliance Matrix: (Units=1/GPa)
#
#
# Indices 1 2 3 4 5 6 
#
# 1 0.010584 0.007642 -0.009357 0.000000 -0.005887 0.000000
# 2 0.007642 -0.022509 0.027788 0.000000 0.044164 0.000000
# 3 -0.009357 0.027788 -0.012897 0.000000 -0.026115 0.000000
# 4 0.000000 0.000000 0.000000 0.029494 0.000000 0.004595
# 5 -0.005887 0.044164 -0.026115 0.000000 -0.003023 0.000000
# 6 0.000000 0.000000 0.000000 0.004595 0.000000 0.031539
#
#
# Mechanical properties :
#
#
# Convention : Reuss Voigt Hill
#
# Bulk Modulus (GPa) = 36.59630 46.13888 41.36759
# Shear Modulus (GPa) = -507.64537 26.00425 -240.82056
#
# Velocity S-wave (km/s) = -16.04847 3.63225 -11.05351
# Velocity P-wave (km/s) = 18.02325 6.40308 11.91297
#
# Compressibility (1/GPa) = 0.02732517
#
# Stress axis : x y z
#
# Youngs Moduli (GPa) = 94.48025 -44.42660 -77.54037
#
# Poissons Ratio (x) = 0.33951 -0.72554
# Poissons Ratio (y) = -0.72202 2.15470
# Poissons Ratio (z) = 0.88404 1.23453
#
# Static dielectric constant tensor:
#      x y z
#    x 1.730170 0.000000 0.014430 
#    y 0.000000 1.731950 0.000000 
#    z 0.014430 0.000000 1.734610 
# 
# From -- ./inp_files/172390.got.cif
#   From: 2010.05.17/outbox.ucp.g08.bks.cvg/sg15_87_cif.got.tgz:172390.got - 2010.06.11 12:40:34.
