data_PCOD9309841
_publ_section_title
;
Structure prediction by ZEFSAII (Michael W. Deem and Ramdas Pophale) SiO2 
 PCOD9309841
Probable space group: C 2/C
;
_chemical_formula_sum "Si O2"
_cell_formula_units_Z 30
_cell_length_a 21.000000
_cell_length_b 9.000000
_cell_length_c 18.000000
_cell_angle_alpha 90.000000
_cell_angle_beta 120.000000
_cell_angle_gamma 90.000000
_cell_volume 2946.218424
_symmetry_space_group_name_H-M "C 2/C"
_symmetry_group_IT_number 15
_symmetry_cell_setting 'monoclinic'
loop_
_space_group_symop_operation_xyz
x,y,z
-x,y,1/2-z
-x,-y,-z
x,-y,1/2+z
1/2+x,1/2+y,z
1/2-x,1/2+y,1/2-z
1/2-x,1/2-y,-z
1/2+x,1/2-y,1/2+z
loop_
_atom_site_type_symbol
_atom_site_label
_atom_site_fract_x
_atom_site_fract_y
_atom_site_fract_z
Si Si1 0.149428 0.804819 0.122948
Si Si2 0.676804 0.482358 0.429588
Si Si3 0.571620 0.242278 0.843862
Si Si4 0.568613 0.946344 0.490029
Si Si5 0.713984 0.940079 0.390120
Si Si6 0.780612 0.237643 0.674863
Si Si7 0.877023 0.764452 0.971769
Si Si8 0.000000 0.000000 0.500000
O O1 0.219604 0.871270 0.119864
O O2 0.177737 0.782909 0.223298
O O3 0.124619 0.649064 0.072591
O O4 0.077471 0.910021 0.070704
O O5 0.609673 0.598903 0.384044
O O6 0.750119 0.557115 0.506432
O O7 0.695989 0.396829 0.365629
O O8 0.653694 0.363162 0.478479
O O9 0.500000 0.256141 0.750000
O O10 0.550960 0.156667 0.908264
O O11 0.638763 0.151646 0.845775
O O12 0.500000 0.000000 0.500000
O O13 0.604026 0.102015 0.486516
O O14 0.698492 0.105688 0.351318
O O15 0.691060 0.245448 0.625668
O O16 0.949213 0.848746 0.983736
#
# Coordination Sequence:
#
# PCOD9309841 Si02
#       8
#     8   8   8   8   8   8   8   4
#     4  12  27  45  74 111 151 192 247 310 376 441
#     4  11  23  49  71 102 142 193 247 295 372 450
#     4  12  28  46  73 108 145 193 250 312 367 439
#     4  12  26  46  71 105 143 194 237 296 379 440
#     4  11  24  50  73 103 150 192 247 300 369 451
#     4  11  26  43  72 111 139 194 249 302 369 443
#     4  11  24  44  75 100 147 192 241 302 373 447
#     4  12  22  48  70 106 150 192 234 306 374 436
#
# _framework density 10.182544
#
# number of rings (size 3 to 8) (size 9 to 14) (size 15 to 20)
#    0.000    0.533    5.333    3.600    5.600    2.133 
#    0.000    0.667    0.000    0.000    0.000    0.000 
#    0.000    0.000    0.000    0.000    0.000    0.000 
#
# Total GULP energy -167298.277477 kJ/mol
# GULP energy per Si atom -5576.609249 kJ/mol
# Density = 1.015937 g / cm^3
# Si number density = 10.182544 Si / 1000 Ang^3
#
#
#
# Elastic Constant Matrix: (Units=GPa)
#
#
# Indices 1 2 3 4 5 6 
#
# 1 114.9121 43.6427 65.5628 0.0000 24.6845 0.0000
# 2 43.6427 137.0892 69.0139 0.0000 5.3925 0.0000
# 3 65.5628 69.0139 175.3492 0.0000 18.5685 0.0000
# 4 0.0000 0.0000 0.0000 24.1378 0.0000 5.8339
# 5 24.6845 5.3925 18.5685 0.0000 33.3490 0.0000
# 6 0.0000 0.0000 0.0000 5.8339 0.0000 45.6642
#
#
#
# Elastic Compliance Matrix: (Units=1/GPa)
#
#
# Indices 1 2 3 4 5 6 
#
# 1 0.012969 -0.002235 -0.003179 0.000000 -0.007468 0.000000
# 2 -0.002235 0.009492 -0.003095 0.000000 0.001843 0.000000
# 3 -0.003179 -0.003095 0.008297 0.000000 -0.001766 0.000000
# 4 0.000000 0.000000 0.000000 0.042749 0.000000 -0.005461
# 5 -0.007468 0.001843 -0.001766 0.000000 0.036199 0.000000
# 6 0.000000 0.000000 0.000000 -0.005461 0.000000 0.022597
#
#
# Mechanical properties :
#
#
# Convention : Reuss Voigt Hill
#
# Bulk Modulus (GPa) = 72.78087 87.08770 79.93428
# Shear Modulus (GPa) = 32.48877 37.23895 34.86386
#
# Velocity S-wave (km/s) = 3.99848 4.28081 4.14205
# Velocity P-wave (km/s) = 7.55862 8.20304 7.88741
#
# Compressibility (1/GPa) = 0.01373987
#
# Stress axis : x y z
#
# Youngs Moduli (GPa) = 77.10789 105.35502 120.52986
#
# Poissons Ratio (x) = 0.23544 0.38312
# Poissons Ratio (y) = 0.17231 0.37308
# Poissons Ratio (z) = 0.24510 0.32611
#
# Static dielectric constant tensor:
#      x y z
#    x 1.738030 0.000000 -0.018620 
#    y 0.000000 1.749180 0.000000 
#    z -0.018620 0.000000 1.704650 
# 
# From -- ./inp_files/214312.got.cif
#   From: 2010.05.17/outbox.ucp.g08.bks.cvg/sg15_108_cif.got.tgz:214312.got - 2010.06.11 12:40:34.
