data_PCOD9309906
_publ_section_title
;
Structure prediction by ZEFSAII (Michael W. Deem and Ramdas Pophale) SiO2 
 PCOD9309906
Probable space group: C 2/C
;
_chemical_formula_sum "Si O2"
_cell_formula_units_Z 24
_cell_length_a 27.000000
_cell_length_b 15.000000
_cell_length_c 9.000000
_cell_angle_alpha 90.000000
_cell_angle_beta 40.000000
_cell_angle_gamma 90.000000
_cell_volume 2342.960837
_symmetry_space_group_name_H-M "C 2/C"
_symmetry_group_IT_number 15
_symmetry_cell_setting 'monoclinic'
loop_
_space_group_symop_operation_xyz
x,y,z
-x,y,1/2-z
-x,-y,-z
x,-y,1/2+z
1/2+x,1/2+y,z
1/2-x,1/2+y,1/2-z
1/2-x,1/2-y,-z
1/2+x,1/2-y,1/2+z
loop_
_atom_site_type_symbol
_atom_site_label
_atom_site_fract_x
_atom_site_fract_y
_atom_site_fract_z
Si Si1 0.837691 0.605347 0.918452
Si Si2 0.564333 0.723941 0.222591
Si Si3 0.312034 0.300890 0.587255
Si Si4 0.430176 0.409333 0.519590
Si Si5 0.811673 0.417118 0.122512
Si Si6 0.659536 0.594754 0.786975
O O1 0.767323 0.659950 0.159471
O O2 0.855316 0.508810 0.960267
O O3 0.903004 0.683690 0.781961
O O4 0.817439 0.584520 0.790253
O O5 0.500000 0.749534 0.250000
O O6 0.543478 0.651076 0.399620
O O7 0.619966 0.664804 0.989913
O O8 0.375261 0.343331 0.551961
O O9 0.322420 0.191390 0.558040
O O10 0.319745 0.348335 0.408175
O O11 0.500000 0.432634 0.250000
O O12 0.387409 0.504264 0.649941
O O13 0.731286 0.436582 0.223076
#
# Coordination Sequence:
#
# PCOD9309906 Si02
#       6
#     8   8   8   8   8   8
#     4  12  26  46  73 106 145 189 246 309 354 435
#     4  12  27  49  71 102 148 198 247 299 364 429
#     4  12  24  44  74 108 151 188 239 299 367 433
#     4  12  26  48  73 108 152 194 238 302 366 439
#     4  12  25  44  73 109 144 187 243 301 364 425
#     4  12  25  41  76 113 147 188 236 298 374 444
#
# _framework density 10.243449
#
# number of rings (size 3 to 8) (size 9 to 14) (size 15 to 20)
#    0.000    0.000    5.000    5.500    2.333    2.000 
#    0.000    1.667    0.000    0.000    0.000    0.000 
#    0.000    0.000    0.000    0.000    0.000    0.000 
#
# Total GULP energy -133880.620613 kJ/mol
# GULP energy per Si atom -5578.359192 kJ/mol
# Density = 1.022013 g / cm^3
# Si number density = 10.243449 Si / 1000 Ang^3
#
#
#
# Elastic Constant Matrix: (Units=GPa)
#
#
# Indices 1 2 3 4 5 6 
#
# 1 123.0085 44.4054 39.5659 0.0000 31.9815 0.0000
# 2 44.4054 209.8182 41.1825 0.0000 16.4542 0.0000
# 3 39.5659 41.1825 73.0034 0.0000 33.4300 0.0000
# 4 0.0000 0.0000 0.0000 37.4421 0.0000 8.2454
# 5 31.9815 16.4542 33.4300 0.0000 44.0025 0.0000
# 6 0.0000 0.0000 0.0000 8.2454 0.0000 47.7012
#
#
#
# Elastic Compliance Matrix: (Units=1/GPa)
#
#
# Indices 1 2 3 4 5 6 
#
# 1 0.010873 -0.001356 -0.002670 0.000000 -0.005367 0.000000
# 2 -0.001356 0.005534 -0.002899 0.000000 0.001119 0.000000
# 3 -0.002670 -0.002899 0.023609 0.000000 -0.014912 0.000000
# 4 0.000000 0.000000 0.000000 0.027765 0.000000 -0.004799
# 5 -0.005367 0.001119 -0.014912 0.000000 0.037537 0.000000
# 6 0.000000 0.000000 0.000000 -0.004799 0.000000 0.021793
#
#
# Mechanical properties :
#
#
# Convention : Reuss Voigt Hill
#
# Bulk Modulus (GPa) = 38.21882 72.90420 55.56151
# Shear Modulus (GPa) = 33.40321 44.54090 38.97205
#
# Velocity S-wave (km/s) = 4.04228 4.66780 4.36626
# Velocity P-wave (km/s) = 6.36259 8.04451 7.25247
#
# Compressibility (1/GPa) = 0.02616512
#
# Stress axis : x y z
#
# Youngs Moduli (GPa) = 91.96727 180.68824 42.35628
#
# Poissons Ratio (x) = 0.24505 0.11311
# Poissons Ratio (y) = 0.12473 0.12281
# Poissons Ratio (z) = 0.24558 0.52389
#
# Static dielectric constant tensor:
#      x y z
#    x 1.771470 0.000000 -0.070130 
#    y 0.000000 1.744100 0.000000 
#    z -0.070130 0.000000 1.824130 
# 
# From -- ./inp_files/66427.got.cif
#   From: 2010.05.17/outbox.ucp.g08.bks.cvg/sg15_34_cif.got.tgz:66427.got - 2010.06.11 12:40:34.
