data_PCOD9309039
_publ_section_title
;
Structure prediction by ZEFSAII (Michael W. Deem and Ramdas Pophale) SiO2 
 PCOD9309039
Probable space group: C 2/C
;
_chemical_formula_sum "Si O2"
_cell_formula_units_Z 30
_cell_length_a 18.000000
_cell_length_b 18.000000
_cell_length_c 18.000000
_cell_angle_alpha 90.000000
_cell_angle_beta 30.000000
_cell_angle_gamma 90.000000
_cell_volume 2916.000000
_symmetry_space_group_name_H-M "C 2/C"
_symmetry_group_IT_number 15
_symmetry_cell_setting 'monoclinic'
loop_
_space_group_symop_operation_xyz
x,y,z
-x,y,1/2-z
-x,-y,-z
x,-y,1/2+z
1/2+x,1/2+y,z
1/2-x,1/2+y,1/2-z
1/2-x,1/2-y,-z
1/2+x,1/2-y,1/2+z
loop_
_atom_site_type_symbol
_atom_site_label
_atom_site_fract_x
_atom_site_fract_y
_atom_site_fract_z
Si Si1 0.869912 0.058499 0.623492
Si Si2 0.733866 0.527893 0.947287
Si Si3 0.438899 0.891814 0.731246
Si Si4 0.500000 0.553836 0.750000
Si Si5 0.644845 0.317922 0.571487
Si Si6 0.739301 0.115998 0.879469
Si Si7 0.800469 0.724960 0.250890
Si Si8 0.507718 0.710338 0.029609
O O1 0.776143 0.051088 0.629983
O O2 0.771489 0.060352 0.782457
O O3 0.953487 0.136566 0.549264
O O4 0.000000 0.000000 0.500000
O O5 0.859378 0.464446 0.835241
O O6 0.582783 0.492859 0.113185
O O7 0.740797 0.605610 0.985896
O O8 0.500000 0.847800 0.750000
O O9 0.580570 0.901158 0.554421
O O10 0.319469 0.843443 0.789887
O O11 0.368648 0.600237 0.826745
O O12 0.500000 0.325644 0.750000
O O13 0.750000 0.250000 0.500000
O O14 0.585533 0.298728 0.540559
O O15 0.765285 0.200070 0.827576
O O16 0.665760 0.716696 0.310584
O O17 0.939409 0.728188 0.074753
#
# Coordination Sequence:
#
# PCOD9309039 Si02
#       8
#     8   8   8   4   8   8   8   8
#     4  10  20  39  66  92 126 177 231 270 337 411
#     4  11  24  43  67  97 138 180 225 283 344 418
#     4  12  26  42  65 102 145 176 229 288 348 401
#     4  12  22  42  70  94 136 180 232 276 348 414
#     4  11  24  45  74 107 133 178 231 286 359 407
#     4  11  25  41  67 100 132 185 230 282 344 410
#     4  11  23  43  64  98 138 183 231 279 335 414
#     4  10  22  40  67  94 136 175 226 286 332 410
#
# _framework density 10.288066000000001
#
# number of rings (size 3 to 8) (size 9 to 14) (size 15 to 20)
#    0.000    1.067    4.667    1.600    2.800    1.600 
#    0.000    0.000    0.000    0.000    0.000    0.000 
#    0.000    0.000    0.000    0.000    0.000    0.000 
#
# Total GULP energy -167153.149997 kJ/mol
# GULP energy per Si atom -5571.771667 kJ/mol
# Density = 1.026465 g / cm^3
# Si number density = 10.288066 Si / 1000 Ang^3
#
#
#
# Elastic Constant Matrix: (Units=GPa)
#
#
# Indices 1 2 3 4 5 6 
#
# 1 62.7651 34.6069 33.9468 -0.0022 2.4060 0.0011
# 2 34.6069 89.2086 46.9923 0.0054 -6.4350 -0.0012
# 3 33.9468 46.9923 139.5940 0.0044 14.9993 -0.0019
# 4 -0.0022 0.0054 0.0044 16.7159 -0.0014 -0.9640
# 5 2.4060 -6.4350 14.9993 -0.0014 36.3197 0.0001
# 6 0.0011 -0.0012 -0.0019 -0.9640 0.0001 25.9676
#
#
#
# Elastic Compliance Matrix: (Units=1/GPa)
#
#
# Indices 1 2 3 4 5 6 
#
# 1 0.021269 -0.006959 -0.002664 0.000006 -0.001542 -0.000001
# 2 -0.006959 0.016647 -0.004477 -0.000005 0.005259 0.000001
# 3 -0.002664 -0.004477 0.009821 -0.000002 -0.004672 0.000001
# 4 0.000006 -0.000005 -0.000002 0.059952 0.000002 0.002226
# 5 -0.001542 0.005259 -0.004672 0.000002 0.030497 0.000000
# 6 -0.000001 0.000001 0.000001 0.002226 0.000000 0.038592
#
#
# Mechanical properties :
#
#
# Convention : Reuss Voigt Hill
#
# Bulk Modulus (GPa) = 51.18410 58.07330 54.62870
# Shear Modulus (GPa) = 23.64184 27.53539 25.58861
#
# Velocity S-wave (km/s) = 3.39336 3.66214 3.53031
# Velocity P-wave (km/s) = 6.34686 6.79460 6.57454
#
# Compressibility (1/GPa) = 0.01953732
#
# Stress axis : x y z
#
# Youngs Moduli (GPa) = 47.01599 60.07136 101.82725
#
# Poissons Ratio (x) = 0.41803 0.27127
# Poissons Ratio (y) = 0.32718 0.45585
# Poissons Ratio (z) = 0.12525 0.26892
#
# Static dielectric constant tensor:
#      x y z
#    x 1.726380 0.000000 -0.038460 
#    y 0.000000 1.736120 0.000000 
#    z -0.038460 0.000000 1.722480 
# 
# From -- ./inp_files/211739.got.cif
#   From: 2010.05.17/outbox.ucp.g08.bks.cvg/sg15_106_cif.got.tgz:211739.got - 2010.06.11 12:40:34.
