data_PCOD9309262
_publ_section_title
;
Structure prediction by ZEFSAII (Michael W. Deem and Ramdas Pophale) SiO2 
 PCOD9309262
Probable space group: C 2/C
;
_chemical_formula_sum "Si O2"
_cell_formula_units_Z 32
_cell_length_a 9.000000
_cell_length_b 24.000000
_cell_length_c 15.000000
_cell_angle_alpha 90.000000
_cell_angle_beta 90.000000
_cell_angle_gamma 90.000000
_cell_volume 3240.000000
_symmetry_space_group_name_H-M "C 2/C"
_symmetry_group_IT_number 15
_symmetry_cell_setting 'monoclinic'
loop_
_space_group_symop_operation_xyz
x,y,z
-x,y,1/2-z
-x,-y,-z
x,-y,1/2+z
1/2+x,1/2+y,z
1/2-x,1/2+y,1/2-z
1/2-x,1/2-y,-z
1/2+x,1/2-y,1/2+z
loop_
_atom_site_type_symbol
_atom_site_label
_atom_site_fract_x
_atom_site_fract_y
_atom_site_fract_z
Si Si1 0.203589 0.914251 0.986960
Si Si2 0.614115 0.178498 0.100535
Si Si3 0.797033 0.511701 0.851960
Si Si4 0.651430 0.012887 0.859602
Si Si5 0.579152 0.726186 0.846439
Si Si6 0.811758 0.615586 0.110021
Si Si7 0.876363 0.887638 0.054830
Si Si8 0.172623 0.800653 0.732675
O O1 0.294282 0.856531 0.972330
O O2 0.243560 0.954842 0.902427
O O3 0.264606 0.944608 0.075657
O O4 0.027540 0.904335 0.001850
O O5 0.521778 0.235868 0.086986
O O6 0.477111 0.138333 0.130715
O O7 0.734446 0.192456 0.176405
O O8 0.796351 0.513694 0.743840
O O9 0.693852 0.560295 0.892276
O O10 0.973325 0.520946 0.870887
O O11 0.685182 0.950500 0.891073
O O12 0.500000 0.727965 0.750000
O O13 0.589093 0.663834 0.880879
O O14 0.738888 0.755473 0.828185
O O15 0.699048 0.641131 0.181683
O O16 0.749174 0.633201 0.014346
O O17 0.000000 0.788756 0.750000
#
# Coordination Sequence:
#
# PCOD9309262 Si02
#       8
#     8   8   8   8   8   8   8   8
#     4  12  23  42  66  98 136 169 228 284 325 405
#     4  10  21  41  71  93 127 175 220 271 332 393
#     4  11  24  42  63  95 132 175 222 275 340 408
#     4  11  24  41  67  95 128 184 223 266 338 410
#     4   9  23  45  67  90 132 180 222 273 336 406
#     4  11  21  39  65  94 132 170 218 272 327 399
#     4  12  26  41  62  97 140 173 218 284 341 389
#     4  10  21  41  68 101 123 168 225 280 332 386
#
# _framework density 9.8765429999999999
#
# number of rings (size 3 to 8) (size 9 to 14) (size 15 to 20)
#    0.000    1.250    2.500    4.125    3.500    2.500 
#    2.250    2.500    0.000    0.000    0.000    0.000 
#    0.000    0.000    0.000    0.000    0.000    0.000 
#
# Total GULP energy -178689.398019 kJ/mol
# GULP energy per Si atom -5584.043688 kJ/mol
# Density = 0.985406 g / cm^3
# Si number density = 9.876543 Si / 1000 Ang^3
#
#
#
# Elastic Constant Matrix: (Units=GPa)
#
#
# Indices 1 2 3 4 5 6 
#
# 1 138.4392 42.6168 42.9495 0.0000 -21.2421 0.0000
# 2 42.6168 90.8352 17.5186 0.0000 -9.3555 0.0000
# 3 42.9495 17.5186 64.8418 0.0000 -7.9321 0.0000
# 4 0.0000 0.0000 0.0000 31.9161 0.0000 1.5548
# 5 -21.2421 -9.3555 -7.9321 0.0000 33.5150 0.0000
# 6 0.0000 0.0000 0.0000 1.5548 0.0000 20.8332
#
#
#
# Elastic Compliance Matrix: (Units=1/GPa)
#
#
# Indices 1 2 3 4 5 6 
#
# 1 0.010729 -0.003488 -0.005614 0.000000 0.004498 0.000000
# 2 -0.003488 0.012968 -0.001051 0.000000 0.001160 0.000000
# 3 -0.005614 -0.001051 0.019519 0.000000 0.000768 0.000000
# 4 0.000000 0.000000 0.000000 0.031446 0.000000 -0.002347
# 5 0.004498 0.001160 0.000768 0.000000 0.033194 0.000000
# 6 0.000000 0.000000 0.000000 -0.002347 0.000000 0.048176
#
#
# Mechanical properties :
#
#
# Convention : Reuss Voigt Hill
#
# Bulk Modulus (GPa) = 43.65106 55.58734 49.61920
# Shear Modulus (GPa) = 27.17784 29.98827 28.58305
#
# Velocity S-wave (km/s) = 3.71331 3.90058 3.80809
# Velocity P-wave (km/s) = 6.36641 6.96335 6.67156
#
# Compressibility (1/GPa) = 0.02290895
#
# Stress axis : x y z
#
# Youngs Moduli (GPa) = 93.20652 77.11565 51.23279
#
# Poissons Ratio (x) = 0.26895 0.28762
# Poissons Ratio (y) = 0.32507 0.05387
# Poissons Ratio (z) = 0.52326 0.08108
#
# Static dielectric constant tensor:
#      x y z
#    x 1.679110 0.000000 0.019030 
#    y 0.000000 1.690050 0.000000 
#    z 0.019030 0.000000 1.713370 
# 
# From -- ./inp_files/137841.got.cif
#   From: 2010.05.17/outbox.ucp.g08.bks.cvg/sg15_69_cif.got.tgz:137841.got - 2010.06.11 12:40:34.
