data_PCOD9309725
_publ_section_title
;
Structure prediction by ZEFSAII (Michael W. Deem and Ramdas Pophale) SiO2 
 PCOD9309725
Probable space group: C 2/C
;
_chemical_formula_sum "Si O2"
_cell_formula_units_Z 24
_cell_length_a 21.000000
_cell_length_b 12.000000
_cell_length_c 27.000000
_cell_angle_alpha 90.000000
_cell_angle_beta 160.000000
_cell_angle_gamma 90.000000
_cell_volume 2327.105055
_symmetry_space_group_name_H-M "C 2/C"
_symmetry_group_IT_number 15
_symmetry_cell_setting 'monoclinic'
loop_
_space_group_symop_operation_xyz
x,y,z
-x,y,1/2-z
-x,-y,-z
x,-y,1/2+z
1/2+x,1/2+y,z
1/2-x,1/2+y,1/2-z
1/2-x,1/2-y,-z
1/2+x,1/2-y,1/2+z
loop_
_atom_site_type_symbol
_atom_site_label
_atom_site_fract_x
_atom_site_fract_y
_atom_site_fract_z
Si Si1 0.777218 0.928380 0.087651
Si Si2 0.293801 0.293179 0.902305
Si Si3 0.171392 0.807442 0.119443
Si Si4 0.544358 0.366898 0.635472
Si Si5 0.651394 0.960562 0.715708
Si Si6 0.286322 0.974645 0.573949
O O1 0.784013 0.819479 0.128921
O O2 0.000000 0.968921 0.250000
O O3 0.571746 0.978808 0.956459
O O4 0.724694 0.926788 0.990261
O O5 0.183705 0.352351 0.775695
O O6 0.280937 0.381418 0.936975
O O7 0.507605 0.281682 0.039818
O O8 0.339344 0.720188 0.246769
O O9 0.258206 0.930655 0.191802
O O10 0.063613 0.806740 0.988664
O O11 0.709513 0.440213 0.729650
O O12 0.376212 0.431527 0.540141
O O13 0.500000 0.004340 0.750000
#
# Coordination Sequence:
#
# PCOD9309725 Si02
#       6
#     8   8   8   8   8   8
#     4  12  27  39  65 105 138 171 221 288 343 394
#     4  11  21  40  69  96 132 178 222 278 334 409
#     4  11  22  42  72  98 133 179 238 271 332 407
#     4  11  23  43  70  98 131 188 229 276 331 409
#     4  11  22  46  67  96 142 182 226 269 343 419
#     4  12  23  43  67  97 140 184 221 271 345 409
#
# _framework density 10.313243
#
# number of rings (size 3 to 8) (size 9 to 14) (size 15 to 20)
#    0.000    0.667    6.667    2.000    2.333    1.333 
#    0.000    5.833    0.000    0.000    0.000    0.000 
#    0.000    0.000    0.000    0.000    0.000    0.000 
#
# Total GULP energy -133779.869452 kJ/mol
# GULP energy per Si atom -5574.161227 kJ/mol
# Density = 1.028977 g / cm^3
# Si number density = 10.313243 Si / 1000 Ang^3
#
#
#
# Elastic Constant Matrix: (Units=GPa)
#
#
# Indices 1 2 3 4 5 6 
#
# 1 76.6031 11.9996 10.1663 -0.0075 19.1504 -0.0017
# 2 11.9996 22.4640 12.7045 -0.0261 11.3242 -0.0039
# 3 10.1663 12.7045 154.0205 -0.0337 30.9851 -0.0040
# 4 -0.0075 -0.0261 -0.0337 30.6901 0.0019 3.4787
# 5 19.1504 11.3242 30.9851 0.0019 39.2030 0.0005
# 6 -0.0017 -0.0039 -0.0040 3.4787 0.0005 27.0020
#
#
#
# Elastic Compliance Matrix: (Units=1/GPa)
#
#
# Indices 1 2 3 4 5 6 
#
# 1 0.015440 -0.005349 0.000747 0.000000 -0.006588 0.000000
# 2 -0.005349 0.054253 -0.001778 0.000043 -0.011653 0.000002
# 3 0.000747 -0.001778 0.007800 0.000008 -0.006017 0.000000
# 4 0.000000 0.000043 0.000008 0.033067 -0.000020 -0.004260
# 5 -0.006588 -0.011653 -0.006017 -0.000020 0.036848 -0.000001
# 6 0.000000 0.000002 0.000000 -0.004260 -0.000001 0.037583
#
#
# Mechanical properties :
#
#
# Convention : Reuss Voigt Hill
#
# Bulk Modulus (GPa) = 15.44772 35.86982 25.65877
# Shear Modulus (GPa) = 22.79681 33.92681 28.36181
#
# Velocity S-wave (km/s) = 3.32809 4.06004 3.71215
# Velocity P-wave (km/s) = 4.71951 6.27746 5.55339
#
# Compressibility (1/GPa) = 0.06473445
#
# Stress axis : x y z
#
# Youngs Moduli (GPa) = 64.76678 18.43210 128.19893
#
# Poissons Ratio (x) = 0.09860 -0.09582
# Poissons Ratio (y) = 0.34646 0.22789
# Poissons Ratio (z) = -0.04841 0.03277
#
# Static dielectric constant tensor:
#      x y z
#    x 1.768960 0.000000 0.011930 
#    y 0.000000 1.779360 -0.000010 
#    z 0.011930 -0.000010 1.756090 
# 
# From -- ./inp_files/300974.got.cif
#   From: 2010.05.17/outbox.ucp.g08.bks.cvg/sg15_151_cif.got.tgz:300974.got - 2010.06.11 12:40:34.
