data_PCOD9309654
_publ_section_title
;
Structure prediction by ZEFSAII (Michael W. Deem and Ramdas Pophale) SiO2 
 PCOD9309654
Probable space group: C 2/C
;
_chemical_formula_sum "Si O2"
_cell_formula_units_Z 24
_cell_length_a 30.000000
_cell_length_b 15.000000
_cell_length_c 9.000000
_cell_angle_alpha 90.000000
_cell_angle_beta 140.000000
_cell_angle_gamma 90.000000
_cell_volume 2603.289819
_symmetry_space_group_name_H-M "C 2/C"
_symmetry_group_IT_number 15
_symmetry_cell_setting 'monoclinic'
loop_
_space_group_symop_operation_xyz
x,y,z
-x,y,1/2-z
-x,-y,-z
x,-y,1/2+z
1/2+x,1/2+y,z
1/2-x,1/2+y,1/2-z
1/2-x,1/2-y,-z
1/2+x,1/2-y,1/2+z
loop_
_atom_site_type_symbol
_atom_site_label
_atom_site_fract_x
_atom_site_fract_y
_atom_site_fract_z
Si Si1 0.755805 0.384610 0.653596
Si Si2 0.484741 0.722387 0.880262
Si Si3 0.711456 0.565354 0.366110
Si Si4 0.858455 0.754240 0.271127
Si Si5 0.621220 0.347654 0.861085
Si Si6 0.432717 0.474600 0.167006
O O1 0.740707 0.478160 0.528038
O O2 0.755810 0.404138 0.832843
O O3 0.821577 0.334397 0.745172
O O4 0.694242 0.312641 0.465125
O O5 0.500000 0.756280 0.750000
O O6 0.427727 0.763784 0.848657
O O7 0.455012 0.621353 0.786074
O O8 0.561558 0.715662 0.144489
O O9 0.690067 0.640777 0.434786
O O10 0.637277 0.540494 0.104073
O O11 0.868719 0.816506 0.443603
O O12 0.588309 0.446826 0.777091
O O13 0.500000 0.507679 0.250000
#
# Coordination Sequence:
#
# PCOD9309654 Si02
#       6
#     8   8   8   8   8   8
#     4  11  23  37  55  75 118 157 196 229 266 342
#     4  11  20  34  54  85 116 146 181 232 291 341
#     4  12  20  36  55  81 111 158 194 224 274 333
#     4  11  22  37  52  82 117 155 186 229 287 335
#     4  12  21  32  56  83 117 149 185 234 280 341
#     4  11  19  28  49  82 117 147 180 216 272 340
#
# _framework density 9.2191039999999997
#
# number of rings (size 3 to 8) (size 9 to 14) (size 15 to 20)
#    0.000    0.667    8.333    2.000    0.000    0.667 
#    0.000    1.667    0.000    0.000    0.000    8.167 
#    0.000    0.000    0.000    0.000    0.000    0.000 
#
# Total GULP energy -133818.015966 kJ/mol
# GULP energy per Si atom -5575.750665 kJ/mol
# Density = 0.919812 g / cm^3
# Si number density = 9.219104 Si / 1000 Ang^3
#
#
#
# Elastic Constant Matrix: (Units=GPa)
#
#
# Indices 1 2 3 4 5 6 
#
# 1 176.9878 44.9099 25.8028 0.0000 -12.3467 0.0000
# 2 44.9099 43.9541 8.6997 0.0000 4.1609 0.0000
# 3 25.8028 8.6997 26.9568 0.0000 -5.2788 0.0000
# 4 0.0000 0.0000 0.0000 13.1697 0.0000 6.1757
# 5 -12.3467 4.1609 -5.2788 0.0000 25.2719 0.0000
# 6 0.0000 0.0000 0.0000 6.1757 0.0000 37.2927
#
#
#
# Elastic Compliance Matrix: (Units=1/GPa)
#
#
# Indices 1 2 3 4 5 6 
#
# 1 0.008843 -0.008536 -0.004784 0.000000 0.004727 0.000000
# 2 -0.008536 0.033411 -0.004698 0.000000 -0.010653 0.000000
# 3 -0.004784 -0.004698 0.044715 0.000000 0.007776 0.000000
# 4 0.000000 0.000000 0.000000 0.082325 0.000000 -0.013633
# 5 0.004727 -0.010653 0.007776 0.000000 0.045257 0.000000
# 6 0.000000 0.000000 0.000000 -0.013633 0.000000 0.029073
#
#
# Mechanical properties :
#
#
# Convention : Reuss Voigt Hill
#
# Bulk Modulus (GPa) = 19.63390 45.19150 32.41270
# Shear Modulus (GPa) = 16.85558 26.37930 21.61744
#
# Velocity S-wave (km/s) = 3.02680 3.78655 3.42779
# Velocity P-wave (km/s) = 4.78403 6.60910 5.76919
#
# Compressibility (1/GPa) = 0.05093230
#
# Stress axis : x y z
#
# Youngs Moduli (GPa) = 113.07945 29.93023 22.36392
#
# Poissons Ratio (x) = 0.25549 0.10700
# Poissons Ratio (y) = 0.96526 0.10507
# Poissons Ratio (z) = 0.54101 0.14061
#
# Static dielectric constant tensor:
#      x y z
#    x 1.701330 0.000000 -0.026430 
#    y 0.000000 1.633500 0.000000 
#    z -0.026430 0.000000 1.685070 
# 
# From -- ./inp_files/48093.got.cif
#   From: 2010.05.17/outbox.ucp.g08.bks.cvg/sg15_25_cif.got.tgz:48093.got - 2010.06.11 12:40:34.
