data_PCOD9309189
_publ_section_title
;
Structure prediction by ZEFSAII (Michael W. Deem and Ramdas Pophale) SiO2 
 PCOD9309189
Probable space group: C 2/C
;
_chemical_formula_sum "Si O2"
_cell_formula_units_Z 32
_cell_length_a 30.000000
_cell_length_b 18.000000
_cell_length_c 9.000000
_cell_angle_alpha 90.000000
_cell_angle_beta 40.000000
_cell_angle_gamma 90.000000
_cell_volume 3123.947783
_symmetry_space_group_name_H-M "C 2/C"
_symmetry_group_IT_number 15
_symmetry_cell_setting 'monoclinic'
loop_
_space_group_symop_operation_xyz
x,y,z
-x,y,1/2-z
-x,-y,-z
x,-y,1/2+z
1/2+x,1/2+y,z
1/2-x,1/2+y,1/2-z
1/2-x,1/2-y,-z
1/2+x,1/2-y,1/2+z
loop_
_atom_site_type_symbol
_atom_site_label
_atom_site_fract_x
_atom_site_fract_y
_atom_site_fract_z
Si Si1 0.081027 0.992852 0.075459
Si Si2 0.453019 0.789316 0.081140
Si Si3 0.574965 0.335840 0.626491
Si Si4 0.811746 0.028851 0.959466
Si Si5 0.889604 0.288727 0.913633
Si Si6 0.574100 0.956149 0.330328
Si Si7 0.166740 0.448179 0.388470
Si Si8 0.194917 0.809078 0.081465
O O1 0.075516 0.076292 0.157932
O O2 0.000000 0.969349 0.250000
O O3 0.131617 0.949956 0.058074
O O4 0.133145 0.000545 0.803435
O O5 0.420939 0.720244 0.248944
O O6 0.436212 0.870537 0.188987
O O7 0.418239 0.783944 0.007809
O O8 0.537013 0.787618 0.861687
O O9 0.500000 0.320917 0.750000
O O10 0.634498 0.318460 0.357359
O O11 0.776298 0.107535 0.010405
O O12 0.747467 0.971402 0.151217
O O13 0.840920 0.224206 0.974639
O O14 0.845251 0.365020 0.018272
O O15 0.608808 0.954025 0.404933
O O16 0.500000 0.000000 0.500000
O O17 0.635305 0.994248 0.083951
O O18 0.250000 0.750000 0.000000
#
# Coordination Sequence:
#
# PCOD9309189 Si02
#       8
#     8   8   8   8   8   8   8   8
#     4  10  23  45  70  94 125 162 221 280 328 390
#     4  10  21  39  63  95 127 169 216 265 321 381
#     4  10  21  40  66  98 126 167 220 269 321 383
#     4  11  25  44  66  98 129 172 215 268 339 385
#     4  10  22  42  63  92 133 168 208 266 324 383
#     4  11  22  37  59  92 130 174 224 259 310 379
#     4  11  24  39  62  91 135 173 212 267 317 388
#     4  11  26  42  64  95 131 170 217 266 324 389
#
# _framework density 10.243449
#
# number of rings (size 3 to 8) (size 9 to 14) (size 15 to 20)
#    0.000    1.500    2.500    1.500    7.000    2.000 
#    2.250    0.625    0.000    0.000    0.000    0.000 
#    0.000    0.000    0.000    0.000    0.000    0.000 
#
# Total GULP energy -178323.238924 kJ/mol
# GULP energy per Si atom -5572.601216 kJ/mol
# Density = 1.022013 g / cm^3
# Si number density = 10.243449 Si / 1000 Ang^3
#
#
#
# Elastic Constant Matrix: (Units=GPa)
#
#
# Indices 1 2 3 4 5 6 
#
# 1 47.0428 10.1573 -3.8444 0.0000 -15.6794 0.0000
# 2 10.1573 12.7647 29.3931 0.0000 2.4795 0.0000
# 3 -3.8444 29.3931 63.5637 0.0000 -12.1301 0.0000
# 4 0.0000 0.0000 0.0000 21.0737 0.0000 -15.7885
# 5 -15.6794 2.4795 -12.1301 0.0000 34.7246 0.0000
# 6 0.0000 0.0000 0.0000 -15.7885 0.0000 30.0404
#
#
#
# Elastic Compliance Matrix: (Units=1/GPa)
#
#
# Indices 1 2 3 4 5 6 
#
# 1 0.007764 0.043734 -0.021086 0.000000 -0.006983 0.000000
# 2 0.043734 -0.105024 0.060439 0.000000 0.048359 0.000000
# 3 -0.021086 0.060439 -0.017284 0.000000 -0.019874 0.000000
# 4 0.000000 0.000000 0.000000 0.078274 0.000000 0.041139
# 5 -0.006983 0.048359 -0.019874 0.000000 0.015249 0.000000
# 6 0.000000 0.000000 0.000000 0.041139 0.000000 0.054910
#
#
# Mechanical properties :
#
#
# Convention : Reuss Voigt Hill
#
# Bulk Modulus (GPa) = 19.36930 21.64257 20.50594
# Shear Modulus (GPa) = -43.45062 23.01211 -10.21926
#
# Velocity S-wave (km/s) = -4.61032 3.35514 -2.23585
# Velocity P-wave (km/s) = 4.34339 5.05928 1.83457
#
# Compressibility (1/GPa) = 0.05162809
#
# Stress axis : x y z
#
# Youngs Moduli (GPa) = 128.80204 -9.52166 -57.85785
#
# Poissons Ratio (x) = 0.41642 -1.22001
# Poissons Ratio (y) = -5.63297 3.49685
# Poissons Ratio (z) = 2.71595 0.57548
#
# Static dielectric constant tensor:
#      x y z
#    x 1.808910 0.000000 0.092360 
#    y 0.000000 1.762700 0.000000 
#    z 0.092360 0.000000 1.738160 
# 
# From -- ./inp_files/70573.got.cif
#   From: 2010.05.17/outbox.ucp.g08.bks.cvg/sg15_36_cif.got.tgz:70573.got - 2010.06.11 12:40:34.
