data_PCOD9309015
_publ_section_title
;
Structure prediction by ZEFSAII (Michael W. Deem and Ramdas Pophale) SiO2 
 PCOD9309015
Probable space group: C 2/C
;
_chemical_formula_sum "Si O2"
_cell_formula_units_Z 24
_cell_length_a 15.000000
_cell_length_b 24.000000
_cell_length_c 21.000000
_cell_angle_alpha 90.000000
_cell_angle_beta 20.000000
_cell_angle_gamma 90.000000
_cell_volume 2585.672284
_symmetry_space_group_name_H-M "C 2/C"
_symmetry_group_IT_number 15
_symmetry_cell_setting 'monoclinic'
loop_
_space_group_symop_operation_xyz
x,y,z
-x,y,1/2-z
-x,-y,-z
x,-y,1/2+z
1/2+x,1/2+y,z
1/2-x,1/2+y,1/2-z
1/2-x,1/2-y,-z
1/2+x,1/2-y,1/2+z
loop_
_atom_site_type_symbol
_atom_site_label
_atom_site_fract_x
_atom_site_fract_y
_atom_site_fract_z
Si Si1 0.717824 0.784294 0.956548
Si Si2 0.831692 0.806973 0.123376
Si Si3 0.777159 0.799362 0.531277
Si Si4 0.781030 0.090014 0.950662
Si Si5 0.206249 0.998966 0.452537
Si Si6 0.168722 0.084342 0.358478
O O1 0.680741 0.738870 0.924719
O O2 0.000000 0.812365 0.750000
O O3 0.750000 0.750000 0.000000
O O4 0.452574 0.818122 0.152645
O O5 0.010404 0.782966 0.059471
O O6 0.990639 0.861402 0.992201
O O7 0.500000 0.808880 0.750000
O O8 0.750000 0.750000 0.500000
O O9 0.846334 0.857127 0.451117
O O10 0.000000 0.089581 0.750000
O O11 0.806457 0.033277 0.973823
O O12 0.473262 0.096541 0.137914
O O13 0.500000 0.974654 0.250000
O O14 0.179804 0.045674 0.414499
O O15 0.985072 0.953010 0.589926
#
# Coordination Sequence:
#
# PCOD9309015 Si02
#       6
#     8   8   8   8   8   8
#     4   9  21  39  58  84 121 160 196 253 301 349
#     4  11  20  38  63  86 121 163 205 247 301 372
#     4  12  22  37  58  92 126 163 206 246 302 374
#     4  11  22  39  58  90 132 156 196 264 309 360
#     4   9  19  39  63  87 115 154 205 259 305 364
#     4  10  20  38  65  86 113 163 209 247 308 367
#
# _framework density 9.2819190000000003
#
# number of rings (size 3 to 8) (size 9 to 14) (size 15 to 20)
#    0.000    1.667    3.333    2.000    0.000    2.667 
#    3.000    0.000    0.000    7.000    0.000    0.000 
#    0.000    0.000    0.000    0.000    0.000    0.000 
#
# Total GULP energy -133787.882545 kJ/mol
# GULP energy per Si atom -5574.495106 kJ/mol
# Density = 0.926079 g / cm^3
# Si number density = 9.281919 Si / 1000 Ang^3
#
#
#
# Elastic Constant Matrix: (Units=GPa)
#
#
# Indices 1 2 3 4 5 6 
#
# 1 101.2548 32.7098 54.5275 0.0280 -6.5371 0.0292
# 2 32.7098 56.3888 30.3740 0.1101 -1.6864 -0.0481
# 3 54.5275 30.3740 175.8282 0.1524 5.5316 -0.1758
# 4 0.0280 0.1101 0.1524 25.7365 0.2843 -0.1869
# 5 -6.5371 -1.6864 5.5316 0.2843 34.3079 -0.1745
# 6 0.0292 -0.0481 -0.1758 -0.1869 -0.1745 0.5972
#
#
#
# Elastic Compliance Matrix: (Units=1/GPa)
#
#
# Indices 1 2 3 4 5 6 
#
# 1 0.013837 -0.006154 -0.003319 -0.000010 0.002863 -0.001315
# 2 -0.006154 0.022370 -0.001962 -0.000069 0.000252 0.001578
# 3 -0.003319 -0.001962 0.007116 0.000002 -0.001868 0.001553
# 4 -0.000010 -0.000069 0.000002 0.038946 -0.000267 0.012106
# 5 0.002863 0.000252 -0.001868 -0.000267 0.030050 0.008030
# 6 -0.001315 0.001578 0.001553 0.012106 0.008030 1.681376
#
#
# Mechanical properties :
#
#
# Convention : Reuss Voigt Hill
#
# Bulk Modulus (GPa) = 48.89568 63.18828 56.04198
# Shear Modulus (GPa) = 2.74216 26.51901 14.63058
#
# Velocity S-wave (km/s) = 1.21670 3.78369 2.81040
# Velocity P-wave (km/s) = 5.32637 7.29388 6.38635
#
# Compressibility (1/GPa) = 0.02045171
#
# Stress axis : x y z
#
# Youngs Moduli (GPa) = 72.27120 44.70325 140.52758
#
# Poissons Ratio (x) = 0.27510 0.46645
# Poissons Ratio (y) = 0.44475 0.27574
# Poissons Ratio (z) = 0.23989 0.08772
#
# Static dielectric constant tensor:
#      x y z
#    x 1.656780 0.000460 -0.028040 
#    y 0.000460 1.554670 -0.000540 
#    z -0.028040 -0.000540 1.660580 
# 
# From -- ./inp_files/101384.got.cif
#   From: 2010.05.17/outbox.ucp.g08.bks.cvg/sg15_51_cif.got.tgz:101384.got - 2010.06.11 12:40:34.
