data_PCOD9309157
_publ_section_title
;
Structure prediction by ZEFSAII (Michael W. Deem and Ramdas Pophale) SiO2 
 PCOD9309157
Probable space group: C 2/C
;
_chemical_formula_sum "Si O2"
_cell_formula_units_Z 32
_cell_length_a 9.000000
_cell_length_b 15.000000
_cell_length_c 30.000000
_cell_angle_alpha 90.000000
_cell_angle_beta 50.000000
_cell_angle_gamma 90.000000
_cell_volume 3102.479995
_symmetry_space_group_name_H-M "C 2/C"
_symmetry_group_IT_number 15
_symmetry_cell_setting 'monoclinic'
loop_
_space_group_symop_operation_xyz
x,y,z
-x,y,1/2-z
-x,-y,-z
x,-y,1/2+z
1/2+x,1/2+y,z
1/2-x,1/2+y,1/2-z
1/2-x,1/2-y,-z
1/2+x,1/2-y,1/2+z
loop_
_atom_site_type_symbol
_atom_site_label
_atom_site_fract_x
_atom_site_fract_y
_atom_site_fract_z
Si Si1 0.497318 0.691968 0.491627
Si Si2 0.301532 0.587844 0.114416
Si Si3 0.866857 0.386140 0.488541
Si Si4 0.202477 0.266268 0.186613
Si Si5 0.002983 0.118939 0.167677
Si Si6 0.534930 0.604398 0.911122
Si Si7 0.414048 0.157066 0.219165
Si Si8 0.227723 0.518732 0.911903
O O1 0.680830 0.654315 0.430076
O O2 0.317494 0.634739 0.506079
O O3 0.451213 0.792760 0.488889
O O4 0.514038 0.670361 0.539748
O O5 0.433273 0.627132 0.129689
O O6 0.393587 0.492311 0.086155
O O7 0.079687 0.588108 0.172573
O O8 0.823535 0.444481 0.540769
O O9 0.032812 0.440137 0.430488
O O10 0.288845 0.354903 0.149945
O O11 0.361917 0.226628 0.190158
O O12 0.000000 0.282740 0.250000
O O13 0.139345 0.197126 0.159842
O O14 0.797756 0.115406 0.232005
O O15 0.126053 0.029440 0.149364
O O16 0.350248 0.591147 0.915367
O O17 0.500000 0.194211 0.250000
#
# Coordination Sequence:
#
# PCOD9309157 Si02
#       8
#     8   8   8   8   8   8   8   8
#     4  11  22  39  57  88 122 163 200 239 299 354
#     4  10  21  38  60  88 118 160 198 246 294 352
#     4  10  22  37  58  79 122 158 200 234 295 349
#     4  10  22  39  61  89 117 153 198 242 302 358
#     4   9  18  39  62  82 116 157 192 244 297 356
#     4  11  23  36  58  88 126 153 196 251 289 354
#     4   9  20  39  65  87 113 152 199 246 300 355
#     4  10  21  39  56  88 116 158 194 248 288 348
#
# _framework density 10.314329000000001
#
# number of rings (size 3 to 8) (size 9 to 14) (size 15 to 20)
#    0.000    2.000    2.500    1.125    3.500    4.000 
#    2.250    0.000    0.000   12.000    0.000    0.000 
#    0.000    0.000    0.000    0.000    0.000    0.000 
#
# Total GULP energy -178436.078187 kJ/mol
# GULP energy per Si atom -5576.127443 kJ/mol
# Density = 1.029085 g / cm^3
# Si number density = 10.314329 Si / 1000 Ang^3
#
#
#
# Elastic Constant Matrix: (Units=GPa)
#
#
# Indices 1 2 3 4 5 6 
#
# 1 27.7117 25.3171 6.3930 0.0000 -28.4122 0.0000
# 2 25.3171 45.0569 24.4706 -0.0002 -12.2824 0.0000
# 3 6.3930 24.4706 24.2401 -0.0008 -11.8156 -0.0003
# 4 0.0000 -0.0002 -0.0008 29.7453 0.0003 -33.1683
# 5 -28.4122 -12.2824 -11.8156 0.0003 23.5968 0.0001
# 6 0.0000 0.0000 -0.0003 -33.1683 0.0001 -10.3951
#
#
#
# Elastic Compliance Matrix: (Units=1/GPa)
#
#
# Indices 1 2 3 4 5 6 
#
# 1 -0.037856 0.034161 -0.050339 0.000000 -0.053006 0.000001
# 2 0.034161 0.018322 -0.003714 0.000000 0.048809 0.000001
# 3 -0.050339 -0.003714 0.036767 0.000000 -0.044135 -0.000001
# 4 0.000000 0.000000 0.000000 0.007376 0.000000 -0.023535
# 5 -0.053006 0.048809 -0.044135 0.000000 -0.018138 0.000001
# 6 0.000001 0.000001 -0.000001 -0.023535 0.000001 -0.021106
#
#
# Mechanical properties :
#
#
# Convention : Reuss Voigt Hill
#
# Bulk Modulus (GPa) = -44.34236 23.26335 -10.53951
# Shear Modulus (GPa) = 283.58423 11.31128 147.44776
#
# Velocity S-wave (km/s) = 11.73752 2.34418 8.46359
# Velocity P-wave (km/s) = 12.73383 4.31609 9.50734
#
# Compressibility (1/GPa) = -0.02255180
#
# Stress axis : x y z
#
# Youngs Moduli (GPa) = -26.41591 54.57955 27.19855
#
# Poissons Ratio (x) = -1.86448 1.36914
# Poissons Ratio (y) = 0.90239 0.10102
# Poissons Ratio (z) = -1.32975 0.20272
#
# Static dielectric constant tensor:
#      x y z
#    x 1.710980 0.000000 0.004520 
#    y 0.000000 1.729410 0.000000 
#    z 0.004520 0.000000 1.824550 
# 
# From -- ./inp_files/308262.got.cif
#   From: 2010.05.17/outbox.ucp.g08.bks.cvg/sg15_155_cif.got.tgz:308262.got - 2010.06.11 12:40:34.
