data_PCOD9309286
_publ_section_title
;
Structure prediction by ZEFSAII (Michael W. Deem and Ramdas Pophale) SiO2 
 PCOD9309286
Probable space group: C 2/C
;
_chemical_formula_sum "Si O2"
_cell_formula_units_Z 24
_cell_length_a 18.000000
_cell_length_b 15.000000
_cell_length_c 18.000000
_cell_angle_alpha 90.000000
_cell_angle_beta 150.000000
_cell_angle_gamma 90.000000
_cell_volume 2430.000000
_symmetry_space_group_name_H-M "C 2/C"
_symmetry_group_IT_number 15
_symmetry_cell_setting 'monoclinic'
loop_
_space_group_symop_operation_xyz
x,y,z
-x,y,1/2-z
-x,-y,-z
x,-y,1/2+z
1/2+x,1/2+y,z
1/2-x,1/2+y,1/2-z
1/2-x,1/2-y,-z
1/2+x,1/2-y,1/2+z
loop_
_atom_site_type_symbol
_atom_site_label
_atom_site_fract_x
_atom_site_fract_y
_atom_site_fract_z
Si Si1 0.151081 0.208313 0.484427
Si Si2 0.696268 0.954554 0.064683
Si Si3 0.649443 0.718195 0.842433
Si Si4 0.331240 0.970580 0.122563
Si Si5 0.631883 0.113369 0.219950
Si Si6 0.303475 0.647665 0.217900
O O1 0.250000 0.250000 0.500000
O O2 0.227327 0.111910 0.551506
O O3 0.192742 0.280314 0.583704
O O4 0.971332 0.183749 0.338765
O O5 0.783121 0.861886 0.147568
O O6 0.766684 0.046022 0.158247
O O7 0.528133 0.927963 0.944917
O O8 0.700987 0.974740 0.980310
O O9 0.500000 0.683311 0.750000
O O10 0.610729 0.800808 0.754886
O O11 0.750000 0.750000 0.000000
O O12 0.500000 0.937775 0.250000
O O13 0.316982 0.036304 0.179541
O O14 0.749844 0.139473 0.257798
#
# Coordination Sequence:
#
# PCOD9309286 Si02
#       6
#     8   8   8   8   8   8
#     4  12  26  46  73 102 138 186 243 291 346 424
#     4  11  24  44  71 100 141 185 236 281 347 429
#     4  12  23  41  71 102 136 183 231 279 345 428
#     4  10  21  42  72  98 138 187 232 287 346 419
#     4  11  25  45  68 106 143 182 228 295 361 406
#     4  12  29  44  72 105 141 186 233 300 357 409
#
# _framework density 9.8765429999999999
#
# number of rings (size 3 to 8) (size 9 to 14) (size 15 to 20)
#    0.000    0.667    5.000    2.500    7.000    2.000 
#    0.000    0.000    0.000    0.000    0.000    0.000 
#    0.000    0.000    0.000    0.000    0.000    0.000 
#
# Total GULP energy -133648.486162 kJ/mol
# GULP energy per Si atom -5568.686923 kJ/mol
# Density = 0.985406 g / cm^3
# Si number density = 9.876543 Si / 1000 Ang^3
#
#
#
# Elastic Constant Matrix: (Units=GPa)
#
#
# Indices 1 2 3 4 5 6 
#
# 1 128.8153 22.1213 31.8764 0.0005 11.5563 0.0002
# 2 22.1213 134.2229 45.2419 0.0007 24.0145 0.0002
# 3 31.8764 45.2419 69.2538 0.0016 18.3752 0.0007
# 4 0.0005 0.0007 0.0016 42.1404 0.0010 6.2646
# 5 11.5563 24.0145 18.3752 0.0010 22.4190 0.0004
# 6 0.0002 0.0002 0.0007 6.2646 0.0004 36.8496
#
#
#
# Elastic Compliance Matrix: (Units=1/GPa)
#
#
# Indices 1 2 3 4 5 6 
#
# 1 0.008804 0.000075 -0.003675 0.000000 -0.001606 0.000000
# 2 0.000075 0.010369 -0.004922 0.000000 -0.007112 0.000000
# 3 -0.003675 -0.004922 0.022293 0.000000 -0.011106 0.000000
# 4 0.000000 0.000000 0.000000 0.024345 -0.000001 -0.004139
# 5 -0.001606 -0.007112 -0.011106 -0.000001 0.062154 0.000000
# 6 0.000000 0.000000 0.000000 -0.004139 0.000000 0.027841
#
#
# Mechanical properties :
#
#
# Convention : Reuss Voigt Hill
#
# Bulk Modulus (GPa) = 40.94477 58.97458 49.95968
# Shear Modulus (GPa) = 27.62580 35.81863 31.72221
#
# Velocity S-wave (km/s) = 3.74378 4.26293 4.01176
# Velocity P-wave (km/s) = 6.28181 7.35872 6.84149
#
# Compressibility (1/GPa) = 0.02442314
#
# Stress axis : x y z
#
# Youngs Moduli (GPa) = 113.58879 96.43895 44.85703
#
# Poissons Ratio (x) = -0.00725 0.16485
# Poissons Ratio (y) = -0.00854 0.22077
# Poissons Ratio (z) = 0.41745 0.47463
#
# Static dielectric constant tensor:
#      x y z
#    x 1.684680 0.000000 -0.006540 
#    y 0.000000 1.693360 0.000000 
#    z -0.006540 0.000000 1.801970 
# 
# From -- ./inp_files/211434.got.cif
#   From: 2010.05.17/outbox.ucp.g08.bks.cvg/sg15_106_cif.got.tgz:211434.got - 2010.06.11 12:40:34.
