data_PCOD9309250
_publ_section_title
;
Structure prediction by ZEFSAII (Michael W. Deem and Ramdas Pophale) SiO2 
 PCOD9309250
Probable space group: C 2/C
;
_chemical_formula_sum "Si O2"
_cell_formula_units_Z 30
_cell_length_a 21.000000
_cell_length_b 12.000000
_cell_length_c 18.000000
_cell_angle_alpha 90.000000
_cell_angle_beta 40.000000
_cell_angle_gamma 90.000000
_cell_volume 2915.684598
_symmetry_space_group_name_H-M "C 2/C"
_symmetry_group_IT_number 15
_symmetry_cell_setting 'monoclinic'
loop_
_space_group_symop_operation_xyz
x,y,z
-x,y,1/2-z
-x,-y,-z
x,-y,1/2+z
1/2+x,1/2+y,z
1/2-x,1/2+y,1/2-z
1/2-x,1/2-y,-z
1/2+x,1/2-y,1/2+z
loop_
_atom_site_type_symbol
_atom_site_label
_atom_site_fract_x
_atom_site_fract_y
_atom_site_fract_z
Si Si1 0.786430 0.542091 0.847046
Si Si2 0.702955 0.871686 0.527895
Si Si3 0.600343 0.713766 0.002995
Si Si4 0.805695 0.649800 0.208656
Si Si5 0.000000 0.275591 0.750000
Si Si6 0.355043 0.358806 0.270111
Si Si7 0.603532 0.396668 0.806504
Si Si8 0.360376 0.755376 0.366195
O O1 0.768701 0.455218 0.930716
O O2 0.689604 0.620764 0.918205
O O3 0.818895 0.463250 0.747845
O O4 0.863654 0.632414 0.812932
O O5 0.750000 0.750000 0.500000
O O6 0.584458 0.851520 0.634980
O O7 0.759111 0.903441 0.402088
O O8 0.628270 0.816753 0.923317
O O9 0.498258 0.654655 0.072513
O O10 0.582819 0.749581 0.105641
O O11 0.820777 0.757855 0.247794
O O12 0.695066 0.641261 0.275379
O O13 0.061635 0.197048 0.751185
O O14 0.398673 0.469307 0.193657
O O15 0.622005 0.346774 0.706421
O O16 0.250000 0.750000 0.500000
#
# Coordination Sequence:
#
# PCOD9309250 Si02
#       8
#     8   8   8   8   4   8   8   8
#     4  11  22  45  70  97 149 187 226 298 362 419
#     4  10  21  41  66 102 137 185 230 302 350 419
#     4  11  26  46  73 108 139 191 247 298 347 430
#     4  12  25  46  65 105 151 182 225 296 379 419
#     4  10  22  42  66 108 136 184 240 296 364 422
#     4  11  25  42  73 101 141 184 247 302 352 426
#     4  12  26  44  76 105 132 194 241 298 352 427
#     4  10  21  45  71  98 139 184 241 288 348 416
#
# _framework density 10.289179000000001
#
# number of rings (size 3 to 8) (size 9 to 14) (size 15 to 20)
#    0.000    1.067    5.333    2.800    5.600    3.200 
#    2.400    0.667    0.000    0.000    0.000    0.000 
#    0.000    0.000    0.000    0.000    0.000    0.000 
#
# Total GULP energy -167453.005579 kJ/mol
# GULP energy per Si atom -5581.766853 kJ/mol
# Density = 1.026576 g / cm^3
# Si number density = 10.289179 Si / 1000 Ang^3
#
#
#
# Elastic Constant Matrix: (Units=GPa)
#
#
# Indices 1 2 3 4 5 6 
#
# 1 126.3420 45.0801 41.6335 0.0000 6.0104 0.0000
# 2 45.0801 121.0851 27.0324 0.0000 11.2177 0.0000
# 3 41.6335 27.0324 69.2894 0.0000 -7.7551 0.0000
# 4 0.0000 0.0000 0.0000 41.8212 0.0000 8.5812
# 5 6.0104 11.2177 -7.7551 0.0000 40.4845 0.0000
# 6 0.0000 0.0000 0.0000 8.5812 0.0000 42.6787
#
#
#
# Elastic Compliance Matrix: (Units=1/GPa)
#
#
# Indices 1 2 3 4 5 6 
#
# 1 0.010808 -0.002563 -0.005717 0.000000 -0.001989 0.000000
# 2 -0.002563 0.010094 -0.002727 0.000000 -0.002939 0.000000
# 3 -0.005717 -0.002727 0.019529 0.000000 0.005345 0.000000
# 4 0.000000 0.000000 0.000000 0.024940 0.000000 -0.005015
# 5 -0.001989 -0.002939 0.005345 0.000000 0.026834 0.000000
# 6 0.000000 0.000000 0.000000 -0.005015 0.000000 0.024439
#
#
# Mechanical properties :
#
#
# Convention : Reuss Voigt Hill
#
# Bulk Modulus (GPa) = 54.29571 60.46760 57.38166
# Shear Modulus (GPa) = 34.53081 38.52826 36.52954
#
# Velocity S-wave (km/s) = 4.10080 4.33167 4.21782
# Velocity P-wave (km/s) = 6.99030 7.38009 7.18783
#
# Compressibility (1/GPa) = 0.01841766
#
# Stress axis : x y z
#
# Youngs Moduli (GPa) = 92.52282 99.06910 51.20500
#
# Poissons Ratio (x) = 0.25394 0.29273
# Poissons Ratio (y) = 0.23716 0.13962
# Poissons Ratio (z) = 0.52894 0.27014
#
# Static dielectric constant tensor:
#      x y z
#    x 1.789310 0.000000 0.016050 
#    y 0.000000 1.722300 0.000000 
#    z 0.016050 0.000000 1.778750 
# 
# From -- ./inp_files/215185.got.cif
#   From: 2010.05.17/outbox.ucp.g08.bks.cvg/sg15_108_cif.got.tgz:215185.got - 2010.06.11 12:40:34.
