data_PCOD9309446
_publ_section_title
;
Structure prediction by ZEFSAII (Michael W. Deem and Ramdas Pophale) SiO2 
 PCOD9309446
Probable space group: C 2/C
;
_chemical_formula_sum "Si O2"
_cell_formula_units_Z 28
_cell_length_a 24.000000
_cell_length_b 9.000000
_cell_length_c 15.000000
_cell_angle_alpha 90.000000
_cell_angle_beta 120.000000
_cell_angle_gamma 90.000000
_cell_volume 2805.922308
_symmetry_space_group_name_H-M "C 2/C"
_symmetry_group_IT_number 15
_symmetry_cell_setting 'monoclinic'
loop_
_space_group_symop_operation_xyz
x,y,z
-x,y,1/2-z
-x,-y,-z
x,-y,1/2+z
1/2+x,1/2+y,z
1/2-x,1/2+y,1/2-z
1/2-x,1/2-y,-z
1/2+x,1/2-y,1/2+z
loop_
_atom_site_type_symbol
_atom_site_label
_atom_site_fract_x
_atom_site_fract_y
_atom_site_fract_z
Si Si1 0.870606 0.181405 0.377035
Si Si2 0.497372 0.292761 0.097982
Si Si3 0.000000 0.956520 0.750000
Si Si4 0.147229 0.172861 0.664907
Si Si5 0.799227 0.336902 0.973175
Si Si6 0.000000 0.448185 0.750000
Si Si7 0.099286 0.698224 0.791553
Si Si8 0.743625 0.177039 0.594992
O O1 0.868239 0.263378 0.278119
O O2 0.817131 0.250532 0.400891
O O3 0.942533 0.198695 0.477566
O O4 0.856175 0.005557 0.353812
O O5 0.494396 0.440212 0.158007
O O6 0.572032 0.279002 0.123330
O O7 0.479423 0.160135 0.152540
O O8 0.939425 0.847904 0.713903
O O9 0.178249 0.253659 0.601202
O O10 0.193550 0.198914 0.789348
O O11 0.770639 0.500081 0.927535
O O12 0.750000 0.250000 0.000000
O O13 0.858668 0.346200 0.089124
O O14 0.948654 0.559003 0.753754
O O15 0.750000 0.250000 0.500000
#
# Coordination Sequence:
#
# PCOD9309446 Si02
#       8
#     8   8   4   8   8   4   8   8
#     4  12  26  46  74 105 141 184 237 287 351 415
#     4  11  25  43  73 105 140 182 236 290 348 414
#     4  10  22  42  70  98 146 178 228 282 354 406
#     4  12  26  46  75 105 139 183 239 289 347 414
#     4  12  27  46  72  99 141 185 235 286 347 414
#     4  10  26  42  66  98 148 180 226 280 360 406
#     4  11  24  43  69 102 143 182 229 283 351 418
#     4  12  29  48  72 101 143 187 235 287 352 419
#
# _framework density 9.9788940000000004
#
# number of rings (size 3 to 8) (size 9 to 14) (size 15 to 20)
#    0.000    0.571    1.429    5.571   12.000    0.571 
#    0.000    0.000    0.000    0.000    0.000    0.000 
#    0.000    0.000    0.000    0.000    0.000    0.000 
#
# Total GULP energy -156532.355085 kJ/mol
# GULP energy per Si atom -5590.441253 kJ/mol
# Density = 0.995618 g / cm^3
# Si number density = 9.978894 Si / 1000 Ang^3
#
#
#
# Elastic Constant Matrix: (Units=GPa)
#
#
# Indices 1 2 3 4 5 6 
#
# 1 145.7291 39.7456 48.1835 0.0000 -22.1140 0.0000
# 2 39.7456 120.4258 32.0225 0.0000 -13.6548 0.0000
# 3 48.1835 32.0225 167.4284 0.0000 -5.9151 0.0000
# 4 0.0000 0.0000 0.0000 34.4194 0.0000 -13.6583
# 5 -22.1140 -13.6548 -5.9151 0.0000 50.2166 0.0000
# 6 0.0000 0.0000 0.0000 -13.6583 0.0000 32.6888
#
#
#
# Elastic Compliance Matrix: (Units=1/GPa)
#
#
# Indices 1 2 3 4 5 6 
#
# 1 0.008495 -0.001942 -0.001968 0.000000 0.002981 0.000000
# 2 -0.001942 0.009440 -0.001191 0.000000 0.001571 0.000000
# 3 -0.001968 -0.001191 0.006753 0.000000 -0.000395 0.000000
# 4 0.000000 0.000000 0.000000 0.034828 0.000000 0.014552
# 5 0.002981 0.001571 -0.000395 0.000000 0.021607 0.000000
# 6 0.000000 0.000000 0.000000 0.014552 0.000000 0.036672
#
#
# Mechanical properties :
#
#
# Convention : Reuss Voigt Hill
#
# Bulk Modulus (GPa) = 69.03681 74.83185 71.93433
# Shear Modulus (GPa) = 37.64348 44.37373 41.00860
#
# Velocity S-wave (km/s) = 4.34770 4.72039 4.53787
# Velocity P-wave (km/s) = 7.73756 8.20280 7.97357
#
# Compressibility (1/GPa) = 0.01448503
#
# Stress axis : x y z
#
# Youngs Moduli (GPa) = 117.71911 105.93465 148.08548
#
# Poissons Ratio (x) = 0.20576 0.29141
# Poissons Ratio (y) = 0.22865 0.17636
# Poissons Ratio (z) = 0.23166 0.12616
#
# Static dielectric constant tensor:
#      x y z
#    x 1.746130 0.000000 0.053560 
#    y 0.000000 1.697260 0.000000 
#    z 0.053560 0.000000 1.727080 
# 
# From -- ./inp_files/172514.got.cif
#   From: 2010.05.17/outbox.ucp.g08.bks.cvg/sg15_87_cif.got.tgz:172514.got - 2010.06.11 12:40:34.
