data_PCOD9309143
_publ_section_title
;
Structure prediction by ZEFSAII (Michael W. Deem and Ramdas Pophale) SiO2 
 PCOD9309143
Probable space group: C 2/C
;
_chemical_formula_sum "Si O2"
_cell_formula_units_Z 30
_cell_length_a 6.000000
_cell_length_b 27.000000
_cell_length_c 18.000000
_cell_angle_alpha 90.000000
_cell_angle_beta 90.000000
_cell_angle_gamma 90.000000
_cell_volume 2916.000000
_symmetry_space_group_name_H-M "C 2/C"
_symmetry_group_IT_number 15
_symmetry_cell_setting 'monoclinic'
loop_
_space_group_symop_operation_xyz
x,y,z
-x,y,1/2-z
-x,-y,-z
x,-y,1/2+z
1/2+x,1/2+y,z
1/2-x,1/2+y,1/2-z
1/2-x,1/2-y,-z
1/2+x,1/2-y,1/2+z
loop_
_atom_site_type_symbol
_atom_site_label
_atom_site_fract_x
_atom_site_fract_y
_atom_site_fract_z
Si Si1 0.448974 0.175706 0.514595
Si Si2 0.318660 0.636109 0.306734
Si Si3 0.609446 0.605661 0.449211
Si Si4 0.946246 0.722070 0.133042
Si Si5 0.049617 0.519190 0.096390
Si Si6 0.000000 0.445433 0.750000
Si Si7 0.714055 0.926835 0.013416
Si Si8 0.445516 0.768100 0.166172
O O1 0.224381 0.155313 0.477419
O O2 0.530901 0.216696 0.455962
O O3 0.603805 0.126952 0.512873
O O4 0.421457 0.193993 0.597890
O O5 0.500000 0.660200 0.250000
O O6 0.454358 0.621233 0.380366
O O7 0.103735 0.668063 0.331769
O O8 0.212326 0.589179 0.266103
O O9 0.777241 0.562211 0.427028
O O10 0.472754 0.583212 0.517892
O O11 0.694266 0.744119 0.147482
O O12 0.190741 0.741997 0.163532
O O13 0.044543 0.519943 0.182333
O O14 0.105331 0.464880 0.069301
O O15 0.824108 0.541554 0.062108
O O16 0.500000 0.785920 0.250000
#
# Coordination Sequence:
#
# PCOD9309143 Si02
#       8
#     8   8   8   8   8   4   8   8
#     4  11  25  44  70  98 131 180 234 280 345 409
#     4  12  24  37  64 100 143 174 216 285 361 415
#     4  11  20  40  65  97 130 179 228 278 337 412
#     4  12  26  46  70 104 134 182 230 287 351 422
#     4  10  21  37  61  98 131 174 224 274 342 402
#     4  12  22  36  60  94 140 172 212 278 350 406
#     4  10  21  40  64  92 130 175 228 281 324 408
#     4  12  29  48  71 100 141 181 230 293 348 409
#
# _framework density 10.288066000000001
#
# number of rings (size 3 to 8) (size 9 to 14) (size 15 to 20)
#    0.000    0.800    4.000    3.600    5.600    0.000 
#    1.200    0.000    0.000    0.000    0.000    0.000 
#    0.000    0.000    0.000    0.000    0.000    0.000 
#
# Total GULP energy -167039.688714 kJ/mol
# GULP energy per Si atom -5567.989624 kJ/mol
# Density = 1.026465 g / cm^3
# Si number density = 10.288066 Si / 1000 Ang^3
#
#
#
# Elastic Constant Matrix: (Units=GPa)
#
#
# Indices 1 2 3 4 5 6 
#
# 1 88.5917 14.8066 26.8159 0.0000 4.2992 0.0000
# 2 14.8066 15.9466 30.0046 0.0000 -5.9348 0.0000
# 3 26.8159 30.0046 121.5576 0.0000 18.3146 0.0000
# 4 0.0000 0.0000 0.0000 93.8777 0.0000 5.0196
# 5 4.2992 -5.9348 18.3146 0.0000 -0.7681 0.0000
# 6 0.0000 0.0000 0.0000 5.0196 0.0000 -6.2459
#
#
#
# Elastic Compliance Matrix: (Units=1/GPa)
#
#
# Indices 1 2 3 4 5 6 
#
# 1 0.012300 -0.002309 -0.003311 0.000000 0.007746 0.000000
# 2 -0.002309 0.025730 0.005674 0.000000 -0.076434 0.000000
# 3 -0.003311 0.005674 0.003692 0.000000 0.025650 0.000000
# 4 0.000000 0.000000 0.000000 0.010213 0.000000 0.008208
# 5 0.007746 -0.076434 0.025650 0.000000 -0.056368 0.000000
# 6 0.000000 0.000000 0.000000 0.008208 0.000000 -0.153508
#
#
# Mechanical properties :
#
#
# Convention : Reuss Voigt Hill
#
# Bulk Modulus (GPa) = 23.90539 41.03890 32.47215
# Shear Modulus (GPa) = -34.69639 27.67066 -3.51287
#
# Velocity S-wave (km/s) = -4.11085 3.67112 -1.30804
# Velocity P-wave (km/s) = 3.29982 6.16098 3.67892
#
# Compressibility (1/GPa) = 0.04183157
#
# Stress axis : x y z
#
# Youngs Moduli (GPa) = 81.30226 38.86450 270.88293
#
# Poissons Ratio (x) = 0.08973 0.89676
# Poissons Ratio (y) = 0.18771 -1.53703
# Poissons Ratio (z) = 0.26915 -0.22052
#
# Static dielectric constant tensor:
#      x y z
#    x 1.819720 0.000000 -0.022930 
#    y 0.000000 1.753550 0.000000 
#    z -0.022930 0.000000 1.786350 
# 
# From -- ./inp_files/186191.got.cif
#   From: 2010.05.17/outbox.ucp.g08.bks.cvg/sg15_94_cif.got.tgz:186191.got - 2010.06.11 12:40:34.
