data_PCOD9309738
_publ_section_title
;
Structure prediction by ZEFSAII (Michael W. Deem and Ramdas Pophale) SiO2 
 PCOD9309738
Probable space group: C 2/C
;
_chemical_formula_sum "Si O2"
_cell_formula_units_Z 32
_cell_length_a 12.000000
_cell_length_b 21.000000
_cell_length_c 21.000000
_cell_angle_alpha 90.000000
_cell_angle_beta 40.000000
_cell_angle_gamma 90.000000
_cell_volume 3401.632030
_symmetry_space_group_name_H-M "C 2/C"
_symmetry_group_IT_number 15
_symmetry_cell_setting 'monoclinic'
loop_
_space_group_symop_operation_xyz
x,y,z
-x,y,1/2-z
-x,-y,-z
x,-y,1/2+z
1/2+x,1/2+y,z
1/2-x,1/2+y,1/2-z
1/2-x,1/2-y,-z
1/2+x,1/2-y,1/2+z
loop_
_atom_site_type_symbol
_atom_site_label
_atom_site_fract_x
_atom_site_fract_y
_atom_site_fract_z
Si Si1 0.059242 0.802155 0.481834
Si Si2 0.729501 0.765254 0.317027
Si Si3 0.541768 0.444254 0.432156
Si Si4 0.708117 0.597040 0.656565
Si Si5 0.601694 0.040551 0.804425
Si Si6 0.943885 0.676021 0.845957
Si Si7 0.551829 0.778591 0.589687
Si Si8 0.657034 0.926261 0.540329
O O1 0.065175 0.872769 0.449160
O O2 0.243202 0.800916 0.439613
O O3 0.881418 0.789943 0.599219
O O4 0.041442 0.748524 0.433935
O O5 0.767228 0.826494 0.345482
O O6 0.586558 0.791364 0.329047
O O7 0.912652 0.744485 0.204768
O O8 0.500000 0.500000 0.500000
O O9 0.727701 0.462556 0.317096
O O10 0.356168 0.437163 0.476764
O O11 0.500000 0.584855 0.750000
O O12 0.802696 0.562273 0.673090
O O13 0.808551 0.572641 0.550473
O O14 0.475488 0.099735 0.840543
O O15 0.479154 0.978495 0.871234
O O16 0.000000 0.692111 0.750000
O O17 0.750000 0.750000 0.500000
O O18 0.583287 0.854452 0.584083
#
# Coordination Sequence:
#
# PCOD9309738 Si02
#       8
#     8   8   8   8   8   8   8   8
#     4  12  23  43  68  97 134 177 224 270 334 410
#     4  11  25  39  69 101 133 176 221 278 340 395
#     4  12  26  43  67  98 135 177 222 277 338 402
#     4  11  21  43  72  95 129 178 221 270 341 401
#     4  11  25  44  68  95 130 180 224 274 336 404
#     4  11  21  43  69  91 131 182 226 267 334 410
#     4  12  24  43  66 103 137 172 217 278 339 399
#     4  12  25  43  69 100 133 170 227 280 329 402
#
# _framework density 9.4072490000000002
#
# number of rings (size 3 to 8) (size 9 to 14) (size 15 to 20)
#    0.000    0.500    6.250    3.000    1.750    0.000 
#    0.000    0.000    2.750    0.000    0.000    0.000 
#    0.000    0.000    0.000    0.000    0.000    0.000 
#
# Total GULP energy -178465.695380 kJ/mol
# GULP energy per Si atom -5577.052981 kJ/mol
# Density = 0.938584 g / cm^3
# Si number density = 9.407249 Si / 1000 Ang^3
#
#
#
# Elastic Constant Matrix: (Units=GPa)
#
#
# Indices 1 2 3 4 5 6 
#
# 1 92.4552 24.1643 30.8855 -0.0001 -19.7596 0.0022
# 2 24.1643 112.5804 59.4282 0.0116 -8.6916 -0.0018
# 3 30.8855 59.4282 169.6466 0.0143 -21.8367 0.0000
# 4 -0.0001 0.0116 0.0143 46.7871 -0.0020 -8.0725
# 5 -19.7596 -8.6916 -21.8367 -0.0020 43.2453 -0.0020
# 6 0.0022 -0.0018 0.0000 -8.0725 -0.0020 30.5826
#
#
#
# Elastic Compliance Matrix: (Units=1/GPa)
#
#
# Indices 1 2 3 4 5 6 
#
# 1 0.012683 -0.001789 -0.001051 0.000001 0.004905 0.000000
# 2 -0.001789 0.011153 -0.003634 -0.000002 -0.000411 0.000000
# 3 -0.001051 -0.003634 0.007704 -0.000001 0.002679 0.000000
# 4 0.000001 -0.000002 -0.000001 0.022393 0.000001 0.005911
# 5 0.004905 -0.000411 0.002679 0.000001 0.026635 0.000002
# 6 0.000000 0.000000 0.000000 0.005911 0.000002 0.034259
#
#
# Mechanical properties :
#
#
# Convention : Reuss Voigt Hill
#
# Bulk Modulus (GPa) = 53.78682 67.07092 60.42887
# Shear Modulus (GPa) = 37.32097 41.46992 39.39545
#
# Velocity S-wave (km/s) = 4.45863 4.69993 4.58087
# Velocity P-wave (km/s) = 7.42670 8.07331 7.75674
#
# Compressibility (1/GPa) = 0.01859191
#
# Stress axis : x y z
#
# Youngs Moduli (GPa) = 78.84592 89.66046 129.80342
#
# Poissons Ratio (x) = 0.16038 0.13643
# Poissons Ratio (y) = 0.14104 0.47174
# Poissons Ratio (z) = 0.08287 0.32585
#
# Static dielectric constant tensor:
#      x y z
#    x 1.724100 0.000000 0.046020 
#    y 0.000000 1.639180 0.000000 
#    z 0.046020 0.000000 1.665340 
# 
# From -- ./inp_files/240412.got.cif
#   From: 2010.05.17/outbox.ucp.g08.bks.cvg/sg15_121_cif.got.tgz:240412.got - 2010.06.11 12:40:34.
