data_PCOD9309497
_publ_section_title
;
Structure prediction by ZEFSAII (Michael W. Deem and Ramdas Pophale) SiO2 
 PCOD9309497
Probable space group: C 2/C
;
_chemical_formula_sum "Si O2"
_cell_formula_units_Z 32
_cell_length_a 18.000000
_cell_length_b 18.000000
_cell_length_c 15.000000
_cell_angle_alpha 90.000000
_cell_angle_beta 140.000000
_cell_angle_gamma 90.000000
_cell_volume 3123.947783
_symmetry_space_group_name_H-M "C 2/C"
_symmetry_group_IT_number 15
_symmetry_cell_setting 'monoclinic'
loop_
_space_group_symop_operation_xyz
x,y,z
-x,y,1/2-z
-x,-y,-z
x,-y,1/2+z
1/2+x,1/2+y,z
1/2-x,1/2+y,1/2-z
1/2-x,1/2-y,-z
1/2+x,1/2-y,1/2+z
loop_
_atom_site_type_symbol
_atom_site_label
_atom_site_fract_x
_atom_site_fract_y
_atom_site_fract_z
Si Si1 0.180455 0.666228 0.685160
Si Si2 0.159055 0.286533 0.654528
Si Si3 0.743505 0.427659 0.794153
Si Si4 0.502592 0.566334 0.148435
Si Si5 0.749890 0.024649 0.862667
Si Si6 0.994556 0.245482 0.349955
Si Si7 0.517630 0.861108 0.870349
Si Si8 0.400665 0.974963 0.101552
O O1 0.301470 0.706165 0.779276
O O2 0.197491 0.592655 0.758329
O O3 0.123699 0.658028 0.535382
O O4 0.107256 0.716091 0.687397
O O5 0.264898 0.341025 0.732950
O O6 0.101729 0.275529 0.505509
O O7 0.082423 0.326221 0.659568
O O8 0.622447 0.460201 0.715814
O O9 0.776873 0.459353 0.729539
O O10 0.839907 0.440579 0.959019
O O11 0.500000 0.546304 0.250000
O O12 0.502485 0.656028 0.142577
O O13 0.386706 0.536077 0.997963
O O14 0.696843 0.013574 0.912114
O O15 0.000000 0.263564 0.250000
O O16 0.500000 0.835090 0.750000
O O17 0.536317 0.949886 0.874765
O O18 0.500000 0.933008 0.250000
#
# Coordination Sequence:
#
# PCOD9309497 Si02
#       8
#     8   8   8   8   8   8   8   8
#     4  11  23  41  66  97 128 174 221 267 333 389
#     4  11  24  40  67  95 132 174 224 270 330 391
#     4  12  24  41  65  95 130 178 214 271 333 390
#     4  11  22  42  64  93 133 173 214 265 333 395
#     4  12  25  42  67  95 133 174 219 275 327 395
#     4  10  23  38  61  96 135 167 209 265 328 405
#     4  10  23  46  65  92 130 172 225 278 328 385
#     4  11  25  41  65  97 132 170 221 272 333 394
#
# _framework density 10.243449
#
# number of rings (size 3 to 8) (size 9 to 14) (size 15 to 20)
#    0.000    1.000    5.000    1.875    5.250    2.000 
#    0.000    0.000    0.000    1.500    0.000    0.000 
#    0.000    0.000    0.000    0.000    0.000    0.000 
#
# Total GULP energy -178158.401993 kJ/mol
# GULP energy per Si atom -5567.450062 kJ/mol
# Density = 1.022013 g / cm^3
# Si number density = 10.243449 Si / 1000 Ang^3
#
#
#
# Elastic Constant Matrix: (Units=GPa)
#
#
# Indices 1 2 3 4 5 6 
#
# 1 -4.6486 -5.3979 37.7457 0.0000 -20.0116 0.0000
# 2 -5.3979 62.8537 23.2300 0.0000 -9.6264 0.0000
# 3 37.7457 23.2300 115.7411 0.0000 -30.7648 0.0000
# 4 0.0000 0.0000 0.0000 -19.3879 0.0000 -18.8267
# 5 -20.0116 -9.6264 -30.7648 0.0000 44.0392 0.0000
# 6 0.0000 0.0000 0.0000 -18.8267 0.0000 19.2425
#
#
#
# Elastic Compliance Matrix: (Units=1/GPa)
#
#
# Indices 1 2 3 4 5 6 
#
# 1 -0.043308 -0.010430 0.012747 0.000000 -0.013054 0.000000
# 2 -0.010430 0.014772 0.000043 0.000000 -0.001480 0.000000
# 3 0.012747 0.000043 0.007388 0.000000 0.010963 0.000000
# 4 0.000000 0.000000 0.000000 -0.026449 0.000000 -0.025878
# 5 -0.013054 -0.001480 0.010963 0.000000 0.024110 0.000000
# 6 0.000000 0.000000 0.000000 -0.025878 0.000000 0.026649
#
#
# Mechanical properties :
#
#
# Convention : Reuss Voigt Hill
#
# Bulk Modulus (GPa) = -60.87535 31.67796 -14.59869
# Shear Modulus (GPa) = -710.80857 16.66996 -347.06930
#
# Velocity S-wave (km/s) = -18.64701 2.85562 -13.02989
# Velocity P-wave (km/s) = 22.21246 5.13506 15.28111
#
# Compressibility (1/GPa) = -0.01642701
#
# Stress axis : x y z
#
# Youngs Moduli (GPa) = -23.09057 67.69745 135.34941
#
# Poissons Ratio (x) = 0.70607 -1.72530
# Poissons Ratio (y) = -0.24083 -0.00584
# Poissons Ratio (z) = 0.29434 -0.00292
#
# Static dielectric constant tensor:
#      x y z
#    x 1.673970 0.000000 0.044350 
#    y 0.000000 1.750180 0.000000 
#    z 0.044350 0.000000 1.772920 
# 
# From -- ./inp_files/163270.got.cif
#   From: 2010.05.17/outbox.ucp.g08.bks.cvg/sg15_82_cif.got.tgz:163270.got - 2010.06.11 12:40:34.
