data_PCOD9309273
_publ_section_title
;
Structure prediction by ZEFSAII (Michael W. Deem and Ramdas Pophale) SiO2 
 PCOD9309273
Probable space group: C 2/C
;
_chemical_formula_sum "Si O2"
_cell_formula_units_Z 24
_cell_length_a 12.000000
_cell_length_b 15.000000
_cell_length_c 27.000000
_cell_angle_alpha 90.000000
_cell_angle_beta 150.000000
_cell_angle_gamma 90.000000
_cell_volume 2430.000000
_symmetry_space_group_name_H-M "C 2/C"
_symmetry_group_IT_number 15
_symmetry_cell_setting 'monoclinic'
loop_
_space_group_symop_operation_xyz
x,y,z
-x,y,1/2-z
-x,-y,-z
x,-y,1/2+z
1/2+x,1/2+y,z
1/2-x,1/2+y,1/2-z
1/2-x,1/2-y,-z
1/2+x,1/2-y,1/2+z
loop_
_atom_site_type_symbol
_atom_site_label
_atom_site_fract_x
_atom_site_fract_y
_atom_site_fract_z
Si Si1 0.449956 0.641670 0.536737
Si Si2 0.264540 0.820018 0.860652
Si Si3 0.517417 0.972576 0.900473
Si Si4 0.767099 0.187736 0.356288
Si Si5 0.290812 0.991237 0.706765
Si Si6 0.384204 0.828316 0.022047
O O1 0.573923 0.737316 0.595680
O O2 0.225035 0.596883 0.473167
O O3 0.370689 0.655441 0.448929
O O4 0.632736 0.568434 0.624238
O O5 0.346803 0.913042 0.867664
O O6 0.000000 0.802669 0.750000
O O7 0.298658 0.827906 0.932771
O O8 0.393296 0.997133 0.801045
O O9 0.601435 0.069201 0.953405
O O10 0.500000 0.195987 0.250000
O O11 0.826575 0.105786 0.342655
O O12 0.870841 0.283190 0.383981
O O13 0.500000 0.989250 0.750000
O O14 0.250000 0.750000 0.000000
#
# Coordination Sequence:
#
# PCOD9309273 Si02
#       6
#     8   8   8   8   8   8
#     4  11  23  43  71  98 138 179 231 284 343 404
#     4  11  28  48  69 101 143 180 229 282 347 418
#     4  12  26  45  72 102 136 185 223 288 345 412
#     4  10  21  42  66  95 137 177 226 279 338 408
#     4  11  23  39  70 106 138 173 234 288 344 404
#     4  11  27  45  71  99 136 181 231 284 343 407
#
# _framework density 9.8765429999999999
#
# number of rings (size 3 to 8) (size 9 to 14) (size 15 to 20)
#    0.000    1.000    3.333    3.000   11.667    0.667 
#    6.000    0.000    0.000    0.000    0.000    0.000 
#    0.000    0.000    0.000    0.000    0.000    0.000 
#
# Total GULP energy -133773.097584 kJ/mol
# GULP energy per Si atom -5573.879066 kJ/mol
# Density = 0.985406 g / cm^3
# Si number density = 9.876543 Si / 1000 Ang^3
#
#
#
# Elastic Constant Matrix: (Units=GPa)
#
#
# Indices 1 2 3 4 5 6 
#
# 1 83.2451 52.1841 47.2072 -0.0001 -8.0466 0.0000
# 2 52.1841 165.3129 60.8233 -0.0001 -1.6439 -0.0001
# 3 47.2072 60.8233 147.3568 -0.0004 -0.6399 -0.0002
# 4 -0.0001 -0.0001 -0.0004 37.2825 -0.0001 2.2683
# 5 -8.0466 -1.6439 -0.6399 -0.0001 30.5896 0.0000
# 6 0.0000 -0.0001 -0.0002 2.2683 0.0000 31.8621
#
#
#
# Elastic Compliance Matrix: (Units=1/GPa)
#
#
# Indices 1 2 3 4 5 6 
#
# 1 0.017051 -0.003935 -0.003820 0.000000 0.004194 0.000000
# 2 -0.003935 0.008044 -0.002062 0.000000 -0.000646 0.000000
# 3 -0.003820 -0.002062 0.008857 0.000000 -0.000930 0.000000
# 4 0.000000 0.000000 0.000000 0.026939 0.000000 -0.001918
# 5 0.004194 -0.000646 -0.000930 0.000000 0.033740 0.000000
# 6 0.000000 0.000000 0.000000 -0.001918 0.000000 0.031522
#
#
# Mechanical properties :
#
#
# Convention : Reuss Voigt Hill
#
# Bulk Modulus (GPa) = 69.84652 79.59377 74.72015
# Shear Modulus (GPa) = 33.20926 35.66019 34.43473
#
# Velocity S-wave (km/s) = 4.10472 4.25349 4.17976
# Velocity P-wave (km/s) = 7.60930 8.03148 7.82324
#
# Compressibility (1/GPa) = 0.01431711
#
# Stress axis : x y z
#
# Youngs Moduli (GPa) = 58.64635 124.32028 112.90284
#
# Poissons Ratio (x) = 0.48925 0.43129
# Poissons Ratio (y) = 0.23080 0.23283
# Poissons Ratio (z) = 0.22403 0.25637
#
# Static dielectric constant tensor:
#      x y z
#    x 1.750780 0.000000 0.045300 
#    y 0.000000 1.702830 0.000000 
#    z 0.045300 0.000000 1.697530 
# 
# From -- ./inp_files/292992.got.cif
#   From: 2010.05.17/outbox.ucp.g08.bks.cvg/sg15_147_cif.got.tgz:292992.got - 2010.06.11 12:40:34.
