data_PCOD9309504
_publ_section_title
;
Structure prediction by ZEFSAII (Michael W. Deem and Ramdas Pophale) SiO2 
 PCOD9309504
Probable space group: C 2/C
;
_chemical_formula_sum "Si O2"
_cell_formula_units_Z 24
_cell_length_a 12.000000
_cell_length_b 24.000000
_cell_length_c 27.000000
_cell_angle_alpha 90.000000
_cell_angle_beta 160.000000
_cell_angle_gamma 90.000000
_cell_volume 2659.548635
_symmetry_space_group_name_H-M "C 2/C"
_symmetry_group_IT_number 15
_symmetry_cell_setting 'monoclinic'
loop_
_space_group_symop_operation_xyz
x,y,z
-x,y,1/2-z
-x,-y,-z
x,-y,1/2+z
1/2+x,1/2+y,z
1/2-x,1/2+y,1/2-z
1/2-x,1/2-y,-z
1/2+x,1/2-y,1/2+z
loop_
_atom_site_type_symbol
_atom_site_label
_atom_site_fract_x
_atom_site_fract_y
_atom_site_fract_z
Si Si1 0.817080 0.291663 0.848442
Si Si2 0.877378 0.512427 0.146435
Si Si3 0.880566 0.377679 0.589065
Si Si4 0.758535 0.726604 0.105039
Si Si5 0.391202 0.215263 0.604962
Si Si6 0.363523 0.888949 0.248680
O O1 0.500000 0.294802 0.750000
O O2 0.694916 0.248899 0.754995
O O3 0.886016 0.351601 0.854199
O O4 0.134378 0.268779 0.010134
O O5 0.942982 0.560551 0.134612
O O6 0.000000 0.534736 0.250000
O O7 0.044854 0.453335 0.204990
O O8 0.500000 0.500000 0.000000
O O9 0.888298 0.330868 0.635678
O O10 0.517917 0.379417 0.415919
O O11 0.000000 0.746620 0.250000
O O12 0.414198 0.713553 0.986119
O O13 0.250000 0.250000 0.500000
O O14 0.501154 0.150941 0.651519
O O15 0.500000 0.874441 0.250000
#
# Coordination Sequence:
#
# PCOD9309504 Si02
#       6
#     8   8   8   8   8   8
#     4  10  23  40  58  85 119 155 200 247 292 347
#     4  11  21  36  58  90 121 150 191 238 293 356
#     4  12  21  37  63  84 120 160 192 245 298 346
#     4  11  21  34  57  89 118 154 197 237 293 355
#     4  11  21  36  56  87 123 158 193 238 288 357
#     4  11  20  38  57  86 126 155 186 244 297 345
#
# _framework density 9.0240880000000008
#
# number of rings (size 3 to 8) (size 9 to 14) (size 15 to 20)
#    0.000    1.000    6.667    2.500    2.333    1.333 
#    0.000    0.000    0.000    1.000    0.000    0.000 
#    0.000    0.000    0.000    0.000    0.000    0.000 
#
# Total GULP energy -133748.533484 kJ/mol
# GULP energy per Si atom -5572.855562 kJ/mol
# Density = 0.900355 g / cm^3
# Si number density = 9.024088 Si / 1000 Ang^3
#
#
#
# Elastic Constant Matrix: (Units=GPa)
#
#
# Indices 1 2 3 4 5 6 
#
# 1 54.9348 49.4987 34.1090 -0.0093 -7.4175 0.0044
# 2 49.4987 124.7183 32.2803 0.0061 -15.1623 0.0024
# 3 34.1090 32.2803 102.9589 -0.1418 -13.9912 0.0124
# 4 -0.0093 0.0061 -0.1418 51.2278 -0.0064 -2.3033
# 5 -7.4175 -15.1623 -13.9912 -0.0064 34.1738 -0.0114
# 6 0.0044 0.0024 0.0124 -2.3033 -0.0114 39.6199
#
#
#
# Elastic Compliance Matrix: (Units=1/GPa)
#
#
# Indices 1 2 3 4 5 6 
#
# 1 0.032818 -0.011198 -0.007485 -0.000014 -0.000910 -0.000002
# 2 -0.011198 0.012830 0.000138 -0.000003 0.003318 0.000001
# 3 -0.007485 0.000138 0.012640 0.000034 0.003612 0.000000
# 4 -0.000014 -0.000003 0.000034 0.019572 0.000014 0.001138
# 5 -0.000910 0.003318 0.003612 0.000014 0.032016 0.000009
# 6 -0.000002 0.000001 0.000000 0.001138 0.000009 0.025306
#
#
# Mechanical properties :
#
#
# Convention : Reuss Voigt Hill
#
# Bulk Modulus (GPa) = 47.17410 57.15422 52.16416
# Shear Modulus (GPa) = 27.88040 36.11924 31.99982
#
# Velocity S-wave (km/s) = 3.93463 4.47841 4.21530
# Velocity P-wave (km/s) = 6.84371 7.64708 7.25652
#
# Compressibility (1/GPa) = 0.02119807
#
# Stress axis : x y z
#
# Youngs Moduli (GPa) = 30.47104 77.94139 79.11548
#
# Poissons Ratio (x) = 0.87281 0.59217
# Poissons Ratio (y) = 0.34122 -0.01093
# Poissons Ratio (z) = 0.22807 -0.01077
#
# Static dielectric constant tensor:
#      x y z
#    x 1.680710 -0.000020 -0.023860 
#    y -0.000020 1.675220 -0.000090 
#    z -0.023860 -0.000090 1.637770 
# 
# From -- ./inp_files/31932.got.cif
#   From: 2010.05.17/outbox.ucp.g08.bks.cvg/sg15_16_cif.got.tgz:31932.got - 2010.06.11 12:40:34.
