data_PCOD9309836
_publ_section_title
;
Structure prediction by ZEFSAII (Michael W. Deem and Ramdas Pophale) SiO2 
 PCOD9309836
Probable space group: C 2/C
;
_chemical_formula_sum "Si O2"
_cell_formula_units_Z 24
_cell_length_a 12.000000
_cell_length_b 9.000000
_cell_length_c 27.000000
_cell_angle_alpha 90.000000
_cell_angle_beta 120.000000
_cell_angle_gamma 90.000000
_cell_volume 2525.330077
_symmetry_space_group_name_H-M "C 2/C"
_symmetry_group_IT_number 15
_symmetry_cell_setting 'monoclinic'
loop_
_space_group_symop_operation_xyz
x,y,z
-x,y,1/2-z
-x,-y,-z
x,-y,1/2+z
1/2+x,1/2+y,z
1/2-x,1/2+y,1/2-z
1/2-x,1/2-y,-z
1/2+x,1/2-y,1/2+z
loop_
_atom_site_type_symbol
_atom_site_label
_atom_site_fract_x
_atom_site_fract_y
_atom_site_fract_z
Si Si1 0.916449 0.062963 0.622370
Si Si2 0.087572 0.083253 0.559827
Si Si3 0.622512 0.061340 0.061643
Si Si4 0.113770 0.524900 0.676923
Si Si5 0.329641 0.626038 0.290335
Si Si6 0.837526 0.605092 0.145970
O O1 0.996980 0.083967 0.589164
O O2 0.873663 0.224320 0.636521
O O3 0.032092 0.966602 0.676808
O O4 0.773588 0.985898 0.583103
O O5 0.115784 0.258349 0.556803
O O6 0.222262 0.987825 0.592374
O O7 0.000000 0.000000 0.500000
O O8 0.603650 0.003500 0.114801
O O9 0.500000 0.000000 0.000000
O O10 0.237760 0.429684 0.724611
O O11 0.976412 0.475039 0.670255
O O12 0.137550 0.697611 0.697910
O O13 0.230363 0.603832 0.314896
#
# Coordination Sequence:
#
# PCOD9309836 Si02
#       6
#     8   8   8   8   8   8
#     4  11  24  47  73 100 142 183 231 292 346 416
#     4  11  26  43  72 101 138 188 235 281 346 417
#     4  12  27  45  72 104 142 189 233 284 357 416
#     4  12  25  46  73 102 143 183 234 295 348 420
#     4  11  26  45  71 104 138 183 235 288 361 416
#     4  11  23  46  70 103 137 179 234 290 356 415
#
# _framework density 9.5037079999999996
#
# number of rings (size 3 to 8) (size 9 to 14) (size 15 to 20)
#    0.000    0.667    3.333    3.500    7.000    2.667 
#    3.000    0.000    0.000    0.000    0.000    0.000 
#    0.000    0.000    0.000    0.000    0.000    0.000 
#
# Total GULP energy -133706.080523 kJ/mol
# GULP energy per Si atom -5571.086688 kJ/mol
# Density = 0.948208 g / cm^3
# Si number density = 9.503708 Si / 1000 Ang^3
#
#
#
# Elastic Constant Matrix: (Units=GPa)
#
#
# Indices 1 2 3 4 5 6 
#
# 1 164.1787 52.4304 47.2360 0.0000 39.7283 0.0000
# 2 52.4304 168.1805 71.9544 0.0000 25.1485 0.0000
# 3 47.2360 71.9544 149.0015 0.0000 33.6738 0.0000
# 4 0.0000 0.0000 0.0000 37.7816 0.0000 13.6815
# 5 39.7283 25.1485 33.6738 0.0000 48.1005 0.0000
# 6 0.0000 0.0000 0.0000 13.6815 0.0000 58.3720
#
#
#
# Elastic Compliance Matrix: (Units=1/GPa)
#
#
# Indices 1 2 3 4 5 6 
#
# 1 0.008048 -0.001423 -0.000630 0.000000 -0.005463 0.000000
# 2 -0.001423 0.007857 -0.003184 0.000000 -0.000704 0.000000
# 3 -0.000630 -0.003184 0.009450 0.000000 -0.004431 0.000000
# 4 0.000000 0.000000 0.000000 0.028923 0.000000 -0.006779
# 5 -0.005463 -0.000704 -0.004431 0.000000 0.028771 0.000000
# 6 0.000000 0.000000 0.000000 -0.006779 0.000000 0.018720
#
#
# Mechanical properties :
#
#
# Convention : Reuss Voigt Hill
#
# Bulk Modulus (GPa) = 67.19603 91.62250 79.40926
# Shear Modulus (GPa) = 42.66056 49.50014 46.08035
#
# Velocity S-wave (km/s) = 4.74267 5.10873 4.92910
# Velocity P-wave (km/s) = 8.08825 9.11630 8.61762
#
# Compressibility (1/GPa) = 0.01488183
#
# Stress axis : x y z
#
# Youngs Moduli (GPa) = 124.24864 127.27358 105.81983
#
# Poissons Ratio (x) = 0.18108 0.06665
# Poissons Ratio (y) = 0.17678 0.33695
# Poissons Ratio (z) = 0.07826 0.40527
#
# Static dielectric constant tensor:
#      x y z
#    x 1.644840 0.000000 -0.025360 
#    y 0.000000 1.686400 0.000000 
#    z -0.025360 0.000000 1.723300 
# 
# From -- ./inp_files/291298.got.cif
#   From: 2010.05.17/outbox.ucp.g08.bks.cvg/sg15_146_cif.got.tgz:291298.got - 2010.06.11 12:40:34.
