data_PCOD9309366
_publ_section_title
;
Structure prediction by ZEFSAII (Michael W. Deem and Ramdas Pophale) SiO2 
 PCOD9309366
Probable space group: C 2/C
;
_chemical_formula_sum "Si O2"
_cell_formula_units_Z 32
_cell_length_a 27.000000
_cell_length_b 9.000000
_cell_length_c 15.000000
_cell_angle_alpha 90.000000
_cell_angle_beta 70.000000
_cell_angle_gamma 90.000000
_cell_volume 3425.179603
_symmetry_space_group_name_H-M "C 2/C"
_symmetry_group_IT_number 15
_symmetry_cell_setting 'monoclinic'
loop_
_space_group_symop_operation_xyz
x,y,z
-x,y,1/2-z
-x,-y,-z
x,-y,1/2+z
1/2+x,1/2+y,z
1/2-x,1/2+y,1/2-z
1/2-x,1/2-y,-z
1/2+x,1/2-y,1/2+z
loop_
_atom_site_type_symbol
_atom_site_label
_atom_site_fract_x
_atom_site_fract_y
_atom_site_fract_z
Si Si1 0.684158 0.344802 0.197970
Si Si2 0.615777 0.841687 0.883648
Si Si3 0.494970 0.216667 0.152157
Si Si4 0.910163 0.844065 0.921339
Si Si5 0.479220 0.453301 0.612371
Si Si6 0.315032 0.854757 0.138314
Si Si7 0.630781 0.336492 0.750189
Si Si8 0.381717 0.694034 0.944163
O O1 0.654145 0.252840 0.294438
O O2 0.749872 0.347103 0.163529
O O3 0.664963 0.513947 0.220996
O O4 0.653441 0.289351 0.125759
O O5 0.555356 0.854820 0.874218
O O6 0.651633 0.988773 0.881798
O O7 0.606125 0.754141 0.983051
O O8 0.500000 0.156054 0.250000
O O9 0.476740 0.389768 0.165656
O O10 0.558506 0.230306 0.085832
O O11 0.887428 0.794282 0.839261
O O12 0.973822 0.852112 0.878694
O O13 0.892478 0.016595 0.946219
O O14 0.500000 0.500000 0.500000
O O15 0.422566 0.375302 0.659757
O O16 0.332693 0.781500 0.221456
O O17 0.343962 0.756919 0.044400
#
# Coordination Sequence:
#
# PCOD9309366 Si02
#       8
#     8   8   8   8   8   8   8   8
#     4  11  22  46  69  88 120 173 230 269 307 379
#     4  12  24  41  64  96 133 170 206 265 338 395
#     4  11  19  38  65  95 123 161 217 266 321 385
#     4  10  22  39  67  94 123 162 212 265 321 381
#     4  11  17  34  67  96 122 156 213 271 307 370
#     4  12  27  40  61  96 134 171 209 264 330 395
#     4  11  22  42  63  94 125 165 220 266 311 377
#     4  10  22  41  69  94 122 163 219 274 316 380
#
# _framework density 9.3425759999999993
#
# number of rings (size 3 to 8) (size 9 to 14) (size 15 to 20)
#    0.000    1.000    3.750    5.250    0.000    1.500 
#    0.000    6.875    0.000    0.000    0.000    0.000 
#    0.000    0.000    0.000    0.000    0.000    0.000 
#
# Total GULP energy -178284.728893 kJ/mol
# GULP energy per Si atom -5571.397778 kJ/mol
# Density = 0.932131 g / cm^3
# Si number density = 9.342576 Si / 1000 Ang^3
#
#
#
# Elastic Constant Matrix: (Units=GPa)
#
#
# Indices 1 2 3 4 5 6 
#
# 1 206.2044 33.7755 61.6741 0.0000 -8.4466 0.0000
# 2 33.7755 42.2418 25.3355 0.0000 3.0982 0.0000
# 3 61.6741 25.3355 116.2558 0.0000 9.2259 0.0000
# 4 0.0000 0.0000 0.0000 26.1814 0.0000 -0.4195
# 5 -8.4466 3.0982 9.2259 0.0000 46.4436 0.0000
# 6 0.0000 0.0000 0.0000 -0.4195 0.0000 32.9084
#
#
#
# Elastic Compliance Matrix: (Units=1/GPa)
#
#
# Indices 1 2 3 4 5 6 
#
# 1 0.006330 -0.003563 -0.002735 0.000000 0.001932 0.000000
# 2 -0.003563 0.029257 -0.004348 0.000000 -0.001736 0.000000
# 3 -0.002735 -0.004348 0.011193 0.000000 -0.002431 0.000000
# 4 0.000000 0.000000 0.000000 0.038203 0.000000 0.000487
# 5 0.001932 -0.001736 -0.002431 0.000000 0.022482 0.000000
# 6 0.000000 0.000000 0.000000 0.000487 0.000000 0.030394
#
#
# Mechanical properties :
#
#
# Convention : Reuss Voigt Hill
#
# Bulk Modulus (GPa) = 39.23336 67.36359 53.29847
# Shear Modulus (GPa) = 29.82450 37.36780 33.59615
#
# Velocity S-wave (km/s) = 3.99953 4.47684 4.24490
# Velocity P-wave (km/s) = 6.50930 7.92799 7.25341
#
# Compressibility (1/GPa) = 0.02548852
#
# Stress axis : x y z
#
# Youngs Moduli (GPa) = 157.96892 34.17958 89.33962
#
# Poissons Ratio (x) = 0.12178 0.24436
# Poissons Ratio (y) = 0.56282 0.38846
# Poissons Ratio (z) = 0.43207 0.14862
#
# Static dielectric constant tensor:
#      x y z
#    x 1.673790 0.000000 0.030160 
#    y 0.000000 1.662170 0.000000 
#    z 0.030160 0.000000 1.696060 
# 
# From -- ./inp_files/176551.got.cif
#   From: 2010.05.17/outbox.ucp.g08.bks.cvg/sg15_89_cif.got.tgz:176551.got - 2010.06.11 12:40:34.
