data_PCOD9309365
_publ_section_title
;
Structure prediction by ZEFSAII (Michael W. Deem and Ramdas Pophale) SiO2 
 PCOD9309365
Probable space group: C 2/C
;
_chemical_formula_sum "Si O2"
_cell_formula_units_Z 22
_cell_length_a 21.000000
_cell_length_b 12.000000
_cell_length_c 9.000000
_cell_angle_alpha 90.000000
_cell_angle_beta 110.000000
_cell_angle_gamma 90.000000
_cell_volume 2131.222864
_symmetry_space_group_name_H-M "C 2/C"
_symmetry_group_IT_number 15
_symmetry_cell_setting 'monoclinic'
loop_
_space_group_symop_operation_xyz
x,y,z
-x,y,1/2-z
-x,-y,-z
x,-y,1/2+z
1/2+x,1/2+y,z
1/2-x,1/2+y,1/2-z
1/2-x,1/2-y,-z
1/2+x,1/2-y,1/2+z
loop_
_atom_site_type_symbol
_atom_site_label
_atom_site_fract_x
_atom_site_fract_y
_atom_site_fract_z
Si Si1 0.267576 0.514235 0.380955
Si Si2 0.459120 0.088408 0.064042
Si Si3 0.444164 0.255914 0.474979
Si Si4 0.665365 0.931500 0.540999
Si Si5 0.631490 0.587935 0.783807
Si Si6 0.000000 0.064290 0.250000
O O1 0.219383 0.438510 0.449071
O O2 0.212561 0.573196 0.226880
O O3 0.318351 0.583101 0.532325
O O4 0.319278 0.449861 0.312476
O O5 0.500000 0.085920 0.250000
O O6 0.482699 0.203453 0.008734
O O7 0.500000 0.000000 0.000000
O O8 0.381829 0.044422 0.004134
O O9 0.391046 0.167474 0.506839
O O10 0.403533 0.297157 0.296248
O O11 0.465023 0.357349 0.597795
O O12 0.564843 0.508882 0.748284
#
# Coordination Sequence:
#
# PCOD9309365 Si02
#       6
#     8   8   8   8   8   4
#     4  10  23  44  66  91 141 172 206 276 323 397
#     4  10  22  39  67 103 137 165 213 271 326 392
#     4  11  25  39  72  99 126 176 224 270 338 382
#     4  10  22  42  68 101 136 165 209 272 337 397
#     4  11  24  47  65  93 129 176 227 267 322 383
#     4  12  26  44  70  92 132 172 226 292 308 382
#
# _framework density 10.322711999999999
#
# number of rings (size 3 to 8) (size 9 to 14) (size 15 to 20)
#    0.000    1.455    1.818    2.727    8.909    1.455 
#    0.000    0.000    0.000    0.000    0.000    0.000 
#    0.000    0.000    0.000    0.000    0.000    0.000 
#
# Total GULP energy -122667.004037 kJ/mol
# GULP energy per Si atom -5575.772911 kJ/mol
# Density = 1.029922 g / cm^3
# Si number density = 10.322712 Si / 1000 Ang^3
#
#
#
# Elastic Constant Matrix: (Units=GPa)
#
#
# Indices 1 2 3 4 5 6 
#
# 1 164.3257 39.7194 31.2313 0.0000 7.9363 0.0000
# 2 39.7194 60.4024 10.7220 0.0000 -1.9608 0.0000
# 3 31.2313 10.7220 94.7911 0.0000 7.8950 0.0000
# 4 0.0000 0.0000 0.0000 2.6428 0.0000 20.6120
# 5 7.9363 -1.9608 7.8950 0.0000 49.3564 0.0000
# 6 0.0000 0.0000 0.0000 20.6120 0.0000 21.8476
#
#
#
# Elastic Compliance Matrix: (Units=1/GPa)
#
#
# Indices 1 2 3 4 5 6 
#
# 1 0.007641 -0.004725 -0.001890 0.000000 -0.001114 0.000000
# 2 -0.004725 0.019865 -0.000830 0.000000 0.001682 0.000000
# 3 -0.001890 -0.000830 0.011395 0.000000 -0.001552 0.000000
# 4 0.000000 0.000000 0.000000 -0.059511 0.000000 0.056146
# 5 -0.001114 0.001682 -0.001552 0.000000 0.020755 0.000000
# 6 0.000000 0.000000 0.000000 0.056146 0.000000 -0.007199
#
#
# Mechanical properties :
#
#
# Convention : Reuss Voigt Hill
#
# Bulk Modulus (GPa) = 41.64939 53.65162 47.65050
# Shear Modulus (GPa) = 315.66719 30.62580 173.14650
#
# Velocity S-wave (km/s) = 12.37866 3.85570 9.16782
# Velocity P-wave (km/s) = 14.98419 6.77240 11.62737
#
# Compressibility (1/GPa) = 0.02400996
#
# Stress axis : x y z
#
# Youngs Moduli (GPa) = 130.88007 50.34077 87.75445
#
# Poissons Ratio (x) = 0.23786 0.16587
# Poissons Ratio (y) = 0.61840 0.07286
# Poissons Ratio (z) = 0.24738 0.04180
#
# Static dielectric constant tensor:
#      x y z
#    x 1.694060 0.000000 -0.007910 
#    y 0.000000 1.774540 0.000000 
#    z -0.007910 0.000000 1.724580 
# 
# From -- ./inp_files/54544.got.cif
#   From: 2010.05.17/outbox.ucp.g08.bks.cvg/sg15_28_cif.got.tgz:54544.got - 2010.06.11 12:40:34.
