data_PCOD9309613
_publ_section_title
;
Structure prediction by ZEFSAII (Michael W. Deem and Ramdas Pophale) SiO2 
 PCOD9309613
Probable space group: C 2/C
;
_chemical_formula_sum "Si O2"
_cell_formula_units_Z 24
_cell_length_a 12.000000
_cell_length_b 12.000000
_cell_length_c 18.000000
_cell_angle_alpha 90.000000
_cell_angle_beta 70.000000
_cell_angle_gamma 90.000000
_cell_volume 2435.683273
_symmetry_space_group_name_H-M "C 2/C"
_symmetry_group_IT_number 15
_symmetry_cell_setting 'monoclinic'
loop_
_space_group_symop_operation_xyz
x,y,z
-x,y,1/2-z
-x,-y,-z
x,-y,1/2+z
1/2+x,1/2+y,z
1/2-x,1/2+y,1/2-z
1/2-x,1/2-y,-z
1/2+x,1/2-y,1/2+z
loop_
_atom_site_type_symbol
_atom_site_label
_atom_site_fract_x
_atom_site_fract_y
_atom_site_fract_z
Si Si1 0.383222 0.420407 0.830261
Si Si2 0.124297 0.951710 0.492707
Si Si3 0.975043 0.493478 0.342571
Si Si4 0.281382 0.171256 0.422672
Si Si5 0.277613 0.873826 0.177561
Si Si6 0.772473 0.318440 0.350521
O O1 0.500000 0.413573 0.750000
O O2 0.316638 0.536072 0.829591
O O3 0.305105 0.310463 0.833552
O O4 0.391883 0.418342 0.917784
O O5 0.166901 0.849593 0.430933
O O6 0.207572 0.057758 0.453956
O O7 0.000000 0.000000 0.500000
O O8 0.912337 0.609384 0.386233
O O9 0.882162 0.389974 0.359522
O O10 0.000000 0.517794 0.250000
O O11 0.092728 0.438291 0.354540
O O12 0.250000 0.250000 0.500000
O O13 0.242819 0.255048 0.362371
O O14 0.252787 0.858912 0.270891
#
# Coordination Sequence:
#
# PCOD9309613 Si02
#       6
#     8   8   8   8   8   8
#     4  12  25  43  69 102 136 177 234 277 346 427
#     4  11  25  45  68 101 137 176 227 289 347 404
#     4   9  22  43  67  94 130 177 231 278 343 422
#     4  11  24  45  64  99 139 171 225 290 341 420
#     4  11  24  43  70  99 133 188 224 284 360 406
#     4  10  24  44  69  95 134 181 229 281 342 420
#
# _framework density 9.8534980000000001
#
# number of rings (size 3 to 8) (size 9 to 14) (size 15 to 20)
#    0.000    1.333    1.667    3.000   11.667    2.667 
#    0.000    0.000    0.000    0.000    0.000    0.000 
#    0.000    0.000    0.000    0.000    0.000    0.000 
#
# Total GULP energy -133616.980833 kJ/mol
# GULP energy per Si atom -5567.374201 kJ/mol
# Density = 0.983107 g / cm^3
# Si number density = 9.853498 Si / 1000 Ang^3
#
#
#
# Elastic Constant Matrix: (Units=GPa)
#
#
# Indices 1 2 3 4 5 6 
#
# 1 28.5945 -19.6998 31.9052 0.0000 -11.0586 0.0000
# 2 -19.6998 74.7722 18.4099 0.0000 -9.1980 0.0000
# 3 31.9052 18.4099 132.8440 0.0000 -5.0716 0.0000
# 4 0.0000 0.0000 0.0000 38.1829 0.0000 5.8706
# 5 -11.0586 -9.1980 -5.0716 0.0000 33.0482 0.0000
# 6 0.0000 0.0000 0.0000 5.8706 0.0000 32.3274
#
#
#
# Elastic Compliance Matrix: (Units=1/GPa)
#
#
# Indices 1 2 3 4 5 6 
#
# 1 0.127717 0.048635 -0.035473 0.000000 0.050829 0.000000
# 2 0.048635 0.032801 -0.015347 0.000000 0.023049 0.000000
# 3 -0.035473 -0.015347 0.017661 0.000000 -0.013431 0.000000
# 4 0.000000 0.000000 0.000000 0.026942 0.000000 -0.004893
# 5 0.050829 0.023049 -0.013431 0.000000 0.051621 0.000000
# 6 0.000000 0.000000 0.000000 -0.004893 0.000000 0.031822
#
#
# Mechanical properties :
#
#
# Convention : Reuss Voigt Hill
#
# Bulk Modulus (GPa) = 5.75340 33.04903 19.40122
# Shear Modulus (GPa) = 14.25031 34.41807 24.33419
#
# Velocity S-wave (km/s) = 2.69199 4.18364 3.51778
# Velocity P-wave (km/s) = 3.54798 6.33591 5.13478
#
# Compressibility (1/GPa) = 0.17381030
#
# Stress axis : x y z
#
# Youngs Moduli (GPa) = 7.82984 30.48646 56.62105
#
# Poissons Ratio (x) = -1.48272 2.00853
# Poissons Ratio (y) = -0.38081 0.86894
# Poissons Ratio (z) = 0.27775 0.46786
#
# Static dielectric constant tensor:
#      x y z
#    x 1.198080 0.000000 -0.071930 
#    y 0.000000 1.869280 0.000000 
#    z -0.071930 0.000000 1.622770 
# 
# From -- ./inp_files/196493.got.cif
#   From: 2010.05.17/outbox.ucp.g08.bks.cvg/sg15_99_cif.got.tgz:196493.got - 2010.06.11 12:40:34.
