data_PCOD9309460
_publ_section_title
;
Structure prediction by ZEFSAII (Michael W. Deem and Ramdas Pophale) SiO2 
 PCOD9309460
Probable space group: C 2/C
;
_chemical_formula_sum "Si O2"
_cell_formula_units_Z 24
_cell_length_a 18.000000
_cell_length_b 15.000000
_cell_length_c 18.000000
_cell_angle_alpha 90.000000
_cell_angle_beta 150.000000
_cell_angle_gamma 90.000000
_cell_volume 2430.000000
_symmetry_space_group_name_H-M "C 2/C"
_symmetry_group_IT_number 15
_symmetry_cell_setting 'monoclinic'
loop_
_space_group_symop_operation_xyz
x,y,z
-x,y,1/2-z
-x,-y,-z
x,-y,1/2+z
1/2+x,1/2+y,z
1/2-x,1/2+y,1/2-z
1/2-x,1/2-y,-z
1/2+x,1/2-y,1/2+z
loop_
_atom_site_type_symbol
_atom_site_label
_atom_site_fract_x
_atom_site_fract_y
_atom_site_fract_z
Si Si1 0.160490 0.494105 0.348121
Si Si2 0.960325 0.142874 0.425927
Si Si3 0.732093 0.533660 0.726819
Si Si4 0.114162 0.695335 0.284148
Si Si5 0.371237 0.186178 0.945778
Si Si6 0.863167 0.831957 0.574081
O O1 0.180520 0.471678 0.276997
O O2 0.190305 0.601127 0.374508
O O3 0.269571 0.424542 0.484810
O O4 0.000000 0.483641 0.250000
O O5 0.902194 0.233229 0.414071
O O6 0.083873 0.093085 0.583563
O O7 0.050192 0.173507 0.430078
O O8 0.831034 0.065609 0.304680
O O9 0.827485 0.592598 0.868096
O O10 0.232237 0.773011 0.371197
O O11 0.000000 0.720933 0.250000
O O12 0.013230 0.677312 0.123218
O O13 0.750000 0.750000 0.500000
O O14 0.000000 0.836371 0.750000
#
# Coordination Sequence:
#
# PCOD9309460 Si02
#       6
#     8   8   8   8   8   8
#     4  10  23  45  66  99 147 176 232 290 343 412
#     4  10  23  42  67 101 143 177 236 286 344 420
#     4  10  22  43  69  98 138 188 226 290 351 412
#     4  11  25  44  66  99 135 179 229 289 342 416
#     4  12  23  43  71 100 132 185 235 286 351 420
#     4  11  26  43  70 103 141 188 227 279 353 416
#
# _framework density 9.8765429999999999
#
# number of rings (size 3 to 8) (size 9 to 14) (size 15 to 20)
#    0.000    1.333    3.333    1.000    7.000    3.333 
#    0.000    1.667    0.000    0.000    0.000    0.000 
#    0.000    0.000    0.000    0.000    0.000    0.000 
#
# Total GULP energy -133992.397746 kJ/mol
# GULP energy per Si atom -5583.016573 kJ/mol
# Density = 0.985406 g / cm^3
# Si number density = 9.876543 Si / 1000 Ang^3
#
#
#
# Elastic Constant Matrix: (Units=GPa)
#
#
# Indices 1 2 3 4 5 6 
#
# 1 113.6417 40.4253 5.1262 0.0000 17.8480 0.0000
# 2 40.4253 113.7531 30.5424 0.0000 2.2952 0.0000
# 3 5.1262 30.5424 81.6750 0.0000 -4.5437 0.0000
# 4 0.0000 0.0000 0.0000 39.0305 0.0000 4.2451
# 5 17.8480 2.2952 -4.5437 0.0000 25.7052 0.0000
# 6 0.0000 0.0000 0.0000 4.2451 0.0000 42.2473
#
#
#
# Elastic Compliance Matrix: (Units=1/GPa)
#
#
# Indices 1 2 3 4 5 6 
#
# 1 0.011377 -0.003989 0.000362 0.000000 -0.007479 0.000000
# 2 -0.003989 0.011231 -0.003889 0.000000 0.001080 0.000000
# 3 0.000362 -0.003889 0.013817 0.000000 0.002538 0.000000
# 4 0.000000 0.000000 0.000000 0.025904 0.000000 -0.002603
# 5 -0.007479 0.001080 0.002538 0.000000 0.044448 0.000000
# 6 0.000000 0.000000 0.000000 -0.002603 0.000000 0.023932
#
#
# Mechanical properties :
#
#
# Convention : Reuss Voigt Hill
#
# Bulk Modulus (GPa) = 46.74947 51.25083 49.00015
# Shear Modulus (GPa) = 32.70681 36.92832 34.81756
#
# Velocity S-wave (km/s) = 4.07354 4.32846 4.20293
# Velocity P-wave (km/s) = 6.77077 7.14022 6.95795
#
# Compressibility (1/GPa) = 0.02139061
#
# Stress axis : x y z
#
# Youngs Moduli (GPa) = 87.89621 89.03748 72.37644
#
# Poissons Ratio (x) = 0.35520 -0.02618
# Poissons Ratio (y) = 0.35065 0.28151
# Poissons Ratio (z) = -0.03179 0.34631
#
# Static dielectric constant tensor:
#      x y z
#    x 1.725600 0.000000 -0.006660 
#    y 0.000000 1.685620 0.000000 
#    z -0.006660 0.000000 1.706220 
# 
# From -- ./inp_files/47472.got.cif
#   From: 2010.05.17/outbox.ucp.g08.bks.cvg/sg15_24_cif.got.tgz:47472.got - 2010.06.11 12:40:34.
