data_PCOD9309555
_publ_section_title
;
Structure prediction by ZEFSAII (Michael W. Deem and Ramdas Pophale) SiO2 
 PCOD9309555
Probable space group: C 2/C
;
_chemical_formula_sum "Si O2"
_cell_formula_units_Z 28
_cell_length_a 18.000000
_cell_length_b 15.000000
_cell_length_c 12.000000
_cell_angle_alpha 90.000000
_cell_angle_beta 120.000000
_cell_angle_gamma 90.000000
_cell_volume 2805.922308
_symmetry_space_group_name_H-M "C 2/C"
_symmetry_group_IT_number 15
_symmetry_cell_setting 'monoclinic'
loop_
_space_group_symop_operation_xyz
x,y,z
-x,y,1/2-z
-x,-y,-z
x,-y,1/2+z
1/2+x,1/2+y,z
1/2-x,1/2+y,1/2-z
1/2-x,1/2-y,-z
1/2+x,1/2-y,1/2+z
loop_
_atom_site_type_symbol
_atom_site_label
_atom_site_fract_x
_atom_site_fract_y
_atom_site_fract_z
Si Si1 0.611512 0.374140 0.991159
Si Si2 0.000000 0.986772 0.750000
Si Si3 0.088010 0.310655 0.381555
Si Si4 0.193255 0.432207 0.113805
Si Si5 0.993886 0.394354 0.518151
Si Si6 0.119137 0.142353 0.754659
Si Si7 0.793443 0.465740 0.119928
Si Si8 0.000000 0.292729 0.750000
O O1 0.532800 0.425010 0.874710
O O2 0.630947 0.283820 0.938406
O O3 0.591977 0.349374 0.104576
O O4 0.694260 0.437136 0.044136
O O5 0.923926 0.051960 0.731753
O O6 0.146293 0.380352 0.358798
O O7 0.000000 0.295153 0.250000
O O8 0.056690 0.350907 0.475771
O O9 0.279030 0.372910 0.172765
O O10 0.194894 0.489175 0.235622
O O11 0.107540 0.374768 0.067520
O O12 0.189247 0.476868 0.983858
O O13 0.000000 0.500000 0.500000
O O14 0.012734 0.357956 0.654857
O O15 0.080687 0.223817 0.798645
#
# Coordination Sequence:
#
# PCOD9309555 Si02
#       8
#     8   4   8   8   8   8   8   4
#     4  11  22  41  65  96 133 174 228 274 338 395
#     4  11  20  38  69  92 128 182 219 282 334 407
#     4  12  23  41  64  97 132 175 223 277 325 406
#     4  11  24  42  68  99 135 179 226 274 337 405
#     4  12  26  42  70  96 132 179 221 274 336 404
#     4  10  23  44  65  98 135 170 224 284 336 400
#     4  11  24  42  66 100 136 176 223 282 335 398
#     4  11  26  46  71  98 132 176 223 282 338 397
#
# _framework density 9.9788940000000004
#
# number of rings (size 3 to 8) (size 9 to 14) (size 15 to 20)
#    0.000    0.857    6.429    0.857    3.000    0.571 
#    0.000    1.429    3.143    0.000    0.000    0.000 
#    0.000    0.000    0.000    0.000    0.000    0.000 
#
# Total GULP energy -156005.421454 kJ/mol
# GULP energy per Si atom -5571.622195 kJ/mol
# Density = 0.995618 g / cm^3
# Si number density = 9.978894 Si / 1000 Ang^3
#
#
#
# Elastic Constant Matrix: (Units=GPa)
#
#
# Indices 1 2 3 4 5 6 
#
# 1 83.8172 0.3658 -5.4838 0.0000 -9.3608 0.0000
# 2 0.3658 58.0201 2.5557 0.0000 -7.7275 0.0000
# 3 -5.4838 2.5557 60.0391 0.0000 -24.0314 0.0000
# 4 0.0000 0.0000 0.0000 17.5179 0.0000 -10.2536
# 5 -9.3608 -7.7275 -24.0314 0.0000 48.8208 0.0000
# 6 0.0000 0.0000 0.0000 -10.2536 0.0000 23.7347
#
#
#
# Elastic Compliance Matrix: (Units=1/GPa)
#
#
# Indices 1 2 3 4 5 6 
#
# 1 0.012519 0.000304 0.002628 0.000000 0.003742 0.000000
# 2 0.000304 0.017624 0.000520 0.000000 0.003104 0.000000
# 3 0.002628 0.000520 0.021306 0.000000 0.011074 0.000000
# 4 0.000000 0.000000 0.000000 0.076404 0.000000 0.033007
# 5 0.003742 0.003104 0.011074 0.000000 0.027143 0.000000
# 6 0.000000 0.000000 0.000000 0.033007 0.000000 0.056392
#
#
# Mechanical properties :
#
#
# Convention : Reuss Voigt Hill
#
# Bulk Modulus (GPa) = 17.13693 21.86134 19.49913
# Shear Modulus (GPa) = 22.32783 31.64390 26.98587
#
# Velocity S-wave (km/s) = 3.34840 3.98621 3.68114
# Velocity P-wave (km/s) = 4.85328 5.67133 5.27818
#
# Compressibility (1/GPa) = 0.05835352
#
# Stress axis : x y z
#
# Youngs Moduli (GPa) = 79.87654 56.74089 46.93456
#
# Poissons Ratio (x) = -0.01723 -0.12337
# Poissons Ratio (y) = -0.02426 -0.02440
# Poissons Ratio (z) = -0.20995 -0.02949
#
# Static dielectric constant tensor:
#      x y z
#    x 1.683950 0.000000 0.007910 
#    y 0.000000 1.709100 0.000000 
#    z 0.007910 0.000000 1.781820 
# 
# From -- ./inp_files/105666.got.cif
#   From: 2010.05.17/outbox.ucp.g08.bks.cvg/sg15_53_cif.got.tgz:105666.got - 2010.06.11 12:40:34.
