data_PCOD9309786
_publ_section_title
;
Structure prediction by ZEFSAII (Michael W. Deem and Ramdas Pophale) SiO2 
 PCOD9309786
Probable space group: C 2/C
;
_chemical_formula_sum "Si O2"
_cell_formula_units_Z 22
_cell_length_a 21.000000
_cell_length_b 12.000000
_cell_length_c 9.000000
_cell_angle_alpha 90.000000
_cell_angle_beta 70.000000
_cell_angle_gamma 90.000000
_cell_volume 2131.222864
_symmetry_space_group_name_H-M "C 2/C"
_symmetry_group_IT_number 15
_symmetry_cell_setting 'monoclinic'
loop_
_space_group_symop_operation_xyz
x,y,z
-x,y,1/2-z
-x,-y,-z
x,-y,1/2+z
1/2+x,1/2+y,z
1/2-x,1/2+y,1/2-z
1/2-x,1/2-y,-z
1/2+x,1/2-y,1/2+z
loop_
_atom_site_type_symbol
_atom_site_label
_atom_site_fract_x
_atom_site_fract_y
_atom_site_fract_z
Si Si1 0.719011 0.162960 0.834937
Si Si2 0.107925 0.139342 0.453052
Si Si3 0.711155 0.067700 0.505570
Si Si4 0.133364 0.911397 0.604891
Si Si5 0.000000 0.245120 0.750000
Si Si6 0.632462 0.766777 0.854535
O O1 0.664629 0.261988 0.904665
O O2 0.702700 0.104214 0.686041
O O3 0.796843 0.212061 0.769753
O O4 0.711155 0.064012 0.963902
O O5 0.095742 0.101022 0.292160
O O6 0.040289 0.181723 0.588340
O O7 0.131281 0.032739 0.530863
O O8 0.787834 0.110064 0.414847
O O9 0.659565 0.129280 0.433321
O O10 0.110702 0.824301 0.496754
O O11 0.931092 0.291242 0.709152
#
# Coordination Sequence:
#
# PCOD9309786 Si02
#       6
#     8   8   8   8   4   8
#     4  11  24  44  77 103 139 177 239 291 342 400
#     4  12  25  46  68 108 137 186 229 285 348 416
#     4  11  22  43  74 110 133 181 231 301 339 399
#     4  11  22  44  74 102 139 178 230 290 351 399
#     4  12  30  42  68 104 146 188 230 274 358 424
#     4  11  24  46  69 105 145 179 231 285 345 422
#
# _framework density 10.322711999999999
#
# number of rings (size 3 to 8) (size 9 to 14) (size 15 to 20)
#    0.000    0.727    3.636    5.455    2.545    5.091 
#    0.000    0.909    0.000    0.000    0.000    0.000 
#    0.000    0.000    0.000    0.000    0.000    0.000 
#
# Total GULP energy -122880.418161 kJ/mol
# GULP energy per Si atom -5585.473553 kJ/mol
# Density = 1.029922 g / cm^3
# Si number density = 10.322712 Si / 1000 Ang^3
#
#
#
# Elastic Constant Matrix: (Units=GPa)
#
#
# Indices 1 2 3 4 5 6 
#
# 1 119.6172 19.0429 18.7616 0.0000 15.2363 0.0000
# 2 19.0429 87.7310 31.8023 0.0000 5.3639 0.0000
# 3 18.7616 31.8023 130.9900 0.0000 -7.2192 0.0000
# 4 0.0000 0.0000 0.0000 41.0611 0.0000 14.6073
# 5 15.2363 5.3639 -7.2192 0.0000 41.6366 0.0000
# 6 0.0000 0.0000 0.0000 14.6073 0.0000 30.4148
#
#
#
# Elastic Compliance Matrix: (Units=1/GPa)
#
#
# Indices 1 2 3 4 5 6 
#
# 1 0.009193 -0.001363 -0.001173 0.000000 -0.003392 0.000000
# 2 -0.001363 0.012895 -0.003029 0.000000 -0.001688 0.000000
# 3 -0.001173 -0.003029 0.008665 0.000000 0.002322 0.000000
# 4 0.000000 0.000000 0.000000 0.029372 0.000000 -0.014107
# 5 -0.003392 -0.001688 0.002322 0.000000 0.025878 0.000000
# 6 0.000000 0.000000 0.000000 -0.014107 0.000000 0.039654
#
#
# Mechanical properties :
#
#
# Convention : Reuss Voigt Hill
#
# Bulk Modulus (GPa) = 50.95492 53.06131 52.00812
# Shear Modulus (GPa) = 34.88494 40.53792 37.71143
#
# Velocity S-wave (km/s) = 4.11508 4.43598 4.27854
# Velocity P-wave (km/s) = 6.87845 7.21071 7.04654
#
# Compressibility (1/GPa) = 0.01962519
#
# Stress axis : x y z
#
# Youngs Moduli (GPa) = 108.77902 77.54725 115.40159
#
# Poissons Ratio (x) = 0.10569 0.13533
# Poissons Ratio (y) = 0.14826 0.34950
# Poissons Ratio (z) = 0.12757 0.23486
#
# Static dielectric constant tensor:
#      x y z
#    x 1.757020 0.000000 0.015130 
#    y 0.000000 1.778360 0.000000 
#    z 0.015130 0.000000 1.783080 
# 
# From -- ./inp_files/54377.got.cif
#   From: 2010.05.17/outbox.ucp.g08.bks.cvg/sg15_28_cif.got.tgz:54377.got - 2010.06.11 12:40:34.
