data_PCOD9309861
_publ_section_title
;
Structure prediction by ZEFSAII (Michael W. Deem and Ramdas Pophale) SiO2 
 PCOD9309861
Probable space group: C 2/C
;
_chemical_formula_sum "Si O2"
_cell_formula_units_Z 20
_cell_length_a 27.000000
_cell_length_b 12.000000
_cell_length_c 12.000000
_cell_angle_alpha 90.000000
_cell_angle_beta 150.000000
_cell_angle_gamma 90.000000
_cell_volume 1944.000000
_symmetry_space_group_name_H-M "C 2/C"
_symmetry_group_IT_number 15
_symmetry_cell_setting 'monoclinic'
loop_
_space_group_symop_operation_xyz
x,y,z
-x,y,1/2-z
-x,-y,-z
x,-y,1/2+z
1/2+x,1/2+y,z
1/2-x,1/2+y,1/2-z
1/2-x,1/2-y,-z
1/2+x,1/2-y,1/2+z
loop_
_atom_site_type_symbol
_atom_site_label
_atom_site_fract_x
_atom_site_fract_y
_atom_site_fract_z
Si Si1 0.820522 0.559307 0.648800
Si Si2 0.411382 0.590977 0.303424
Si Si3 0.896294 0.708979 0.592119
Si Si4 0.849199 0.698579 0.244708
Si Si5 0.963524 0.273288 0.552065
O O1 0.701843 0.551008 0.434005
O O2 0.844633 0.622656 0.577870
O O3 0.854807 0.433351 0.732406
O O4 0.885220 0.631665 0.863018
O O5 0.500000 0.500000 0.500000
O O6 0.419976 0.679048 0.213603
O O7 0.407499 0.659657 0.411901
O O8 0.846573 0.727134 0.373027
O O9 0.000000 0.659551 0.750000
O O10 0.944255 0.736571 0.356022
O O11 0.750000 0.750000 0.000000
O O12 0.000000 0.283352 0.750000
#
# Coordination Sequence:
#
# PCOD9309861 Si02
#       5
#     8   8   8   8   8
#     4  11  26  45  74 101 144 194 241 298 382 429
#     4  11  25  50  71 105 144 199 238 303 375 443
#     4  11  24  46  74 100 148 187 248 306 359 448
#     4  12  27  43  69 110 141 190 244 303 367 441
#     4  11  25  45  69 104 145 183 247 301 365 445
#
# _framework density 10.288066000000001
#
# number of rings (size 3 to 8) (size 9 to 14) (size 15 to 20)
#    0.000    0.800    4.000    4.200    8.400    0.800 
#    0.000    0.000    0.000    0.000    0.000    0.000 
#    0.000    0.000    0.000    0.000    0.000    0.000 
#
# Total GULP energy -111439.531188 kJ/mol
# GULP energy per Si atom -5571.976559 kJ/mol
# Density = 1.026465 g / cm^3
# Si number density = 10.288066 Si / 1000 Ang^3
#
#
#
# Elastic Constant Matrix: (Units=GPa)
#
#
# Indices 1 2 3 4 5 6 
#
# 1 114.3948 15.6818 47.2523 0.0000 -31.1997 0.0000
# 2 15.6818 90.4471 24.2854 0.0000 -16.1190 0.0000
# 3 47.2523 24.2854 157.4217 0.0000 -35.2452 0.0000
# 4 0.0000 0.0000 0.0000 44.1556 0.0000 9.6636
# 5 -31.1997 -16.1190 -35.2452 0.0000 61.3037 0.0000
# 6 0.0000 0.0000 0.0000 9.6636 0.0000 20.6951
#
#
#
# Elastic Compliance Matrix: (Units=1/GPa)
#
#
# Indices 1 2 3 4 5 6 
#
# 1 0.010865 -0.000548 -0.002262 0.000000 0.004085 0.000000
# 2 -0.000548 0.011853 -0.001181 0.000000 0.002159 0.000000
# 3 -0.002262 -0.001181 0.007904 0.000000 0.003082 0.000000
# 4 0.000000 0.000000 0.000000 0.025225 0.000000 -0.011779
# 5 0.004085 0.002159 0.003082 0.000000 0.020731 0.000000
# 6 0.000000 0.000000 0.000000 -0.011779 0.000000 0.053821
#
#
# Mechanical properties :
#
#
# Convention : Reuss Voigt Hill
#
# Bulk Modulus (GPa) = 44.17061 59.63359 51.90210
# Shear Modulus (GPa) = 34.26348 43.56714 38.91531
#
# Velocity S-wave (km/s) = 4.08512 4.60647 4.35361
# Velocity P-wave (km/s) = 6.61547 7.57216 7.10993
#
# Compressibility (1/GPa) = 0.02263949
#
# Stress axis : x y z
#
# Youngs Moduli (GPa) = 92.03529 84.36695 126.52432
#
# Poissons Ratio (x) = 0.04627 0.28622
# Poissons Ratio (y) = 0.05048 0.14938
# Poissons Ratio (z) = 0.20820 0.09961
#
# Static dielectric constant tensor:
#      x y z
#    x 1.748670 0.000000 0.019190 
#    y 0.000000 1.808090 0.000000 
#    z 0.019190 0.000000 1.792470 
# 
# From -- ./inp_files/122826.got.cif
#   From: 2010.05.17/outbox.ucp.g08.bks.cvg/sg15_62_cif.got.tgz:122826.got - 2010.06.11 12:40:34.
