data_PCOD9309058
_publ_section_title
;
Structure prediction by ZEFSAII (Michael W. Deem and Ramdas Pophale) SiO2 
 PCOD9309058
Probable space group: C 2/C
;
_chemical_formula_sum "Si O2"
_cell_formula_units_Z 32
_cell_length_a 18.000000
_cell_length_b 9.000000
_cell_length_c 30.000000
_cell_angle_alpha 90.000000
_cell_angle_beta 40.000000
_cell_angle_gamma 90.000000
_cell_volume 3123.947783
_symmetry_space_group_name_H-M "C 2/C"
_symmetry_group_IT_number 15
_symmetry_cell_setting 'monoclinic'
loop_
_space_group_symop_operation_xyz
x,y,z
-x,y,1/2-z
-x,-y,-z
x,-y,1/2+z
1/2+x,1/2+y,z
1/2-x,1/2+y,1/2-z
1/2-x,1/2-y,-z
1/2+x,1/2-y,1/2+z
loop_
_atom_site_type_symbol
_atom_site_label
_atom_site_fract_x
_atom_site_fract_y
_atom_site_fract_z
Si Si1 0.759747 0.314686 0.198932
Si Si2 0.339993 0.848488 0.933325
Si Si3 0.483803 0.125876 0.454027
Si Si4 0.272079 0.840997 0.695544
Si Si5 0.362270 0.832936 0.314018
Si Si6 0.264842 0.330699 0.040370
Si Si7 0.366631 0.170222 0.321741
Si Si8 0.993960 0.282066 0.042808
O O1 0.712169 0.228557 0.263242
O O2 0.748140 0.487230 0.214007
O O3 0.691937 0.280335 0.185226
O O4 0.892059 0.271590 0.125879
O O5 0.440944 0.855518 0.923148
O O6 0.362333 0.781614 0.874786
O O7 0.286283 0.007798 0.946708
O O8 0.250000 0.750000 0.000000
O O9 0.618544 0.160961 0.387638
O O10 0.444079 0.224291 0.514852
O O11 0.460317 0.952659 0.475263
O O12 0.176901 0.751097 0.712093
O O13 0.500000 0.833764 0.250000
O O14 0.310636 0.766622 0.383679
O O15 0.317777 0.004009 0.335077
O O16 0.250000 0.250000 0.000000
O O17 0.398193 0.322573 0.995203
O O18 0.500000 0.158057 0.250000
#
# Coordination Sequence:
#
# PCOD9309058 Si02
#       8
#     8   8   8   8   8   8   8   8
#     4  11  24  40  65  91 125 164 209 264 318 382
#     4  11  23  39  61  93 127 163 206 259 323 376
#     4  10  20  40  65  88 123 169 207 255 316 383
#     4  11  23  41  64  92 124 163 210 260 319 381
#     4  10  23  41  65  91 124 167 211 258 310 380
#     4  11  22  40  64  94 127 163 212 259 311 381
#     4  10  22  43  63  86 124 169 212 259 314 380
#     4  10  21  39  65  94 125 162 215 260 312 379
#
# _framework density 10.243449
#
# number of rings (size 3 to 8) (size 9 to 14) (size 15 to 20)
#    0.000    1.500    2.500    2.250    1.750    3.500 
#    6.750    1.875    0.000    0.000    0.000    0.000 
#    0.000    0.000    0.000    0.000    0.000    0.000 
#
# Total GULP energy -178384.649749 kJ/mol
# GULP energy per Si atom -5574.520305 kJ/mol
# Density = 1.022013 g / cm^3
# Si number density = 10.243449 Si / 1000 Ang^3
#
#
#
# Elastic Constant Matrix: (Units=GPa)
#
#
# Indices 1 2 3 4 5 6 
#
# 1 83.9615 5.9163 18.5582 0.0000 21.2939 0.0007
# 2 5.9163 8.6285 25.4268 0.0000 7.1319 0.0007
# 3 18.5582 25.4268 47.7548 0.0000 35.9349 0.0003
# 4 0.0000 0.0000 0.0000 9.0210 0.0000 8.2862
# 5 21.2939 7.1319 35.9349 0.0000 43.0400 0.0000
# 6 0.0007 0.0007 0.0003 8.2862 0.0000 16.6360
#
#
#
# Elastic Compliance Matrix: (Units=1/GPa)
#
#
# Indices 1 2 3 4 5 6 
#
# 1 0.013594 0.001498 -0.002240 0.000001 -0.005104 -0.000001
# 2 0.001498 -0.071713 0.078597 -0.000003 -0.054479 0.000003
# 3 -0.002240 0.078597 -0.029783 0.000004 0.012950 -0.000005
# 4 0.000001 -0.000003 0.000004 0.204342 -0.000003 -0.101780
# 5 -0.005104 -0.054479 0.012950 -0.000003 0.023974 0.000004
# 6 -0.000001 0.000003 -0.000005 -0.101780 0.000004 0.110806
#
#
# Mechanical properties :
#
#
# Convention : Reuss Voigt Hill
#
# Bulk Modulus (GPa) = 14.74773 26.68305 20.71539
# Shear Modulus (GPa) = 42.33215 19.76896 31.05056
#
# Velocity S-wave (km/s) = 4.55059 3.10974 3.89733
# Velocity P-wave (km/s) = 5.90125 5.09379 5.51233
#
# Compressibility (1/GPa) = 0.06780702
#
# Stress axis : x y z
#
# Youngs Moduli (GPa) = 73.56107 -13.94438 -33.57653
#
# Poissons Ratio (x) = 0.02088 -0.07520
# Poissons Ratio (y) = -0.11017 2.63900
# Poissons Ratio (z) = 0.16476 1.09598
#
# Static dielectric constant tensor:
#      x y z
#    x 1.610890 0.000000 -0.000950 
#    y 0.000000 1.744200 0.000000 
#    z -0.000950 0.000000 1.751860 
# 
# From -- ./inp_files/315703.got.cif
#   From: 2010.05.17/outbox.ucp.g08.bks.cvg/sg15_158_cif.got.tgz:315703.got - 2010.06.11 12:40:34.
