data_PCOD9309529
_publ_section_title
;
Structure prediction by ZEFSAII (Michael W. Deem and Ramdas Pophale) SiO2 
 PCOD9309529
Probable space group: C 2/C
;
_chemical_formula_sum "Si O2"
_cell_formula_units_Z 30
_cell_length_a 21.000000
_cell_length_b 9.000000
_cell_length_c 24.000000
_cell_angle_alpha 90.000000
_cell_angle_beta 140.000000
_cell_angle_gamma 90.000000
_cell_volume 2915.684598
_symmetry_space_group_name_H-M "C 2/C"
_symmetry_group_IT_number 15
_symmetry_cell_setting 'monoclinic'
loop_
_space_group_symop_operation_xyz
x,y,z
-x,y,1/2-z
-x,-y,-z
x,-y,1/2+z
1/2+x,1/2+y,z
1/2-x,1/2+y,1/2-z
1/2-x,1/2-y,-z
1/2+x,1/2-y,1/2+z
loop_
_atom_site_type_symbol
_atom_site_label
_atom_site_fract_x
_atom_site_fract_y
_atom_site_fract_z
Si Si1 0.054678 0.812211 0.476189
Si Si2 0.013694 0.506849 0.116267
Si Si3 0.672972 0.223339 0.281197
Si Si4 0.578307 0.491744 0.692631
Si Si5 0.000000 0.857815 0.750000
Si Si6 0.763469 0.351763 0.562489
Si Si7 0.648795 0.160669 0.916151
Si Si8 0.883646 0.758492 0.868101
O O1 0.159079 0.869322 0.523253
O O2 0.043816 0.819406 0.535088
O O3 0.046978 0.637495 0.455262
O O4 0.978674 0.910784 0.391294
O O5 0.088971 0.607188 0.204437
O O6 0.083362 0.409877 0.122171
O O7 0.935765 0.394289 0.095150
O O8 0.666045 0.398389 0.264604
O O9 0.669165 0.218532 0.345055
O O10 0.777211 0.193193 0.321012
O O11 0.520146 0.458480 0.709837
O O12 0.606482 0.338330 0.684037
O O13 0.908994 0.753759 0.669822
O O14 0.750000 0.250000 0.500000
O O15 0.809961 0.506479 0.578085
O O16 0.750000 0.250000 0.000000
#
# Coordination Sequence:
#
# PCOD9309529 Si02
#       8
#     8   8   8   8   4   8   8   8
#     4  10  23  42  66  97 126 181 223 280 341 414
#     4  11  22  44  67  99 141 178 227 290 352 420
#     4  10  25  41  68  96 131 182 226 283 344 411
#     4  11  24  41  67  94 132 170 224 277 339 412
#     4  12  26  44  68 102 142 182 232 290 364 410
#     4  11  23  41  65  93 133 171 231 276 337 415
#     4  12  26  43  69 103 142 184 231 293 358 416
#     4  11  22  43  67  96 137 171 232 281 347 415
#
# _framework density 10.289179000000001
#
# number of rings (size 3 to 8) (size 9 to 14) (size 15 to 20)
#    0.000    1.067    2.667    3.200    3.733    0.000 
#    0.000    1.333    0.000    0.000    0.000    0.000 
#    0.000    0.000    0.000    0.000    0.000    0.000 
#
# Total GULP energy -167037.299174 kJ/mol
# GULP energy per Si atom -5567.909972 kJ/mol
# Density = 1.026576 g / cm^3
# Si number density = 10.289179 Si / 1000 Ang^3
#
#
#
# Elastic Constant Matrix: (Units=GPa)
#
#
# Indices 1 2 3 4 5 6 
#
# 1 75.8458 19.9078 25.7542 0.0000 -12.1493 0.0000
# 2 19.9078 36.9725 22.2283 -0.0001 3.7975 0.0000
# 3 25.7542 22.2283 68.5534 0.0000 -8.0820 0.0000
# 4 0.0000 -0.0001 0.0000 -101.5736 0.0000 29.4396
# 5 -12.1493 3.7975 -8.0820 0.0000 30.9245 0.0000
# 6 0.0000 0.0000 0.0000 29.4396 0.0000 41.2686
#
#
#
# Elastic Compliance Matrix: (Units=1/GPa)
#
#
# Indices 1 2 3 4 5 6 
#
# 1 0.017552 -0.008352 -0.003046 0.000000 0.007125 0.000000
# 2 -0.008352 0.039196 -0.010861 0.000000 -0.010933 0.000000
# 3 -0.003046 -0.010861 0.019882 0.000000 0.005333 0.000000
# 4 0.000000 0.000000 0.000000 -0.008158 0.000000 0.005820
# 5 0.007125 -0.010933 0.005333 0.000000 0.037872 0.000000
# 6 0.000000 0.000000 0.000000 0.005820 0.000000 0.020080
#
#
# Mechanical properties :
#
#
# Convention : Reuss Voigt Hill
#
# Bulk Modulus (GPa) = 31.13915 35.23914 33.18915
# Shear Modulus (GPa) = 27.52603 1.68932 14.60767
#
# Velocity S-wave (km/s) = 3.66132 0.90703 2.66720
# Velocity P-wave (km/s) = 5.74791 4.27299 5.06443
#
# Compressibility (1/GPa) = 0.03211391
#
# Stress axis : x y z
#
# Youngs Moduli (GPa) = 56.97216 25.51249 50.29709
#
# Poissons Ratio (x) = 0.21307 0.15321
# Poissons Ratio (y) = 0.47580 0.54627
# Poissons Ratio (z) = 0.17354 0.27709
#
# Static dielectric constant tensor:
#      x y z
#    x 1.732640 0.000000 -0.033050 
#    y 0.000000 1.684240 0.000000 
#    z -0.033050 0.000000 1.741350 
# 
# From -- ./inp_files/279708.got.cif
#   From: 2010.05.17/outbox.ucp.g08.bks.cvg/sg15_140_cif.got.tgz:279708.got - 2010.06.11 12:40:34.
