data_PCOD9309438
_publ_section_title
;
Structure prediction by ZEFSAII (Michael W. Deem and Ramdas Pophale) SiO2 
 PCOD9309438
Probable space group: C 2/C
;
_chemical_formula_sum "Si O2"
_cell_formula_units_Z 22
_cell_length_a 9.000000
_cell_length_b 21.000000
_cell_length_c 12.000000
_cell_angle_alpha 90.000000
_cell_angle_beta 100.000000
_cell_angle_gamma 90.000000
_cell_volume 2233.543984
_symmetry_space_group_name_H-M "C 2/C"
_symmetry_group_IT_number 15
_symmetry_cell_setting 'monoclinic'
loop_
_space_group_symop_operation_xyz
x,y,z
-x,y,1/2-z
-x,-y,-z
x,-y,1/2+z
1/2+x,1/2+y,z
1/2-x,1/2+y,1/2-z
1/2-x,1/2-y,-z
1/2+x,1/2-y,1/2+z
loop_
_atom_site_type_symbol
_atom_site_label
_atom_site_fract_x
_atom_site_fract_y
_atom_site_fract_z
Si Si1 0.147773 0.316928 0.581111
Si Si2 0.500000 0.905015 0.750000
Si Si3 0.874482 0.085507 0.998094
Si Si4 0.777358 0.942211 0.935709
Si Si5 0.324477 0.186881 0.947049
Si Si6 0.847475 0.815142 0.300074
O O1 0.281567 0.361864 0.555113
O O2 0.187446 0.245922 0.626976
O O3 0.077219 0.357809 0.672374
O O4 0.004926 0.309037 0.480483
O O5 0.640920 0.942567 0.826254
O O6 0.874240 0.120510 0.876021
O O7 0.794370 0.015328 0.984165
O O8 0.045407 0.074665 0.066263
O O9 0.729356 0.880539 0.004751
O O10 0.276564 0.182528 0.812545
O O11 0.250000 0.250000 0.000000
O O12 0.000000 0.801849 0.250000
#
# Coordination Sequence:
#
# PCOD9309438 Si02
#       6
#     8   4   8   8   8   8
#     4  11  23  41  65  96 128 166 224 273 321 383
#     4  10  22  42  68  90 126 176 212 262 324 396
#     4  11  25  41  63  99 133 167 215 277 322 389
#     4  10  23  43  64  96 133 171 212 266 332 392
#     4  11  21  40  68  90 129 177 218 267 325 389
#     4  12  21  40  68  91 127 176 217 262 331 385
#
# _framework density 9.8498169999999998
#
# number of rings (size 3 to 8) (size 9 to 14) (size 15 to 20)
#    0.000    1.091    4.545    1.636    0.000    7.273 
#    0.000    1.818    0.000    0.000    0.000    0.000 
#    0.000    0.000    0.000    0.000    0.000    0.000 
#
# Total GULP energy -122688.400418 kJ/mol
# GULP energy per Si atom -5576.745474 kJ/mol
# Density = 0.982740 g / cm^3
# Si number density = 9.849817 Si / 1000 Ang^3
#
#
#
# Elastic Constant Matrix: (Units=GPa)
#
#
# Indices 1 2 3 4 5 6 
#
# 1 99.0749 44.5650 50.1168 0.0000 25.1866 0.0000
# 2 44.5650 161.0942 32.4376 0.0000 6.8700 0.0000
# 3 50.1168 32.4376 93.8681 0.0000 29.2804 0.0000
# 4 0.0000 0.0000 0.0000 26.0757 0.0000 -2.0273
# 5 25.1866 6.8700 29.2804 0.0000 45.6939 0.0000
# 6 0.0000 0.0000 0.0000 -2.0273 0.0000 43.6163
#
#
#
# Elastic Compliance Matrix: (Units=1/GPa)
#
#
# Indices 1 2 3 4 5 6 
#
# 1 0.015493 -0.002910 -0.005923 0.000000 -0.004307 0.000000
# 2 -0.002910 0.007231 -0.001383 0.000000 0.001403 0.000000
# 3 -0.005923 -0.001383 0.016510 0.000000 -0.007107 0.000000
# 4 0.000000 0.000000 0.000000 0.038489 0.000000 0.001789
# 5 -0.004307 0.001403 -0.007107 0.000000 0.028602 0.000000
# 6 0.000000 0.000000 0.000000 0.001789 0.000000 0.023010
#
#
# Mechanical properties :
#
#
# Convention : Reuss Voigt Hill
#
# Bulk Modulus (GPa) = 53.18131 67.58621 60.38376
# Shear Modulus (GPa) = 32.04408 38.20504 35.12456
#
# Velocity S-wave (km/s) = 4.03753 4.40861 4.22715
# Velocity P-wave (km/s) = 6.98500 7.76514 7.38538
#
# Compressibility (1/GPa) = 0.01880360
#
# Stress axis : x y z
#
# Youngs Moduli (GPa) = 64.54433 138.29111 60.56811
#
# Poissons Ratio (x) = 0.40239 0.35874
# Poissons Ratio (y) = 0.18781 0.08376
# Poissons Ratio (z) = 0.38229 0.19124
#
# Static dielectric constant tensor:
#      x y z
#    x 1.730290 0.000000 0.001030 
#    y 0.000000 1.667250 0.000000 
#    z 0.001030 0.000000 1.757250 
# 
# From -- ./inp_files/78306.got.cif
#   From: 2010.05.17/outbox.ucp.g08.bks.cvg/sg15_40_cif.got.tgz:78306.got - 2010.06.11 12:40:34.
