data_PCOD9309349
_publ_section_title
;
Structure prediction by ZEFSAII (Michael W. Deem and Ramdas Pophale) SiO2 
 PCOD9309349
Probable space group: C 2/C
;
_chemical_formula_sum "Si O2"
_cell_formula_units_Z 22
_cell_length_a 15.000000
_cell_length_b 21.000000
_cell_length_c 12.000000
_cell_angle_alpha 90.000000
_cell_angle_beta 140.000000
_cell_angle_gamma 90.000000
_cell_volume 2429.737165
_symmetry_space_group_name_H-M "C 2/C"
_symmetry_group_IT_number 15
_symmetry_cell_setting 'monoclinic'
loop_
_space_group_symop_operation_xyz
x,y,z
-x,y,1/2-z
-x,-y,-z
x,-y,1/2+z
1/2+x,1/2+y,z
1/2-x,1/2+y,1/2-z
1/2-x,1/2-y,-z
1/2+x,1/2-y,1/2+z
loop_
_atom_site_type_symbol
_atom_site_label
_atom_site_fract_x
_atom_site_fract_y
_atom_site_fract_z
Si Si1 0.833085 0.888116 0.456046
Si Si2 0.152537 0.488688 0.703525
Si Si3 0.947856 0.290226 0.581447
Si Si4 0.667606 0.613105 0.275789
Si Si5 0.714433 0.752101 0.700309
Si Si6 0.500000 0.083762 0.250000
O O1 0.811516 0.894114 0.569971
O O2 0.793781 0.815539 0.375893
O O3 0.000547 0.894799 0.594636
O O4 0.741255 0.945522 0.310794
O O5 0.242973 0.438281 0.713486
O O6 0.000000 0.500000 0.500000
O O7 0.109888 0.457196 0.783122
O O8 0.064098 0.274987 0.599997
O O9 0.000000 0.262173 0.750000
O O10 0.806655 0.262853 0.397841
O O11 0.935315 0.365635 0.598869
O O12 0.716459 0.685754 0.292553
#
# Coordination Sequence:
#
# PCOD9309349 Si02
#       6
#     8   8   8   8   8   4
#     4  11  26  41  69  97 133 181 223 271 339 394
#     4  12  24  44  67  96 133 175 226 280 332 398
#     4  10  22  38  66  95 131 168 220 269 338 386
#     4  11  24  46  65  97 136 176 227 272 330 404
#     4  12  21  44  65  99 136 171 220 279 332 398
#     4  10  22  40  64  96 128 170 218 274 328 394
#
# _framework density 9.0544770000000003
#
# number of rings (size 3 to 8) (size 9 to 14) (size 15 to 20)
#    0.545    0.364    3.636    3.818    0.000    0.000 
#    0.000    0.000    0.000    0.000    0.000    0.000 
#    0.000    0.000    0.000    0.000    0.000    0.000 
#
# Total GULP energy -122661.447636 kJ/mol
# GULP energy per Si atom -5575.520347 kJ/mol
# Density = 0.903387 g / cm^3
# Si number density = 9.054477 Si / 1000 Ang^3
#
#
#
# Elastic Constant Matrix: (Units=GPa)
#
#
# Indices 1 2 3 4 5 6 
#
# 1 136.5785 67.3214 33.6981 0.0000 4.3357 0.0000
# 2 67.3214 166.0184 54.5937 0.0000 2.2615 0.0000
# 3 33.6981 54.5937 109.3542 0.0000 7.0029 0.0000
# 4 0.0000 0.0000 0.0000 36.7064 0.0000 -4.2269
# 5 4.3357 2.2615 7.0029 0.0000 34.8801 0.0000
# 6 0.0000 0.0000 0.0000 -4.2269 0.0000 49.4036
#
#
#
# Elastic Compliance Matrix: (Units=1/GPa)
#
#
# Indices 1 2 3 4 5 6 
#
# 1 0.009292 -0.003388 -0.001127 0.000000 -0.000709 0.000000
# 2 -0.003388 0.008444 -0.003205 0.000000 0.000517 0.000000
# 3 -0.001127 -0.003205 0.011214 0.000000 -0.001904 0.000000
# 4 0.000000 0.000000 0.000000 0.027514 0.000000 0.002354
# 5 -0.000709 0.000517 -0.001904 0.000000 0.029106 0.000000
# 6 0.000000 0.000000 0.000000 0.002354 0.000000 0.020443
#
#
# Mechanical properties :
#
#
# Convention : Reuss Voigt Hill
#
# Bulk Modulus (GPa) = 74.01194 80.35307 77.18251
# Shear Modulus (GPa) = 39.69646 41.28719 40.49182
#
# Velocity S-wave (km/s) = 4.68706 4.78004 4.73378
# Velocity P-wave (km/s) = 8.38155 8.65641 8.52009
#
# Compressibility (1/GPa) = 0.01351133
#
# Stress axis : x y z
#
# Youngs Moduli (GPa) = 107.61671 118.42681 89.17756
#
# Poissons Ratio (x) = 0.40122 0.10047
# Poissons Ratio (y) = 0.36459 0.28579
# Poissons Ratio (z) = 0.12125 0.37952
#
# Static dielectric constant tensor:
#      x y z
#    x 1.627600 0.000000 -0.010080 
#    y 0.000000 1.636070 0.000000 
#    z -0.010080 0.000000 1.633190 
# 
# From -- ./inp_files/99903.got.cif
#   From: 2010.05.17/outbox.ucp.g08.bks.cvg/sg15_50_cif.got.tgz:99903.got - 2010.06.11 12:40:34.
