data_PCOD9309549
_publ_section_title
;
Structure prediction by ZEFSAII (Michael W. Deem and Ramdas Pophale) SiO2 
 PCOD9309549
Probable space group: C 2/C
;
_chemical_formula_sum "Si O2"
_cell_formula_units_Z 32
_cell_length_a 18.000000
_cell_length_b 15.000000
_cell_length_c 18.000000
_cell_angle_alpha 90.000000
_cell_angle_beta 140.000000
_cell_angle_gamma 90.000000
_cell_volume 3123.947783
_symmetry_space_group_name_H-M "C 2/C"
_symmetry_group_IT_number 15
_symmetry_cell_setting 'monoclinic'
loop_
_space_group_symop_operation_xyz
x,y,z
-x,y,1/2-z
-x,-y,-z
x,-y,1/2+z
1/2+x,1/2+y,z
1/2-x,1/2+y,1/2-z
1/2-x,1/2-y,-z
1/2+x,1/2-y,1/2+z
loop_
_atom_site_type_symbol
_atom_site_label
_atom_site_fract_x
_atom_site_fract_y
_atom_site_fract_z
Si Si1 0.595101 0.691429 0.653628
Si Si2 0.672932 0.044240 0.069040
Si Si3 0.163868 0.157374 0.013907
Si Si4 0.036493 0.566429 0.692918
Si Si5 0.749918 0.640204 0.913163
Si Si6 0.736848 0.322598 0.107781
Si Si7 0.647389 0.105230 0.220469
Si Si8 0.861717 0.851420 0.631461
O O1 0.468614 0.648807 0.562864
O O2 0.666046 0.649296 0.777173
O O3 0.652725 0.685929 0.615194
O O4 0.593712 0.797012 0.670121
O O5 0.672487 0.068540 0.155994
O O6 0.793557 0.070829 0.122335
O O7 0.665006 0.939209 0.045943
O O8 0.566905 0.092116 0.943235
O O9 0.190770 0.263321 0.033888
O O10 0.244058 0.115147 0.139909
O O11 0.192724 0.123979 0.951591
O O12 0.158259 0.617076 0.780737
O O13 0.064418 0.464202 0.697356
O O14 0.000000 0.579954 0.750000
O O15 0.802467 0.234493 0.126418
O O16 0.670939 0.355049 0.981793
O O17 0.000000 0.850809 0.750000
#
# Coordination Sequence:
#
# PCOD9309549 Si02
#       8
#     8   8   8   8   8   8   8   8
#     4  11  23  42  70  96 139 178 224 284 342 413
#     4  12  24  45  67 102 134 178 227 285 344 398
#     4  10  23  43  70  98 138 183 226 283 344 416
#     4  12  24  44  70  95 136 174 232 284 330 404
#     4  10  23  44  67 101 136 178 235 276 351 401
#     4  11  25  45  66 103 130 183 226 275 347 402
#     4  11  25  41  66 106 129 175 232 277 343 402
#     4  11  26  43  69  98 140 178 224 279 341 415
#
# _framework density 10.243449
#
# number of rings (size 3 to 8) (size 9 to 14) (size 15 to 20)
#    0.000    1.000    2.500    3.375    3.500    5.000 
#    0.000    1.250    0.000    0.000    0.000    0.000 
#    0.000    0.000    0.000    0.000    0.000    0.000 
#
# Total GULP energy -178716.302185 kJ/mol
# GULP energy per Si atom -5584.884443 kJ/mol
# Density = 1.022013 g / cm^3
# Si number density = 10.243449 Si / 1000 Ang^3
#
#
#
# Elastic Constant Matrix: (Units=GPa)
#
#
# Indices 1 2 3 4 5 6 
#
# 1 75.3930 -14.2258 52.2526 0.0000 -14.0620 0.0000
# 2 -14.2258 42.1153 14.4724 0.0000 -2.3555 0.0000
# 3 52.2526 14.4724 143.8095 0.0000 -8.1328 0.0000
# 4 0.0000 0.0000 0.0000 12.3715 0.0000 -11.2617
# 5 -14.0620 -2.3555 -8.1328 0.0000 47.0357 0.0000
# 6 0.0000 0.0000 0.0000 -11.2617 0.0000 33.6666
#
#
#
# Elastic Compliance Matrix: (Units=1/GPa)
#
#
# Indices 1 2 3 4 5 6 
#
# 1 0.022699 0.011096 -0.009037 0.000000 0.005779 0.000000
# 2 0.011096 0.030050 -0.006850 0.000000 0.003638 0.000000
# 3 -0.009037 -0.006850 0.010861 0.000000 -0.001167 0.000000
# 4 0.000000 0.000000 0.000000 0.116220 0.000000 0.038876
# 5 0.005779 0.003638 -0.001167 0.000000 0.022969 0.000000
# 6 0.000000 0.000000 0.000000 0.038876 0.000000 0.042708
#
#
# Mechanical properties :
#
#
# Convention : Reuss Voigt Hill
#
# Bulk Modulus (GPa) = 18.50930 40.70180 29.60555
# Shear Modulus (GPa) = 18.30847 32.53599 25.42223
#
# Velocity S-wave (km/s) = 2.99267 3.98947 3.52647
# Velocity P-wave (km/s) = 4.58211 6.41338 5.57347
#
# Compressibility (1/GPa) = 0.05402689
#
# Stress axis : x y z
#
# Youngs Moduli (GPa) = 44.05465 33.27801 92.07473
#
# Poissons Ratio (x) = -0.36926 0.83212
# Poissons Ratio (y) = -0.48884 0.63072
# Poissons Ratio (z) = 0.39814 0.22796
#
# Static dielectric constant tensor:
#      x y z
#    x 1.699660 0.000000 0.026750 
#    y 0.000000 1.811030 0.000000 
#    z 0.026750 0.000000 1.739910 
# 
# From -- ./inp_files/211419.got.cif
#   From: 2010.05.17/outbox.ucp.g08.bks.cvg/sg15_106_cif.got.tgz:211419.got - 2010.06.11 12:40:34.
