data_PCOD9309149
_publ_section_title
;
Structure prediction by ZEFSAII (Michael W. Deem and Ramdas Pophale) SiO2 
 PCOD9309149
Probable space group: C 2/C
;
_chemical_formula_sum "Si O2"
_cell_formula_units_Z 28
_cell_length_a 12.000000
_cell_length_b 9.000000
_cell_length_c 30.000000
_cell_angle_alpha 90.000000
_cell_angle_beta 60.000000
_cell_angle_gamma 90.000000
_cell_volume 2805.922308
_symmetry_space_group_name_H-M "C 2/C"
_symmetry_group_IT_number 15
_symmetry_cell_setting 'monoclinic'
loop_
_space_group_symop_operation_xyz
x,y,z
-x,y,1/2-z
-x,-y,-z
x,-y,1/2+z
1/2+x,1/2+y,z
1/2-x,1/2+y,1/2-z
1/2-x,1/2-y,-z
1/2+x,1/2-y,1/2+z
loop_
_atom_site_type_symbol
_atom_site_label
_atom_site_fract_x
_atom_site_fract_y
_atom_site_fract_z
Si Si1 0.320107 0.709727 0.256990
Si Si2 0.294893 0.892607 0.020181
Si Si3 0.439240 0.008431 0.574436
Si Si4 0.576905 0.622778 0.778416
Si Si5 0.780870 0.211150 0.624591
Si Si6 0.005162 0.683982 0.646212
Si Si7 0.016539 0.018939 0.610798
O O1 0.358028 0.538757 0.242529
O O2 0.185459 0.754228 0.262186
O O3 0.290272 0.745683 0.314545
O O4 0.429147 0.804129 0.208576
O O5 0.368173 0.880217 0.053750
O O6 0.155654 0.966183 0.059491
O O7 0.250000 0.750000 0.000000
O O8 0.411871 0.976276 0.970159
O O9 0.443310 0.069370 0.623890
O O10 0.354333 0.856929 0.591032
O O11 0.500000 0.658185 0.750000
O O12 0.489453 0.604779 0.840147
O O13 0.658416 0.157025 0.620666
O O14 0.894652 0.091306 0.609433
O O15 0.992492 0.847372 0.626848
#
# Coordination Sequence:
#
# PCOD9309149 Si02
#       7
#     8   8   8   8   8   8   8
#     4  10  21  37  63  93 128 167 199 248 311 371
#     4  11  23  45  66  90 123 165 212 270 318 360
#     4  11  25  41  70  92 118 169 215 256 316 374
#     4  10  21  38  61  90 124 166 203 254 310 369
#     4  11  21  42  63  92 130 165 204 250 310 377
#     4  11  23  40  63  96 127 160 210 255 307 376
#     4  10  22  40  62  90 127 162 206 259 314 370
#
# _framework density 9.9788940000000004
#
# number of rings (size 3 to 8) (size 9 to 14) (size 15 to 20)
#    0.000    1.429    2.857    3.000    2.000    1.714 
#    0.000   10.714    0.000    0.000    0.000    0.000 
#    0.000    0.000    0.000    0.000    0.000    0.000 
#
# Total GULP energy -156225.260236 kJ/mol
# GULP energy per Si atom -5579.473580 kJ/mol
# Density = 0.995618 g / cm^3
# Si number density = 9.978894 Si / 1000 Ang^3
#
#
#
# Elastic Constant Matrix: (Units=GPa)
#
#
# Indices 1 2 3 4 5 6 
#
# 1 98.6555 23.3823 18.5867 0.0000 11.6373 0.0000
# 2 23.3823 1.0277 -4.7230 0.0000 -1.8236 0.0000
# 3 18.5867 -4.7230 77.2748 0.0000 -27.7278 0.0000
# 4 0.0000 0.0000 0.0000 21.7096 0.0000 -20.1107
# 5 11.6373 -1.8236 -27.7278 0.0000 35.2514 0.0000
# 6 0.0000 0.0000 0.0000 -20.1107 0.0000 -17.0098
#
#
#
# Elastic Compliance Matrix: (Units=1/GPa)
#
#
# Indices 1 2 3 4 5 6 
#
# 1 -0.000351 0.037998 0.004394 0.000000 0.005537 0.000000
# 2 0.037998 -0.113640 -0.031620 0.000000 -0.043295 0.000000
# 3 0.004394 -0.031620 0.012322 0.000000 0.006606 0.000000
# 4 0.000000 0.000000 0.000000 0.021985 0.000000 -0.025992
# 5 0.005537 -0.043295 0.006606 0.000000 0.029496 0.000000
# 6 0.000000 0.000000 0.000000 -0.025992 0.000000 -0.028059
#
#
# Mechanical properties :
#
#
# Convention : Reuss Voigt Hill
#
# Bulk Modulus (GPa) = -12.48032 27.93889 7.72929
# Shear Modulus (GPa) = -39.52570 17.30437 -11.11066
#
# Velocity S-wave (km/s) = -4.45507 2.94776 -2.36203
# Velocity P-wave (km/s) = 5.72105 5.06114 1.88618
#
# Compressibility (1/GPa) = -0.08012616
#
# Stress axis : x y z
#
# Youngs Moduli (GPa) = -2851.91423 -8.79969 81.15832
#
# Poissons Ratio (x) = 0.33437 -0.35659
# Poissons Ratio (y) = 108.36749 2.56625
# Poissons Ratio (z) = 12.53060 -0.27825
#
# Static dielectric constant tensor:
#      x y z
#    x 1.720070 0.000000 0.027000 
#    y 0.000000 1.689290 0.000000 
#    z 0.027000 0.000000 1.723860 
# 
# From -- ./inp_files/291503.got.cif
#   From: 2010.05.17/outbox.ucp.g08.bks.cvg/sg15_146_cif.got.tgz:291503.got - 2010.06.11 12:40:34.
