data_PCOD9309787
_publ_section_title
;
Structure prediction by ZEFSAII (Michael W. Deem and Ramdas Pophale) SiO2 
 PCOD9309787
Probable space group: C 2/C
;
_chemical_formula_sum "Si O2"
_cell_formula_units_Z 22
_cell_length_a 12.000000
_cell_length_b 15.000000
_cell_length_c 12.000000
_cell_angle_alpha 90.000000
_cell_angle_beta 100.000000
_cell_angle_gamma 90.000000
_cell_volume 2127.184747
_symmetry_space_group_name_H-M "C 2/C"
_symmetry_group_IT_number 15
_symmetry_cell_setting 'monoclinic'
loop_
_space_group_symop_operation_xyz
x,y,z
-x,y,1/2-z
-x,-y,-z
x,-y,1/2+z
1/2+x,1/2+y,z
1/2-x,1/2+y,1/2-z
1/2-x,1/2-y,-z
1/2+x,1/2-y,1/2+z
loop_
_atom_site_type_symbol
_atom_site_label
_atom_site_fract_x
_atom_site_fract_y
_atom_site_fract_z
Si Si1 0.426068 0.424249 0.923773
Si Si2 0.090850 0.180404 0.853622
Si Si3 0.849216 0.344538 0.330737
Si Si4 0.678265 0.040991 0.267621
Si Si5 0.500000 0.697863 0.250000
Si Si6 0.987056 0.373352 0.586123
O O1 0.310623 0.443486 0.829846
O O2 0.508092 0.367484 0.857292
O O3 0.500000 0.500000 0.000000
O O4 0.392540 0.365981 0.024366
O O5 0.220474 0.185996 0.835530
O O6 0.033382 0.274663 0.870531
O O7 0.000000 0.136378 0.750000
O O8 0.835535 0.437835 0.265150
O O9 0.936934 0.364936 0.450241
O O10 0.900007 0.265686 0.264407
O O11 0.600850 0.064943 0.360797
O O12 0.613116 0.093623 0.151634
#
# Coordination Sequence:
#
# PCOD9309787 Si02
#       6
#     8   8   8   8   4   8
#     4  12  28  50  72 111 153 198 249 312 381 451
#     4  12  24  47  76 104 145 204 248 302 381 454
#     4  12  25  47  73 111 153 191 248 314 377 443
#     4  11  24  44  74 108 146 195 250 302 366 451
#     4  12  28  46  78 112 146 190 258 310 374 448
#     4  11  22  44  74 104 141 194 250 298 374 438
#
# _framework density 10.342307999999999
#
# number of rings (size 3 to 8) (size 9 to 14) (size 15 to 20)
#    0.000    0.364    5.455    4.364    3.818    0.000 
#    0.000    6.364    0.000    0.000    0.000    0.000 
#    0.000    0.000    0.000    0.000    0.000    0.000 
#
# Total GULP energy -122638.596040 kJ/mol
# GULP energy per Si atom -5574.481638 kJ/mol
# Density = 1.031877 g / cm^3
# Si number density = 10.342308 Si / 1000 Ang^3
#
#
#
# Elastic Constant Matrix: (Units=GPa)
#
#
# Indices 1 2 3 4 5 6 
#
# 1 126.8663 44.2933 63.9716 0.0000 19.5566 0.0000
# 2 44.2933 122.1429 38.9097 0.0000 10.1152 0.0000
# 3 63.9716 38.9097 128.6073 0.0000 30.6260 0.0000
# 4 0.0000 0.0000 0.0000 33.5947 0.0000 17.9940
# 5 19.5566 10.1152 30.6260 0.0000 51.6527 0.0000
# 6 0.0000 0.0000 0.0000 17.9940 0.0000 -14.2549
#
#
#
# Elastic Compliance Matrix: (Units=1/GPa)
#
#
# Indices 1 2 3 4 5 6 
#
# 1 0.011233 -0.002530 -0.004573 0.000000 -0.001046 0.000000
# 2 -0.002530 0.009632 -0.001670 0.000000 0.000062 0.000000
# 3 -0.004573 -0.001670 0.011720 0.000000 -0.004891 0.000000
# 4 0.000000 0.000000 0.000000 0.017759 0.000000 0.022418
# 5 -0.001046 0.000062 -0.004891 0.000000 0.022644 0.000000
# 6 0.000000 0.000000 0.000000 0.022418 0.000000 -0.041854
#
#
# Mechanical properties :
#
#
# Convention : Reuss Voigt Hill
#
# Bulk Modulus (GPa) = 66.49721 74.66285 70.58003
# Shear Modulus (GPa) = 93.12208 29.56128 61.34168
#
# Velocity S-wave (km/s) = 6.71697 3.78450 5.45161
# Velocity P-wave (km/s) = 9.61118 7.43443 8.59202
#
# Compressibility (1/GPa) = 0.01503822
#
# Stress axis : x y z
#
# Youngs Moduli (GPa) = 89.02587 103.82537 85.32289
#
# Poissons Ratio (x) = 0.26268 0.39016
# Poissons Ratio (y) = 0.22524 0.14251
# Poissons Ratio (z) = 0.40709 0.17342
#
# Static dielectric constant tensor:
#      x y z
#    x 1.745500 0.000000 -0.032360 
#    y 0.000000 1.807790 0.000000 
#    z -0.032360 0.000000 1.765310 
# 
# From -- ./inp_files/86145.got.cif
#   From: 2010.05.17/outbox.ucp.g08.bks.cvg/sg15_44_cif.got.tgz:86145.got - 2010.06.11 12:40:34.
