data_PCOD9309178
_publ_section_title
;
Structure prediction by ZEFSAII (Michael W. Deem and Ramdas Pophale) SiO2 
 PCOD9309178
Probable space group: C 2/C
;
_chemical_formula_sum "Si O2"
_cell_formula_units_Z 30
_cell_length_a 18.000000
_cell_length_b 15.000000
_cell_length_c 12.000000
_cell_angle_alpha 90.000000
_cell_angle_beta 110.000000
_cell_angle_gamma 90.000000
_cell_volume 3044.604091
_symmetry_space_group_name_H-M "C 2/C"
_symmetry_group_IT_number 15
_symmetry_cell_setting 'monoclinic'
loop_
_space_group_symop_operation_xyz
x,y,z
-x,y,1/2-z
-x,-y,-z
x,-y,1/2+z
1/2+x,1/2+y,z
1/2-x,1/2+y,1/2-z
1/2-x,1/2-y,-z
1/2+x,1/2-y,1/2+z
loop_
_atom_site_type_symbol
_atom_site_label
_atom_site_fract_x
_atom_site_fract_y
_atom_site_fract_z
Si Si1 0.086613 0.324416 0.759452
Si Si2 0.174172 0.275919 0.385208
Si Si3 0.500000 0.502273 0.750000
Si Si4 0.740998 0.592463 0.104060
Si Si5 0.136960 0.868396 0.353817
Si Si6 0.409818 0.348351 0.830182
Si Si7 0.434493 0.255802 0.496775
Si Si8 0.302088 0.607267 0.861272
O O1 0.169005 0.380431 0.816298
O O2 0.103486 0.231920 0.834289
O O3 0.074153 0.291688 0.626210
O O4 0.000000 0.362529 0.750000
O O5 0.250000 0.250000 0.500000
O O6 0.125519 0.200766 0.295735
O O7 0.106694 0.310256 0.434584
O O8 0.220068 0.337303 0.321083
O O9 0.435951 0.565473 0.655083
O O10 0.453530 0.438119 0.811641
O O11 0.669730 0.634256 0.141013
O O12 0.722904 0.487218 0.101860
O O13 0.714559 0.624525 0.968886
O O14 0.164739 0.897478 0.245746
O O15 0.478090 0.289193 0.925257
O O16 0.374155 0.341290 0.461020
#
# Coordination Sequence:
#
# PCOD9309178 Si02
#       8
#     8   8   4   8   8   8   8   8
#     4  11  24  44  60  87 126 173 214 254 310 374
#     4  10  21  39  60  87 126 163 202 255 311 373
#     4  12  22  36  66 100 134 148 200 266 330 378
#     4  12  25  38  65  89 126 171 213 254 311 382
#     4  11  23  40  61  94 131 162 201 261 326 382
#     4  12  22  38  62 100 125 159 206 259 334 381
#     4  10  21  39  66  89 124 161 202 269 326 376
#     4  10  23  39  60  92 124 161 212 259 308 370
#
# _framework density 9.8534980000000001
#
# number of rings (size 3 to 8) (size 9 to 14) (size 15 to 20)
#    0.000    1.067    3.333    4.400    3.733    3.200 
#    0.000    1.333    0.000    2.400    0.000    0.000 
#    0.000    0.000    0.000    0.000    0.000    0.000 
#
# Total GULP energy -167229.296127 kJ/mol
# GULP energy per Si atom -5574.309871 kJ/mol
# Density = 0.983107 g / cm^3
# Si number density = 9.853498 Si / 1000 Ang^3
#
#
#
# Elastic Constant Matrix: (Units=GPa)
#
#
# Indices 1 2 3 4 5 6 
#
# 1 152.2390 29.3900 35.3984 0.0000 22.9519 0.0000
# 2 29.3900 35.5479 12.3441 0.0000 5.8392 0.0000
# 3 35.3984 12.3441 81.4622 0.0000 15.4455 0.0000
# 4 0.0000 0.0000 0.0000 13.3536 0.0000 8.3598
# 5 22.9519 5.8392 15.4455 0.0000 30.7979 0.0000
# 6 0.0000 0.0000 0.0000 8.3598 0.0000 32.4778
#
#
#
# Elastic Compliance Matrix: (Units=1/GPa)
#
#
# Indices 1 2 3 4 5 6 
#
# 1 0.008861 -0.005862 -0.002123 0.000000 -0.004428 0.000000
# 2 -0.005862 0.033964 -0.002439 0.000000 -0.000848 0.000000
# 3 -0.002123 -0.002439 0.014565 0.000000 -0.005260 0.000000
# 4 0.000000 0.000000 0.000000 0.089272 0.000000 -0.022979
# 5 -0.004428 -0.000848 -0.005260 0.000000 0.038568 0.000000
# 6 0.000000 0.000000 0.000000 -0.022979 0.000000 0.036705
#
#
# Mechanical properties :
#
#
# Convention : Reuss Voigt Hill
#
# Bulk Modulus (GPa) = 27.36479 47.05715 37.21097
# Shear Modulus (GPa) = 19.61072 28.13364 23.87218
#
# Velocity S-wave (km/s) = 3.15797 3.78245 3.48423
# Velocity P-wave (km/s) = 5.21661 6.55791 5.92533
#
# Compressibility (1/GPa) = 0.03654331
#
# Stress axis : x y z
#
# Youngs Moduli (GPa) = 112.84875 29.44334 68.65801
#
# Poissons Ratio (x) = 0.17259 0.14575
# Poissons Ratio (y) = 0.66150 0.16743
# Poissons Ratio (z) = 0.23956 0.07180
#
# Static dielectric constant tensor:
#      x y z
#    x 1.711780 0.000000 -0.083560 
#    y 0.000000 1.738830 0.000000 
#    z -0.083560 0.000000 1.788040 
# 
# From -- ./inp_files/105753.got.cif
#   From: 2010.05.17/outbox.ucp.g08.bks.cvg/sg15_53_cif.got.tgz:105753.got - 2010.06.11 12:40:34.
