data_PCOD9309152
_publ_section_title
;
Structure prediction by ZEFSAII (Michael W. Deem and Ramdas Pophale) SiO2 
 PCOD9309152
Probable space group: C 2/C
;
_chemical_formula_sum "Si O2"
_cell_formula_units_Z 32
_cell_length_a 30.000000
_cell_length_b 9.000000
_cell_length_c 18.000000
_cell_angle_alpha 90.000000
_cell_angle_beta 40.000000
_cell_angle_gamma 90.000000
_cell_volume 3123.947783
_symmetry_space_group_name_H-M "C 2/C"
_symmetry_group_IT_number 15
_symmetry_cell_setting 'monoclinic'
loop_
_space_group_symop_operation_xyz
x,y,z
-x,y,1/2-z
-x,-y,-z
x,-y,1/2+z
1/2+x,1/2+y,z
1/2-x,1/2+y,1/2-z
1/2-x,1/2-y,-z
1/2+x,1/2-y,1/2+z
loop_
_atom_site_type_symbol
_atom_site_label
_atom_site_fract_x
_atom_site_fract_y
_atom_site_fract_z
Si Si1 0.216444 0.515717 0.986919
Si Si2 0.632358 0.316986 0.903270
Si Si3 0.205385 0.248483 0.162838
Si Si4 0.493453 0.097996 0.434624
Si Si5 0.348448 0.060762 0.285679
Si Si6 0.069242 0.610215 0.611481
Si Si7 0.653315 0.377758 0.446100
Si Si8 0.728072 0.279374 0.207999
O O1 0.265919 0.371757 0.931878
O O2 0.260070 0.619622 0.877676
O O3 0.196849 0.601575 0.085627
O O4 0.140768 0.460590 0.053212
O O5 0.665469 0.341907 0.779103
O O6 0.631262 0.451970 0.963696
O O7 0.695287 0.217990 0.854877
O O8 0.558005 0.238044 0.990763
O O9 0.152808 0.380963 0.209559
O O10 0.275710 0.332218 0.101504
O O11 0.574022 0.125295 0.310484
O O12 0.500000 0.000000 0.500000
O O13 0.454950 0.995377 0.424105
O O14 0.304239 0.120298 0.272709
O O15 0.093251 0.772332 0.553533
O O16 0.000000 0.619364 0.750000
O O17 0.673254 0.337440 0.336614
#
# Coordination Sequence:
#
# PCOD9309152 Si02
#       8
#     8   8   8   8   8   8   8   8
#     4  11  22  40  66  92 131 169 214 270 331 388
#     4  11  21  40  65  94 126 168 216 271 324 386
#     4  10  21  37  64  95 125 162 219 271 322 378
#     4  12  24  40  67  95 129 176 222 271 320 396
#     4  12  23  39  61  97 131 169 216 272 329 388
#     4  11  23  44  65  95 131 177 218 262 333 401
#     4  10  22  39  67  92 125 173 219 268 319 390
#     4  11  22  39  64  97 127 164 220 273 320 388
#
# _framework density 10.243449
#
# number of rings (size 3 to 8) (size 9 to 14) (size 15 to 20)
#    0.000    1.000    6.250    1.500    0.000    0.000 
#    0.000    5.625    0.000    0.000    0.000    0.000 
#    0.000    0.000    0.000    0.000    0.000    0.000 
#
# Total GULP energy -178258.286265 kJ/mol
# GULP energy per Si atom -5570.571446 kJ/mol
# Density = 1.022013 g / cm^3
# Si number density = 10.243449 Si / 1000 Ang^3
#
#
#
# Elastic Constant Matrix: (Units=GPa)
#
#
# Indices 1 2 3 4 5 6 
#
# 1 29.6999 0.7879 36.3042 -0.0005 -3.0768 0.0004
# 2 0.7879 48.5740 49.1558 -0.0024 -3.4368 0.0017
# 3 36.3042 49.1558 50.2582 -0.0011 -15.9174 0.0002
# 4 -0.0005 -0.0024 -0.0011 31.7991 0.0003 -0.1462
# 5 -3.0768 -3.4368 -15.9174 0.0003 30.8262 -0.0002
# 6 0.0004 0.0017 0.0002 -0.1462 -0.0002 29.1351
#
#
#
# Elastic Compliance Matrix: (Units=1/GPa)
#
#
# Indices 1 2 3 4 5 6 
#
# 1 0.003474 -0.025787 0.026195 -0.000001 0.010998 0.000001
# 2 -0.025787 -0.000483 0.021839 0.000000 0.008649 0.000000
# 3 0.026195 0.021839 -0.022458 0.000001 -0.006547 -0.000001
# 4 -0.000001 0.000000 0.000001 0.031448 0.000000 0.000158
# 5 0.010998 0.008649 -0.006547 0.000000 0.031121 0.000000
# 6 0.000001 0.000000 -0.000001 0.000158 0.000000 0.034324
#
#
# Mechanical properties :
#
#
# Convention : Reuss Voigt Hill
#
# Bulk Modulus (GPa) = 39.95726 33.44755 36.70240
# Shear Modulus (GPa) = 121.14445 21.17104 71.15774
#
# Velocity S-wave (km/s) = 7.69812 3.21813 5.89989
# Velocity P-wave (km/s) = 9.92778 5.49275 8.02281
#
# Compressibility (1/GPa) = 0.02502674
#
# Stress axis : x y z
#
# Youngs Moduli (GPa) = 287.85060 -2068.56585 -44.52689
#
# Poissons Ratio (x) = -53.34141 1.16637
# Poissons Ratio (y) = 7.42271 0.97243
# Poissons Ratio (z) = -7.54016 45.17584
#
# Static dielectric constant tensor:
#      x y z
#    x 1.783470 0.000000 0.078020 
#    y 0.000000 1.819990 0.000000 
#    z 0.078020 0.000000 1.744160 
# 
# From -- ./inp_files/224571.got.cif
#   From: 2010.05.17/outbox.ucp.g08.bks.cvg/sg15_113_cif.got.tgz:224571.got - 2010.06.11 12:40:34.
