data_PCOD9309886
_publ_section_title
;
Structure prediction by ZEFSAII (Michael W. Deem and Ramdas Pophale) SiO2 
 PCOD9309886
Probable space group: C 2/C
;
_chemical_formula_sum "Si O2"
_cell_formula_units_Z 24
_cell_length_a 15.000000
_cell_length_b 9.000000
_cell_length_c 27.000000
_cell_angle_alpha 90.000000
_cell_angle_beta 40.000000
_cell_angle_gamma 90.000000
_cell_volume 2342.960837
_symmetry_space_group_name_H-M "C 2/C"
_symmetry_group_IT_number 15
_symmetry_cell_setting 'monoclinic'
loop_
_space_group_symop_operation_xyz
x,y,z
-x,y,1/2-z
-x,-y,-z
x,-y,1/2+z
1/2+x,1/2+y,z
1/2-x,1/2+y,1/2-z
1/2-x,1/2-y,-z
1/2+x,1/2-y,1/2+z
loop_
_atom_site_type_symbol
_atom_site_label
_atom_site_fract_x
_atom_site_fract_y
_atom_site_fract_z
Si Si1 0.670872 0.124446 0.564078
Si Si2 0.403599 0.683292 0.655998
Si Si3 0.109104 0.389058 0.428459
Si Si4 0.134106 0.522831 0.808072
Si Si5 0.790837 0.878210 0.445388
Si Si6 0.088799 0.146606 0.963229
O O1 0.750000 0.250000 0.500000
O O2 0.507416 0.112785 0.644854
O O3 0.762070 0.116616 0.575630
O O4 0.697937 0.000577 0.511351
O O5 0.267733 0.584440 0.722998
O O6 0.543492 0.605813 0.617988
O O7 0.411753 0.705248 0.592988
O O8 0.390046 0.845909 0.686948
O O9 0.163190 0.448843 0.353769
O O10 0.232551 0.357047 0.414926
O O11 0.000000 0.500000 0.500000
O O12 0.008481 0.250530 0.461849
O O13 0.750000 0.750000 0.500000
O O14 0.000000 0.000000 0.000000
#
# Coordination Sequence:
#
# PCOD9309886 Si02
#       6
#     8   8   8   8   8   8
#     4  12  23  40  72 104 129 172 228 278 329 398
#     4  12  28  47  66 101 143 176 221 285 344 398
#     4  12  21  44  72  98 129 179 232 273 324 404
#     4  12  28  47  66 101 143 176 221 285 344 398
#     4  12  21  44  72  98 129 179 232 273 324 404
#     4  12  23  40  72 104 129 172 228 278 329 398
#
# _framework density 10.243449
#
# number of rings (size 3 to 8) (size 9 to 14) (size 15 to 20)
#    0.000    0.000   10.000    0.000    4.667    1.333 
#    0.000    3.333    0.000    0.000    0.000    0.000 
#    0.000    0.000    0.000    0.000    0.000    0.000 
#
# Total GULP energy -133742.252475 kJ/mol
# GULP energy per Si atom -5572.593853 kJ/mol
# Density = 1.022013 g / cm^3
# Si number density = 10.243449 Si / 1000 Ang^3
#
#
#
# Elastic Constant Matrix: (Units=GPa)
#
#
# Indices 1 2 3 4 5 6 
#
# 1 162.9342 -27.3701 15.6019 0.0000 -27.4259 0.0000
# 2 -27.3701 36.1105 -5.0147 0.0000 -0.1258 0.0001
# 3 15.6019 -5.0147 73.6696 0.0000 -29.3940 0.0000
# 4 0.0000 0.0000 0.0000 29.3142 0.0000 0.9338
# 5 -27.4259 -0.1258 -29.3940 0.0000 43.9309 0.0000
# 6 0.0000 0.0001 0.0000 0.9338 0.0000 21.2435
#
#
#
# Elastic Compliance Matrix: (Units=1/GPa)
#
#
# Indices 1 2 3 4 5 6 
#
# 1 0.008056 0.006265 0.001002 0.000000 0.005718 0.000000
# 2 0.006265 0.032940 0.003429 0.000000 0.006300 0.000000
# 3 0.001002 0.003429 0.018893 0.000000 0.013276 0.000000
# 4 0.000000 0.000000 0.000000 0.034161 0.000000 -0.001502
# 5 0.005718 0.006300 0.013276 0.000000 0.035234 0.000000
# 6 0.000000 0.000000 0.000000 -0.001502 0.000000 0.047139
#
#
# Mechanical properties :
#
#
# Convention : Reuss Voigt Hill
#
# Bulk Modulus (GPa) = 12.30295 26.57205 19.43750
# Shear Modulus (GPa) = 27.45381 38.19752 32.82567
#
# Velocity S-wave (km/s) = 3.66466 4.32265 4.00719
# Velocity P-wave (km/s) = 4.89128 6.15729 5.56043
#
# Compressibility (1/GPa) = 0.08128133
#
# Stress axis : x y z
#
# Youngs Moduli (GPa) = 124.12395 30.35833 52.93097
#
# Poissons Ratio (x) = -0.19021 -0.05302
# Poissons Ratio (y) = -0.77769 -0.18151
# Poissons Ratio (z) = -0.12433 -0.10410
#
# Static dielectric constant tensor:
#      x y z
#    x 1.756260 0.000000 -0.009730 
#    y 0.000000 1.693470 0.000000 
#    z -0.009730 0.000000 1.669800 
# 
# From -- ./inp_files/242593.got.cif
#   From: 2010.05.17/outbox.ucp.g08.bks.cvg/sg15_122_cif.got.tgz:242593.got - 2010.06.11 12:40:34.
