data_PCOD9309882
_publ_section_title
;
Structure prediction by ZEFSAII (Michael W. Deem and Ramdas Pophale) SiO2 
 PCOD9309882
Probable space group: C 2/C
;
_chemical_formula_sum "Si O2"
_cell_formula_units_Z 32
_cell_length_a 18.000000
_cell_length_b 21.000000
_cell_length_c 27.000000
_cell_angle_alpha 90.000000
_cell_angle_beta 20.000000
_cell_angle_gamma 90.000000
_cell_volume 3490.657583
_symmetry_space_group_name_H-M "C 2/C"
_symmetry_group_IT_number 15
_symmetry_cell_setting 'monoclinic'
loop_
_space_group_symop_operation_xyz
x,y,z
-x,y,1/2-z
-x,-y,-z
x,-y,1/2+z
1/2+x,1/2+y,z
1/2-x,1/2+y,1/2-z
1/2-x,1/2-y,-z
1/2+x,1/2-y,1/2+z
loop_
_atom_site_type_symbol
_atom_site_label
_atom_site_fract_x
_atom_site_fract_y
_atom_site_fract_z
Si Si1 0.867479 0.516352 0.933211
Si Si2 0.302155 0.359817 0.340076
Si Si3 0.434771 0.330458 0.146114
Si Si4 0.137142 0.965822 0.368247
Si Si5 0.781764 0.494306 0.604811
Si Si6 0.620037 0.819227 0.831546
Si Si7 0.438054 0.427499 0.669391
Si Si8 0.910821 0.626798 0.362936
O O1 0.114662 0.536316 0.769546
O O2 0.849845 0.443850 0.922619
O O3 0.824830 0.517833 0.019634
O O4 0.696524 0.562765 0.013359
O O5 0.500000 0.333801 0.250000
O O6 0.315898 0.340377 0.273794
O O7 0.324269 0.436222 0.325064
O O8 0.080134 0.341848 0.507703
O O9 0.411026 0.393711 0.124184
O O10 0.367589 0.258277 0.171491
O O11 0.691686 0.331863 0.996938
O O12 0.000000 0.000000 0.500000
O O13 0.127978 0.016023 0.327942
O O14 0.647889 0.443671 0.721203
O O15 0.000000 0.500000 0.500000
O O16 0.563006 0.840924 0.810219
O O17 0.827529 0.862177 0.719092
O O18 0.000000 0.621633 0.250000
#
# Coordination Sequence:
#
# PCOD9309882 Si02
#       8
#     8   8   8   8   8   8   8   8
#     4  12  23  41  68 100 128 168 228 285 334 399
#     4  12  21  38  63  91 129 165 214 272 340 408
#     4  12  26  41  64  96 134 183 218 280 350 410
#     4  12  25  43  68  95 132 177 232 272 331 400
#     4  12  18  38  66  95 124 155 213 273 335 385
#     4  12  27  41  60  99 139 175 223 277 349 411
#     4  12  24  40  66  96 131 171 218 283 332 400
#     4  12  23  40  65  98 137 177 220 276 350 419
#
# _framework density 9.1673270000000002
#
# number of rings (size 3 to 8) (size 9 to 14) (size 15 to 20)
#    0.000    0.000    8.750    2.250    1.750    0.000 
#    0.000    0.625    0.000    0.000    3.250    0.000 
#    0.000    0.000    0.000    0.000    0.000    0.000 
#
# Total GULP energy -178587.221921 kJ/mol
# GULP energy per Si atom -5580.850685 kJ/mol
# Density = 0.914646 g / cm^3
# Si number density = 9.167327 Si / 1000 Ang^3
#
#
#
# Elastic Constant Matrix: (Units=GPa)
#
#
# Indices 1 2 3 4 5 6 
#
# 1 111.8853 50.9374 58.6513 -0.0293 8.1786 0.0037
# 2 50.9374 140.6394 28.8867 -0.1738 -5.1263 0.0176
# 3 58.6513 28.8867 104.2319 -0.3726 -7.7697 0.0394
# 4 -0.0293 -0.1738 -0.3726 21.5707 0.0624 -2.6539
# 5 8.1786 -5.1263 -7.7697 0.0624 54.5591 0.0063
# 6 0.0037 0.0176 0.0394 -2.6539 0.0063 33.5028
#
#
#
# Elastic Compliance Matrix: (Units=1/GPa)
#
#
# Indices 1 2 3 4 5 6 
#
# 1 0.015034 -0.004015 -0.007624 -0.000133 -0.003716 0.000000
# 2 -0.004015 0.008621 -0.000025 0.000060 0.001408 0.000000
# 3 -0.007624 -0.000025 0.014127 0.000224 0.003152 0.000001
# 4 -0.000133 0.000060 0.000224 0.046820 0.000004 0.003708
# 5 -0.003716 0.001408 0.003152 0.000004 0.019467 -0.000007
# 6 0.000000 0.000000 0.000001 0.003708 -0.000007 0.030142
#
#
# Mechanical properties :
#
#
# Convention : Reuss Voigt Hill
#
# Bulk Modulus (GPa) = 69.18671 70.41193 69.79932
# Shear Modulus (GPa) = 30.79642 36.47861 33.63752
#
# Velocity S-wave (km/s) = 4.10284 4.46533 4.28792
# Velocity P-wave (km/s) = 7.76285 8.06676 7.91626
#
# Compressibility (1/GPa) = 0.01445364
#
# Stress axis : x y z
#
# Youngs Moduli (GPa) = 66.51637 115.99645 70.78662
#
# Poissons Ratio (x) = 0.46568 0.53971
# Poissons Ratio (y) = 0.26704 0.00177
# Poissons Ratio (z) = 0.50715 0.00290
#
# Static dielectric constant tensor:
#      x y z
#    x 1.660450 -0.000030 -0.013320 
#    y -0.000030 1.638950 0.000030 
#    z -0.013320 0.000030 1.692670 
# 
# From -- ./inp_files/299498.got.cif
#   From: 2010.05.17/outbox.ucp.g08.bks.cvg/sg15_150_cif.got.tgz:299498.got - 2010.06.11 12:40:34.
