data_PCOD9309751
_publ_section_title
;
Structure prediction by ZEFSAII (Michael W. Deem and Ramdas Pophale) SiO2 
 PCOD9309751
Probable space group: C 2/C
;
_chemical_formula_sum "Si O2"
_cell_formula_units_Z 20
_cell_length_a 24.000000
_cell_length_b 9.000000
_cell_length_c 9.000000
_cell_angle_alpha 90.000000
_cell_angle_beta 90.000000
_cell_angle_gamma 90.000000
_cell_volume 1944.000000
_symmetry_space_group_name_H-M "C 2/C"
_symmetry_group_IT_number 15
_symmetry_cell_setting 'monoclinic'
loop_
_space_group_symop_operation_xyz
x,y,z
-x,y,1/2-z
-x,-y,-z
x,-y,1/2+z
1/2+x,1/2+y,z
1/2-x,1/2+y,1/2-z
1/2-x,1/2-y,-z
1/2+x,1/2-y,1/2+z
loop_
_atom_site_type_symbol
_atom_site_label
_atom_site_fract_x
_atom_site_fract_y
_atom_site_fract_z
Si Si1 0.729369 0.444128 0.673752
Si Si2 0.810462 0.585243 0.438017
Si Si3 0.632949 0.672759 0.706644
Si Si4 0.358531 0.226635 0.969679
Si Si5 0.541180 0.440348 0.626786
O O1 0.772747 0.539955 0.577205
O O2 0.765295 0.383298 0.809331
O O3 0.680803 0.550756 0.732101
O O4 0.696546 0.319968 0.578917
O O5 0.849679 0.729505 0.436387
O O6 0.848093 0.438840 0.409966
O O7 0.576229 0.582562 0.685553
O O8 0.634071 0.775034 0.852290
O O9 0.412235 0.319062 0.915757
O O10 0.500000 0.377302 0.750000
O O11 0.500000 0.500000 0.500000
#
# Coordination Sequence:
#
# PCOD9309751 Si02
#       5
#     8   8   8   8   8
#     4  11  22  37  63  90 130 174 199 238 294 369
#     4  12  22  38  61  93 135 161 198 247 305 360
#     4  11  23  40  63  94 124 163 208 249 300 367
#     4  11  23  41  62  93 126 162 207 251 302 364
#     4  11  24  45  71  87 113 159 212 263 311 359
#
# _framework density 10.288066000000001
#
# number of rings (size 3 to 8) (size 9 to 14) (size 15 to 20)
#    0.000    0.800    6.000    2.400    0.000    1.600 
#    0.000    2.000    0.000    0.000    0.000    0.000 
#    0.000    0.000    0.000    0.000    0.000    0.000 
#
# Total GULP energy -111737.320602 kJ/mol
# GULP energy per Si atom -5586.866030 kJ/mol
# Density = 1.026465 g / cm^3
# Si number density = 10.288066 Si / 1000 Ang^3
#
#
#
# Elastic Constant Matrix: (Units=GPa)
#
#
# Indices 1 2 3 4 5 6 
#
# 1 110.2508 31.9955 16.4901 0.0000 -0.7382 0.0000
# 2 31.9955 63.9268 -16.6606 0.0000 7.5086 0.0000
# 3 16.4901 -16.6606 29.9287 0.0000 3.4896 0.0000
# 4 0.0000 0.0000 0.0000 22.9969 0.0000 -9.1890
# 5 -0.7382 7.5086 3.4896 0.0000 32.8427 0.0000
# 6 0.0000 0.0000 0.0000 -9.1890 0.0000 26.0305
#
#
#
# Elastic Compliance Matrix: (Units=1/GPa)
#
#
# Indices 1 2 3 4 5 6 
#
# 1 0.014917 -0.012058 -0.015484 0.000000 0.004737 0.000000
# 2 -0.012058 0.029015 0.023897 0.000000 -0.009444 0.000000
# 3 -0.015484 0.023897 0.056626 0.000000 -0.011828 0.000000
# 4 0.000000 0.000000 0.000000 0.050625 0.000000 0.017871
# 5 0.004737 -0.009444 -0.011828 0.000000 0.033970 0.000000
# 6 0.000000 0.000000 0.000000 0.017871 0.000000 0.044725
#
#
# Mechanical properties :
#
#
# Convention : Reuss Voigt Hill
#
# Bulk Modulus (GPa) = 10.72175 29.75070 20.23623
# Shear Modulus (GPa) = 18.63882 27.85945 23.24914
#
# Velocity S-wave (km/s) = 3.01299 3.68362 3.36506
# Velocity P-wave (km/s) = 4.16248 5.70809 4.99543
#
# Compressibility (1/GPa) = 0.09326835
#
# Stress axis : x y z
#
# Youngs Moduli (GPa) = 67.03725 34.46491 17.65980
#
# Poissons Ratio (x) = 0.41557 0.27344
# Poissons Ratio (y) = 0.80832 -0.42201
# Poissons Ratio (z) = 1.03798 -0.82360
#
# Static dielectric constant tensor:
#      x y z
#    x 1.699980 0.000000 -0.062380 
#    y 0.000000 1.724540 0.000000 
#    z -0.062380 0.000000 1.869490 
# 
# From -- ./inp_files/59891.got.cif
#   From: 2010.05.17/outbox.ucp.g08.bks.cvg/sg15_30_cif.got.tgz:59891.got - 2010.06.11 12:40:34.
