data_PCOD9309600
_publ_section_title
;
Structure prediction by ZEFSAII (Michael W. Deem and Ramdas Pophale) SiO2 
 PCOD9309600
Probable space group: C 2/C
;
_chemical_formula_sum "Si O2"
_cell_formula_units_Z 32
_cell_length_a 9.000000
_cell_length_b 30.000000
_cell_length_c 18.000000
_cell_angle_alpha 90.000000
_cell_angle_beta 40.000000
_cell_angle_gamma 90.000000
_cell_volume 3123.947783
_symmetry_space_group_name_H-M "C 2/C"
_symmetry_group_IT_number 15
_symmetry_cell_setting 'monoclinic'
loop_
_space_group_symop_operation_xyz
x,y,z
-x,y,1/2-z
-x,-y,-z
x,-y,1/2+z
1/2+x,1/2+y,z
1/2-x,1/2+y,1/2-z
1/2-x,1/2-y,-z
1/2+x,1/2-y,1/2+z
loop_
_atom_site_type_symbol
_atom_site_label
_atom_site_fract_x
_atom_site_fract_y
_atom_site_fract_z
Si Si1 0.850933 0.082808 0.007507
Si Si2 0.810698 0.798291 0.755604
Si Si3 0.014736 0.114374 0.385574
Si Si4 0.168781 0.047007 0.755367
Si Si5 0.610159 0.953382 0.790040
Si Si6 0.536870 0.127311 0.911315
Si Si7 0.350123 0.704463 0.731628
Si Si8 0.191053 0.330578 0.507158
O O1 0.735093 0.131440 0.050013
O O2 0.034037 0.072327 0.873318
O O3 0.971253 0.086226 0.042176
O O4 0.631509 0.051000 0.073648
O O5 0.874818 0.836482 0.670836
O O6 0.796146 0.748778 0.727825
O O7 0.000000 0.801375 0.750000
O O8 0.547368 0.805639 0.885096
O O9 0.189547 0.083044 0.269572
O O10 0.741236 0.123261 0.476721
O O11 0.366526 0.079869 0.650475
O O12 0.000000 0.038689 0.750000
O O13 0.275089 0.001293 0.745005
O O14 0.500000 0.945713 0.750000
O O15 0.663865 0.164130 0.809443
O O16 0.642657 0.142386 0.949651
O O17 0.500000 0.709064 0.750000
O O18 0.564002 0.695260 0.593139
#
# Coordination Sequence:
#
# PCOD9309600 Si02
#       8
#     8   8   8   8   8   8   8   8
#     4  11  24  44  70  94 133 176 218 270 328 394
#     4  12  25  43  68 100 133 173 222 277 329 388
#     4  11  26  43  67  98 133 174 216 274 330 388
#     4  12  25  43  70  98 130 176 222 269 327 391
#     4  10  26  44  64  99 135 170 220 270 327 396
#     4  11  23  45  65  99 133 169 220 276 327 390
#     4  10  24  43  66  96 134 175 221 270 329 397
#     4  11  21  45  69  94 133 174 221 271 332 382
#
# _framework density 10.243449
#
# number of rings (size 3 to 8) (size 9 to 14) (size 15 to 20)
#    0.000    1.000    5.000    0.750    5.250    4.500 
#    0.000    0.000    0.000    0.000    0.000    0.000 
#    0.000    0.000    0.000    0.000    0.000    0.000 
#
# Total GULP energy -178355.152447 kJ/mol
# GULP energy per Si atom -5573.598514 kJ/mol
# Density = 1.022013 g / cm^3
# Si number density = 10.243449 Si / 1000 Ang^3
#
#
#
# Elastic Constant Matrix: (Units=GPa)
#
#
# Indices 1 2 3 4 5 6 
#
# 1 52.5247 27.3781 22.2325 0.0000 -18.1076 0.0000
# 2 27.3781 109.5437 18.3384 0.0000 -29.4740 0.0000
# 3 22.2325 18.3384 81.2555 0.0000 -30.4918 0.0000
# 4 0.0000 0.0000 0.0000 29.1051 0.0000 -7.1638
# 5 -18.1076 -29.4740 -30.4918 0.0000 33.4449 0.0000
# 6 0.0000 0.0000 0.0000 -7.1638 0.0000 29.3659
#
#
#
# Elastic Compliance Matrix: (Units=1/GPa)
#
#
# Indices 1 2 3 4 5 6 
#
# 1 0.024840 -0.003727 -0.003255 0.000000 0.007197 0.000000
# 2 -0.003727 0.012724 0.002430 0.000000 0.011411 0.000000
# 3 -0.003255 0.002430 0.019443 0.000000 0.018106 0.000000
# 4 0.000000 0.000000 0.000000 0.036553 0.000000 0.008917
# 5 0.007197 0.011411 0.018106 0.000000 0.060360 0.000000
# 6 0.000000 0.000000 0.000000 0.008917 0.000000 0.036228
#
#
# Mechanical properties :
#
#
# Convention : Reuss Voigt Hill
#
# Bulk Modulus (GPa) = 20.87506 42.13577 31.50541
# Shear Modulus (GPa) = 23.23212 30.07483 26.65347
#
# Velocity S-wave (km/s) = 3.37114 3.83561 3.61085
# Velocity P-wave (km/s) = 5.03631 6.34253 5.72678
#
# Compressibility (1/GPa) = 0.04790405
#
# Stress axis : x y z
#
# Youngs Moduli (GPa) = 40.25756 78.59422 51.43144
#
# Poissons Ratio (x) = 0.29292 0.16739
# Poissons Ratio (y) = 0.15004 -0.12498
# Poissons Ratio (z) = 0.13102 -0.19099
#
# Static dielectric constant tensor:
#      x y z
#    x 1.727330 0.000000 0.038860 
#    y 0.000000 1.731930 0.000000 
#    z 0.038860 0.000000 1.809590 
# 
# From -- ./inp_files/194215.got.cif
#   From: 2010.05.17/outbox.ucp.g08.bks.cvg/sg15_98_cif.got.tgz:194215.got - 2010.06.11 12:40:34.
