data_PCOD9309892
_publ_section_title
;
Structure prediction by ZEFSAII (Michael W. Deem and Ramdas Pophale) SiO2 
 PCOD9309892
Probable space group: C 2/C
;
_chemical_formula_sum "Si O2"
_cell_formula_units_Z 18
_cell_length_a 21.000000
_cell_length_b 6.000000
_cell_length_c 27.000000
_cell_angle_alpha 90.000000
_cell_angle_beta 30.000000
_cell_angle_gamma 90.000000
_cell_volume 1701.000000
_symmetry_space_group_name_H-M "C 2/C"
_symmetry_group_IT_number 15
_symmetry_cell_setting 'monoclinic'
loop_
_space_group_symop_operation_xyz
x,y,z
-x,y,1/2-z
-x,-y,-z
x,-y,1/2+z
1/2+x,1/2+y,z
1/2-x,1/2+y,1/2-z
1/2-x,1/2-y,-z
1/2+x,1/2-y,1/2+z
loop_
_atom_site_type_symbol
_atom_site_label
_atom_site_fract_x
_atom_site_fract_y
_atom_site_fract_z
Si Si1 0.701285 0.480884 0.413299
Si Si2 0.936784 0.472248 0.701895
Si Si3 0.500000 0.358257 0.250000
Si Si4 0.856335 0.743858 0.886868
Si Si5 0.930749 0.478896 0.993721
O O1 0.785901 0.486275 0.306526
O O2 0.809017 0.454733 0.383349
O O3 0.636638 0.727468 0.460058
O O4 0.632696 0.235106 0.466011
O O5 0.972827 0.271579 0.716254
O O6 0.012332 0.679181 0.675293
O O7 0.986658 0.455085 0.612330
O O8 0.618705 0.524316 0.157783
O O9 0.750000 0.750000 0.000000
O O10 0.000000 0.500000 0.000000
#
# Coordination Sequence:
#
# PCOD9309892 Si02
#       5
#     8   8   4   8   8
#     4  12  25  47  74 104 147 188 242 307 365 429
#     4  12  26  41  75 109 147 190 235 305 372 447
#     4  12  22  42  66 116 154 178 244 290 382 448
#     4  12  23  40  69 109 148 185 232 299 378 443
#     4  12  30  50  72 104 143 199 256 297 358 434
#
# _framework density 10.582011
#
# number of rings (size 3 to 8) (size 9 to 14) (size 15 to 20)
#    0.000    0.000    6.667    3.333    0.000    3.556 
#    0.000    0.000    0.000    0.000    0.000    0.000 
#    0.000    0.000    0.000    0.000    0.000    0.000 
#
# Total GULP energy -100202.433867 kJ/mol
# GULP energy per Si atom -5566.801882 kJ/mol
# Density = 1.055793 g / cm^3
# Si number density = 10.582011 Si / 1000 Ang^3
#
#
#
# Elastic Constant Matrix: (Units=GPa)
#
#
# Indices 1 2 3 4 5 6 
#
# 1 97.2593 30.4155 41.7845 -0.0253 40.2594 0.0278
# 2 30.4155 159.0188 86.4069 -0.0558 24.2861 0.0953
# 3 41.7845 86.4069 185.7116 0.0059 46.6118 0.0015
# 4 -0.0253 -0.0558 0.0059 50.8893 0.0067 -8.4282
# 5 40.2594 24.2861 46.6118 0.0067 21.3993 -0.0102
# 6 0.0278 0.0953 0.0015 -8.4282 -0.0102 36.4310
#
#
#
# Elastic Compliance Matrix: (Units=1/GPa)
#
#
# Indices 1 2 3 4 5 6 
#
# 1 -0.278169 0.007060 -0.154509 -0.000158 0.851872 0.000403
# 2 0.007060 0.008287 0.000552 0.000010 -0.023888 -0.000031
# 3 -0.154509 0.000552 -0.072602 -0.000090 0.448202 0.000224
# 4 -0.000158 0.000010 -0.000090 0.020433 0.000477 0.004727
# 5 0.851872 -0.023888 0.448202 0.000477 -2.505100 -0.001199
# 6 0.000403 -0.000031 0.000224 0.004727 -0.001199 0.028542
#
#
# Mechanical properties :
#
#
# Convention : Reuss Voigt Hill
#
# Bulk Modulus (GPa) = -1.57163 84.35596 41.39217
# Shear Modulus (GPa) = -1.84033 40.63609 19.39788
#
# Velocity S-wave (km/s) = -0.93351 4.38660 3.03074
# Velocity P-wave (km/s) = 1.38063 8.09945 5.64335
#
# Compressibility (1/GPa) = -0.63628092
#
# Stress axis : x y z
#
# Youngs Moduli (GPa) = -3.59494 120.67312 -13.77367
#
# Poissons Ratio (x) = -0.85191 -2.12816
# Poissons Ratio (y) = 0.02538 0.00760
# Poissons Ratio (z) = -0.55545 -0.06656
#
# Static dielectric constant tensor:
#      x y z
#    x 1.798210 -0.000070 -0.038270 
#    y -0.000070 1.857530 0.000000 
#    z -0.038270 0.000000 1.894550 
# 
# From -- ./inp_files/165098.got.cif
#   From: 2010.05.17/outbox.ucp.g08.bks.cvg/sg15_83_cif.got.tgz:165098.got - 2010.06.11 12:40:34.
