data_PCOD9309294
_publ_section_title
;
Structure prediction by ZEFSAII (Michael W. Deem and Ramdas Pophale) SiO2 
 PCOD9309294
Probable space group: C 2/C
;
_chemical_formula_sum "Si O2"
_cell_formula_units_Z 28
_cell_length_a 21.000000
_cell_length_b 9.000000
_cell_length_c 30.000000
_cell_angle_alpha 90.000000
_cell_angle_beta 150.000000
_cell_angle_gamma 90.000000
_cell_volume 2835.000000
_symmetry_space_group_name_H-M "C 2/C"
_symmetry_group_IT_number 15
_symmetry_cell_setting 'monoclinic'
loop_
_space_group_symop_operation_xyz
x,y,z
-x,y,1/2-z
-x,-y,-z
x,-y,1/2+z
1/2+x,1/2+y,z
1/2-x,1/2+y,1/2-z
1/2-x,1/2-y,-z
1/2+x,1/2-y,1/2+z
loop_
_atom_site_type_symbol
_atom_site_label
_atom_site_fract_x
_atom_site_fract_y
_atom_site_fract_z
Si Si1 0.351827 0.976343 0.396278
Si Si2 0.523543 0.478800 0.067171
Si Si3 0.209588 0.418821 0.989193
Si Si4 0.246618 0.644904 0.324906
Si Si5 0.255425 0.055482 0.585480
Si Si6 0.442220 0.845284 0.868380
Si Si7 0.846245 0.103646 0.149693
O O1 0.316825 0.801636 0.376316
O O2 0.500000 0.000000 0.500000
O O3 0.358585 0.052026 0.351206
O O4 0.245687 0.047917 0.365127
O O5 0.660469 0.554776 0.152271
O O6 0.534470 0.311724 0.092213
O O7 0.500000 0.500000 0.000000
O O8 0.399326 0.555299 0.013239
O O9 0.193487 0.494588 0.930838
O O10 0.079782 0.412680 0.939346
O O11 0.250000 0.250000 0.000000
O O12 0.305435 0.510269 0.080239
O O13 0.222712 0.551545 0.356910
O O14 0.124049 0.676264 0.220014
O O15 0.311552 0.220600 0.625371
O O16 0.000000 0.086092 0.250000
#
# Coordination Sequence:
#
# PCOD9309294 Si02
#       7
#     8   8   8   8   8   8   8
#     4  12  23  47  73 104 143 190 244 300 372 430
#     4  10  21  43  68 100 139 192 237 295 368 435
#     4  12  26  48  73 102 146 192 241 298 375 445
#     4  11  25  42  75 107 140 188 247 310 356 442
#     4  11  24  49  70 100 149 194 233 297 380 439
#     4  12  25  43  73 108 142 191 248 303 367 438
#     4  12  29  47  74 109 145 191 249 307 367 449
#
# _framework density 9.8765429999999999
#
# number of rings (size 3 to 8) (size 9 to 14) (size 15 to 20)
#    0.000    0.571    2.857    6.429    4.000    1.143 
#    0.000    0.000    0.000    0.000    0.000    0.000 
#    0.000    0.000    0.000    0.000    0.000    0.000 
#
# Total GULP energy -156277.284985 kJ/mol
# GULP energy per Si atom -5581.331607 kJ/mol
# Density = 0.985406 g / cm^3
# Si number density = 9.876543 Si / 1000 Ang^3
#
#
#
# Elastic Constant Matrix: (Units=GPa)
#
#
# Indices 1 2 3 4 5 6 
#
# 1 164.8527 73.6907 45.4180 0.0000 -1.1817 0.0000
# 2 73.6907 156.0453 63.6213 0.0000 -8.3441 -0.0001
# 3 45.4180 63.6213 141.3058 0.0002 -5.8263 0.0000
# 4 0.0000 0.0000 0.0002 27.3483 0.0000 1.4924
# 5 -1.1817 -8.3441 -5.8263 0.0000 39.3041 0.0000
# 6 0.0000 -0.0001 0.0000 1.4924 0.0000 51.0626
#
#
#
# Elastic Compliance Matrix: (Units=1/GPa)
#
#
# Indices 1 2 3 4 5 6 
#
# 1 0.007827 -0.003299 -0.001056 0.000000 -0.000622 0.000000
# 2 -0.003299 0.009292 -0.003065 0.000000 0.001419 0.000000
# 3 -0.001056 -0.003065 0.008822 0.000000 0.000625 0.000000
# 4 0.000000 0.000000 0.000000 0.036624 0.000000 -0.001070
# 5 -0.000622 0.001419 0.000625 0.000000 0.025818 0.000000
# 6 0.000000 0.000000 0.000000 -0.001070 0.000000 0.019615
#
#
# Mechanical properties :
#
#
# Convention : Reuss Voigt Hill
#
# Bulk Modulus (GPa) = 90.07873 91.96264 91.02068
# Shear Modulus (GPa) = 39.51405 42.17459 40.84432
#
# Velocity S-wave (km/s) = 4.47743 4.62571 4.55218
# Velocity P-wave (km/s) = 8.51065 8.67103 8.59122
#
# Compressibility (1/GPa) = 0.01110140
#
# Stress axis : x y z
#
# Youngs Moduli (GPa) = 127.75970 107.62354 113.35445
#
# Poissons Ratio (x) = 0.35505 0.11971
# Poissons Ratio (y) = 0.42147 0.34739
# Poissons Ratio (z) = 0.13493 0.32982
#
# Static dielectric constant tensor:
#      x y z
#    x 1.680590 0.000000 0.000590 
#    y 0.000000 1.704830 0.000000 
#    z 0.000590 0.000000 1.796750 
# 
# From -- ./inp_files/317541.got.cif
#   From: 2010.05.17/outbox.ucp.g08.bks.cvg/sg15_159_cif.got.tgz:317541.got - 2010.06.11 12:40:34.
