data_PCOD9309532
_publ_section_title
;
Structure prediction by ZEFSAII (Michael W. Deem and Ramdas Pophale) SiO2 
 PCOD9309532
Probable space group: C 2/C
;
_chemical_formula_sum "Si O2"
_cell_formula_units_Z 32
_cell_length_a 24.000000
_cell_length_b 12.000000
_cell_length_c 12.000000
_cell_angle_alpha 90.000000
_cell_angle_beta 110.000000
_cell_angle_gamma 90.000000
_cell_volume 3247.577697
_symmetry_space_group_name_H-M "C 2/C"
_symmetry_group_IT_number 15
_symmetry_cell_setting 'monoclinic'
loop_
_space_group_symop_operation_xyz
x,y,z
-x,y,1/2-z
-x,-y,-z
x,-y,1/2+z
1/2+x,1/2+y,z
1/2-x,1/2+y,1/2-z
1/2-x,1/2-y,-z
1/2+x,1/2-y,1/2+z
loop_
_atom_site_type_symbol
_atom_site_label
_atom_site_fract_x
_atom_site_fract_y
_atom_site_fract_z
Si Si1 0.116561 0.738986 0.182340
Si Si2 0.090707 0.968784 0.096227
Si Si3 0.500172 0.344589 0.618056
Si Si4 0.009093 0.630706 0.475000
Si Si5 0.808996 0.859592 0.917932
Si Si6 0.271713 0.049730 0.534994
Si Si7 0.865823 0.637665 0.069038
Si Si8 0.258237 0.235141 0.342604
O O1 0.106757 0.871626 0.195530
O O2 0.136766 0.671691 0.303854
O O3 0.170598 0.740139 0.130235
O O4 0.053953 0.679195 0.111846
O O5 0.142432 0.050482 0.091131
O O6 0.061343 0.892507 0.977475
O O7 0.044143 0.055636 0.114614
O O8 0.500000 0.332995 0.750000
O O9 0.519787 0.225499 0.578192
O O10 0.066566 0.632965 0.432533
O O11 0.000000 0.500000 0.500000
O O12 0.772024 0.808129 0.790428
O O13 0.768569 0.941203 0.966273
O O14 0.836028 0.747324 0.991397
O O15 0.249138 0.133581 0.423411
O O16 0.267992 0.143490 0.634072
O O17 0.332566 0.983867 0.540041
#
# Coordination Sequence:
#
# PCOD9309532 Si02
#       8
#     8   8   8   8   8   8   8   8
#     4  11  24  44  71  97 137 184 227 286 343 407
#     4  10  23  42  67  99 139 171 226 287 331 408
#     4  10  23  43  69 101 133 180 224 282 344 404
#     4  11  25  47  68  99 140 175 231 284 344 417
#     4  12  25  43  71 101 139 179 230 284 344 410
#     4  11  26  45  70 100 140 185 230 284 343 413
#     4  12  26  44  71 105 133 185 230 282 354 409
#     4  11  26  46  68 103 140 186 231 284 347 405
#
# _framework density 9.8534980000000001
#
# number of rings (size 3 to 8) (size 9 to 14) (size 15 to 20)
#    0.000    1.000    3.750    1.500    5.250    2.000 
#    4.500    0.000    0.000    0.000    0.000    0.000 
#    0.000    0.000    0.000    0.000    0.000    0.000 
#
# Total GULP energy -178279.230179 kJ/mol
# GULP energy per Si atom -5571.225943 kJ/mol
# Density = 0.983107 g / cm^3
# Si number density = 9.853498 Si / 1000 Ang^3
#
#
#
# Elastic Constant Matrix: (Units=GPa)
#
#
# Indices 1 2 3 4 5 6 
#
# 1 110.6309 38.0823 13.3891 0.0000 -1.9163 0.0000
# 2 38.0823 177.5548 21.6597 0.0000 -1.2650 0.0000
# 3 13.3891 21.6597 41.1638 0.0000 -7.7504 0.0000
# 4 0.0000 0.0000 0.0000 30.6066 0.0000 -0.9662
# 5 -1.9163 -1.2650 -7.7504 0.0000 20.5057 0.0000
# 6 0.0000 0.0000 0.0000 -0.9662 0.0000 53.1548
#
#
#
# Elastic Compliance Matrix: (Units=1/GPa)
#
#
# Indices 1 2 3 4 5 6 
#
# 1 0.009952 -0.001858 -0.002267 0.000000 -0.000041 0.000000
# 2 -0.001858 0.006380 -0.002919 0.000000 -0.000883 0.000000
# 3 -0.002267 -0.002919 0.028523 0.000000 0.010389 0.000000
# 4 0.000000 0.000000 0.000000 0.032691 0.000000 0.000594
# 5 -0.000041 -0.000883 0.010389 0.000000 0.052635 0.000000
# 6 0.000000 0.000000 0.000000 0.000594 0.000000 0.018824
#
#
# Mechanical properties :
#
#
# Convention : Reuss Voigt Hill
#
# Bulk Modulus (GPa) = 32.50320 52.84573 42.67447
# Shear Modulus (GPa) = 28.84328 37.93463 33.38896
#
# Velocity S-wave (km/s) = 3.82986 4.39216 4.12062
# Velocity P-wave (km/s) = 6.00717 7.25227 6.65889
#
# Compressibility (1/GPa) = 0.03076620
#
# Stress axis : x y z
#
# Youngs Moduli (GPa) = 100.47798 156.72858 35.05988
#
# Poissons Ratio (x) = 0.29126 0.07949
# Poissons Ratio (y) = 0.18672 0.10235
# Poissons Ratio (z) = 0.22780 0.45752
#
# Static dielectric constant tensor:
#      x y z
#    x 1.763600 0.000000 0.026550 
#    y 0.000000 1.639220 0.000000 
#    z 0.026550 0.000000 1.751860 
# 
# From -- ./inp_files/118021.got.cif
#   From: 2010.05.17/outbox.ucp.g08.bks.cvg/sg15_60_cif.got.tgz:118021.got - 2010.06.11 12:40:34.
