data_PCOD9309720
_publ_section_title
;
Structure prediction by ZEFSAII (Michael W. Deem and Ramdas Pophale) SiO2 
 PCOD9309720
Probable space group: C 2/C
;
_chemical_formula_sum "Si O2"
_cell_formula_units_Z 28
_cell_length_a 18.000000
_cell_length_b 18.000000
_cell_length_c 9.000000
_cell_angle_alpha 90.000000
_cell_angle_beta 110.000000
_cell_angle_gamma 90.000000
_cell_volume 2740.143682
_symmetry_space_group_name_H-M "C 2/C"
_symmetry_group_IT_number 15
_symmetry_cell_setting 'monoclinic'
loop_
_space_group_symop_operation_xyz
x,y,z
-x,y,1/2-z
-x,-y,-z
x,-y,1/2+z
1/2+x,1/2+y,z
1/2-x,1/2+y,1/2-z
1/2-x,1/2-y,-z
1/2+x,1/2-y,1/2+z
loop_
_atom_site_type_symbol
_atom_site_label
_atom_site_fract_x
_atom_site_fract_y
_atom_site_fract_z
Si Si1 0.563104 0.487433 0.669404
Si Si2 0.092605 0.411450 0.846265
Si Si3 0.350111 0.057759 0.788966
Si Si4 0.832292 0.147515 0.178622
Si Si5 0.180226 0.115009 0.684572
Si Si6 0.671473 0.789355 0.712385
Si Si7 0.590560 0.802003 0.348894
O O1 0.500000 0.466374 0.750000
O O2 0.500000 0.500000 0.500000
O O3 0.624407 0.418886 0.703898
O O4 0.610915 0.565259 0.709286
O O5 0.127154 0.480624 0.773975
O O6 0.139638 0.337120 0.828829
O O7 0.000000 0.402732 0.750000
O O8 0.102544 0.430232 0.026336
O O9 0.258750 0.067530 0.769050
O O10 0.366138 0.126320 0.688611
O O11 0.749453 0.171266 0.196660
O O12 0.879853 0.225125 0.203548
O O13 0.826143 0.121602 0.000825
O O14 0.184576 0.200633 0.744673
O O15 0.607728 0.795917 0.535523
O O16 0.500000 0.812020 0.250000
#
# Coordination Sequence:
#
# PCOD9309720 Si02
#       7
#     8   8   8   8   8   8   8
#     4  12  26  44  68 102 139 182 227 282 340 399
#     4  12  27  44  67  97 136 172 219 281 334 400
#     4  12  24  44  68  98 131 175 226 270 340 404
#     4  11  22  45  69  97 139 180 230 274 338 409
#     4  11  24  43  70 100 134 180 225 276 339 408
#     4  11  23  46  69  97 136 179 227 276 337 408
#     4  11  21  39  72 100 132 177 224 280 337 403
#
# _framework density 10.218442
#
# number of rings (size 3 to 8) (size 9 to 14) (size 15 to 20)
#    0.000    0.571    4.286    4.714    4.000    2.286 
#    2.571    0.000    0.000    0.000    0.000    0.000 
#    0.000    0.000    0.000    0.000    0.000    0.000 
#
# Total GULP energy -156444.698641 kJ/mol
# GULP energy per Si atom -5587.310666 kJ/mol
# Density = 1.019518 g / cm^3
# Si number density = 10.218442 Si / 1000 Ang^3
#
#
#
# Elastic Constant Matrix: (Units=GPa)
#
#
# Indices 1 2 3 4 5 6 
#
# 1 63.0499 15.9439 -34.5655 0.0000 26.3522 0.0000
# 2 15.9439 115.4940 -18.1230 0.0000 5.1275 0.0000
# 3 -34.5655 -18.1230 7.3432 0.0000 13.5847 0.0000
# 4 0.0000 0.0000 0.0000 10.5621 0.0000 11.9502
# 5 26.3522 5.1275 13.5847 0.0000 22.1146 0.0000
# 6 0.0000 0.0000 0.0000 11.9502 0.0000 24.5908
#
#
#
# Elastic Compliance Matrix: (Units=1/GPa)
#
#
# Indices 1 2 3 4 5 6 
#
# 1 0.001948 -0.003743 -0.019214 0.000000 0.010349 0.000000
# 2 -0.003743 0.008959 -0.000598 0.000000 0.002751 0.000000
# 3 -0.019214 -0.000598 -0.012097 0.000000 0.030465 0.000000
# 4 0.000000 0.000000 0.000000 0.210315 0.000000 -0.102205
# 5 0.010349 0.002751 0.030465 0.000000 0.013535 0.000000
# 6 0.000000 0.000000 0.000000 -0.102205 0.000000 0.090334
#
#
# Mechanical properties :
#
#
# Convention : Reuss Voigt Hill
#
# Bulk Modulus (GPa) = -20.70389 12.48866 -4.10762
# Shear Modulus (GPa) = 14.53468 26.29561 20.41515
#
# Velocity S-wave (km/s) = 2.66972 3.59092 3.16402
# Velocity P-wave (km/s) = 0.80586 4.82877 3.36657
#
# Compressibility (1/GPa) = -0.04830010
#
# Stress axis : x y z
#
# Youngs Moduli (GPa) = 513.28639 111.61699 -82.66557
#
# Poissons Ratio (x) = 0.41782 -1.58830
# Poissons Ratio (y) = 1.92141 -0.04946
# Poissons Ratio (z) = 9.86208 0.06678
#
# Static dielectric constant tensor:
#      x y z
#    x 1.725120 0.000000 0.022460 
#    y 0.000000 1.696090 0.000000 
#    z 0.022460 0.000000 1.733480 
# 
# From -- ./inp_files/49170.got.cif
#   From: 2010.05.17/outbox.ucp.g08.bks.cvg/sg15_25_cif.got.tgz:49170.got - 2010.06.11 12:40:34.
