data_PCOD9309035
_publ_section_title
;
Structure prediction by ZEFSAII (Michael W. Deem and Ramdas Pophale) SiO2 
 PCOD9309035
Probable space group: C 2/C
;
_chemical_formula_sum "Si O2"
_cell_formula_units_Z 32
_cell_length_a 24.000000
_cell_length_b 18.000000
_cell_length_c 15.000000
_cell_angle_alpha 90.000000
_cell_angle_beta 30.000000
_cell_angle_gamma 90.000000
_cell_volume 3240.000000
_symmetry_space_group_name_H-M "C 2/C"
_symmetry_group_IT_number 15
_symmetry_cell_setting 'monoclinic'
loop_
_space_group_symop_operation_xyz
x,y,z
-x,y,1/2-z
-x,-y,-z
x,-y,1/2+z
1/2+x,1/2+y,z
1/2-x,1/2+y,1/2-z
1/2-x,1/2-y,-z
1/2+x,1/2-y,1/2+z
loop_
_atom_site_type_symbol
_atom_site_label
_atom_site_fract_x
_atom_site_fract_y
_atom_site_fract_z
Si Si1 0.246588 0.830437 0.263143
Si Si2 0.851843 0.489300 0.112143
Si Si3 0.280864 0.510053 0.889689
Si Si4 0.841268 0.147746 0.306336
Si Si5 0.126971 0.737802 0.580100
Si Si6 0.941100 0.861816 0.120653
Si Si7 0.599156 0.073355 0.276366
Si Si8 0.989571 0.722592 0.370262
O O1 0.291811 0.912497 0.225873
O O2 0.172167 0.795049 0.443617
O O3 0.162202 0.834111 0.297093
O O4 0.360558 0.786714 0.080364
O O5 0.783394 0.506525 0.115862
O O6 0.857096 0.548140 0.186304
O O7 0.982908 0.469965 0.914601
O O8 0.319331 0.432556 0.879136
O O9 0.391614 0.559462 0.720851
O O10 0.193061 0.552783 0.073983
O O11 0.871249 0.215178 0.330722
O O12 0.718293 0.173173 0.445264
O O13 0.943264 0.136621 0.095856
O O14 0.000000 0.710923 0.750000
O O15 0.964512 0.802956 0.166167
O O16 0.562442 0.159224 0.319112
O O17 0.000000 0.709360 0.250000
#
# Coordination Sequence:
#
# PCOD9309035 Si02
#       8
#     8   8   8   8   8   8   8   8
#     4  10  20  39  65  90 129 166 211 264 317 385
#     4   9  20  37  63  94 126 169 214 265 326 371
#     4  11  23  40  62  90 132 167 211 265 318 384
#     4  11  24  41  62  93 126 163 211 259 322 383
#     4  11  22  40  66  93 123 162 207 265 323 378
#     4  11  23  42  63  88 127 173 210 258 318 384
#     4  10  20  39  63  95 126 166 218 271 319 377
#     4  11  23  41  65  94 129 169 217 269 317 375
#
# _framework density 9.8765429999999999
#
# number of rings (size 3 to 8) (size 9 to 14) (size 15 to 20)
#    0.000    1.500    2.500    3.750    0.000    4.000 
#    2.250    0.625    0.000    0.000    0.000    0.000 
#    0.000    0.000    0.000    0.000    0.000    0.000 
#
# Total GULP energy -178552.295578 kJ/mol
# GULP energy per Si atom -5579.759237 kJ/mol
# Density = 0.985406 g / cm^3
# Si number density = 9.876543 Si / 1000 Ang^3
#
#
#
# Elastic Constant Matrix: (Units=GPa)
#
#
# Indices 1 2 3 4 5 6 
#
# 1 51.3266 17.4825 27.7004 0.0000 -11.2513 0.0000
# 2 17.4825 74.9789 24.9003 0.0000 -12.2218 0.0000
# 3 27.7004 24.9003 132.4172 0.0000 -16.5915 0.0000
# 4 0.0000 0.0000 0.0000 24.9378 0.0000 -0.1531
# 5 -11.2513 -12.2218 -16.5915 0.0000 34.0951 0.0000
# 6 0.0000 0.0000 0.0000 -0.1531 0.0000 29.4743
#
#
#
# Elastic Compliance Matrix: (Units=1/GPa)
#
#
# Indices 1 2 3 4 5 6 
#
# 1 0.023727 -0.003526 -0.003704 0.000000 0.004764 0.000000
# 2 -0.003526 0.015293 -0.001701 0.000000 0.003491 0.000000
# 3 -0.003704 -0.001701 0.008963 0.000000 0.002530 0.000000
# 4 0.000000 0.000000 0.000000 0.040101 0.000000 0.000208
# 5 0.004764 0.003491 0.002530 0.000000 0.033384 0.000000
# 6 0.000000 0.000000 0.000000 0.000208 0.000000 0.033929
#
#
# Mechanical properties :
#
#
# Convention : Reuss Voigt Hill
#
# Bulk Modulus (GPa) = 33.19712 44.32101 38.75907
# Shear Modulus (GPa) = 27.27778 30.27741 28.77759
#
# Velocity S-wave (km/s) = 3.72013 3.91934 3.82103
# Velocity P-wave (km/s) = 5.94096 6.55499 6.25551
#
# Compressibility (1/GPa) = 0.03012309
#
# Stress axis : x y z
#
# Youngs Moduli (GPa) = 42.14590 65.38918 111.56392
#
# Poissons Ratio (x) = 0.23055 0.41319
# Poissons Ratio (y) = 0.14860 0.18975
# Poissons Ratio (z) = 0.15609 0.11121
#
# Static dielectric constant tensor:
#      x y z
#    x 1.718340 0.000000 0.014910 
#    y 0.000000 1.716660 0.000000 
#    z 0.014910 0.000000 1.671500 
# 
# From -- ./inp_files/174217.got.cif
#   From: 2010.05.17/outbox.ucp.g08.bks.cvg/sg15_88_cif.got.tgz:174217.got - 2010.06.11 12:40:34.
