data_PCOD9309281
_publ_section_title
;
Structure prediction by ZEFSAII (Michael W. Deem and Ramdas Pophale) SiO2 
 PCOD9309281
Probable space group: C 2/C
;
_chemical_formula_sum "Si O2"
_cell_formula_units_Z 26
_cell_length_a 9.000000
_cell_length_b 21.000000
_cell_length_c 18.000000
_cell_angle_alpha 90.000000
_cell_angle_beta 50.000000
_cell_angle_gamma 90.000000
_cell_volume 2606.083195
_symmetry_space_group_name_H-M "C 2/C"
_symmetry_group_IT_number 15
_symmetry_cell_setting 'monoclinic'
loop_
_space_group_symop_operation_xyz
x,y,z
-x,y,1/2-z
-x,-y,-z
x,-y,1/2+z
1/2+x,1/2+y,z
1/2-x,1/2+y,1/2-z
1/2-x,1/2-y,-z
1/2+x,1/2-y,1/2+z
loop_
_atom_site_type_symbol
_atom_site_label
_atom_site_fract_x
_atom_site_fract_y
_atom_site_fract_z
Si Si1 0.744675 0.389961 0.975756
Si Si2 0.271476 0.355810 0.343454
Si Si3 0.500000 0.074017 0.250000
Si Si4 0.172404 0.977735 0.580243
Si Si5 0.106971 0.846889 0.514905
Si Si6 0.750794 0.503275 0.712361
Si Si7 0.018452 0.266182 0.154187
O O1 0.548251 0.362742 0.000385
O O2 0.888351 0.388352 0.854937
O O3 0.767826 0.357344 0.052765
O O4 0.731021 0.463916 0.007305
O O5 0.500000 0.348146 0.250000
O O6 0.213592 0.424117 0.325189
O O7 0.151076 0.303499 0.336028
O O8 0.631496 0.027565 0.258080
O O9 0.163020 0.913896 0.535238
O O10 0.288725 0.967471 0.620752
O O11 0.966267 0.997544 0.683733
O O12 0.033064 0.801395 0.606136
O O13 0.288597 0.808424 0.422747
O O14 0.000000 0.259378 0.250000
#
# Coordination Sequence:
#
# PCOD9309281 Si02
#       7
#     8   8   4   8   8   8   8
#     4  11  24  42  68 103 141 172 224 284 346 405
#     4  11  23  46  70 100 136 178 228 282 336 400
#     4  12  26  34  60 114 136 180 216 266 360 410
#     4  10  21  42  69  93 136 176 216 286 343 401
#     4  11  25  47  67  98 133 183 226 277 334 401
#     4  10  22  38  65 102 134 175 216 276 351 396
#     4  11  28  45  71  97 129 187 234 276 326 403
#
# _framework density 9.9766580000000005
#
# number of rings (size 3 to 8) (size 9 to 14) (size 15 to 20)
#    0.000    1.231    4.615    1.385    7.538    1.846 
#    4.154    0.000    0.000    0.000    0.000    0.000 
#    0.000    0.000    0.000    0.000    0.000    0.000 
#
# Total GULP energy -144899.139537 kJ/mol
# GULP energy per Si atom -5573.043828 kJ/mol
# Density = 0.995395 g / cm^3
# Si number density = 9.976658 Si / 1000 Ang^3
#
#
#
# Elastic Constant Matrix: (Units=GPa)
#
#
# Indices 1 2 3 4 5 6 
#
# 1 128.0921 29.1032 43.9397 0.0000 29.9980 0.0000
# 2 29.1032 78.8719 22.2582 0.0000 12.9907 0.0000
# 3 43.9397 22.2582 142.9318 0.0000 34.1296 0.0000
# 4 0.0000 0.0000 0.0000 27.8103 0.0000 7.8725
# 5 29.9980 12.9907 34.1296 0.0000 46.7351 0.0000
# 6 0.0000 0.0000 0.0000 7.8725 0.0000 25.3024
#
#
#
# Elastic Compliance Matrix: (Units=1/GPa)
#
#
# Indices 1 2 3 4 5 6 
#
# 1 0.009985 -0.002484 -0.001595 0.000000 -0.004553 0.000000
# 2 -0.002484 0.014154 -0.001068 0.000000 -0.001560 0.000000
# 3 -0.001595 -0.001068 0.008887 0.000000 -0.005169 0.000000
# 4 0.000000 0.000000 0.000000 0.039431 0.000000 -0.012268
# 5 -0.004553 -0.001560 -0.005169 0.000000 0.028529 0.000000
# 6 0.000000 0.000000 0.000000 -0.012268 0.000000 0.043339
#
#
# Mechanical properties :
#
#
# Convention : Reuss Voigt Hill
#
# Bulk Modulus (GPa) = 43.99265 60.05534 52.02400
# Shear Modulus (GPa) = 30.82676 36.94253 33.88464
#
# Velocity S-wave (km/s) = 3.93484 4.30751 4.12539
# Velocity P-wave (km/s) = 6.53756 7.40964 6.98722
#
# Compressibility (1/GPa) = 0.02273107
#
# Stress axis : x y z
#
# Youngs Moduli (GPa) = 100.15068 70.65283 112.51790
#
# Poissons Ratio (x) = 0.17551 0.17951
# Poissons Ratio (y) = 0.24879 0.12017
# Poissons Ratio (z) = 0.15978 0.07546
#
# Static dielectric constant tensor:
#      x y z
#    x 1.793050 0.000000 -0.060880 
#    y 0.000000 1.698140 0.000000 
#    z -0.060880 0.000000 1.733840 
# 
# From -- ./inp_files/192479.got.cif
#   From: 2010.05.17/outbox.ucp.g08.bks.cvg/sg15_97_cif.got.tgz:192479.got - 2010.06.11 12:40:34.
