data_PCOD9309937
_publ_section_title
;
Structure prediction by ZEFSAII (Michael W. Deem and Ramdas Pophale) SiO2 
 PCOD9309937
Probable space group: P 2 2 2
;
_chemical_formula_sum "Si O2"
_cell_formula_units_Z 16
_cell_length_a 18.637310
_cell_length_b 7.272923
_cell_length_c 5.300306
_cell_angle_alpha 90.000000
_cell_angle_beta 90.000000
_cell_angle_gamma 90.000000
_cell_volume 718.444397
_symmetry_space_group_name_H-M "P 2 2 2"
_symmetry_group_IT_number 16
_symmetry_cell_setting 'orthorhombic'
loop_
_space_group_symop_operation_xyz
x,y,z
-x,-y,z
x,-y,-z
-x,y,-z
loop_
_atom_site_type_symbol
_atom_site_label
_atom_site_fract_x
_atom_site_fract_y
_atom_site_fract_z
Si Si1 0.917190 0.776075 0.501815
Si Si2 0.688392 0.386442 0.240458
Si Si3 0.468101 0.286789 0.745800
Si Si4 0.166281 0.778701 0.007003
O O1 0.887230 0.719250 0.772193
O O2 0.000000 0.718363 0.500000
O O3 0.916751 0.000000 0.500000
O O4 0.866012 0.720299 0.265783
O O5 0.704818 0.500000 0.500000
O O6 0.617319 0.270666 0.291479
O O7 0.757738 0.291765 0.114362
O O8 0.660440 0.500000 0.000000
O O9 0.500000 0.500000 0.745084
O O10 0.500000 0.199712 0.500000
O O11 0.500000 0.208263 0.000000
O O12 0.169825 0.000000 0.000000
#
# Coordination Sequence:
#
# PCOD9309937 Si02
#       4
#     4   4   4   4
#     4   9  17  33  57  80 104 142 190 230 269 331
#     4  12  21  33  55  82 111 145 186 237 281 336
#     4  10  16  30  49  76 103 132 183 237 268 306
#     4  10  21  35  53  83 115 142 178 235 292 336
#
# _framework density 22.270339
#
# number of rings (size 3 to 8) (size 9 to 14) (size 15 to 20)
#    0.000    1.750    5.000    2.250    0.000    3.000 
#    0.000    0.000    0.000   12.000    0.000    3.500 
#    0.000    0.000    0.000    0.000    0.000    0.000 
#
# Total GULP energy -89134.147137 kJ/mol
# GULP energy per Si atom -5570.884196 kJ/mol
# Density = 2.221965 g / cm^3
# Si number density = 22.270339 Si / 1000 Ang^3
#
#
#
# Elastic Constant Matrix: (Units=GPa)
#
#
# Indices 1 2 3 4 5 6 
#
# 1 193.4576 10.1216 66.6915 0.0000 0.0000 0.0000
# 2 10.1216 67.8358 19.0772 0.0000 0.0000 0.0000
# 3 66.6915 19.0772 221.2917 0.0000 0.0000 0.0000
# 4 0.0000 0.0000 0.0000 -5.2802 0.0000 0.0000
# 5 0.0000 0.0000 0.0000 0.0000 49.4348 0.0000
# 6 0.0000 0.0000 0.0000 0.0000 0.0000 -4.5136
#
#
#
# Elastic Compliance Matrix: (Units=1/GPa)
#
#
# Indices 1 2 3 4 5 6 
#
# 1 0.005778 -0.000382 -0.001708 0.000000 0.000000 0.000000
# 2 -0.000382 0.015133 -0.001190 0.000000 0.000000 0.000000
# 3 -0.001708 -0.001190 0.005136 0.000000 0.000000 0.000000
# 4 0.000000 0.000000 0.000000 -0.189388 0.000000 0.000000
# 5 0.000000 0.000000 0.000000 0.000000 0.020229 0.000000
# 6 0.000000 0.000000 0.000000 0.000000 0.000000 -0.221551
#
#
# Mechanical properties :
#
#
# Convention : Reuss Voigt Hill
#
# Bulk Modulus (GPa) = 51.31366 74.92953 63.12159
# Shear Modulus (GPa) = -14.22041 33.70784 9.74372
#
# Velocity S-wave (km/s) = -2.52967 3.89469 2.09397
# Velocity P-wave (km/s) = 3.81562 7.34461 5.85245
#
# Compressibility (1/GPa) = 0.01948799
#
# Stress axis : x y z
#
# Youngs Moduli (GPa) = 173.06970 66.08093 194.69077
#
# Poissons Ratio (x) = 0.02522 0.33262
# Poissons Ratio (y) = 0.06606 0.23160
# Poissons Ratio (z) = 0.29568 0.07861
#
# Static dielectric constant tensor:
#      x y z
#    x 1.896140 0.000000 0.000000 
#    y 0.000000 1.920230 0.000000 
#    z 0.000000 0.000000 1.881870 
# 
# From -- ./inp_files/1226.got.cif
#   From: 2010.05.17/outbox.cif.g08.bks.cpg/sg16_1_cif.got.tgz:1226.got - 2010.06.03 22:28:35.
