data_PCOD9309334
_publ_section_title
;
Structure prediction by ZEFSAII (Michael W. Deem and Ramdas Pophale) SiO2 
 PCOD9309334
Probable space group: C 2/C
;
_chemical_formula_sum "Si O2"
_cell_formula_units_Z 26
_cell_length_a 12.000000
_cell_length_b 9.000000
_cell_length_c 30.000000
_cell_angle_alpha 90.000000
_cell_angle_beta 120.000000
_cell_angle_gamma 90.000000
_cell_volume 2805.922308
_symmetry_space_group_name_H-M "C 2/C"
_symmetry_group_IT_number 15
_symmetry_cell_setting 'monoclinic'
loop_
_space_group_symop_operation_xyz
x,y,z
-x,y,1/2-z
-x,-y,-z
x,-y,1/2+z
1/2+x,1/2+y,z
1/2-x,1/2+y,1/2-z
1/2-x,1/2-y,-z
1/2+x,1/2-y,1/2+z
loop_
_atom_site_type_symbol
_atom_site_label
_atom_site_fract_x
_atom_site_fract_y
_atom_site_fract_z
Si Si1 0.000000 0.863028 0.250000
Si Si2 0.079249 0.843487 0.517861
Si Si3 0.827276 0.141186 0.231502
Si Si4 0.948505 0.289387 0.168934
Si Si5 0.523632 0.867817 0.679968
Si Si6 0.882332 0.355002 0.562313
Si Si7 0.612479 0.797938 0.449324
O O1 0.971210 0.754393 0.203414
O O2 0.117214 0.974944 0.263458
O O3 0.078652 0.753611 0.470589
O O4 0.235685 0.850408 0.553242
O O5 0.004907 0.763960 0.543901
O O6 0.000000 0.000000 0.500000
O O7 0.854502 0.226495 0.189512
O O8 0.678157 0.135653 0.213523
O O9 0.915836 0.215329 0.288000
O O10 0.905554 0.260082 0.108129
O O11 0.968652 0.466743 0.177690
O O12 0.479453 0.826174 0.621754
O O13 0.894189 0.524381 0.548857
O O14 0.750000 0.750000 0.500000
#
# Coordination Sequence:
#
# PCOD9309334 Si02
#       7
#     4   8   8   8   8   8   8
#     4  10  22  38  58  94 116 156 208 238 308 362
#     4  11  23  42  61  86 129 158 206 257 302 370
#     4  10  22  41  60  88 127 158 198 254 305 366
#     4   9  22  41  60  92 123 160 207 246 307 372
#     4  11  22  38  65  86 121 159 201 252 303 363
#     4  10  25  41  59  95 119 165 209 247 314 372
#     4  11  22  41  67  90 122 168 206 256 314 361
#
# _framework density 9.2661149999999992
#
# number of rings (size 3 to 8) (size 9 to 14) (size 15 to 20)
#    0.000    1.846    1.538    2.308    2.154    6.154 
#    0.000    0.000    0.000    0.000    0.000    0.000 
#    0.000    0.000    0.000    0.000    0.000    0.000 
#
# Total GULP energy -144919.166333 kJ/mol
# GULP energy per Si atom -5573.814090 kJ/mol
# Density = 0.924503 g / cm^3
# Si number density = 9.266115 Si / 1000 Ang^3
#
#
#
# Elastic Constant Matrix: (Units=GPa)
#
#
# Indices 1 2 3 4 5 6 
#
# 1 69.0391 35.7800 21.1478 0.0000 -6.7313 0.0000
# 2 35.7800 114.4492 56.0107 0.0000 -13.3822 0.0000
# 3 21.1478 56.0107 125.1983 0.0000 -5.8531 0.0000
# 4 0.0000 0.0000 0.0000 24.5691 0.0000 -8.9506
# 5 -6.7313 -13.3822 -5.8531 0.0000 28.1091 0.0000
# 6 0.0000 0.0000 0.0000 -8.9506 0.0000 30.3184
#
#
#
# Elastic Compliance Matrix: (Units=1/GPa)
#
#
# Indices 1 2 3 4 5 6 
#
# 1 0.017401 -0.004920 -0.000659 0.000000 0.001687 0.000000
# 2 -0.004920 0.013124 -0.004851 0.000000 0.004060 0.000000
# 3 -0.000659 -0.004851 0.010253 0.000000 -0.000332 0.000000
# 4 0.000000 0.000000 0.000000 0.045606 0.000000 0.013464
# 5 0.001687 0.004060 -0.000332 0.000000 0.037843 0.000000
# 6 0.000000 0.000000 0.000000 0.013464 0.000000 0.036958
#
#
# Mechanical properties :
#
#
# Convention : Reuss Voigt Hill
#
# Bulk Modulus (GPa) = 50.20465 59.39595 54.80030
# Shear Modulus (GPa) = 26.49914 29.64921 28.07418
#
# Velocity S-wave (km/s) = 3.78550 4.00418 3.89637
# Velocity P-wave (km/s) = 6.80117 7.31421 7.06235
#
# Compressibility (1/GPa) = 0.01991848
#
# Stress axis : x y z
#
# Youngs Moduli (GPa) = 57.46841 76.19510 97.53065
#
# Poissons Ratio (x) = 0.37488 0.06430
# Poissons Ratio (y) = 0.28275 0.47308
# Poissons Ratio (z) = 0.03789 0.36959
#
# Static dielectric constant tensor:
#      x y z
#    x 1.633490 0.000000 0.009940 
#    y 0.000000 1.657670 0.000000 
#    z 0.009940 0.000000 1.663520 
# 
# From -- ./inp_files/310089.got.cif
#   From: 2010.05.17/outbox.ucp.g08.bks.cvg/sg15_156_cif.got.tgz:310089.got - 2010.06.11 12:40:34.
