data_PCOD9309530
_publ_section_title
;
Structure prediction by ZEFSAII (Michael W. Deem and Ramdas Pophale) SiO2 
 PCOD9309530
Probable space group: C 2/C
;
_chemical_formula_sum "Si O2"
_cell_formula_units_Z 30
_cell_length_a 21.000000
_cell_length_b 12.000000
_cell_length_c 18.000000
_cell_angle_alpha 90.000000
_cell_angle_beta 40.000000
_cell_angle_gamma 90.000000
_cell_volume 2915.684598
_symmetry_space_group_name_H-M "C 2/C"
_symmetry_group_IT_number 15
_symmetry_cell_setting 'monoclinic'
loop_
_space_group_symop_operation_xyz
x,y,z
-x,y,1/2-z
-x,-y,-z
x,-y,1/2+z
1/2+x,1/2+y,z
1/2-x,1/2+y,1/2-z
1/2-x,1/2-y,-z
1/2+x,1/2-y,1/2+z
loop_
_atom_site_type_symbol
_atom_site_label
_atom_site_fract_x
_atom_site_fract_y
_atom_site_fract_z
Si Si1 0.241159 0.181930 0.815403
Si Si2 0.874763 0.114882 0.268721
Si Si3 0.628580 0.855083 0.515825
Si Si4 0.500000 0.274288 0.250000
Si Si5 0.887261 0.160303 0.425754
Si Si6 0.845220 0.137822 0.765062
Si Si7 0.060945 0.393308 0.418775
Si Si8 0.561132 0.901725 0.119514
O O1 0.306479 0.289868 0.787924
O O2 0.170236 0.193294 0.804493
O O3 0.326112 0.096483 0.710947
O O4 0.178000 0.138989 0.942353
O O5 0.855432 0.105481 0.375637
O O6 0.995305 0.136225 0.162089
O O7 0.851972 0.996359 0.250990
O O8 0.578077 0.795214 0.630537
O O9 0.743522 0.831219 0.398814
O O10 0.573969 0.826780 0.485326
O O11 0.615918 0.987145 0.544027
O O12 0.564763 0.333380 0.258063
O O13 0.875980 0.292460 0.419080
O O14 0.000000 0.500000 0.500000
O O15 0.002959 0.362126 0.395152
O O16 0.500000 0.925412 0.250000
#
# Coordination Sequence:
#
# PCOD9309530 Si02
#       8
#     8   8   8   4   8   8   8   8
#     4  11  23  42  67 105 131 180 236 272 346 417
#     4  11  23  46  65  99 144 179 220 290 347 403
#     4  10  23  42  66  97 130 180 227 282 345 410
#     4  12  24  46  70  92 136 182 236 282 350 418
#     4  11  22  38  71 100 138 182 222 281 344 412
#     4  11  27  46  66  96 138 183 227 286 346 414
#     4   9  20  38  62  91 138 167 212 286 330 385
#     4  11  18  37  65 102 133 172 225 274 342 398
#
# _framework density 10.289179000000001
#
# number of rings (size 3 to 8) (size 9 to 14) (size 15 to 20)
#    0.000    1.333    3.333    2.400    1.867    1.600 
#    4.800    2.667    0.000    0.000    0.000    0.000 
#    0.000    0.000    0.000    0.000    0.000    0.000 
#
# Total GULP energy -167157.514488 kJ/mol
# GULP energy per Si atom -5571.917150 kJ/mol
# Density = 1.026576 g / cm^3
# Si number density = 10.289179 Si / 1000 Ang^3
#
#
#
# Elastic Constant Matrix: (Units=GPa)
#
#
# Indices 1 2 3 4 5 6 
#
# 1 140.1229 29.9800 20.5141 0.0000 14.7174 0.0000
# 2 29.9800 53.7019 14.6841 0.0000 -0.3215 0.0000
# 3 20.5141 14.6841 135.3733 0.0000 21.2656 0.0000
# 4 0.0000 0.0000 0.0000 16.7782 0.0000 -1.5160
# 5 14.7174 -0.3215 21.2656 0.0000 43.5803 0.0000
# 6 0.0000 0.0000 0.0000 -1.5160 0.0000 33.3650
#
#
#
# Elastic Compliance Matrix: (Units=1/GPa)
#
#
# Indices 1 2 3 4 5 6 
#
# 1 0.008468 -0.004648 -0.000351 0.000000 -0.002723 0.000000
# 2 -0.004648 0.021805 -0.002093 0.000000 0.002752 0.000000
# 3 -0.000351 -0.002093 0.008286 0.000000 -0.003940 0.000000
# 4 0.000000 0.000000 0.000000 0.059847 0.000000 0.002719
# 5 -0.002723 0.002752 -0.003940 0.000000 0.025809 0.000000
# 6 0.000000 0.000000 0.000000 0.002719 0.000000 0.030095
#
#
# Mechanical properties :
#
#
# Convention : Reuss Voigt Hill
#
# Bulk Modulus (GPa) = 41.02622 51.06161 46.04391
# Shear Modulus (GPa) = 28.30937 36.34603 32.32770
#
# Velocity S-wave (km/s) = 3.71305 4.20721 3.96783
# Velocity P-wave (km/s) = 6.19372 6.96189 6.58901
#
# Compressibility (1/GPa) = 0.02437466
#
# Stress axis : x y z
#
# Youngs Moduli (GPa) = 118.08550 45.86126 120.68208
#
# Poissons Ratio (x) = 0.21316 0.04241
# Poissons Ratio (y) = 0.54884 0.25261
# Poissons Ratio (z) = 0.04150 0.09600
#
# Static dielectric constant tensor:
#      x y z
#    x 1.800920 0.000000 -0.023920 
#    y 0.000000 1.754060 0.000000 
#    z -0.023920 0.000000 1.761160 
# 
# From -- ./inp_files/215188.got.cif
#   From: 2010.05.17/outbox.ucp.g08.bks.cvg/sg15_108_cif.got.tgz:215188.got - 2010.06.11 12:40:34.
