data_PCOD9309360
_publ_section_title
;
Structure prediction by ZEFSAII (Michael W. Deem and Ramdas Pophale) SiO2 
 PCOD9309360
Probable space group: C 2/C
;
_chemical_formula_sum "Si O2"
_cell_formula_units_Z 32
_cell_length_a 18.000000
_cell_length_b 24.000000
_cell_length_c 21.000000
_cell_angle_alpha 90.000000
_cell_angle_beta 160.000000
_cell_angle_gamma 90.000000
_cell_volume 3102.806740
_symmetry_space_group_name_H-M "C 2/C"
_symmetry_group_IT_number 15
_symmetry_cell_setting 'monoclinic'
loop_
_space_group_symop_operation_xyz
x,y,z
-x,y,1/2-z
-x,-y,-z
x,-y,1/2+z
1/2+x,1/2+y,z
1/2-x,1/2+y,1/2-z
1/2-x,1/2-y,-z
1/2+x,1/2-y,1/2+z
loop_
_atom_site_type_symbol
_atom_site_label
_atom_site_fract_x
_atom_site_fract_y
_atom_site_fract_z
Si Si1 0.667272 0.932886 0.996331
Si Si2 0.768240 0.717035 0.580456
Si Si3 0.797626 0.173805 0.196662
Si Si4 0.641209 0.950034 0.544938
Si Si5 0.763908 0.725307 0.096211
Si Si6 0.141837 0.026243 0.671687
Si Si7 0.442704 0.826453 0.861236
Si Si8 0.576272 0.607941 0.908265
O O1 0.723932 0.920686 0.968607
O O2 0.867135 0.906499 0.197058
O O3 0.479659 0.890803 0.869611
O O4 0.655056 0.998687 0.003937
O O5 0.750000 0.750000 0.500000
O O6 0.764740 0.768080 0.629808
O O7 0.557977 0.677719 0.421038
O O8 0.000000 0.687188 0.750000
O O9 0.650588 0.176091 0.142413
O O10 0.732244 0.113907 0.110638
O O11 0.380061 0.947341 0.347043
O O12 0.780543 0.977821 0.715558
O O13 0.779953 0.701463 0.180352
O O14 0.000000 0.728485 0.250000
O O15 0.650266 0.785616 0.013318
O O16 0.628448 0.674045 0.954747
O O17 0.990795 0.073961 0.582355
O O18 0.000000 0.000000 0.500000
#
# Coordination Sequence:
#
# PCOD9309360 Si02
#       8
#     8   8   8   8   8   8   8   8
#     4  10  22  43  65  88 138 176 225 286 343 403
#     4   9  21  45  70  97 132 171 213 287 369 427
#     4  11  22  43  72 100 135 176 230 292 360 438
#     4  10  23  44  67 101 134 184 232 290 364 411
#     4  12  25  39  59  94 137 185 231 276 336 405
#     4  10  22  41  66  96 142 182 234 294 346 414
#     4  12  24  37  63  98 133 179 229 280 335 416
#     4  10  22  39  62  91 126 182 228 277 342 403
#
# _framework density 10.313243
#
# number of rings (size 3 to 8) (size 9 to 14) (size 15 to 20)
#    0.000    1.500    1.250    4.125    5.250    1.000 
#   18.000    0.000    0.000    3.000    0.000    0.000 
#    0.000    0.000    0.000    0.000    0.000    0.000 
#
# Total GULP energy -178301.803407 kJ/mol
# GULP energy per Si atom -5571.931356 kJ/mol
# Density = 1.028977 g / cm^3
# Si number density = 10.313243 Si / 1000 Ang^3
#
#
#
# Elastic Constant Matrix: (Units=GPa)
#
#
# Indices 1 2 3 4 5 6 
#
# 1 94.8029 32.7389 27.8382 -0.0546 27.3474 -0.0363
# 2 32.7389 142.0194 37.1942 -0.1552 25.1805 -0.1032
# 3 27.8382 37.1942 94.8627 -0.0006 18.0295 -0.0278
# 4 -0.0546 -0.1552 -0.0006 40.7171 0.0630 1.1150
# 5 27.3474 25.1805 18.0295 0.0630 35.9111 0.0323
# 6 -0.0363 -0.1032 -0.0278 1.1150 0.0323 28.9461
#
#
#
# Elastic Compliance Matrix: (Units=1/GPa)
#
#
# Indices 1 2 3 4 5 6 
#
# 1 0.014108 -0.001145 -0.001992 0.000028 -0.008940 0.000021
# 2 -0.001145 0.008615 -0.002277 0.000037 -0.004026 0.000030
# 3 -0.001992 -0.002277 0.012632 -0.000006 -0.003229 0.000005
# 4 0.000028 0.000037 -0.000006 0.024586 -0.000086 -0.000947
# 5 -0.008940 -0.004026 -0.003229 -0.000086 0.039099 -0.000069
# 6 0.000021 0.000030 0.000005 -0.000947 -0.000069 0.034584
#
#
# Mechanical properties :
#
#
# Convention : Reuss Voigt Hill
#
# Bulk Modulus (GPa) = 40.76977 58.58084 49.67531
# Shear Modulus (GPa) = 32.75944 36.70912 34.73428
#
# Velocity S-wave (km/s) = 3.98957 4.22323 4.10807
# Velocity P-wave (km/s) = 6.40554 7.22796 6.82914
#
# Compressibility (1/GPa) = 0.02452798
#
# Stress axis : x y z
#
# Youngs Moduli (GPa) = 70.88378 116.07072 79.16144
#
# Poissons Ratio (x) = 0.13294 0.15767
# Poissons Ratio (y) = 0.08118 0.18023
# Poissons Ratio (z) = 0.14118 0.26426
#
# Static dielectric constant tensor:
#      x y z
#    x 1.788450 -0.000060 -0.019110 
#    y -0.000060 1.718620 -0.000190 
#    z -0.019110 -0.000190 1.874170 
# 
# From -- ./inp_files/250283.got.cif
#   From: 2010.05.17/outbox.ucp.g08.bks.cvg/sg15_126_cif.got.tgz:250283.got - 2010.06.11 12:40:34.
