data_PCOD9309608
_publ_section_title
;
Structure prediction by ZEFSAII (Michael W. Deem and Ramdas Pophale) SiO2 
 PCOD9309608
Probable space group: C 2/C
;
_chemical_formula_sum "Si O2"
_cell_formula_units_Z 28
_cell_length_a 18.000000
_cell_length_b 21.000000
_cell_length_c 21.000000
_cell_angle_alpha 90.000000
_cell_angle_beta 20.000000
_cell_angle_gamma 90.000000
_cell_volume 2714.955898
_symmetry_space_group_name_H-M "C 2/C"
_symmetry_group_IT_number 15
_symmetry_cell_setting 'monoclinic'
loop_
_space_group_symop_operation_xyz
x,y,z
-x,y,1/2-z
-x,-y,-z
x,-y,1/2+z
1/2+x,1/2+y,z
1/2-x,1/2+y,1/2-z
1/2-x,1/2-y,-z
1/2+x,1/2-y,1/2+z
loop_
_atom_site_type_symbol
_atom_site_label
_atom_site_fract_x
_atom_site_fract_y
_atom_site_fract_z
Si Si1 0.139588 0.155038 0.300020
Si Si2 0.287437 0.417506 0.275311
Si Si3 0.867976 0.079110 0.411969
Si Si4 0.219375 0.455378 0.599728
Si Si5 0.142057 0.462077 0.808902
Si Si6 0.602272 0.810772 0.101712
Si Si7 0.418810 0.794684 0.118488
O O1 0.204453 0.094715 0.289993
O O2 0.087083 0.217795 0.385143
O O3 0.976597 0.124760 0.378677
O O4 0.351490 0.179087 0.091435
O O5 0.224908 0.471755 0.273272
O O6 0.244184 0.346025 0.282334
O O7 0.102294 0.438667 0.475883
O O8 0.536777 0.424804 0.097824
O O9 0.742071 0.129350 0.469250
O O10 0.000000 0.043798 0.250000
O O11 0.741285 0.023480 0.548207
O O12 0.167586 0.468086 0.714314
O O13 0.000000 0.421476 0.750000
O O14 0.500000 0.830791 0.250000
O O15 0.428204 0.798572 0.187701
O O16 0.750000 0.750000 0.000000
#
# Coordination Sequence:
#
# PCOD9309608 Si02
#       7
#     8   8   8   8   8   8   8
#     4  11  23  41  65  95 137 182 221 277 331 412
#     4  10  24  44  68  95 140 172 229 292 334 409
#     4  12  25  40  59  96 143 181 224 269 329 406
#     4  12  28  42  70  97 127 180 231 288 347 404
#     4  10  24  45  66  99 132 176 225 283 352 402
#     4  12  23  35  54  90 138 181 221 257 314 404
#     4  11  24  38  64  98 131 185 224 272 339 400
#
# _framework density 10.313243
#
# number of rings (size 3 to 8) (size 9 to 14) (size 15 to 20)
#    0.000    0.857    4.286    2.143    8.000    0.000 
#    0.000    0.000    0.000    0.857    0.000    0.000 
#    0.000    0.000    0.000    0.000    0.000    0.000 
#
# Total GULP energy -156119.469864 kJ/mol
# GULP energy per Si atom -5575.695352 kJ/mol
# Density = 1.028977 g / cm^3
# Si number density = 10.313243 Si / 1000 Ang^3
#
#
#
# Elastic Constant Matrix: (Units=GPa)
#
#
# Indices 1 2 3 4 5 6 
#
# 1 58.7755 27.2219 50.7123 0.0662 1.3464 -0.0291
# 2 27.2219 73.2549 36.3760 0.0003 -0.8714 0.0209
# 3 50.7123 36.3760 91.7609 0.0013 -21.3182 0.0290
# 4 0.0662 0.0003 0.0013 28.7758 0.0201 7.2239
# 5 1.3464 -0.8714 -21.3182 0.0201 44.0356 -0.0210
# 6 -0.0291 0.0209 0.0290 7.2239 -0.0210 22.5664
#
#
#
# Elastic Compliance Matrix: (Units=1/GPa)
#
#
# Indices 1 2 3 4 5 6 
#
# 1 0.038499 -0.003069 -0.022926 -0.000105 -0.012337 0.000104
# 2 -0.003069 0.017677 -0.005869 0.000014 -0.002397 -0.000019
# 3 -0.022926 -0.005869 0.029329 0.000058 0.014783 -0.000067
# 4 -0.000105 0.000014 0.000058 0.037788 0.000008 -0.012097
# 5 -0.012337 -0.002397 0.014783 0.000008 0.030196 -0.000007
# 6 0.000104 -0.000019 -0.000067 -0.012097 -0.000007 0.048186
#
#
# Mechanical properties :
#
#
# Convention : Reuss Voigt Hill
#
# Bulk Modulus (GPa) = 45.91792 50.26798 48.09295
# Shear Modulus (GPa) = 18.33770 26.37431 22.35600
#
# Velocity S-wave (km/s) = 2.98491 3.57972 3.29576
# Velocity P-wave (km/s) = 5.84718 6.44277 6.15219
#
# Compressibility (1/GPa) = 0.02177799
#
# Stress axis : x y z
#
# Youngs Moduli (GPa) = 25.97462 56.57092 34.09556
#
# Poissons Ratio (x) = 0.17360 0.78169
# Poissons Ratio (y) = 0.07971 0.20009
# Poissons Ratio (z) = 0.59551 0.33199
#
# Static dielectric constant tensor:
#      x y z
#    x 1.697980 -0.000060 -0.009870 
#    y -0.000060 1.631180 0.000270 
#    z -0.009870 0.000270 1.949770 
# 
# From -- ./inp_files/216627.got.cif
#   From: 2010.05.17/outbox.ucp.g08.bks.cvg/sg15_109_cif.got.tgz:216627.got - 2010.06.11 12:40:34.
