data_PCOD9309347
_publ_section_title
;
Structure prediction by ZEFSAII (Michael W. Deem and Ramdas Pophale) SiO2 
 PCOD9309347
Probable space group: C 2/C
;
_chemical_formula_sum "Si O2"
_cell_formula_units_Z 30
_cell_length_a 27.000000
_cell_length_b 21.000000
_cell_length_c 15.000000
_cell_angle_alpha 90.000000
_cell_angle_beta 160.000000
_cell_angle_gamma 90.000000
_cell_volume 2908.881319
_symmetry_space_group_name_H-M "C 2/C"
_symmetry_group_IT_number 15
_symmetry_cell_setting 'monoclinic'
loop_
_space_group_symop_operation_xyz
x,y,z
-x,y,1/2-z
-x,-y,-z
x,-y,1/2+z
1/2+x,1/2+y,z
1/2-x,1/2+y,1/2-z
1/2-x,1/2-y,-z
1/2+x,1/2-y,1/2+z
loop_
_atom_site_type_symbol
_atom_site_label
_atom_site_fract_x
_atom_site_fract_y
_atom_site_fract_z
Si Si1 0.066365 0.294335 0.038112
Si Si2 0.370524 0.448271 0.789251
Si Si3 0.500000 0.288118 0.250000
Si Si4 0.351478 0.646738 0.943823
Si Si5 0.476413 0.684791 0.984875
Si Si6 0.145800 0.994484 0.055351
Si Si7 0.253365 0.346693 0.952628
Si Si8 0.329709 0.007138 0.196316
O O1 0.207891 0.337203 0.257603
O O2 0.040550 0.257361 0.901219
O O3 0.088053 0.240194 0.148872
O O4 0.913168 0.323755 0.813578
O O5 0.332956 0.454535 0.830679
O O6 0.240086 0.466215 0.501919
O O7 0.500000 0.500000 0.000000
O O8 0.433604 0.380340 0.868742
O O9 0.642671 0.327939 0.456594
O O10 0.388651 0.694955 0.927352
O O11 0.345368 0.576636 0.889031
O O12 0.500000 0.644867 0.250000
O O13 0.350520 0.679370 0.697872
O O14 0.266268 0.990282 0.184642
O O15 0.000000 0.004400 0.750000
O O16 0.232336 0.422113 0.924177
O O17 0.500000 0.000000 0.500000
#
# Coordination Sequence:
#
# PCOD9309347 Si02
#       8
#     8   8   4   8   8   8   8   8
#     4  11  23  39  61  94 130 166 214 273 325 383
#     4  12  21  42  68  96 124 171 220 266 330 397
#     4  10  22  38  64  92 118 164 218 250 324 392
#     4  11  22  39  61  88 123 171 216 258 326 392
#     4  11  22  40  64  92 124 166 222 269 318 399
#     4  11  21  38  69  93 122 171 220 264 324 400
#     4  11  22  39  65  94 130 166 210 277 331 390
#     4  12  26  41  63 100 135 166 217 280 335 392
#
# _framework density 10.313243
#
# number of rings (size 3 to 8) (size 9 to 14) (size 15 to 20)
#    0.000    0.800    4.000    4.800    4.667    1.067 
#    0.000    4.000    0.000    0.000    0.000    0.000 
#    0.000    0.000    0.000    0.000    0.000    0.000 
#
# Total GULP energy -167289.103791 kJ/mol
# GULP energy per Si atom -5576.303460 kJ/mol
# Density = 1.028977 g / cm^3
# Si number density = 10.313243 Si / 1000 Ang^3
#
#
#
# Elastic Constant Matrix: (Units=GPa)
#
#
# Indices 1 2 3 4 5 6 
#
# 1 129.9863 18.2911 42.1658 0.0000 28.2689 0.0000
# 2 18.2911 75.3544 17.6810 0.0000 20.3515 0.0000
# 3 42.1658 17.6810 120.5144 0.0000 32.1136 0.0000
# 4 0.0000 0.0000 0.0000 18.5308 0.0000 7.6519
# 5 28.2689 20.3515 32.1136 0.0000 35.5236 0.0000
# 6 0.0000 0.0000 0.0000 7.6519 0.0000 33.0343
#
#
#
# Elastic Compliance Matrix: (Units=1/GPa)
#
#
# Indices 1 2 3 4 5 6 
#
# 1 0.009579 -0.000335 -0.001742 0.000000 -0.005856 0.000000
# 2 -0.000335 0.015713 0.000184 0.000000 -0.008902 0.000000
# 3 -0.001742 0.000184 0.011249 0.000000 -0.008888 0.000000
# 4 0.000000 0.000000 0.000000 0.059672 0.000000 -0.013822
# 5 -0.005856 -0.008902 -0.008888 0.000000 0.045945 0.000000
# 6 0.000000 0.000000 0.000000 -0.013822 0.000000 0.033473
#
#
# Mechanical properties :
#
#
# Convention : Reuss Voigt Hill
#
# Bulk Modulus (GPa) = 30.52968 53.57011 42.04990
# Shear Modulus (GPa) = 26.26954 33.93219 30.10086
#
# Velocity S-wave (km/s) = 3.57260 4.06036 3.82426
# Velocity P-wave (km/s) = 5.64370 6.92892 6.31907
#
# Compressibility (1/GPa) = 0.03275501
#
# Stress axis : x y z
#
# Youngs Moduli (GPa) = 104.39674 63.64187 88.89960
#
# Poissons Ratio (x) = 0.02131 0.15485
# Poissons Ratio (y) = 0.03495 -0.01635
# Poissons Ratio (z) = 0.18184 -0.01171
#
# Static dielectric constant tensor:
#      x y z
#    x 1.802960 0.000000 -0.008650 
#    y 0.000000 1.864650 0.000000 
#    z -0.008650 0.000000 1.689070 
# 
# From -- ./inp_files/179120.got.cif
#   From: 2010.05.17/outbox.ucp.g08.bks.cvg/sg15_90_cif.got.tgz:179120.got - 2010.06.11 12:40:34.
