data_PCOD9309160
_publ_section_title
;
Structure prediction by ZEFSAII (Michael W. Deem and Ramdas Pophale) SiO2 
 PCOD9309160
Probable space group: C 2/C
;
_chemical_formula_sum "Si O2"
_cell_formula_units_Z 32
_cell_length_a 12.000000
_cell_length_b 27.000000
_cell_length_c 15.000000
_cell_angle_alpha 90.000000
_cell_angle_beta 140.000000
_cell_angle_gamma 90.000000
_cell_volume 3123.947783
_symmetry_space_group_name_H-M "C 2/C"
_symmetry_group_IT_number 15
_symmetry_cell_setting 'monoclinic'
loop_
_space_group_symop_operation_xyz
x,y,z
-x,y,1/2-z
-x,-y,-z
x,-y,1/2+z
1/2+x,1/2+y,z
1/2-x,1/2+y,1/2-z
1/2-x,1/2-y,-z
1/2+x,1/2-y,1/2+z
loop_
_atom_site_type_symbol
_atom_site_label
_atom_site_fract_x
_atom_site_fract_y
_atom_site_fract_z
Si Si1 0.816903 0.591930 0.484251
Si Si2 0.024142 0.269131 0.961777
Si Si3 0.456034 0.245475 0.628003
Si Si4 0.981685 0.916881 0.554813
Si Si5 0.221804 0.164206 0.265869
Si Si6 0.640222 0.311405 0.267112
Si Si7 0.161369 0.002443 0.285079
Si Si8 0.712478 0.091482 0.731671
O O1 0.662615 0.597423 0.460084
O O2 0.778387 0.632937 0.386328
O O3 0.782329 0.539974 0.413916
O O4 0.012405 0.594072 0.640532
O O5 0.898863 0.310495 0.841272
O O6 0.953278 0.220055 0.869011
O O7 0.229044 0.278764 0.090969
O O8 0.989497 0.272176 0.047358
O O9 0.500000 0.218691 0.750000
O O10 0.250000 0.250000 0.500000
O O11 0.582406 0.293623 0.707512
O O12 0.864554 0.919807 0.395784
O O13 0.123918 0.873220 0.639707
O O14 0.079292 0.965871 0.651918
O O15 0.500000 0.331740 0.250000
O O16 0.744142 0.356336 0.287052
O O17 0.267106 0.954376 0.322668
O O18 0.000000 0.989253 0.250000
#
# Coordination Sequence:
#
# PCOD9309160 Si02
#       8
#     8   8   8   8   8   8   8   8
#     4  10  21  38  61  92 129 169 196 250 323 397
#     4  12  24  44  61  87 125 165 218 263 324 378
#     4  12  22  35  59  92 125 162 199 260 320 380
#     4  10  22  37  63  91 131 164 199 251 324 385
#     4  11  21  39  57  82 126 161 206 246 318 382
#     4  12  27  45  66  88 120 172 224 277 317 367
#     4   9  20  40  63  92 127 166 200 253 316 378
#     4  12  22  38  65  96 121 159 221 262 312 373
#
# _framework density 10.243449
#
# number of rings (size 3 to 8) (size 9 to 14) (size 15 to 20)
#    0.000    1.000    3.750    4.500    0.000    0.000 
#    0.000    0.000    0.000    0.000    0.000    0.000 
#    0.000    0.000    0.000    0.000    0.000    0.000 
#
# Total GULP energy -178531.430145 kJ/mol
# GULP energy per Si atom -5579.107192 kJ/mol
# Density = 1.022013 g / cm^3
# Si number density = 10.243449 Si / 1000 Ang^3
#
#
#
# Elastic Constant Matrix: (Units=GPa)
#
#
# Indices 1 2 3 4 5 6 
#
# 1 26.0332 -5.1721 7.5398 0.0000 5.2998 0.0000
# 2 -5.1721 32.3370 -2.7249 0.0000 -1.0141 0.0000
# 3 7.5398 -2.7249 107.5101 0.0000 10.2929 0.0000
# 4 0.0000 0.0000 0.0000 13.0898 0.0000 11.3835
# 5 5.2998 -1.0141 10.2929 0.0000 27.9335 0.0000
# 6 0.0000 0.0000 0.0000 11.3835 0.0000 20.6818
#
#
#
# Elastic Compliance Matrix: (Units=1/GPa)
#
#
# Indices 1 2 3 4 5 6 
#
# 1 0.041673 0.006272 -0.002103 0.000000 -0.006904 0.000000
# 2 0.006272 0.031955 0.000387 0.000000 -0.000172 0.000000
# 3 -0.002103 0.000387 0.009764 0.000000 -0.003185 0.000000
# 4 0.000000 0.000000 0.000000 0.146539 0.000000 -0.080657
# 5 -0.006904 -0.000172 -0.003185 0.000000 0.038276 0.000000
# 6 0.000000 0.000000 0.000000 -0.080657 0.000000 0.092746
#
#
# Mechanical properties :
#
#
# Convention : Reuss Voigt Hill
#
# Bulk Modulus (GPa) = 10.81054 18.35175 14.58114
# Shear Modulus (GPa) = 13.06589 23.42353 18.24471
#
# Velocity S-wave (km/s) = 2.52815 3.38500 2.98745
# Velocity P-wave (km/s) = 3.71622 4.92493 4.36264
#
# Compressibility (1/GPa) = 0.09250236
#
# Stress axis : x y z
#
# Youngs Moduli (GPa) = 23.99639 31.29441 102.42109
#
# Poissons Ratio (x) = -0.19627 0.21535
# Poissons Ratio (y) = -0.15050 -0.03959
# Poissons Ratio (z) = 0.05046 -0.01210
#
# Static dielectric constant tensor:
#      x y z
#    x 1.754740 0.000000 -0.002870 
#    y 0.000000 1.752370 0.000000 
#    z -0.002870 0.000000 1.743580 
# 
# From -- ./inp_files/148806.got.cif
#   From: 2010.05.17/outbox.ucp.g08.bks.cvg/sg15_75_cif.got.tgz:148806.got - 2010.06.11 12:40:34.
