data_PCOD9309687
_publ_section_title
;
Structure prediction by ZEFSAII (Michael W. Deem and Ramdas Pophale) SiO2 
 PCOD9309687
Probable space group: C 2/C
;
_chemical_formula_sum "Si O2"
_cell_formula_units_Z 32
_cell_length_a 24.000000
_cell_length_b 18.000000
_cell_length_c 21.000000
_cell_angle_alpha 90.000000
_cell_angle_beta 160.000000
_cell_angle_gamma 90.000000
_cell_volume 3102.806740
_symmetry_space_group_name_H-M "C 2/C"
_symmetry_group_IT_number 15
_symmetry_cell_setting 'monoclinic'
loop_
_space_group_symop_operation_xyz
x,y,z
-x,y,1/2-z
-x,-y,-z
x,-y,1/2+z
1/2+x,1/2+y,z
1/2-x,1/2+y,1/2-z
1/2-x,1/2-y,-z
1/2+x,1/2-y,1/2+z
loop_
_atom_site_type_symbol
_atom_site_label
_atom_site_fract_x
_atom_site_fract_y
_atom_site_fract_z
Si Si1 0.479678 0.827632 0.910625
Si Si2 0.562818 0.471043 0.202941
Si Si3 0.753466 0.466409 0.075298
Si Si4 0.303385 0.831471 0.035287
Si Si5 0.538779 0.071392 0.585491
Si Si6 0.437435 0.926228 0.620616
Si Si7 0.394657 0.336179 0.950659
Si Si8 0.298154 0.612465 0.210222
O O1 0.547532 0.877041 0.926080
O O2 0.285951 0.838968 0.712208
O O3 0.559034 0.859117 0.060517
O O4 0.522589 0.742351 0.946842
O O5 0.749848 0.454033 0.427111
O O6 0.588801 0.543491 0.187363
O O7 0.416065 0.489295 0.095264
O O8 0.500034 0.402370 0.093572
O O9 0.735112 0.397152 0.007580
O O10 0.808788 0.439781 0.205017
O O11 0.916917 0.512142 0.229382
O O12 0.500000 0.837175 0.250000
O O13 0.250000 0.750000 0.000000
O O14 0.237177 0.843471 0.892686
O O15 0.377882 0.083450 0.455111
O O16 0.500000 0.000000 0.500000
O O17 0.500000 0.882533 0.750000
O O18 0.371991 0.345507 0.850260
#
# Coordination Sequence:
#
# PCOD9309687 Si02
#       8
#     8   8   8   8   8   8   8   8
#     4  11  24  45  67 104 148 183 238 307 367 420
#     4  12  24  45  76 107 137 185 248 293 356 440
#     4  12  24  45  72 104 144 194 241 296 351 427
#     4  12  28  47  68 104 155 194 242 292 360 433
#     4  11  20  41  70  99 138 188 240 300 359 413
#     4  12  25  47  76 103 143 186 234 299 361 427
#     4  11  25  44  72 104 143 183 242 303 367 427
#     4  11  24  43  70 101 141 192 241 294 361 430
#
# _framework density 10.313243
#
# number of rings (size 3 to 8) (size 9 to 14) (size 15 to 20)
#    0.000    0.500    5.000    3.000    3.500    3.500 
#    0.000    2.500    0.000    0.000    0.000    0.000 
#    0.000    0.000    0.000    0.000    0.000    0.000 
#
# Total GULP energy -178976.876316 kJ/mol
# GULP energy per Si atom -5593.027385 kJ/mol
# Density = 1.028977 g / cm^3
# Si number density = 10.313243 Si / 1000 Ang^3
#
#
#
# Elastic Constant Matrix: (Units=GPa)
#
#
# Indices 1 2 3 4 5 6 
#
# 1 114.8926 52.8366 69.7201 -0.0037 -3.3425 -0.0010
# 2 52.8366 123.1482 49.9436 -0.0193 -0.2420 -0.0176
# 3 69.7201 49.9436 130.8257 -0.0037 3.8300 -0.0081
# 4 -0.0037 -0.0193 -0.0037 34.4417 -0.0031 5.3131
# 5 -3.3425 -0.2420 3.8300 -0.0031 32.6057 -0.0018
# 6 -0.0010 -0.0176 -0.0081 5.3131 -0.0018 32.9661
#
#
#
# Elastic Compliance Matrix: (Units=1/GPa)
#
#
# Indices 1 2 3 4 5 6 
#
# 1 0.014209 -0.003544 -0.006283 -0.000001 0.002168 -0.000003
# 2 -0.003544 0.010500 -0.002119 0.000005 -0.000037 0.000004
# 3 -0.006283 -0.002119 0.011861 -0.000001 -0.002053 0.000002
# 4 -0.000001 0.000005 -0.000001 0.029775 0.000003 -0.004799
# 5 0.002168 -0.000037 -0.002053 0.000003 0.031133 0.000001
# 6 -0.000003 0.000004 0.000002 -0.004799 0.000001 0.031108
#
#
# Mechanical properties :
#
#
# Convention : Reuss Voigt Hill
#
# Bulk Modulus (GPa) = 78.87109 79.31856 79.09482
# Shear Modulus (GPa) = 31.90735 33.09378 32.50056
#
# Velocity S-wave (km/s) = 3.93735 4.00988 3.97378
# Velocity P-wave (km/s) = 7.68056 7.74449 7.71259
#
# Compressibility (1/GPa) = 0.01267892
#
# Stress axis : x y z
#
# Youngs Moduli (GPa) = 70.37562 95.23735 84.30969
#
# Poissons Ratio (x) = 0.33754 0.52972
# Poissons Ratio (y) = 0.24942 0.17862
# Poissons Ratio (z) = 0.44217 0.20177
#
# Static dielectric constant tensor:
#      x y z
#    x 1.785190 0.000000 -0.022420 
#    y 0.000000 1.722630 0.000000 
#    z -0.022420 0.000000 1.765340 
# 
# From -- ./inp_files/256014.got.cif
#   From: 2010.05.17/outbox.ucp.g08.bks.cvg/sg15_129_cif.got.tgz:256014.got - 2010.06.11 12:40:34.
