data_PCOD9309041
_publ_section_title
;
Structure prediction by ZEFSAII (Michael W. Deem and Ramdas Pophale) SiO2 
 PCOD9309041
Probable space group: C 2/C
;
_chemical_formula_sum "Si O2"
_cell_formula_units_Z 32
_cell_length_a 21.000000
_cell_length_b 24.000000
_cell_length_c 18.000000
_cell_angle_alpha 90.000000
_cell_angle_beta 20.000000
_cell_angle_gamma 90.000000
_cell_volume 3102.806740
_symmetry_space_group_name_H-M "C 2/C"
_symmetry_group_IT_number 15
_symmetry_cell_setting 'monoclinic'
loop_
_space_group_symop_operation_xyz
x,y,z
-x,y,1/2-z
-x,-y,-z
x,-y,1/2+z
1/2+x,1/2+y,z
1/2-x,1/2+y,1/2-z
1/2-x,1/2-y,-z
1/2+x,1/2-y,1/2+z
loop_
_atom_site_type_symbol
_atom_site_label
_atom_site_fract_x
_atom_site_fract_y
_atom_site_fract_z
Si Si1 0.109527 0.306871 0.471675
Si Si2 0.044578 0.819202 0.019127
Si Si3 0.994774 0.580303 0.345299
Si Si4 0.645099 0.818380 0.260209
Si Si5 0.403594 0.426072 0.433989
Si Si6 0.116119 0.396674 0.049483
Si Si7 0.348107 0.496912 0.235860
Si Si8 0.416604 0.690614 0.196577
O O1 0.087158 0.240720 0.509981
O O2 0.324119 0.320199 0.249942
O O3 0.004709 0.353746 0.634231
O O4 0.069181 0.315170 0.428302
O O5 0.095934 0.872853 0.011192
O O6 0.122451 0.819210 0.849293
O O7 0.819793 0.549833 0.578030
O O8 0.000000 0.574334 0.250000
O O9 0.190768 0.555969 0.157396
O O10 0.535733 0.866835 0.337435
O O11 0.606709 0.757141 0.266973
O O12 0.869404 0.825262 0.019831
O O13 0.500000 0.410136 0.250000
O O14 0.523297 0.475839 0.337677
O O15 0.000000 0.415553 0.250000
O O16 0.236829 0.445868 0.877335
O O17 0.267290 0.347920 0.902186
O O18 0.500000 0.500000 0.000000
#
# Coordination Sequence:
#
# PCOD9309041 Si02
#       8
#     8   8   8   8   8   8   8   8
#     4  10  21  37  70 105 149 186 237 287 346 431
#     4  10  20  39  67 111 140 187 240 286 341 432
#     4  12  25  47  72 106 146 190 231 296 367 421
#     4  10  22  42  71 106 144 194 232 292 358 430
#     4  12  25  46  76 100 148 193 229 296 367 419
#     4  12  28  46  71 105 142 183 246 305 361 441
#     4  12  29  52  73 101 138 188 253 303 354 436
#     4  10  21  43  70 102 149 185 235 288 357 429
#
# _framework density 10.313243
#
# number of rings (size 3 to 8) (size 9 to 14) (size 15 to 20)
#    0.000    1.000    3.750    1.875    7.000    3.000 
#    0.000    2.500    0.000    0.000    0.000    0.000 
#    0.000    0.000    0.000    0.000    0.000    0.000 
#
# Total GULP energy -178816.757343 kJ/mol
# GULP energy per Si atom -5588.023667 kJ/mol
# Density = 1.028977 g / cm^3
# Si number density = 10.313243 Si / 1000 Ang^3
#
#
#
# Elastic Constant Matrix: (Units=GPa)
#
#
# Indices 1 2 3 4 5 6 
#
# 1 71.8295 38.9278 41.3562 0.0121 -12.8743 0.0059
# 2 38.9278 115.3840 37.2010 0.0540 -0.0196 0.0129
# 3 41.3562 37.2010 134.8575 0.0568 -6.2917 0.0188
# 4 0.0121 0.0540 0.0568 46.4382 -0.0065 -3.2649
# 5 -12.8743 -0.0196 -6.2917 -0.0065 44.9140 -0.0155
# 6 0.0059 0.0129 0.0188 -3.2649 -0.0155 28.6167
#
#
#
# Elastic Compliance Matrix: (Units=1/GPa)
#
#
# Indices 1 2 3 4 5 6 
#
# 1 0.020395 -0.005424 -0.004515 0.000008 0.005211 0.000005
# 2 -0.005424 0.010961 -0.001442 -0.000010 -0.001752 -0.000005
# 3 -0.004515 -0.001442 0.009197 -0.000009 -0.000006 -0.000005
# 4 0.000008 -0.000010 -0.000009 0.021708 0.000005 0.002477
# 5 0.005211 -0.001752 -0.000006 0.000005 0.023757 0.000013
# 6 0.000005 -0.000005 -0.000005 0.002477 0.000013 0.035227
#
#
# Mechanical properties :
#
#
# Convention : Reuss Voigt Hill
#
# Bulk Modulus (GPa) = 56.20778 61.89344 59.05061
# Shear Modulus (GPa) = 33.34685 37.63283 35.48984
#
# Velocity S-wave (km/s) = 4.02518 4.27604 4.15251
# Velocity P-wave (km/s) = 6.99373 7.37911 7.18900
#
# Compressibility (1/GPa) = 0.01779113
#
# Stress axis : x y z
#
# Youngs Moduli (GPa) = 49.03134 91.22958 108.72701
#
# Poissons Ratio (x) = 0.49485 0.49091
# Poissons Ratio (y) = 0.26596 0.15679
# Poissons Ratio (z) = 0.22138 0.13156
#
# Static dielectric constant tensor:
#      x y z
#    x 1.752220 -0.000030 -0.004890 
#    y -0.000030 1.758150 0.000030 
#    z -0.004890 0.000030 1.763290 
# 
# From -- ./inp_files/216959.got.cif
#   From: 2010.05.17/outbox.ucp.g08.bks.cvg/sg15_109_cif.got.tgz:216959.got - 2010.06.11 12:40:34.
