data_PCOD9309199
_publ_section_title
;
Structure prediction by ZEFSAII (Michael W. Deem and Ramdas Pophale) SiO2 
 PCOD9309199
Probable space group: C 2/C
;
_chemical_formula_sum "Si O2"
_cell_formula_units_Z 20
_cell_length_a 30.000000
_cell_length_b 9.000000
_cell_length_c 15.000000
_cell_angle_alpha 90.000000
_cell_angle_beta 30.000000
_cell_angle_gamma 90.000000
_cell_volume 2025.000000
_symmetry_space_group_name_H-M "C 2/C"
_symmetry_group_IT_number 15
_symmetry_cell_setting 'monoclinic'
loop_
_space_group_symop_operation_xyz
x,y,z
-x,y,1/2-z
-x,-y,-z
x,-y,1/2+z
1/2+x,1/2+y,z
1/2-x,1/2+y,1/2-z
1/2-x,1/2-y,-z
1/2+x,1/2-y,1/2+z
loop_
_atom_site_type_symbol
_atom_site_label
_atom_site_fract_x
_atom_site_fract_y
_atom_site_fract_z
Si Si1 0.520079 0.340410 0.508669
Si Si2 0.179086 0.120814 0.872384
Si Si3 0.358829 0.274724 0.521463
Si Si4 0.462883 0.841881 0.690348
Si Si5 0.083070 0.678101 0.673536
O O1 0.500000 0.500000 0.500000
O O2 0.604722 0.352863 0.426205
O O3 0.538217 0.206614 0.409102
O O4 0.436139 0.286848 0.711340
O O5 0.276179 0.163806 0.670339
O O6 0.167563 0.945541 0.914023
O O7 0.161315 0.242094 0.982226
O O8 0.437944 0.199980 0.444472
O O9 0.399517 0.271191 0.352663
O O10 0.425827 0.006879 0.777395
O O11 0.000000 0.689438 0.750000
#
# Coordination Sequence:
#
# PCOD9309199 Si02
#       5
#     8   8   8   8   8
#     4  11  22  39  66  94 127 165 209 261 317 370
#     4  11  24  41  66  93 128 166 214 259 314 373
#     4  11  23  40  66  91 128 168 210 259 312 381
#     4  11  22  42  66  92 127 165 213 257 320 374
#     4  10  21  39  65  90 121 167 206 254 313 378
#
# _framework density 9.8765429999999999
#
# number of rings (size 3 to 8) (size 9 to 14) (size 15 to 20)
#    0.000    1.200    4.000    3.000    8.400    0.800 
#    0.000    1.000    0.000    0.000    0.000    0.000 
#    0.000    0.000    0.000    0.000    0.000    0.000 
#
# Total GULP energy -111442.453363 kJ/mol
# GULP energy per Si atom -5572.122668 kJ/mol
# Density = 0.985406 g / cm^3
# Si number density = 9.876543 Si / 1000 Ang^3
#
#
#
# Elastic Constant Matrix: (Units=GPa)
#
#
# Indices 1 2 3 4 5 6 
#
# 1 44.0618 29.2632 42.4900 0.0000 17.7384 0.0000
# 2 29.2632 113.5936 21.5825 0.0000 -2.7304 0.0000
# 3 42.4900 21.5825 94.1762 0.0000 -13.0356 0.0000
# 4 0.0000 0.0000 0.0000 36.0589 0.0000 6.2780
# 5 17.7384 -2.7304 -13.0356 0.0000 21.2597 0.0000
# 6 0.0000 0.0000 0.0000 6.2780 0.0000 35.4549
#
#
#
# Elastic Compliance Matrix: (Units=1/GPa)
#
#
# Indices 1 2 3 4 5 6 
#
# 1 -0.139237 0.024624 0.080530 0.000000 0.168715 0.000000
# 2 0.024624 0.004850 -0.016368 0.000000 -0.029959 0.000000
# 3 0.080530 -0.016368 -0.034482 0.000000 -0.090436 0.000000
# 4 0.000000 0.000000 0.000000 0.028615 0.000000 -0.005067
# 5 0.168715 -0.029959 -0.090436 0.000000 -0.153032 0.000000
# 6 0.000000 0.000000 0.000000 -0.005067 0.000000 0.029102
#
#
# Mechanical properties :
#
#
# Convention : Reuss Voigt Hill
#
# Bulk Modulus (GPa) = 114.89849 48.72255 81.81052
# Shear Modulus (GPa) = -11.39327 29.12111 8.86392
#
# Velocity S-wave (km/s) = -2.40424 3.84377 2.12064
# Velocity P-wave (km/s) = 7.11242 6.66474 6.89221
#
# Compressibility (1/GPa) = 0.00870333
#
# Stress axis : x y z
#
# Youngs Moduli (GPa) = -7.18200 206.20056 -29.00090
#
# Poissons Ratio (x) = -5.07747 2.33545
# Poissons Ratio (y) = 0.17685 -0.47468
# Poissons Ratio (z) = 0.57837 3.37507
#
# Static dielectric constant tensor:
#      x y z
#    x 1.724840 0.000000 0.035480 
#    y 0.000000 1.699950 0.000000 
#    z 0.035480 0.000000 1.701050 
# 
# From -- ./inp_files/150612.got.cif
#   From: 2010.05.17/outbox.ucp.g08.bks.cvg/sg15_76_cif.got.tgz:150612.got - 2010.06.11 12:40:34.
