data_PCOD9309612
_publ_section_title
;
Structure prediction by ZEFSAII (Michael W. Deem and Ramdas Pophale) SiO2 
 PCOD9309612
Probable space group: C 2/C
;
_chemical_formula_sum "Si O2"
_cell_formula_units_Z 24
_cell_length_a 15.000000
_cell_length_b 15.000000
_cell_length_c 30.000000
_cell_angle_alpha 90.000000
_cell_angle_beta 160.000000
_cell_angle_gamma 90.000000
_cell_volume 2308.635967
_symmetry_space_group_name_H-M "C 2/C"
_symmetry_group_IT_number 15
_symmetry_cell_setting 'monoclinic'
loop_
_space_group_symop_operation_xyz
x,y,z
-x,y,1/2-z
-x,-y,-z
x,-y,1/2+z
1/2+x,1/2+y,z
1/2-x,1/2+y,1/2-z
1/2-x,1/2-y,-z
1/2+x,1/2-y,1/2+z
loop_
_atom_site_type_symbol
_atom_site_label
_atom_site_fract_x
_atom_site_fract_y
_atom_site_fract_z
Si Si1 0.045529 0.095611 0.218695
Si Si2 0.104177 0.660646 0.948290
Si Si3 0.409481 0.399801 0.418542
Si Si4 0.643613 0.043354 0.879784
Si Si5 0.540581 0.615193 0.716669
Si Si6 0.554206 0.789595 0.945263
O O1 0.292528 0.151113 0.315210
O O2 0.000000 0.110088 0.250000
O O3 0.086619 0.990078 0.230063
O O4 0.776723 0.126144 0.070125
O O5 0.136491 0.588197 0.924352
O O6 0.796744 0.665788 0.817120
O O7 0.250000 0.750000 0.000000
O O8 0.684443 0.452168 0.540563
O O9 0.314828 0.398264 0.425351
O O10 0.446108 0.299707 0.418565
O O11 0.161265 0.452607 0.279451
O O12 0.500000 0.629684 0.750000
O O13 0.262245 0.646622 0.567276
O O14 0.750000 0.750000 0.000000
#
# Coordination Sequence:
#
# PCOD9309612 Si02
#       6
#     8   8   8   8   8   8
#     4  11  26  47  74  98 142 191 232 292 359 418
#     4  12  26  42  71 106 134 183 238 292 350 422
#     4  10  24  45  69 101 139 187 224 290 357 423
#     4  10  24  44  69 100 140 181 233 281 363 420
#     4  11  26  47  69 102 139 186 237 292 355 417
#     4  12  26  44  71 106 136 182 235 292 356 417
#
# _framework density 10.395749
#
# number of rings (size 3 to 8) (size 9 to 14) (size 15 to 20)
#    0.000    1.000    0.000    5.000   14.000    4.000 
#    3.000    0.000    0.000    0.000    0.000    0.000 
#    0.000    0.000    0.000    0.000    0.000    0.000 
#
# Total GULP energy -134015.685900 kJ/mol
# GULP energy per Si atom -5583.986912 kJ/mol
# Density = 1.037209 g / cm^3
# Si number density = 10.395749 Si / 1000 Ang^3
#
#
#
# Elastic Constant Matrix: (Units=GPa)
#
#
# Indices 1 2 3 4 5 6 
#
# 1 53.0512 27.3532 16.4017 -0.0058 -0.6878 0.0016
# 2 27.3532 70.3850 15.8360 -0.0055 15.1187 -0.0036
# 3 16.4017 15.8360 126.0947 -0.0270 17.9472 -0.0001
# 4 -0.0058 -0.0055 -0.0270 43.4008 -0.0054 11.7448
# 5 -0.6878 15.1187 17.9472 -0.0054 46.1419 -0.0007
# 6 0.0016 -0.0036 -0.0001 11.7448 -0.0007 21.6453
#
#
#
# Elastic Compliance Matrix: (Units=1/GPa)
#
#
# Indices 1 2 3 4 5 6 
#
# 1 0.024941 -0.010110 -0.002645 0.000002 0.004713 -0.000005
# 2 -0.010110 0.019578 -0.000222 -0.000001 -0.006479 0.000004
# 3 -0.002645 -0.000222 0.008784 0.000005 -0.003383 -0.000003
# 4 0.000002 -0.000001 0.000005 0.027007 0.000001 -0.014654
# 5 0.004713 -0.006479 -0.003383 0.000001 0.025182 -0.000001
# 6 -0.000005 0.000004 -0.000003 -0.014654 -0.000001 0.054151
#
#
# Mechanical properties :
#
#
# Convention : Reuss Voigt Hill
#
# Bulk Modulus (GPa) = 36.56336 40.96807 38.76572
# Shear Modulus (GPa) = 25.67885 34.90027 30.28956
#
# Velocity S-wave (km/s) = 3.51816 4.10150 3.82098
# Velocity P-wave (km/s) = 5.84185 6.49436 6.17673
#
# Compressibility (1/GPa) = 0.02734978
#
# Stress axis : x y z
#
# Youngs Moduli (GPa) = 40.09397 51.07730 113.84290
#
# Poissons Ratio (x) = 0.51639 0.30116
# Poissons Ratio (y) = 0.40535 0.02522
# Poissons Ratio (z) = 0.10606 0.01131
#
# Static dielectric constant tensor:
#      x y z
#    x 1.782290 0.000010 -0.097620 
#    y 0.000010 1.746540 0.000020 
#    z -0.097620 0.000020 1.725730 
# 
# From -- ./inp_files/314160.got.cif
#   From: 2010.05.17/outbox.ucp.g08.bks.cvg/sg15_158_cif.got.tgz:314160.got - 2010.06.11 12:40:34.
