data_PCOD9309103
_publ_section_title
;
Structure prediction by ZEFSAII (Michael W. Deem and Ramdas Pophale) SiO2 
 PCOD9309103
Probable space group: C 2/C
;
_chemical_formula_sum "Si O2"
_cell_formula_units_Z 20
_cell_length_a 15.000000
_cell_length_b 24.000000
_cell_length_c 9.000000
_cell_angle_alpha 90.000000
_cell_angle_beta 40.000000
_cell_angle_gamma 90.000000
_cell_volume 2082.631855
_symmetry_space_group_name_H-M "C 2/C"
_symmetry_group_IT_number 15
_symmetry_cell_setting 'monoclinic'
loop_
_space_group_symop_operation_xyz
x,y,z
-x,y,1/2-z
-x,-y,-z
x,-y,1/2+z
1/2+x,1/2+y,z
1/2-x,1/2+y,1/2-z
1/2-x,1/2-y,-z
1/2+x,1/2-y,1/2+z
loop_
_atom_site_type_symbol
_atom_site_label
_atom_site_fract_x
_atom_site_fract_y
_atom_site_fract_z
Si Si1 0.764396 0.322516 0.389614
Si Si2 0.157257 0.438852 0.362970
Si Si3 0.461426 0.255288 0.021604
Si Si4 0.789496 0.174069 0.186684
Si Si5 0.176357 0.559501 0.193927
O O1 0.782426 0.383168 0.291332
O O2 0.630588 0.292070 0.480819
O O3 0.741965 0.328303 0.595231
O O4 0.909085 0.286479 0.188030
O O5 0.204520 0.497531 0.226658
O O6 0.192349 0.440670 0.494212
O O7 0.989250 0.432978 0.563677
O O8 0.331764 0.213831 0.233512
O O9 0.553905 0.297653 0.009693
O O10 0.762960 0.111930 0.152549
#
# Coordination Sequence:
#
# PCOD9309103 Si02
#       5
#     8   8   8   8   8
#     4  11  19  35  58  85 114 149 187 227 271 326
#     4  10  21  37  57  83 111 144 186 233 281 330
#     4  10  21  34  57  86 117 150 187 224 271 330
#     4  11  19  35  58  85 114 149 187 227 271 326
#     4  10  21  37  57  83 111 144 186 233 281 330
#
# _framework density 9.6032340000000005
#
# number of rings (size 3 to 8) (size 9 to 14) (size 15 to 20)
#    0.000    1.600    2.000    6.000    0.000    1.600 
#    0.000    8.000    0.000    0.000    0.000    0.000 
#    0.000    0.000    0.000    0.000    0.000    0.000 
#
# Total GULP energy -111473.363289 kJ/mol
# GULP energy per Si atom -5573.668164 kJ/mol
# Density = 0.958138 g / cm^3
# Si number density = 9.603234 Si / 1000 Ang^3
#
#
#
# Elastic Constant Matrix: (Units=GPa)
#
#
# Indices 1 2 3 4 5 6 
#
# 1 136.3546 72.1268 34.2681 0.0000 -20.0108 0.0000
# 2 72.1268 193.7052 35.2998 0.0000 5.2455 0.0000
# 3 34.2681 35.2998 42.9910 0.0000 -2.0076 0.0000
# 4 0.0000 0.0000 0.0000 28.8589 0.0000 -0.2963
# 5 -20.0108 5.2455 -2.0076 0.0000 39.8659 0.0000
# 6 0.0000 0.0000 0.0000 -0.2963 0.0000 58.5001
#
#
#
# Elastic Compliance Matrix: (Units=1/GPa)
#
#
# Indices 1 2 3 4 5 6 
#
# 1 0.011507 -0.003320 -0.006170 0.000000 0.005902 0.000000
# 2 -0.003320 0.007073 -0.003290 0.000000 -0.002763 0.000000
# 3 -0.006170 -0.003290 0.030829 0.000000 -0.001112 0.000000
# 4 0.000000 0.000000 0.000000 0.034653 0.000000 0.000176
# 5 0.005902 -0.002763 -0.001112 0.000000 0.028354 0.000000
# 6 0.000000 0.000000 0.000000 0.000176 0.000000 0.017095
#
#
# Mechanical properties :
#
#
# Convention : Reuss Voigt Hill
#
# Bulk Modulus (GPa) = 41.93350 72.93778 57.43564
# Shear Modulus (GPa) = 30.67071 40.86872 35.76972
#
# Velocity S-wave (km/s) = 4.00045 4.61788 4.32021
# Velocity P-wave (km/s) = 6.57408 8.15421 7.40641
#
# Compressibility (1/GPa) = 0.02384728
#
# Stress axis : x y z
#
# Youngs Moduli (GPa) = 86.90477 141.38029 32.43700
#
# Poissons Ratio (x) = 0.46938 0.20015
# Poissons Ratio (y) = 0.28852 0.10673
# Poissons Ratio (z) = 0.53624 0.46520
#
# Static dielectric constant tensor:
#      x y z
#    x 1.672950 0.000000 0.014250 
#    y 0.000000 1.694890 0.000000 
#    z 0.014250 0.000000 1.709340 
# 
# From -- ./inp_files/41914.got.cif
#   From: 2010.05.17/outbox.ucp.g08.bks.cvg/sg15_21_cif.got.tgz:41914.got - 2010.06.11 12:40:34.
