data_PCOD9309328
_publ_section_title
;
Structure prediction by ZEFSAII (Michael W. Deem and Ramdas Pophale) SiO2 
 PCOD9309328
Probable space group: C 2/C
;
_chemical_formula_sum "Si O2"
_cell_formula_units_Z 20
_cell_length_a 9.000000
_cell_length_b 12.000000
_cell_length_c 27.000000
_cell_angle_alpha 90.000000
_cell_angle_beta 130.000000
_cell_angle_gamma 90.000000
_cell_volume 2233.785596
_symmetry_space_group_name_H-M "C 2/C"
_symmetry_group_IT_number 15
_symmetry_cell_setting 'monoclinic'
loop_
_space_group_symop_operation_xyz
x,y,z
-x,y,1/2-z
-x,-y,-z
x,-y,1/2+z
1/2+x,1/2+y,z
1/2-x,1/2+y,1/2-z
1/2-x,1/2-y,-z
1/2+x,1/2-y,1/2+z
loop_
_atom_site_type_symbol
_atom_site_label
_atom_site_fract_x
_atom_site_fract_y
_atom_site_fract_z
Si Si1 0.881604 0.635884 0.033260
Si Si2 0.019667 0.562400 0.172690
Si Si3 0.790954 0.130095 0.318953
Si Si4 0.785690 0.886879 0.180114
Si Si5 0.226359 0.964637 0.921201
O O1 0.939462 0.617213 0.103971
O O2 0.093364 0.621326 0.050732
O O3 0.750000 0.750000 0.000000
O O4 0.764572 0.534005 0.980505
O O5 0.839889 0.554797 0.172103
O O6 0.189319 0.622637 0.242419
O O7 0.123724 0.448603 0.178530
O O8 0.759084 0.256161 0.330708
O O9 0.015470 0.093976 0.371363
O O10 0.000000 0.903098 0.250000
O O11 0.773041 0.945013 0.123622
#
# Coordination Sequence:
#
# PCOD9309328 Si02
#       5
#     8   8   8   8   8
#     4  10  22  40  62  87 125 161 198 247 303 356
#     4  10  22  37  59  94 118 153 202 248 295 356
#     4  11  22  39  63  90 123 155 201 251 301 349
#     4  11  20  38  63  85 119 156 193 250 298 344
#     4  10  23  41  62  90 118 161 205 243 298 364
#
# _framework density 8.9534109999999991
#
# number of rings (size 3 to 8) (size 9 to 14) (size 15 to 20)
#    0.000    1.600    4.000    1.200    0.000    2.400 
#    0.000   20.000    0.000    0.000    0.000    0.000 
#    0.000    0.000    0.000    0.000    0.000    0.000 
#
# Total GULP energy -111441.207521 kJ/mol
# GULP energy per Si atom -5572.060376 kJ/mol
# Density = 0.893303 g / cm^3
# Si number density = 8.953411 Si / 1000 Ang^3
#
#
#
# Elastic Constant Matrix: (Units=GPa)
#
#
# Indices 1 2 3 4 5 6 
#
# 1 100.0562 46.1022 52.7867 0.0000 18.0092 0.0000
# 2 46.1022 76.4044 36.3307 0.0000 8.2237 0.0000
# 3 52.7867 36.3307 153.1934 0.0000 13.0485 0.0000
# 4 0.0000 0.0000 0.0000 36.2808 0.0000 7.7537
# 5 18.0092 8.2237 13.0485 0.0000 46.0047 0.0000
# 6 0.0000 0.0000 0.0000 7.7537 0.0000 34.7217
#
#
#
# Elastic Compliance Matrix: (Units=1/GPa)
#
#
# Indices 1 2 3 4 5 6 
#
# 1 0.015994 -0.007625 -0.003367 0.000000 -0.003943 0.000000
# 2 -0.007625 0.018516 -0.001779 0.000000 0.000180 0.000000
# 3 -0.003367 -0.001779 0.008168 0.000000 -0.000681 0.000000
# 4 0.000000 0.000000 0.000000 0.028944 0.000000 -0.006463
# 5 -0.003943 0.000180 -0.000681 0.000000 0.023441 0.000000
# 6 0.000000 0.000000 0.000000 -0.006463 0.000000 0.030244
#
#
# Mechanical properties :
#
#
# Convention : Reuss Voigt Hill
#
# Bulk Modulus (GPa) = 58.35941 66.67703 62.51822
# Shear Modulus (GPa) = 31.93656 36.36373 34.15015
#
# Velocity S-wave (km/s) = 4.22771 4.51124 4.37178
# Velocity P-wave (km/s) = 7.51617 8.02816 7.77638
#
# Compressibility (1/GPa) = 0.01713520
#
# Stress axis : x y z
#
# Youngs Moduli (GPa) = 62.52447 54.00778 122.43352
#
# Poissons Ratio (x) = 0.41182 0.41221
# Poissons Ratio (y) = 0.47676 0.21781
# Poissons Ratio (z) = 0.21051 0.09608
#
# Static dielectric constant tensor:
#      x y z
#    x 1.631290 0.000000 -0.010070 
#    y 0.000000 1.603510 0.000000 
#    z -0.010070 0.000000 1.631780 
# 
# From -- ./inp_files/187785.got.cif
#   From: 2010.05.17/outbox.ucp.g08.bks.cvg/sg15_94_cif.got.tgz:187785.got - 2010.06.11 12:40:34.
