data_PCOD9309602
_publ_section_title
;
Structure prediction by ZEFSAII (Michael W. Deem and Ramdas Pophale) SiO2 
 PCOD9309602
Probable space group: C 2/C
;
_chemical_formula_sum "Si O2"
_cell_formula_units_Z 20
_cell_length_a 18.000000
_cell_length_b 12.000000
_cell_length_c 18.000000
_cell_angle_alpha 90.000000
_cell_angle_beta 150.000000
_cell_angle_gamma 90.000000
_cell_volume 1944.000000
_symmetry_space_group_name_H-M "C 2/C"
_symmetry_group_IT_number 15
_symmetry_cell_setting 'monoclinic'
loop_
_space_group_symop_operation_xyz
x,y,z
-x,y,1/2-z
-x,-y,-z
x,-y,1/2+z
1/2+x,1/2+y,z
1/2-x,1/2+y,1/2-z
1/2-x,1/2-y,-z
1/2+x,1/2-y,1/2+z
loop_
_atom_site_type_symbol
_atom_site_label
_atom_site_fract_x
_atom_site_fract_y
_atom_site_fract_z
Si Si1 0.048136 0.375969 0.439813
Si Si2 0.395251 0.698621 0.587094
Si Si3 0.551663 0.481432 0.129886
Si Si4 0.881086 0.616080 0.951001
Si Si5 0.615375 0.304920 0.782475
O O1 0.072013 0.508368 0.459492
O O2 0.206442 0.319929 0.554059
O O3 0.987057 0.363471 0.471491
O O4 0.925547 0.318155 0.282118
O O5 0.500000 0.697703 0.750000
O O6 0.250000 0.750000 0.500000
O O7 0.428047 0.580677 0.574124
O O8 0.409030 0.781000 0.528999
O O9 0.709751 0.412128 0.276377
O O10 0.579756 0.603239 0.188670
O O11 0.500000 0.500000 0.000000
O O12 0.500000 0.327814 0.750000
#
# Coordination Sequence:
#
# PCOD9309602 Si02
#       5
#     8   8   8   8   8
#     4  10  24  43  68  96 138 177 226 288 338 427
#     4  12  25  44  73 106 142 182 233 296 357 420
#     4  11  25  45  73  99 138 191 232 287 355 425
#     4  10  24  45  68 102 139 177 240 283 350 426
#     4  11  24  43  68  96 136 176 227 282 347 411
#
# _framework density 10.288066000000001
#
# number of rings (size 3 to 8) (size 9 to 14) (size 15 to 20)
#    0.000    1.200    2.000    2.400    8.400    5.600 
#    0.000    0.000    0.000    0.000    0.000    0.000 
#    0.000    0.000    0.000    0.000    0.000    0.000 
#
# Total GULP energy -111457.648370 kJ/mol
# GULP energy per Si atom -5572.882419 kJ/mol
# Density = 1.026465 g / cm^3
# Si number density = 10.288066 Si / 1000 Ang^3
#
#
#
# Elastic Constant Matrix: (Units=GPa)
#
#
# Indices 1 2 3 4 5 6 
#
# 1 73.7596 -12.8780 10.9610 0.0000 12.7713 0.0000
# 2 -12.8780 38.6561 10.6379 0.0000 -3.8406 0.0000
# 3 10.9610 10.6379 48.2856 0.0000 -10.3670 0.0000
# 4 0.0000 0.0000 0.0000 33.1483 0.0000 -9.3109
# 5 12.7713 -3.8406 -10.3670 0.0000 41.6943 0.0000
# 6 0.0000 0.0000 0.0000 -9.3109 0.0000 41.7473
#
#
#
# Elastic Compliance Matrix: (Units=1/GPa)
#
#
# Indices 1 2 3 4 5 6 
#
# 1 0.016802 0.006812 -0.006639 0.000000 -0.006170 0.000000
# 2 0.006812 0.030347 -0.008535 0.000000 -0.001413 0.000000
# 3 -0.006639 -0.008535 0.025740 0.000000 0.007647 0.000000
# 4 0.000000 0.000000 0.000000 0.032184 0.000000 0.007178
# 5 -0.006170 -0.001413 0.007647 0.000000 0.027645 0.000000
# 6 0.000000 0.000000 0.000000 0.007178 0.000000 0.025555
#
#
# Mechanical properties :
#
#
# Convention : Reuss Voigt Hill
#
# Bulk Modulus (GPa) = 17.80578 19.79367 18.79972
# Shear Modulus (GPa) = 25.81057 33.45001 29.63029
#
# Velocity S-wave (km/s) = 3.54558 4.03633 3.79889
# Velocity P-wave (km/s) = 5.04321 5.60029 5.32903
#
# Compressibility (1/GPa) = 0.05616154
#
# Stress axis : x y z
#
# Youngs Moduli (GPa) = 59.51757 32.95235 38.85047
#
# Poissons Ratio (x) = -0.22446 0.25794
# Poissons Ratio (y) = -0.40540 0.33161
# Poissons Ratio (z) = 0.39516 0.28126
#
# Static dielectric constant tensor:
#      x y z
#    x 1.586550 0.000000 -0.006150 
#    y 0.000000 1.729990 0.000000 
#    z -0.006150 0.000000 1.720910 
# 
# From -- ./inp_files/210812.got.cif
#   From: 2010.05.17/outbox.ucp.g08.bks.cvg/sg15_106_cif.got.tgz:210812.got - 2010.06.11 12:40:34.
