data_PCOD9309029
_publ_section_title
;
Structure prediction by ZEFSAII (Michael W. Deem and Ramdas Pophale) SiO2 
 PCOD9309029
Probable space group: C 2/C
;
_chemical_formula_sum "Si O2"
_cell_formula_units_Z 24
_cell_length_a 15.000000
_cell_length_b 18.000000
_cell_length_c 18.000000
_cell_angle_alpha 90.000000
_cell_angle_beta 30.000000
_cell_angle_gamma 90.000000
_cell_volume 2430.000000
_symmetry_space_group_name_H-M "C 2/C"
_symmetry_group_IT_number 15
_symmetry_cell_setting 'monoclinic'
loop_
_space_group_symop_operation_xyz
x,y,z
-x,y,1/2-z
-x,-y,-z
x,-y,1/2+z
1/2+x,1/2+y,z
1/2-x,1/2+y,1/2-z
1/2-x,1/2-y,-z
1/2+x,1/2-y,1/2+z
loop_
_atom_site_type_symbol
_atom_site_label
_atom_site_fract_x
_atom_site_fract_y
_atom_site_fract_z
Si Si1 0.687333 0.571235 0.655445
Si Si2 0.562978 0.213570 0.622708
Si Si3 0.985994 0.340850 0.572201
Si Si4 0.912418 0.802502 0.599142
Si Si5 0.044314 0.437118 0.050613
Si Si6 0.864970 0.937426 0.128838
O O1 0.500000 0.573697 0.750000
O O2 0.827207 0.633977 0.525623
O O3 0.797273 0.495882 0.559161
O O4 0.637015 0.576504 0.780138
O O5 0.500000 0.196308 0.750000
O O6 0.750000 0.250000 0.500000
O O7 0.442931 0.269480 0.660080
O O8 0.589391 0.137988 0.560126
O O9 0.039803 0.266439 0.488944
O O10 0.796162 0.329155 0.750997
O O11 0.964817 0.409248 0.528567
O O12 0.057512 0.865032 0.470448
O O13 0.846980 0.457310 0.226154
O O14 0.000000 0.000000 0.000000
#
# Coordination Sequence:
#
# PCOD9309029 Si02
#       6
#     8   8   8   8   8   8
#     4  11  24  41  60  88 121 158 208 267 309 345
#     4  11  22  35  57  93 128 155 190 240 302 365
#     4  10  20  39  62  85 117 160 205 247 302 371
#     4  11  21  39  64  89 121 165 207 247 300 377
#     4  10  21  38  58  85 123 162 197 240 303 377
#     4  11  22  40  63  88 117 162 207 245 304 379
#
# _framework density 9.8765429999999999
#
# number of rings (size 3 to 8) (size 9 to 14) (size 15 to 20)
#    0.000    1.333    0.000   10.000    0.000    4.667 
#    0.000    5.833    0.000    0.000    0.000    0.000 
#    0.000    0.000    0.000    0.000    0.000    0.000 
#
# Total GULP energy -133752.614198 kJ/mol
# GULP energy per Si atom -5573.025592 kJ/mol
# Density = 0.985406 g / cm^3
# Si number density = 9.876543 Si / 1000 Ang^3
#
#
#
# Elastic Constant Matrix: (Units=GPa)
#
#
# Indices 1 2 3 4 5 6 
#
# 1 69.9663 22.1425 26.7703 -0.0051 -16.2385 0.0024
# 2 22.1425 83.2038 27.4195 0.0024 -15.4581 0.0005
# 3 26.7703 27.4195 139.0395 0.0103 -19.8648 -0.0042
# 4 -0.0051 0.0024 0.0103 47.6124 -0.0025 -10.0274
# 5 -16.2385 -15.4581 -19.8648 -0.0025 39.7566 -0.0005
# 6 0.0024 0.0005 -0.0042 -10.0274 -0.0005 8.8945
#
#
#
# Elastic Compliance Matrix: (Units=1/GPa)
#
#
# Indices 1 2 3 4 5 6 
#
# 1 0.017133 -0.002998 -0.002018 0.000002 0.004824 -0.000003
# 2 -0.002998 0.014004 -0.001703 -0.000001 0.003369 -0.000001
# 3 -0.002018 -0.001703 0.008297 -0.000001 0.002659 0.000003
# 4 0.000002 -0.000001 -0.000001 0.027542 0.000002 0.031050
# 5 0.004824 0.003369 0.002659 0.000002 0.029762 0.000004
# 6 -0.000003 -0.000001 0.000003 0.031050 0.000004 0.147434
#
#
# Mechanical properties :
#
#
# Convention : Reuss Voigt Hill
#
# Bulk Modulus (GPa) = 38.46975 49.43047 43.95011
# Shear Modulus (GPa) = 18.77749 33.64453 26.21101
#
# Velocity S-wave (km/s) = 3.08654 4.13153 3.64666
# Velocity P-wave (km/s) = 5.67626 6.91649 6.32684
#
# Compressibility (1/GPa) = 0.02599445
#
# Stress axis : x y z
#
# Youngs Moduli (GPa) = 58.36597 71.40928 120.53240
#
# Poissons Ratio (x) = 0.21410 0.24327
# Poissons Ratio (y) = 0.17500 0.20526
# Poissons Ratio (z) = 0.11780 0.12161
#
# Static dielectric constant tensor:
#      x y z
#    x 1.748090 0.000000 -0.042530 
#    y 0.000000 1.755120 0.000000 
#    z -0.042530 0.000000 1.645040 
# 
# From -- ./inp_files/56428.got.cif
#   From: 2010.05.17/outbox.ucp.g08.bks.cvg/sg15_29_cif.got.tgz:56428.got - 2010.06.11 12:40:34.
