data_PCOD9309260
_publ_section_title
;
Structure prediction by ZEFSAII (Michael W. Deem and Ramdas Pophale) SiO2 
 PCOD9309260
Probable space group: C 2/C
;
_chemical_formula_sum "Si O2"
_cell_formula_units_Z 32
_cell_length_a 18.000000
_cell_length_b 24.000000
_cell_length_c 21.000000
_cell_angle_alpha 90.000000
_cell_angle_beta 160.000000
_cell_angle_gamma 90.000000
_cell_volume 3102.806740
_symmetry_space_group_name_H-M "C 2/C"
_symmetry_group_IT_number 15
_symmetry_cell_setting 'monoclinic'
loop_
_space_group_symop_operation_xyz
x,y,z
-x,y,1/2-z
-x,-y,-z
x,-y,1/2+z
1/2+x,1/2+y,z
1/2-x,1/2+y,1/2-z
1/2-x,1/2-y,-z
1/2+x,1/2-y,1/2+z
loop_
_atom_site_type_symbol
_atom_site_label
_atom_site_fract_x
_atom_site_fract_y
_atom_site_fract_z
Si Si1 0.291861 0.817004 0.037882
Si Si2 0.365964 0.580863 0.010467
Si Si3 0.912346 0.600890 0.280833
Si Si4 0.201708 0.303926 0.047981
Si Si5 0.247991 0.995400 0.474193
Si Si6 0.509169 0.901467 0.394740
Si Si7 0.866926 0.822773 0.035660
Si Si8 0.361001 0.943943 0.876149
O O1 0.500000 0.821299 0.250000
O O2 0.362659 0.847518 0.029511
O O3 0.250000 0.750000 0.000000
O O4 0.133002 0.862192 0.945179
O O5 0.262336 0.529431 0.967341
O O6 0.609889 0.561202 0.194387
O O7 0.216904 0.592881 0.827663
O O8 0.839083 0.565219 0.282628
O O9 0.994731 0.656853 0.383352
O O10 0.105534 0.560895 0.408311
O O11 0.743213 0.626572 0.092573
O O12 0.267253 0.315193 0.026432
O O13 0.379713 0.325891 0.241553
O O14 0.175615 0.237227 0.032513
O O15 0.000000 0.983647 0.250000
O O16 0.356215 0.042665 0.516246
O O17 0.510214 0.901554 0.472226
O O18 0.500000 0.000000 0.000000
#
# Coordination Sequence:
#
# PCOD9309260 Si02
#       8
#     8   8   8   8   8   8   8   8
#     4   9  20  36  68 106 127 167 229 288 349 408
#     4  10  23  43  68  95 137 179 216 293 356 398
#     4  12  25  40  65 103 133 174 235 272 334 425
#     4  10  21  41  67  96 131 167 217 281 339 392
#     4  11  21  42  66  98 129 169 229 288 334 399
#     4  10  22  43  66  95 135 174 224 277 350 411
#     4  10  21  41  68  95 131 171 212 281 345 386
#     4  12  25  47  64  94 139 187 225 270 352 421
#
# _framework density 10.313243
#
# number of rings (size 3 to 8) (size 9 to 14) (size 15 to 20)
#    0.000    1.500    3.750    1.500    3.500    3.500 
#    2.250    1.250    0.000    0.000    0.000    0.000 
#    0.000    0.000    0.000    0.000    0.000    0.000 
#
# Total GULP energy -178361.902726 kJ/mol
# GULP energy per Si atom -5573.809460 kJ/mol
# Density = 1.028977 g / cm^3
# Si number density = 10.313243 Si / 1000 Ang^3
#
#
#
# Elastic Constant Matrix: (Units=GPa)
#
#
# Indices 1 2 3 4 5 6 
#
# 1 80.0839 38.2902 39.8097 -0.0110 -11.9562 -0.0072
# 2 38.2902 142.4529 41.2679 0.0036 0.4537 -0.0192
# 3 39.8097 41.2679 133.2406 -0.0671 -18.8534 -0.0355
# 4 -0.0110 0.0036 -0.0671 45.1947 -0.0077 -11.0542
# 5 -11.9562 0.4537 -18.8534 -0.0077 35.2502 -0.0074
# 6 -0.0072 -0.0192 -0.0355 -11.0542 -0.0074 27.9814
#
#
#
# Elastic Compliance Matrix: (Units=1/GPa)
#
#
# Indices 1 2 3 4 5 6 
#
# 1 0.016337 -0.003457 -0.003267 0.000000 0.003838 -0.000001
# 2 -0.003457 0.008516 -0.001933 -0.000005 -0.002316 0.000000
# 3 -0.003267 -0.001933 0.009658 0.000019 0.004082 0.000019
# 4 0.000000 -0.000005 0.000019 0.024493 0.000017 0.009676
# 5 0.003838 -0.002316 0.004082 0.000017 0.031883 0.000020
# 6 -0.000001 0.000000 0.000019 0.009676 0.000020 0.039561
#
#
# Mechanical properties :
#
#
# Convention : Reuss Voigt Hill
#
# Bulk Modulus (GPa) = 58.14898 66.05701 62.10300
# Shear Modulus (GPa) = 32.57448 37.44589 35.01018
#
# Velocity S-wave (km/s) = 3.97830 4.26541 4.12435
# Velocity P-wave (km/s) = 7.02532 7.50687 7.27008
#
# Compressibility (1/GPa) = 0.01719721
#
# Stress axis : x y z
#
# Youngs Moduli (GPa) = 61.21074 117.42224 103.54535
#
# Poissons Ratio (x) = 0.40592 0.33832
# Poissons Ratio (y) = 0.21160 0.20010
# Poissons Ratio (z) = 0.20000 0.22692
#
# Static dielectric constant tensor:
#      x y z
#    x 1.849250 0.000020 0.019350 
#    y 0.000020 1.773090 -0.000040 
#    z 0.019350 -0.000040 1.779470 
# 
# From -- ./inp_files/250299.got.cif
#   From: 2010.05.17/outbox.ucp.g08.bks.cvg/sg15_126_cif.got.tgz:250299.got - 2010.06.11 12:40:34.
