data_PCOD9309480
_publ_section_title
;
Structure prediction by ZEFSAII (Michael W. Deem and Ramdas Pophale) SiO2 
 PCOD9309480
Probable space group: C 2/C
;
_chemical_formula_sum "Si O2"
_cell_formula_units_Z 26
_cell_length_a 9.000000
_cell_length_b 12.000000
_cell_length_c 27.000000
_cell_angle_alpha 90.000000
_cell_angle_beta 120.000000
_cell_angle_gamma 90.000000
_cell_volume 2525.330077
_symmetry_space_group_name_H-M "C 2/C"
_symmetry_group_IT_number 15
_symmetry_cell_setting 'monoclinic'
loop_
_space_group_symop_operation_xyz
x,y,z
-x,y,1/2-z
-x,-y,-z
x,-y,1/2+z
1/2+x,1/2+y,z
1/2-x,1/2+y,1/2-z
1/2-x,1/2-y,-z
1/2+x,1/2-y,1/2+z
loop_
_atom_site_type_symbol
_atom_site_label
_atom_site_fract_x
_atom_site_fract_y
_atom_site_fract_z
Si Si1 0.500000 0.761991 0.750000
Si Si2 0.572545 0.429788 0.061071
Si Si3 0.267211 0.958658 0.442733
Si Si4 0.322933 0.156483 0.319744
Si Si5 0.028778 0.329825 0.549960
Si Si6 0.288691 0.096699 0.834495
Si Si7 0.396696 0.126231 0.683047
O O1 0.592219 0.826363 0.719942
O O2 0.636911 0.680902 0.798297
O O3 0.432269 0.453693 0.079955
O O4 0.561232 0.299268 0.043538
O O5 0.752340 0.438073 0.123892
O O6 0.500000 0.500000 0.000000
O O7 0.355560 0.883531 0.499759
O O8 0.319287 0.909581 0.398290
O O9 0.332072 0.086307 0.451511
O O10 0.457751 0.159613 0.388189
O O11 0.194910 0.259520 0.312269
O O12 0.247979 0.030984 0.310720
O O13 0.451339 0.140734 0.831095
O O14 0.500000 0.080605 0.750000
#
# Coordination Sequence:
#
# PCOD9309480 Si02
#       7
#     4   8   8   8   8   8   8
#     4  12  24  40  68  98 128 180 230 270 352 418
#     4  11  25  42  69 105 140 181 231 290 354 412
#     4  10  22  44  70 100 134 183 233 285 347 415
#     4  10  24  44  68 101 133 179 227 280 346 411
#     4   9  21  44  71  95 138 174 231 289 339 411
#     4  11  25  43  71  95 139 180 230 286 344 412
#     4  11  24  48  67  99 144 178 231 292 339 417
#
# _framework density 10.295684
#
# number of rings (size 3 to 8) (size 9 to 14) (size 15 to 20)
#    0.000    1.538    1.538    2.308    8.615    0.615 
#    5.538    0.000    0.000    0.000    0.000    0.000 
#    0.000    0.000    0.000    0.000    0.000    0.000 
#
# Total GULP energy -144940.762004 kJ/mol
# GULP energy per Si atom -5574.644692 kJ/mol
# Density = 1.027225 g / cm^3
# Si number density = 10.295684 Si / 1000 Ang^3
#
#
#
# Elastic Constant Matrix: (Units=GPa)
#
#
# Indices 1 2 3 4 5 6 
#
# 1 78.6848 -0.7847 7.3299 0.0000 -4.7412 0.0000
# 2 -0.7847 85.9841 33.4959 0.0000 -7.0364 0.0000
# 3 7.3299 33.4959 114.0648 0.0000 -7.1172 0.0000
# 4 0.0000 0.0000 0.0000 28.3398 0.0000 -10.5745
# 5 -4.7412 -7.0364 -7.1172 0.0000 44.3717 0.0000
# 6 0.0000 0.0000 0.0000 -10.5745 0.0000 12.6833
#
#
#
# Elastic Compliance Matrix: (Units=1/GPa)
#
#
# Indices 1 2 3 4 5 6 
#
# 1 0.012880 0.000583 -0.000916 0.000000 0.001322 0.000000
# 2 0.000583 0.013255 -0.003833 0.000000 0.001549 0.000000
# 3 -0.000916 -0.003833 0.010008 0.000000 0.000899 0.000000
# 4 0.000000 0.000000 0.000000 0.051220 0.000000 0.042704
# 5 0.001322 0.001549 0.000899 0.000000 0.023068 0.000000
# 6 0.000000 0.000000 0.000000 0.042704 0.000000 0.114447
#
#
# Mechanical properties :
#
#
# Convention : Reuss Voigt Hill
#
# Bulk Modulus (GPa) = 35.95970 39.86844 37.91407
# Shear Modulus (GPa) = 20.62010 32.99180 26.80595
#
# Velocity S-wave (km/s) = 3.16792 4.00711 3.61197
# Velocity P-wave (km/s) = 5.55719 6.38851 5.98729
#
# Compressibility (1/GPa) = 0.02780891
#
# Stress axis : x y z
#
# Youngs Moduli (GPa) = 77.64129 75.44044 99.92370
#
# Poissons Ratio (x) = -0.04396 0.09156
# Poissons Ratio (y) = -0.04524 0.38304
# Poissons Ratio (z) = 0.07114 0.28919
#
# Static dielectric constant tensor:
#      x y z
#    x 1.738470 0.000000 0.030810 
#    y 0.000000 1.752370 0.000000 
#    z 0.030810 0.000000 1.777010 
# 
# From -- ./inp_files/288128.got.cif
#   From: 2010.05.17/outbox.ucp.g08.bks.cvg/sg15_145_cif.got.tgz:288128.got - 2010.06.11 12:40:34.
