data_PCOD9309592
_publ_section_title
;
Structure prediction by ZEFSAII (Michael W. Deem and Ramdas Pophale) SiO2 
 PCOD9309592
Probable space group: C 2/C
;
_chemical_formula_sum "Si O2"
_cell_formula_units_Z 28
_cell_length_a 9.000000
_cell_length_b 27.000000
_cell_length_c 12.000000
_cell_angle_alpha 90.000000
_cell_angle_beta 110.000000
_cell_angle_gamma 90.000000
_cell_volume 2740.143682
_symmetry_space_group_name_H-M "C 2/C"
_symmetry_group_IT_number 15
_symmetry_cell_setting 'monoclinic'
loop_
_space_group_symop_operation_xyz
x,y,z
-x,y,1/2-z
-x,-y,-z
x,-y,1/2+z
1/2+x,1/2+y,z
1/2-x,1/2+y,1/2-z
1/2-x,1/2-y,-z
1/2+x,1/2-y,1/2+z
loop_
_atom_site_type_symbol
_atom_site_label
_atom_site_fract_x
_atom_site_fract_y
_atom_site_fract_z
Si Si1 0.602172 0.611160 0.051318
Si Si2 0.742023 0.139238 0.638076
Si Si3 0.181720 0.716163 0.804602
Si Si4 0.318243 0.436775 0.351580
Si Si5 0.605546 0.094498 0.002984
Si Si6 0.324736 0.959958 0.754318
Si Si7 0.338000 0.319750 0.575943
O O1 0.731669 0.582914 0.160541
O O2 0.501166 0.650228 0.099490
O O3 0.673452 0.638488 0.960465
O O4 0.477975 0.571639 0.964781
O O5 0.744181 0.192656 0.703638
O O6 0.816315 0.102115 0.749117
O O7 0.569895 0.114941 0.566213
O O8 0.166527 0.773965 0.838792
O O9 0.000000 0.697744 0.750000
O O10 0.282648 0.695915 0.935670
O O11 0.180531 0.423066 0.405149
O O12 0.279550 0.490613 0.291472
O O13 0.639061 0.053646 0.107146
O O14 0.705464 0.140893 0.074496
O O15 0.500000 0.967307 0.750000
#
# Coordination Sequence:
#
# PCOD9309592 Si02
#       7
#     8   8   8   8   8   8   8
#     4  11  25  45  68 103 144 178 231 301 353 396
#     4  12  21  44  74  98 141 180 232 296 349 418
#     4  11  21  41  73  96 129 180 234 281 350 431
#     4  11  25  42  69 102 135 189 241 282 345 417
#     4  11  23  44  70  97 138 191 230 280 352 423
#     4  12  26  43  67 103 146 189 234 287 343 421
#     4  10  24  42  68 102 132 178 235 285 349 422
#
# _framework density 10.218442
#
# number of rings (size 3 to 8) (size 9 to 14) (size 15 to 20)
#    0.000    0.857    5.714    2.143    4.000    2.857 
#    5.143    0.714    9.429    0.000    0.000    0.000 
#    0.000    0.000    0.000    0.000    0.000    0.000 
#
# Total GULP energy -156321.025478 kJ/mol
# GULP energy per Si atom -5582.893767 kJ/mol
# Density = 1.019518 g / cm^3
# Si number density = 10.218442 Si / 1000 Ang^3
#
#
#
# Elastic Constant Matrix: (Units=GPa)
#
#
# Indices 1 2 3 4 5 6 
#
# 1 58.8059 11.2156 14.2096 0.0000 10.2271 0.0000
# 2 11.2156 102.2077 35.9301 0.0000 -6.1300 0.0000
# 3 14.2096 35.9301 97.4814 0.0000 6.2204 0.0000
# 4 0.0000 0.0000 0.0000 31.4006 0.0000 1.7548
# 5 10.2271 -6.1300 6.2204 0.0000 32.0749 0.0000
# 6 0.0000 0.0000 0.0000 1.7548 0.0000 19.5313
#
#
#
# Elastic Compliance Matrix: (Units=1/GPa)
#
#
# Indices 1 2 3 4 5 6 
#
# 1 0.018808 -0.001834 -0.001681 0.000000 -0.006021 0.000000
# 2 -0.001834 0.011710 -0.004282 0.000000 0.003653 0.000000
# 3 -0.001681 -0.004282 0.012251 0.000000 -0.002658 0.000000
# 4 0.000000 0.000000 0.000000 0.032007 0.000000 -0.002876
# 5 -0.006021 0.003653 -0.002658 0.000000 0.034311 0.000000
# 6 0.000000 0.000000 0.000000 -0.002876 0.000000 0.051458
#
#
# Mechanical properties :
#
#
# Convention : Reuss Voigt Hill
#
# Bulk Modulus (GPa) = 36.79863 42.35619 39.57741
# Shear Modulus (GPa) = 26.99815 29.74399 28.37107
#
# Velocity S-wave (km/s) = 3.63857 3.81912 3.72994
# Velocity P-wave (km/s) = 5.97472 6.34176 6.16098
#
# Compressibility (1/GPa) = 0.02717492
#
# Stress axis : x y z
#
# Youngs Moduli (GPa) = 53.16778 85.40060 81.62435
#
# Poissons Ratio (x) = 0.15662 0.13725
# Poissons Ratio (y) = 0.09751 0.34949
# Poissons Ratio (z) = 0.08940 0.36566
#
# Static dielectric constant tensor:
#      x y z
#    x 1.752320 0.000000 0.001630 
#    y 0.000000 1.770790 0.000000 
#    z 0.001630 0.000000 1.723570 
# 
# From -- ./inp_files/81426.got.cif
#   From: 2010.05.17/outbox.ucp.g08.bks.cvg/sg15_41_cif.got.tgz:81426.got - 2010.06.11 12:40:34.
