data_PCOD9309172
_publ_section_title
;
Structure prediction by ZEFSAII (Michael W. Deem and Ramdas Pophale) SiO2 
 PCOD9309172
Probable space group: C 2/C
;
_chemical_formula_sum "Si O2"
_cell_formula_units_Z 28
_cell_length_a 15.000000
_cell_length_b 18.000000
_cell_length_c 21.000000
_cell_angle_alpha 90.000000
_cell_angle_beta 30.000000
_cell_angle_gamma 90.000000
_cell_volume 2835.000000
_symmetry_space_group_name_H-M "C 2/C"
_symmetry_group_IT_number 15
_symmetry_cell_setting 'monoclinic'
loop_
_space_group_symop_operation_xyz
x,y,z
-x,y,1/2-z
-x,-y,-z
x,-y,1/2+z
1/2+x,1/2+y,z
1/2-x,1/2+y,1/2-z
1/2-x,1/2-y,-z
1/2+x,1/2-y,1/2+z
loop_
_atom_site_type_symbol
_atom_site_label
_atom_site_fract_x
_atom_site_fract_y
_atom_site_fract_z
Si Si1 0.538551 0.582979 0.154738
Si Si2 0.198708 0.713750 0.213541
Si Si3 0.500000 0.331727 0.250000
Si Si4 0.651442 0.829399 0.111035
Si Si5 0.635644 0.892234 0.869767
Si Si6 0.201364 0.558200 0.994212
Si Si7 0.572492 0.783708 0.020026
Si Si8 0.500000 0.899363 0.750000
O O1 0.500000 0.614270 0.250000
O O2 0.338925 0.575291 0.247643
O O3 0.659264 0.509874 0.091754
O O4 0.672158 0.628809 0.025894
O O5 0.137873 0.677026 0.318076
O O6 0.402370 0.738947 0.098238
O O7 0.152629 0.649914 0.190439
O O8 0.085237 0.782051 0.254348
O O9 0.666487 0.376592 0.114695
O O10 0.500000 0.865963 0.250000
O O11 0.554191 0.802548 0.106407
O O12 0.744392 0.763781 0.094262
O O13 0.472470 0.943482 0.945175
O O14 0.591761 0.857366 0.965593
O O15 0.108757 0.564373 0.122425
#
# Coordination Sequence:
#
# PCOD9309172 Si02
#       8
#     8   8   4   8   8   8   8   4
#     4  12  25  46  66  90 135 180 223 273 321 398
#     4  10  21  38  67 101 133 164 214 278 338 393
#     4  11  22  40  68 104 130 173 218 274 336 395
#     4  11  25  40  65 100 134 171 213 275 336 393
#     4  11  23  43  70  98 130 177 223 273 333 390
#     4  11  25  46  65  94 136 178 225 270 325 398
#     4  11  21  39  67  98 135 167 212 273 336 400
#     4   9  24  42  66  94 134 169 212 278 336 383
#
# _framework density 9.8765429999999999
#
# number of rings (size 3 to 8) (size 9 to 14) (size 15 to 20)
#    0.000    1.143    5.000    0.857    5.000    2.286 
#    2.571    2.857    0.000    0.000    0.000    0.000 
#    0.000    0.000    0.000    0.000    0.000    0.000 
#
# Total GULP energy -156067.070514 kJ/mol
# GULP energy per Si atom -5573.823947 kJ/mol
# Density = 0.985406 g / cm^3
# Si number density = 9.876543 Si / 1000 Ang^3
#
#
#
# Elastic Constant Matrix: (Units=GPa)
#
#
# Indices 1 2 3 4 5 6 
#
# 1 147.2998 31.7516 52.2289 0.0009 -29.1560 -0.0004
# 2 31.7516 58.7320 31.4561 -0.0012 -14.1514 -0.0001
# 3 52.2289 31.4561 142.7044 0.0040 -12.5916 -0.0037
# 4 0.0009 -0.0012 0.0040 34.7517 -0.0034 -7.9942
# 5 -29.1560 -14.1514 -12.5916 -0.0034 46.2594 0.0010
# 6 -0.0004 -0.0001 -0.0037 -7.9942 0.0010 26.5293
#
#
#
# Elastic Compliance Matrix: (Units=1/GPa)
#
#
# Indices 1 2 3 4 5 6 
#
# 1 0.009025 -0.002592 -0.002356 0.000000 0.004254 0.000000
# 2 -0.002592 0.021181 -0.003374 0.000002 0.003928 0.000000
# 3 -0.002356 -0.003374 0.008598 -0.000001 -0.000177 0.000001
# 4 0.000000 0.000002 -0.000001 0.030919 0.000003 0.009317
# 5 0.004254 0.003928 -0.000177 0.000003 0.025452 0.000000
# 6 0.000000 0.000000 0.000001 0.009317 0.000000 0.040502
#
#
# Mechanical properties :
#
#
# Convention : Reuss Voigt Hill
#
# Bulk Modulus (GPa) = 45.12680 64.40104 54.76392
# Shear Modulus (GPa) = 31.30729 37.06141 34.18435
#
# Velocity S-wave (km/s) = 3.98544 4.33625 4.16454
# Velocity P-wave (km/s) = 6.63878 7.59898 7.13505
#
# Compressibility (1/GPa) = 0.02215978
#
# Stress axis : x y z
#
# Youngs Moduli (GPa) = 110.80130 47.21203 116.30657
#
# Poissons Ratio (x) = 0.12238 0.27407
# Poissons Ratio (y) = 0.28721 0.39238
# Poissons Ratio (z) = 0.26110 0.15928
#
# Static dielectric constant tensor:
#      x y z
#    x 1.691780 0.000000 0.016090 
#    y 0.000000 1.783270 0.000000 
#    z 0.016090 0.000000 1.694270 
# 
# From -- ./inp_files/245138.got.cif
#   From: 2010.05.17/outbox.ucp.g08.bks.cvg/sg15_123_cif.got.tgz:245138.got - 2010.06.11 12:40:34.
