data_PCOD9309912
_publ_section_title
;
Structure prediction by ZEFSAII (Michael W. Deem and Ramdas Pophale) SiO2 
 PCOD9309912
Probable space group: C 2/C
;
_chemical_formula_sum "Si O2"
_cell_formula_units_Z 20
_cell_length_a 9.000000
_cell_length_b 18.000000
_cell_length_c 12.000000
_cell_angle_alpha 90.000000
_cell_angle_beta 90.000000
_cell_angle_gamma 90.000000
_cell_volume 1944.000000
_symmetry_space_group_name_H-M "C 2/C"
_symmetry_group_IT_number 15
_symmetry_cell_setting 'monoclinic'
loop_
_space_group_symop_operation_xyz
x,y,z
-x,y,1/2-z
-x,-y,-z
x,-y,1/2+z
1/2+x,1/2+y,z
1/2-x,1/2+y,1/2-z
1/2-x,1/2-y,-z
1/2+x,1/2-y,1/2+z
loop_
_atom_site_type_symbol
_atom_site_label
_atom_site_fract_x
_atom_site_fract_y
_atom_site_fract_z
Si Si1 0.132718 0.116839 0.451134
Si Si2 0.000000 0.964050 0.750000
Si Si3 0.478286 0.105134 0.375973
Si Si4 0.922949 0.738769 0.969192
Si Si5 0.500000 0.842123 0.250000
Si Si6 0.783201 0.467072 0.151107
O O1 0.298849 0.111557 0.395558
O O2 0.172825 0.063564 0.554909
O O3 0.017700 0.083866 0.361788
O O4 0.047725 0.194730 0.485427
O O5 0.159674 0.005241 0.739477
O O6 0.500000 0.129402 0.250000
O O7 0.535406 0.165886 0.460946
O O8 0.588098 0.029848 0.381951
O O9 0.932508 0.711963 0.842166
O O10 0.750000 0.750000 0.000000
O O11 0.377455 0.897349 0.196769
#
# Coordination Sequence:
#
# PCOD9309912 Si02
#       6
#     8   4   8   8   4   8
#     4  12  26  49  72 107 147 194 249 300 385 443
#     4  12  25  44  76 105 146 186 250 310 372 449
#     4  12  25  48  76 106 148 195 246 310 376 444
#     4  12  30  47  75 108 153 199 246 315 375 461
#     4  12  27  48  74 107 152 190 256 302 380 449
#     4  12  26  45  77 110 145 193 250 316 372 452
#
# _framework density 10.288066000000001
#
# number of rings (size 3 to 8) (size 9 to 14) (size 15 to 20)
#    0.000    0.000    5.000    3.600    8.400    0.000 
#    0.000    0.000    0.000    0.000    0.000    0.000 
#    0.000    0.000    0.000    0.000    0.000    0.000 
#
# Total GULP energy -111353.592405 kJ/mol
# GULP energy per Si atom -5567.679620 kJ/mol
# Density = 1.026465 g / cm^3
# Si number density = 10.288066 Si / 1000 Ang^3
#
#
#
# Elastic Constant Matrix: (Units=GPa)
#
#
# Indices 1 2 3 4 5 6 
#
# 1 150.0875 50.8435 18.4582 0.0000 -19.8395 0.0000
# 2 50.8435 73.9805 38.7205 0.0000 -24.5349 0.0000
# 3 18.4582 38.7205 114.7994 0.0000 -8.8945 0.0000
# 4 0.0000 0.0000 0.0000 40.0662 0.0000 -0.0356
# 5 -19.8395 -24.5349 -8.8945 0.0000 48.2995 0.0000
# 6 0.0000 0.0000 0.0000 -0.0356 0.0000 44.0999
#
#
#
# Elastic Compliance Matrix: (Units=1/GPa)
#
#
# Indices 1 2 3 4 5 6 
#
# 1 0.008751 -0.006205 0.000731 0.000000 0.000577 0.000000
# 2 -0.006205 0.023939 -0.006424 0.000000 0.008429 0.000000
# 3 0.000731 -0.006424 0.010683 0.000000 -0.000996 0.000000
# 4 0.000000 0.000000 0.000000 0.024959 0.000000 0.000020
# 5 0.000577 0.008429 -0.000996 0.000000 0.025039 0.000000
# 6 0.000000 0.000000 0.000000 0.000020 0.000000 0.022676
#
#
# Mechanical properties :
#
#
# Convention : Reuss Voigt Hill
#
# Bulk Modulus (GPa) = 51.08177 61.65689 56.36933
# Shear Modulus (GPa) = 34.16012 41.88279 38.02145
#
# Velocity S-wave (km/s) = 4.07895 4.51655 4.30332
# Velocity P-wave (km/s) = 6.86028 7.56500 7.22124
#
# Compressibility (1/GPa) = 0.01957645
#
# Stress axis : x y z
#
# Youngs Moduli (GPa) = 114.26796 41.77264 93.60811
#
# Poissons Ratio (x) = 0.25922 -0.06839
# Poissons Ratio (y) = 0.70909 0.60130
# Poissons Ratio (z) = -0.08349 0.26833
#
# Static dielectric constant tensor:
#      x y z
#    x 1.740360 0.000000 -0.026290 
#    y 0.000000 1.761900 0.000000 
#    z -0.026290 0.000000 1.811320 
# 
# From -- ./inp_files/76849.got.cif
#   From: 2010.05.17/outbox.ucp.g08.bks.cvg/sg15_39_cif.got.tgz:76849.got - 2010.06.11 12:40:34.
