data_PCOD9309437
_publ_section_title
;
Structure prediction by ZEFSAII (Michael W. Deem and Ramdas Pophale) SiO2 
 PCOD9309437
Probable space group: C 2/C
;
_chemical_formula_sum "Si O2"
_cell_formula_units_Z 22
_cell_length_a 6.000000
_cell_length_b 24.000000
_cell_length_c 15.000000
_cell_angle_alpha 90.000000
_cell_angle_beta 80.000000
_cell_angle_gamma 90.000000
_cell_volume 2127.184747
_symmetry_space_group_name_H-M "C 2/C"
_symmetry_group_IT_number 15
_symmetry_cell_setting 'monoclinic'
loop_
_space_group_symop_operation_xyz
x,y,z
-x,y,1/2-z
-x,-y,-z
x,-y,1/2+z
1/2+x,1/2+y,z
1/2-x,1/2+y,1/2-z
1/2-x,1/2-y,-z
1/2+x,1/2-y,1/2+z
loop_
_atom_site_type_symbol
_atom_site_label
_atom_site_fract_x
_atom_site_fract_y
_atom_site_fract_z
Si Si1 0.443206 0.821264 0.552217
Si Si2 0.269651 0.093068 0.201214
Si Si3 0.769513 0.999611 0.448632
Si Si4 0.764629 0.877049 0.388892
Si Si5 0.363920 0.295039 0.093413
Si Si6 0.000000 0.317720 0.250000
O O1 0.354243 0.851585 0.645511
O O2 0.630924 0.856444 0.486829
O O3 0.518649 0.758932 0.571153
O O4 0.243216 0.812536 0.493469
O O5 0.500000 0.079063 0.250000
O O6 0.000000 0.099754 0.250000
O O7 0.235051 0.048840 0.123159
O O8 0.793991 0.942199 0.393930
O O9 0.500000 0.000000 0.500000
O O10 0.000000 0.000000 0.500000
O O11 0.629218 0.856131 0.312461
O O12 0.002451 0.846270 0.375467
O O13 0.166238 0.281625 0.177243
#
# Coordination Sequence:
#
# PCOD9309437 Si02
#       6
#     8   8   8   8   8   4
#     4  10  23  43  69  98 137 186 234 288 354 438
#     4  12  28  46  70 109 146 186 241 297 362 421
#     4  12  26  48  76  99 139 188 241 291 357 426
#     4  11  23  42  72  94 139 177 242 281 359 416
#     4  10  22  42  68 100 137 182 237 285 358 425
#     4  10  24  38  62 108 132 180 222 296 344 414
#
# _framework density 10.342307999999999
#
# number of rings (size 3 to 8) (size 9 to 14) (size 15 to 20)
#    0.000    1.091    1.818    3.273    7.636    2.909 
#    0.000    0.000    0.000    0.000    0.000    0.000 
#    0.000    0.000    0.000    0.000    0.000    0.000 
#
# Total GULP energy -122487.410322 kJ/mol
# GULP energy per Si atom -5567.609560 kJ/mol
# Density = 1.031877 g / cm^3
# Si number density = 10.342308 Si / 1000 Ang^3
#
#
#
# Elastic Constant Matrix: (Units=GPa)
#
#
# Indices 1 2 3 4 5 6 
#
# 1 100.2600 -1.4555 36.7850 0.0000 -2.9486 0.0000
# 2 -1.4555 72.7988 5.6683 0.0000 -1.0039 0.0000
# 3 36.7850 5.6683 89.1067 0.0000 -5.0521 0.0000
# 4 0.0000 0.0000 0.0000 8.0758 0.0000 -8.3362
# 5 -2.9486 -1.0039 -5.0521 0.0000 36.0031 0.0000
# 6 0.0000 0.0000 0.0000 -8.3362 0.0000 18.6094
#
#
#
# Elastic Compliance Matrix: (Units=1/GPa)
#
#
# Indices 1 2 3 4 5 6 
#
# 1 0.011785 0.000620 -0.004888 0.000000 0.000297 0.000000
# 2 0.000620 0.013840 -0.001121 0.000000 0.000279 0.000000
# 3 -0.004888 -0.001121 0.013394 0.000000 0.001448 0.000000
# 4 0.000000 0.000000 0.000000 0.230329 0.000000 0.103177
# 5 0.000297 0.000279 0.001448 0.000000 0.028011 0.000000
# 6 0.000000 0.000000 0.000000 0.103177 0.000000 0.099955
#
#
# Mechanical properties :
#
#
# Convention : Reuss Voigt Hill
#
# Bulk Modulus (GPa) = 35.40757 38.24012 36.82385
# Shear Modulus (GPa) = 11.97594 27.28218 19.62906
#
# Velocity S-wave (km/s) = 2.40881 3.63569 3.08388
# Velocity P-wave (km/s) = 4.98913 6.01263 5.52463
#
# Compressibility (1/GPa) = 0.02824255
#
# Stress axis : x y z
#
# Youngs Moduli (GPa) = 84.85295 72.25437 74.66234
#
# Poissons Ratio (x) = -0.04482 0.36493
# Poissons Ratio (y) = -0.05263 0.08367
# Poissons Ratio (z) = 0.41474 0.08097
#
# Static dielectric constant tensor:
#      x y z
#    x 1.782270 0.000000 -0.035420 
#    y 0.000000 1.717760 0.000000 
#    z -0.035420 0.000000 1.750610 
# 
# From -- ./inp_files/129339.got.cif
#   From: 2010.05.17/outbox.ucp.g08.bks.cvg/sg15_65_cif.got.tgz:129339.got - 2010.06.11 12:40:34.
