data_PCOD9309878
_publ_section_title
;
Structure prediction by ZEFSAII (Michael W. Deem and Ramdas Pophale) SiO2 
 PCOD9309878
Probable space group: C 2/C
;
_chemical_formula_sum "Si O2"
_cell_formula_units_Z 24
_cell_length_a 12.000000
_cell_length_b 15.000000
_cell_length_c 27.000000
_cell_angle_alpha 90.000000
_cell_angle_beta 30.000000
_cell_angle_gamma 90.000000
_cell_volume 2430.000000
_symmetry_space_group_name_H-M "C 2/C"
_symmetry_group_IT_number 15
_symmetry_cell_setting 'monoclinic'
loop_
_space_group_symop_operation_xyz
x,y,z
-x,y,1/2-z
-x,-y,-z
x,-y,1/2+z
1/2+x,1/2+y,z
1/2-x,1/2+y,1/2-z
1/2-x,1/2-y,-z
1/2+x,1/2-y,1/2+z
loop_
_atom_site_type_symbol
_atom_site_label
_atom_site_fract_x
_atom_site_fract_y
_atom_site_fract_z
Si Si1 0.779591 0.026330 0.378444
Si Si2 0.617550 0.556977 0.823950
Si Si3 0.082447 0.293501 0.344845
Si Si4 0.647193 0.217251 0.462146
Si Si5 0.904125 0.621707 0.231488
Si Si6 0.162138 0.176046 0.494936
O O1 0.748935 0.131979 0.394783
O O2 0.000000 0.014673 0.250000
O O3 0.500000 0.000000 0.500000
O O4 0.907488 0.977180 0.373054
O O5 0.769120 0.627058 0.734780
O O6 0.769089 0.470770 0.777868
O O7 0.506825 0.607946 0.913050
O O8 0.235098 0.204270 0.286993
O O9 0.858889 0.274974 0.399207
O O10 0.992536 0.312101 0.435083
O O11 0.478932 0.272977 0.492889
O O12 0.000000 0.629369 0.250000
O O13 0.117603 0.629640 0.112899
O O14 0.250000 0.250000 0.500000
#
# Coordination Sequence:
#
# PCOD9309878 Si02
#       6
#     8   8   8   8   8   8
#     4  12  28  47  77 114 157 199 262 320 384 462
#     4  12  29  45  77 113 149 196 253 320 385 462
#     4  11  25  50  73 104 153 201 246 314 389 456
#     4  11  26  46  75 106 147 204 255 308 378 463
#     4  12  27  50  72 109 153 199 252 317 389 467
#     4  12  27  46  77 107 149 199 258 314 389 461
#
# _framework density 9.8765429999999999
#
# number of rings (size 3 to 8) (size 9 to 14) (size 15 to 20)
#    0.000    0.333    5.000    2.000   11.667    1.333 
#    0.000    0.000    0.000    0.000    0.000    0.000 
#    0.000    0.000    0.000    0.000    0.000    0.000 
#
# Total GULP energy -133716.023404 kJ/mol
# GULP energy per Si atom -5571.500975 kJ/mol
# Density = 0.985406 g / cm^3
# Si number density = 9.876543 Si / 1000 Ang^3
#
#
#
# Elastic Constant Matrix: (Units=GPa)
#
#
# Indices 1 2 3 4 5 6 
#
# 1 114.3921 32.9944 48.5181 0.0012 -19.8388 -0.0014
# 2 32.9944 106.8813 45.0414 0.0014 -8.3369 -0.0027
# 3 48.5181 45.0414 166.3797 0.0049 -8.0574 0.0020
# 4 0.0012 0.0014 0.0049 54.6426 0.0054 -6.6338
# 5 -19.8388 -8.3369 -8.0574 0.0054 39.0175 0.0010
# 6 -0.0014 -0.0027 0.0020 -6.6338 0.0010 24.8868
#
#
#
# Elastic Compliance Matrix: (Units=1/GPa)
#
#
# Indices 1 2 3 4 5 6 
#
# 1 0.011209 -0.002042 -0.002486 0.000000 0.004750 0.000000
# 2 -0.002042 0.011044 -0.002354 0.000000 0.000835 0.000001
# 3 -0.002486 -0.002354 0.007360 -0.000001 -0.000247 -0.000001
# 4 0.000000 0.000000 -0.000001 0.018913 -0.000003 0.005041
# 5 0.004750 0.000835 -0.000247 -0.000003 0.028172 -0.000002
# 6 0.000000 0.000001 -0.000001 0.005041 -0.000002 0.041526
#
#
# Mechanical properties :
#
#
# Convention : Reuss Voigt Hill
#
# Bulk Modulus (GPa) = 63.09273 71.19566 67.14419
# Shear Modulus (GPa) = 36.42457 41.11601 38.77029
#
# Velocity S-wave (km/s) = 4.29883 4.56729 4.43510
# Velocity P-wave (km/s) = 7.52662 7.99591 7.76481
#
# Compressibility (1/GPa) = 0.01584969
#
# Stress axis : x y z
#
# Youngs Moduli (GPa) = 89.21465 90.54990 135.86116
#
# Poissons Ratio (x) = 0.18492 0.33772
# Poissons Ratio (y) = 0.18219 0.31978
# Poissons Ratio (z) = 0.22177 0.21313
#
# Static dielectric constant tensor:
#      x y z
#    x 1.710090 0.000000 0.017010 
#    y 0.000000 1.681530 0.000000 
#    z 0.017010 0.000000 1.828630 
# 
# From -- ./inp_files/292994.got.cif
#   From: 2010.05.17/outbox.ucp.g08.bks.cvg/sg15_147_cif.got.tgz:292994.got - 2010.06.11 12:40:34.
