data_PCOD9309342
_publ_section_title
;
Structure prediction by ZEFSAII (Michael W. Deem and Ramdas Pophale) SiO2 
 PCOD9309342
Probable space group: C 2/C
;
_chemical_formula_sum "Si O2"
_cell_formula_units_Z 32
_cell_length_a 18.000000
_cell_length_b 21.000000
_cell_length_c 24.000000
_cell_angle_alpha 90.000000
_cell_angle_beta 160.000000
_cell_angle_gamma 90.000000
_cell_volume 3102.806740
_symmetry_space_group_name_H-M "C 2/C"
_symmetry_group_IT_number 15
_symmetry_cell_setting 'monoclinic'
loop_
_space_group_symop_operation_xyz
x,y,z
-x,y,1/2-z
-x,-y,-z
x,-y,1/2+z
1/2+x,1/2+y,z
1/2-x,1/2+y,1/2-z
1/2-x,1/2-y,-z
1/2+x,1/2-y,1/2+z
loop_
_atom_site_type_symbol
_atom_site_label
_atom_site_fract_x
_atom_site_fract_y
_atom_site_fract_z
Si Si1 0.856867 0.703319 0.313248
Si Si2 0.958936 0.584365 0.843165
Si Si3 0.279923 0.634927 0.558205
Si Si4 0.006655 0.875564 0.999303
Si Si5 0.937086 0.154381 0.841516
Si Si6 0.166900 0.981312 0.706240
Si Si7 0.045471 0.617407 0.020863
Si Si8 0.302245 0.991029 0.566533
O O1 0.863327 0.778384 0.313536
O O2 0.862837 0.676803 0.380028
O O3 0.075291 0.671516 0.440261
O O4 0.642891 0.680242 0.129972
O O5 0.768606 0.626142 0.680580
O O6 0.818940 0.530489 0.778780
O O7 0.118283 0.553261 0.911047
O O8 0.082007 0.618724 0.980540
O O9 0.500000 0.630483 0.750000
O O10 0.374222 0.667453 0.569188
O O11 0.206109 0.565777 0.484610
O O12 0.965386 0.881487 0.036289
O O13 0.924489 0.935104 0.906057
O O14 0.721975 0.120491 0.663655
O O15 0.331439 0.942355 0.863288
O O16 0.943923 0.001573 0.582049
O O17 0.500000 0.978661 0.750000
#
# Coordination Sequence:
#
# PCOD9309342 Si02
#       8
#     8   8   8   8   8   8   8   8
#     4  11  23  42  64  90 127 173 219 271 328 382
#     4  11  23  39  64  92 131 169 217 267 326 388
#     4  12  27  39  57  94 138 173 221 262 314 399
#     4  10  22  38  61  88 116 160 220 265 314 383
#     4  11  23  42  64  90 127 173 219 271 328 382
#     4  11  23  39  64  92 131 169 217 267 326 388
#     4  10  22  40  61  90 120 164 212 267 314 379
#     4  12  26  41  65  98 136 179 213 260 333 393
#
# _framework density 10.313243
#
# number of rings (size 3 to 8) (size 9 to 14) (size 15 to 20)
#    0.000    1.000    2.500    4.875    7.000    0.000 
#    0.000    0.000    0.000    0.000    0.000   61.250 
#    0.000    0.000    0.000    0.000    0.000    0.000 
#
# Total GULP energy -178604.819213 kJ/mol
# GULP energy per Si atom -5581.400600 kJ/mol
# Density = 1.028977 g / cm^3
# Si number density = 10.313243 Si / 1000 Ang^3
#
#
#
# Elastic Constant Matrix: (Units=GPa)
#
#
# Indices 1 2 3 4 5 6 
#
# 1 71.6359 29.3419 36.3695 -0.0155 -4.7136 -0.0105
# 2 29.3419 57.7643 33.4118 -0.0286 4.6955 -0.0148
# 3 36.3695 33.4118 132.1417 -0.1062 -17.9942 -0.0190
# 4 -0.0155 -0.0286 -0.1062 16.3882 -0.0379 1.1879
# 5 -4.7136 4.6955 -17.9942 -0.0379 39.7015 -0.0070
# 6 -0.0105 -0.0148 -0.0190 1.1879 -0.0070 23.5774
#
#
#
# Elastic Compliance Matrix: (Units=1/GPa)
#
#
# Indices 1 2 3 4 5 6 
#
# 1 0.018852 -0.008053 -0.002897 -0.000011 0.001878 0.000002
# 2 -0.008053 0.024707 -0.004859 -0.000011 -0.006080 0.000007
# 3 -0.002897 -0.004859 0.010258 0.000066 0.004880 0.000002
# 4 -0.000011 -0.000011 0.000066 0.061244 0.000088 -0.003085
# 5 0.001878 -0.006080 0.004880 0.000088 0.028342 0.000005
# 6 0.000002 0.000007 0.000002 -0.003085 0.000005 0.042569
#
#
# Mechanical properties :
#
#
# Convention : Reuss Voigt Hill
#
# Bulk Modulus (GPa) = 45.04510 51.08758 48.06634
# Shear Modulus (GPa) = 22.22326 26.76132 24.49229
#
# Velocity S-wave (km/s) = 3.28596 3.60589 3.44963
# Velocity P-wave (km/s) = 6.02350 6.49294 6.26262
#
# Compressibility (1/GPa) = 0.02219997
#
# Stress axis : x y z
#
# Youngs Moduli (GPa) = 53.04373 40.47427 97.48492
#
# Poissons Ratio (x) = 0.32595 0.28239
# Poissons Ratio (y) = 0.42718 0.47364
# Poissons Ratio (z) = 0.15366 0.19665
#
# Static dielectric constant tensor:
#      x y z
#    x 1.762680 -0.000010 -0.023380 
#    y -0.000010 1.814280 -0.000060 
#    z -0.023380 -0.000060 1.732380 
# 
# From -- ./inp_files/278163.got.cif
#   From: 2010.05.17/outbox.ucp.g08.bks.cvg/sg15_140_cif.got.tgz:278163.got - 2010.06.11 12:40:34.
