data_PCOD9309206
_publ_section_title
;
Structure prediction by ZEFSAII (Michael W. Deem and Ramdas Pophale) SiO2 
 PCOD9309206
Probable space group: C 2/C
;
_chemical_formula_sum "Si O2"
_cell_formula_units_Z 28
_cell_length_a 18.000000
_cell_length_b 27.000000
_cell_length_c 6.000000
_cell_angle_alpha 90.000000
_cell_angle_beta 110.000000
_cell_angle_gamma 90.000000
_cell_volume 2740.143682
_symmetry_space_group_name_H-M "C 2/C"
_symmetry_group_IT_number 15
_symmetry_cell_setting 'monoclinic'
loop_
_space_group_symop_operation_xyz
x,y,z
-x,y,1/2-z
-x,-y,-z
x,-y,1/2+z
1/2+x,1/2+y,z
1/2-x,1/2+y,1/2-z
1/2-x,1/2-y,-z
1/2+x,1/2-y,1/2+z
loop_
_atom_site_type_symbol
_atom_site_label
_atom_site_fract_x
_atom_site_fract_y
_atom_site_fract_z
Si Si1 0.297594 0.489561 0.834916
Si Si2 0.905841 0.829457 0.638978
Si Si3 0.695678 0.695870 0.835851
Si Si4 0.752817 0.124029 0.227693
Si Si5 0.350463 0.232333 0.836451
Si Si6 0.090564 0.369406 0.255742
Si Si7 0.377668 0.023388 0.862090
O O1 0.335344 0.498865 0.622077
O O2 0.266289 0.433035 0.805514
O O3 0.217560 0.521954 0.744304
O O4 0.876485 0.831689 0.354739
O O5 0.835941 0.861159 0.688340
O O6 0.889403 0.773605 0.716077
O O7 0.000000 0.841135 0.750000
O O8 0.757919 0.716110 0.716260
O O9 0.743575 0.660487 0.054495
O O10 0.657213 0.740831 0.932992
O O11 0.668171 0.128974 0.007479
O O12 0.397231 0.181461 0.865823
O O13 0.096520 0.419729 0.119940
O O14 0.000000 0.368643 0.250000
O O15 0.400638 0.000333 0.633283
#
# Coordination Sequence:
#
# PCOD9309206 Si02
#       7
#     8   8   8   8   8   8   8
#     4  10  21  39  69 100 132 182 228 286 348 411
#     4  11  24  45  69  95 133 173 223 283 344 415
#     4  10  23  40  71  93 133 175 225 275 346 410
#     4  11  24  41  68  96 131 178 225 281 343 406
#     4  10  23  41  63  96 131 175 214 278 336 402
#     4  12  25  42  64  96 138 181 229 279 338 411
#     4  10  22  42  65  94 135 185 234 287 338 405
#
# _framework density 10.218442
#
# number of rings (size 3 to 8) (size 9 to 14) (size 15 to 20)
#    0.000    1.429    4.286    0.857   10.000    2.857 
#    2.571    1.429    0.000    0.857    0.000    0.000 
#    0.000    0.000    0.000    0.000    0.000    0.000 
#
# Total GULP energy -155920.384308 kJ/mol
# GULP energy per Si atom -5568.585154 kJ/mol
# Density = 1.019518 g / cm^3
# Si number density = 10.218442 Si / 1000 Ang^3
#
#
#
# Elastic Constant Matrix: (Units=GPa)
#
#
# Indices 1 2 3 4 5 6 
#
# 1 105.9036 13.5497 20.1934 0.0000 12.4158 0.0000
# 2 13.5497 96.6391 7.1119 0.0000 -17.9693 0.0000
# 3 20.1934 7.1119 87.8801 0.0000 -6.7866 0.0000
# 4 0.0000 0.0000 0.0000 18.4781 0.0000 -12.4263
# 5 12.4158 -17.9693 -6.7866 0.0000 32.3654 0.0000
# 6 0.0000 0.0000 0.0000 -12.4263 0.0000 29.7815
#
#
#
# Elastic Compliance Matrix: (Units=1/GPa)
#
#
# Indices 1 2 3 4 5 6 
#
# 1 0.011024 -0.002492 -0.002811 0.000000 -0.006202 0.000000
# 2 -0.002492 0.012120 0.000188 0.000000 0.007724 0.000000
# 3 -0.002811 0.000188 0.012300 0.000000 0.003762 0.000000
# 4 0.000000 0.000000 0.000000 0.075227 0.000000 0.031388
# 5 -0.006202 0.007724 0.003762 0.000000 0.038354 0.000000
# 6 0.000000 0.000000 0.000000 0.031388 0.000000 0.046675
#
#
# Mechanical properties :
#
#
# Convention : Reuss Voigt Hill
#
# Bulk Modulus (GPa) = 39.65780 41.34808 40.50294
# Shear Modulus (GPa) = 23.32817 32.76284 28.04550
#
# Velocity S-wave (km/s) = 3.38224 4.00825 3.70847
# Velocity P-wave (km/s) = 5.89066 6.45735 6.18050
#
# Compressibility (1/GPa) = 0.02521572
#
# Stress axis : x y z
#
# Youngs Moduli (GPa) = 90.70778 82.51078 81.29934
#
# Poissons Ratio (x) = 0.20563 0.22849
# Poissons Ratio (y) = 0.22606 -0.01531
# Poissons Ratio (z) = 0.25493 -0.01554
#
# Static dielectric constant tensor:
#      x y z
#    x 1.738400 0.000000 -0.044890 
#    y 0.000000 1.749380 0.000000 
#    z -0.044890 0.000000 1.815280 
# 
# From -- ./inp_files/11576.got.cif
#   From: 2010.05.17/outbox.ucp.g08.bks.cvg/sg15_6_cif.got.tgz:11576.got - 2010.06.11 12:40:34.
