data_PCOD9309043
_publ_section_title
;
Structure prediction by ZEFSAII (Michael W. Deem and Ramdas Pophale) SiO2 
 PCOD9309043
Probable space group: C 2/C
;
_chemical_formula_sum "Si O2"
_cell_formula_units_Z 30
_cell_length_a 21.000000
_cell_length_b 15.000000
_cell_length_c 21.000000
_cell_angle_alpha 90.000000
_cell_angle_beta 30.000000
_cell_angle_gamma 90.000000
_cell_volume 3307.500000
_symmetry_space_group_name_H-M "C 2/C"
_symmetry_group_IT_number 15
_symmetry_cell_setting 'monoclinic'
loop_
_space_group_symop_operation_xyz
x,y,z
-x,y,1/2-z
-x,-y,-z
x,-y,1/2+z
1/2+x,1/2+y,z
1/2-x,1/2+y,1/2-z
1/2-x,1/2-y,-z
1/2+x,1/2-y,1/2+z
loop_
_atom_site_type_symbol
_atom_site_label
_atom_site_fract_x
_atom_site_fract_y
_atom_site_fract_z
Si Si1 0.942877 0.906022 0.081367
Si Si2 0.776690 0.892815 0.352973
Si Si3 0.500000 0.334567 0.250000
Si Si4 0.691794 0.026895 0.129530
Si Si5 0.489546 0.215683 0.682173
Si Si6 0.808060 0.160661 0.571286
Si Si7 0.360375 0.297615 0.500528
Si Si8 0.427115 0.012514 0.905861
O O1 0.844891 0.916093 0.226416
O O2 0.869270 0.855478 0.087981
O O3 0.049600 0.841283 0.022127
O O4 0.000000 0.000000 0.000000
O O5 0.887816 0.889978 0.311413
O O6 0.709490 0.794000 0.416901
O O7 0.668692 0.966265 0.461868
O O8 0.435981 0.283675 0.366859
O O9 0.763055 0.121039 0.070788
O O10 0.635301 0.009063 0.108563
O O11 0.569547 0.028147 0.282269
O O12 0.777542 0.939777 0.071514
O O13 0.500000 0.226728 0.750000
O O14 0.334066 0.208831 0.803627
O O15 0.583286 0.287299 0.565153
O O16 0.548498 0.118774 0.612421
#
# Coordination Sequence:
#
# PCOD9309043 Si02
#       8
#     8   8   4   8   8   8   8   8
#     4  11  26  47  63  92 135 177 221 267 319 394
#     4  11  25  40  66  97 130 172 227 259 332 391
#     4  10  22  38  62 100 130 166 218 274 320 378
#     4  10  20  39  67  93 134 168 207 275 334 381
#     4  11  23  44  69 104 128 165 220 276 337 394
#     4  11  24  45  67  94 135 175 216 273 332 386
#     4  11  23  41  65  97 132 174 220 264 327 394
#     4  10  21  39  65 100 129 165 212 276 334 385
#
# _framework density 9.0702949999999998
#
# number of rings (size 3 to 8) (size 9 to 14) (size 15 to 20)
#    0.000    1.333    5.333    0.800    5.600    1.067 
#    1.200    2.667    0.000    0.000    0.000    0.000 
#    0.000    0.000    0.000    0.000    0.000    0.000 
#
# Total GULP energy -167259.589343 kJ/mol
# GULP energy per Si atom -5575.319645 kJ/mol
# Density = 0.904965 g / cm^3
# Si number density = 9.070295 Si / 1000 Ang^3
#
#
#
# Elastic Constant Matrix: (Units=GPa)
#
#
# Indices 1 2 3 4 5 6 
#
# 1 125.8628 38.0974 54.0148 0.0000 -1.1244 0.0000
# 2 38.0974 98.9786 72.1866 0.0000 4.2695 0.0000
# 3 54.0148 72.1866 164.4383 0.0001 10.9903 0.0000
# 4 0.0000 0.0000 0.0001 45.9926 0.0000 0.9348
# 5 -1.1244 4.2695 10.9903 0.0000 36.6841 0.0000
# 6 0.0000 0.0000 0.0000 0.9348 0.0000 20.3392
#
#
#
# Elastic Compliance Matrix: (Units=1/GPa)
#
#
# Indices 1 2 3 4 5 6 
#
# 1 0.009574 -0.002037 -0.002333 0.000000 0.001229 0.000000
# 2 -0.002037 0.015296 -0.006044 0.000000 -0.000032 0.000000
# 3 -0.002333 -0.006044 0.009652 0.000000 -0.002260 0.000000
# 4 0.000000 0.000000 0.000000 0.021763 0.000000 -0.001000
# 5 0.001229 -0.000032 -0.002260 0.000000 0.027978 0.000000
# 6 0.000000 0.000000 0.000000 -0.001000 0.000000 0.049212
#
#
# Mechanical properties :
#
#
# Convention : Reuss Voigt Hill
#
# Bulk Modulus (GPa) = 73.01783 79.76414 76.39099
# Shear Modulus (GPa) = 31.47292 35.60193 33.53742
#
# Velocity S-wave (km/s) = 4.16979 4.43488 4.30437
# Velocity P-wave (km/s) = 7.97002 8.38389 8.17958
#
# Compressibility (1/GPa) = 0.01369529
#
# Stress axis : x y z
#
# Youngs Moduli (GPa) = 104.45186 65.37538 103.60749
#
# Poissons Ratio (x) = 0.13314 0.24171
# Poissons Ratio (y) = 0.21273 0.62618
# Poissons Ratio (z) = 0.24368 0.39511
#
# Static dielectric constant tensor:
#      x y z
#    x 1.632990 0.000000 -0.016180 
#    y 0.000000 1.624550 0.000000 
#    z -0.016180 0.000000 1.665640 
# 
# From -- ./inp_files/253036.got.cif
#   From: 2010.05.17/outbox.ucp.g08.bks.cvg/sg15_127_cif.got.tgz:253036.got - 2010.06.11 12:40:34.
