data_PCOD9309547
_publ_section_title
;
Structure prediction by ZEFSAII (Michael W. Deem and Ramdas Pophale) SiO2 
 PCOD9309547
Probable space group: C 2/C
;
_chemical_formula_sum "Si O2"
_cell_formula_units_Z 30
_cell_length_a 24.000000
_cell_length_b 9.000000
_cell_length_c 15.000000
_cell_angle_alpha 90.000000
_cell_angle_beta 70.000000
_cell_angle_gamma 90.000000
_cell_volume 3044.604091
_symmetry_space_group_name_H-M "C 2/C"
_symmetry_group_IT_number 15
_symmetry_cell_setting 'monoclinic'
loop_
_space_group_symop_operation_xyz
x,y,z
-x,y,1/2-z
-x,-y,-z
x,-y,1/2+z
1/2+x,1/2+y,z
1/2-x,1/2+y,1/2-z
1/2-x,1/2-y,-z
1/2+x,1/2-y,1/2+z
loop_
_atom_site_type_symbol
_atom_site_label
_atom_site_fract_x
_atom_site_fract_y
_atom_site_fract_z
Si Si1 0.413203 0.388254 0.120413
Si Si2 0.670972 0.635034 0.520061
Si Si3 0.000000 0.759571 0.750000
Si Si4 0.827623 0.397153 0.663484
Si Si5 0.459109 0.482455 0.405711
Si Si6 0.701312 0.973484 0.514464
Si Si7 0.871171 0.382104 0.285797
Si Si8 0.313266 0.379389 0.703919
O O1 0.371230 0.245100 0.123525
O O2 0.479627 0.381448 0.130680
O O3 0.362529 0.490693 0.195546
O O4 0.437010 0.464366 0.015913
O O5 0.604604 0.588946 0.589249
O O6 0.683634 0.802818 0.544963
O O7 0.726182 0.528533 0.519421
O O8 0.677665 0.642287 0.407914
O O9 0.979553 0.871318 0.840345
O O10 0.940209 0.664077 0.762418
O O11 0.819245 0.480339 0.573386
O O12 0.863311 0.484311 0.720238
O O13 0.758257 0.387214 0.737383
O O14 0.666022 0.075325 0.604875
O O15 0.837040 0.251035 0.253157
#
# Coordination Sequence:
#
# PCOD9309547 Si02
#       8
#     8   8   4   8   8   8   8   8
#     4  10  23  43  69  99 133 181 239 271 347 422
#     4  10  23  44  71  99 143 184 231 285 350 425
#     4  12  26  46  68 100 140 186 240 292 340 418
#     4  12  25  41  74 105 139 184 226 293 356 408
#     4  10  23  44  67  95 133 187 229 281 337 426
#     4  11  25  43  67 111 141 178 231 300 352 404
#     4  12  26  45  69 102 142 179 235 290 353 408
#     4  11  22  45  69  98 141 185 227 284 345 423
#
# _framework density 9.8534980000000001
#
# number of rings (size 3 to 8) (size 9 to 14) (size 15 to 20)
#    0.000    1.067    4.000    1.600    3.733    2.667 
#    0.000    2.000    0.000    0.000    0.000    0.000 
#    0.000    0.000    0.000    0.000    0.000    0.000 
#
# Total GULP energy -167117.367314 kJ/mol
# GULP energy per Si atom -5570.578910 kJ/mol
# Density = 0.983107 g / cm^3
# Si number density = 9.853498 Si / 1000 Ang^3
#
#
#
# Elastic Constant Matrix: (Units=GPa)
#
#
# Indices 1 2 3 4 5 6 
#
# 1 193.2994 42.4110 24.4722 0.0000 -41.7129 0.0000
# 2 42.4110 52.4717 7.4202 0.0000 -20.8288 0.0000
# 3 24.4722 7.4202 69.0740 0.0000 -17.3306 0.0000
# 4 0.0000 0.0000 0.0000 33.1264 0.0000 -3.8756
# 5 -41.7129 -20.8288 -17.3306 0.0000 44.3493 0.0000
# 6 0.0000 0.0000 0.0000 -3.8756 0.0000 48.6751
#
#
#
# Elastic Compliance Matrix: (Units=1/GPa)
#
#
# Indices 1 2 3 4 5 6 
#
# 1 0.007108 -0.003816 -0.000976 0.000000 0.004511 0.000000
# 2 -0.003816 0.025478 0.000795 0.000000 0.008687 0.000000
# 3 -0.000976 0.000795 0.016188 0.000000 0.005781 0.000000
# 4 0.000000 0.000000 0.000000 0.030471 0.000000 0.002426
# 5 0.004511 0.008687 0.005781 0.000000 0.033131 0.000000
# 6 0.000000 0.000000 0.000000 0.002426 0.000000 0.020738
#
#
# Mechanical properties :
#
#
# Convention : Reuss Voigt Hill
#
# Bulk Modulus (GPa) = 24.52260 51.49467 38.00864
# Shear Modulus (GPa) = 32.32021 41.26627 36.79324
#
# Velocity S-wave (km/s) = 4.05413 4.58098 4.32558
# Velocity P-wave (km/s) = 5.86389 7.35985 6.65404
#
# Compressibility (1/GPa) = 0.04077871
#
# Stress axis : x y z
#
# Youngs Moduli (GPa) = 140.69181 39.24908 61.77348
#
# Poissons Ratio (x) = 0.14978 0.06031
# Poissons Ratio (y) = 0.53688 -0.04909
# Poissons Ratio (z) = 0.13736 -0.03119
#
# Static dielectric constant tensor:
#      x y z
#    x 1.733380 0.000000 0.044940 
#    y 0.000000 1.765140 0.000000 
#    z 0.044940 0.000000 1.698860 
# 
# From -- ./inp_files/172347.got.cif
#   From: 2010.05.17/outbox.ucp.g08.bks.cvg/sg15_87_cif.got.tgz:172347.got - 2010.06.11 12:40:34.
