data_PCOD9309568
_publ_section_title
;
Structure prediction by ZEFSAII (Michael W. Deem and Ramdas Pophale) SiO2 
 PCOD9309568
Probable space group: C 2/C
;
_chemical_formula_sum "Si O2"
_cell_formula_units_Z 30
_cell_length_a 12.000000
_cell_length_b 18.000000
_cell_length_c 27.000000
_cell_angle_alpha 90.000000
_cell_angle_beta 30.000000
_cell_angle_gamma 90.000000
_cell_volume 2916.000000
_symmetry_space_group_name_H-M "C 2/C"
_symmetry_group_IT_number 15
_symmetry_cell_setting 'monoclinic'
loop_
_space_group_symop_operation_xyz
x,y,z
-x,y,1/2-z
-x,-y,-z
x,-y,1/2+z
1/2+x,1/2+y,z
1/2-x,1/2+y,1/2-z
1/2-x,1/2-y,-z
1/2+x,1/2-y,1/2+z
loop_
_atom_site_type_symbol
_atom_site_label
_atom_site_fract_x
_atom_site_fract_y
_atom_site_fract_z
Si Si1 0.204540 0.285109 0.227538
Si Si2 0.500000 0.061616 0.250000
Si Si3 0.596860 0.483933 0.267787
Si Si4 0.956583 0.826392 0.326030
Si Si5 0.587271 0.353857 0.636824
Si Si6 0.506064 0.631680 0.055634
Si Si7 0.034170 0.439021 0.151683
Si Si8 0.473053 0.234296 0.029242
O O1 0.345187 0.283032 0.223781
O O2 0.052494 0.212689 0.285420
O O3 0.062963 0.362093 0.286225
O O4 0.371822 0.273526 0.117127
O O5 0.743755 0.104283 0.157151
O O6 0.512071 0.006832 0.198311
O O7 0.500000 0.484093 0.250000
O O8 0.475419 0.411809 0.337748
O O9 0.524638 0.565118 0.314150
O O10 0.858276 0.462771 0.175632
O O11 0.726595 0.792492 0.432959
O O12 0.000000 0.823775 0.250000
O O13 0.582758 0.342329 0.580135
O O14 0.828039 0.337732 0.568150
O O15 0.530901 0.701854 0.010446
O O16 0.706191 0.574241 0.962718
#
# Coordination Sequence:
#
# PCOD9309568 Si02
#       8
#     8   4   8   8   8   8   8   8
#     4  11  24  45  70 101 142 180 241 294 353 426
#     4  12  26  50  70 110 142 182 236 302 358 426
#     4  10  23  45  68  98 141 186 230 289 353 423
#     4  10  24  43  69 100 141 186 233 295 352 423
#     4  12  25  45  67 105 135 185 237 290 349 429
#     4  12  27  44  74 104 141 187 238 297 358 425
#     4  11  24  47  73 101 141 185 235 292 366 417
#     4  12  25  42  71 101 137 193 233 296 356 417
#
# _framework density 10.288066000000001
#
# number of rings (size 3 to 8) (size 9 to 14) (size 15 to 20)
#    0.000    0.800    2.667    4.000    8.400    0.533 
#    2.400    0.000    0.000    0.000    0.000    0.000 
#    0.000    0.000    0.000    0.000    0.000    0.000 
#
# Total GULP energy -167400.020299 kJ/mol
# GULP energy per Si atom -5580.000677 kJ/mol
# Density = 1.026465 g / cm^3
# Si number density = 10.288066 Si / 1000 Ang^3
#
#
#
# Elastic Constant Matrix: (Units=GPa)
#
#
# Indices 1 2 3 4 5 6 
#
# 1 88.8015 8.2509 18.7822 -0.0061 -9.8013 -0.0109
# 2 8.2509 70.2039 15.5541 0.0028 -0.4388 -0.0069
# 3 18.7822 15.5541 99.4235 -0.0236 -9.7029 0.0130
# 4 -0.0061 0.0028 -0.0236 31.6195 0.0171 -0.5684
# 5 -9.8013 -0.4388 -9.7029 0.0171 41.4065 -0.0299
# 6 -0.0109 -0.0069 0.0130 -0.5684 -0.0299 24.5257
#
#
#
# Elastic Compliance Matrix: (Units=1/GPa)
#
#
# Indices 1 2 3 4 5 6 
#
# 1 0.012014 -0.000980 -0.001883 0.000000 0.002392 0.000009
# 2 -0.000980 0.014842 -0.002194 -0.000003 -0.000589 0.000004
# 3 -0.001883 -0.002194 0.010962 0.000007 0.002100 -0.000005
# 4 0.000000 -0.000003 0.000007 0.031639 -0.000011 0.000733
# 5 0.002392 -0.000589 0.002100 -0.000011 0.025203 0.000030
# 6 0.000009 0.000004 -0.000005 0.000733 0.000030 0.040791
#
#
# Mechanical properties :
#
#
# Convention : Reuss Voigt Hill
#
# Bulk Modulus (GPa) = 36.09580 38.17813 37.13696
# Shear Modulus (GPa) = 32.29980 33.89978 33.09979
#
# Velocity S-wave (km/s) = 3.96633 4.06338 4.01515
# Velocity P-wave (km/s) = 6.20938 6.37257 6.29150
#
# Compressibility (1/GPa) = 0.02770406
#
# Stress axis : x y z
#
# Youngs Moduli (GPa) = 83.23334 67.37704 91.22521
#
# Poissons Ratio (x) = 0.06602 0.17177
# Poissons Ratio (y) = 0.08156 0.20017
# Poissons Ratio (z) = 0.15672 0.14784
#
# Static dielectric constant tensor:
#      x y z
#    x 1.802640 -0.000010 -0.010350 
#    y -0.000010 1.749480 0.000000 
#    z -0.010350 0.000000 1.753370 
# 
# From -- ./inp_files/293522.got.cif
#   From: 2010.05.17/outbox.ucp.g08.bks.cvg/sg15_147_cif.got.tgz:293522.got - 2010.06.11 12:40:34.
