data_PCOD9309983
_publ_section_title
;
Structure prediction by ZEFSAII (Michael W. Deem and Ramdas Pophale) SiO2 
 PCOD9309983
Probable space group: P 2 2 2
;
_chemical_formula_sum "Si O2"
_cell_formula_units_Z 30
_cell_length_a 13.182696
_cell_length_b 15.066494
_cell_length_c 7.314391
_cell_angle_alpha 90.000000
_cell_angle_beta 90.000000
_cell_angle_gamma 90.000000
_cell_volume 1452.762472
_symmetry_space_group_name_H-M "P 2 2 2"
_symmetry_group_IT_number 16
_symmetry_cell_setting 'orthorhombic'
loop_
_space_group_symop_operation_xyz
x,y,z
-x,-y,z
x,-y,-z
-x,y,-z
loop_
_atom_site_type_symbol
_atom_site_label
_atom_site_fract_x
_atom_site_fract_y
_atom_site_fract_z
Si Si1 0.170407 0.386253 0.812253
Si Si2 0.390845 0.157385 0.543558
Si Si3 0.381553 0.300846 0.823129
Si Si4 0.761914 0.000000 0.500000
Si Si5 0.056364 0.081073 0.299842
Si Si6 0.199289 0.419690 0.242851
Si Si7 0.398278 0.677848 0.741521
Si Si8 0.027684 0.277902 0.291059
O O1 0.274220 0.338327 0.753552
O O2 0.162839 0.481056 0.711884
O O3 0.069177 0.327232 0.798329
O O4 0.190427 0.409140 0.023546
O O5 0.500000 0.116719 0.500000
O O6 0.393530 0.203955 0.739777
O O7 0.379545 0.237968 0.393293
O O8 0.306200 0.083476 0.550486
O O9 0.482486 0.349349 0.742672
O O10 0.382068 0.299107 0.043053
O O11 0.833537 0.041778 0.656211
O O12 0.052881 0.179494 0.215705
O O13 0.000000 0.088553 0.500000
O O14 0.000000 0.000000 0.202189
O O15 0.314338 0.397035 0.299484
O O16 0.123616 0.342740 0.303310
O O17 0.000000 0.264672 0.500000
#
# Coordination Sequence:
#
# PCOD9309983 Si02
#       8
#     4   4   4   2   4   4   4   4
#     4  10  22  36  57  80 112 151 198 235 290 351
#     4  10  20  34  57  86 114 152 192 235 291 348
#     4   9  20  36  58  86 114 158 193 237 286 350
#     4  10  18  32  56  80 114 144 190 242 288 348
#     4   8  18  32  50  79 103 140 183 228 282 338
#     4  10  21  38  55  81 111 153 193 242 289 345
#     4   9  19  38  58  82 121 152 195 237 290 343
#     4  11  22  35  56  81 112 146 187 241 295 345
#
# _framework density 20.650314000000002
#
# number of rings (size 3 to 8) (size 9 to 14) (size 15 to 20)
#    0.000    2.533    0.000    1.800    7.467    2.667 
#    0.000    3.333    0.000    7.200    0.000    0.000 
#    0.000    0.000    0.000    0.000    0.000    0.000 
#
# Total GULP energy -167124.127885 kJ/mol
# GULP energy per Si atom -5570.804263 kJ/mol
# Density = 2.060331 g / cm^3
# Si number density = 20.650314 Si / 1000 Ang^3
#
#
#
# Elastic Constant Matrix: (Units=GPa)
#
#
# Indices 1 2 3 4 5 6 
#
# 1 130.0933 59.4434 -6.0785 0.0000 0.0000 0.0000
# 2 59.4434 109.9507 -6.0768 0.0000 0.0000 0.0000
# 3 -6.0785 -6.0768 36.6825 0.0000 0.0000 0.0000
# 4 0.0000 0.0000 0.0000 -4.1708 0.0000 0.0000
# 5 0.0000 0.0000 0.0000 0.0000 13.3031 0.0000
# 6 0.0000 0.0000 0.0000 0.0000 0.0000 36.9532
#
#
#
# Elastic Compliance Matrix: (Units=1/GPa)
#
#
# Indices 1 2 3 4 5 6 
#
# 1 0.010231 -0.005488 0.000786 0.000000 0.000000 0.000000
# 2 -0.005488 0.012123 0.001099 0.000000 0.000000 0.000000
# 3 0.000786 0.001099 0.027573 0.000000 0.000000 0.000000
# 4 0.000000 0.000000 0.000000 -0.239764 0.000000 0.000000
# 5 0.000000 0.000000 0.000000 0.000000 0.075171 0.000000
# 6 0.000000 0.000000 0.000000 0.000000 0.000000 0.027061
#
#
# Mechanical properties :
#
#
# Convention : Reuss Voigt Hill
#
# Bulk Modulus (GPa) = 23.40738 41.25583 32.33160
# Shear Modulus (GPa) = -75.57568 24.51299 -25.53134
#
# Velocity S-wave (km/s) = -6.05618 3.44910 -3.52001
# Velocity P-wave (km/s) = 6.12726 5.99027 0.91102
#
# Compressibility (1/GPa) = 0.04272157
#
# Stress axis : x y z
#
# Youngs Moduli (GPa) = 97.74134 82.49021 36.26696
#
# Poissons Ratio (x) = 0.45269 -0.02851
# Poissons Ratio (y) = 0.53639 -0.03985
# Poissons Ratio (z) = -0.07685 -0.09065
#
# Static dielectric constant tensor:
#      x y z
#    x 1.750130 0.000000 0.000000 
#    y 0.000000 1.791280 0.000000 
#    z 0.000000 0.000000 1.781520 
# 
# From -- ./inp_files/4817.got.cif
#   From: 2010.05.17/outbox.cif.g08.bks.cpg/sg16_3_cif.got.tgz:4817.got - 2010.06.03 22:28:35.
