data_PCOD9309057
_publ_section_title
;
Structure prediction by ZEFSAII (Michael W. Deem and Ramdas Pophale) SiO2 
 PCOD9309057
Probable space group: C 2/C
;
_chemical_formula_sum "Si O2"
_cell_formula_units_Z 24
_cell_length_a 12.000000
_cell_length_b 15.000000
_cell_length_c 21.000000
_cell_angle_alpha 90.000000
_cell_angle_beta 140.000000
_cell_angle_gamma 90.000000
_cell_volume 2429.737165
_symmetry_space_group_name_H-M "C 2/C"
_symmetry_group_IT_number 15
_symmetry_cell_setting 'monoclinic'
loop_
_space_group_symop_operation_xyz
x,y,z
-x,y,1/2-z
-x,-y,-z
x,-y,1/2+z
1/2+x,1/2+y,z
1/2-x,1/2+y,1/2-z
1/2-x,1/2-y,-z
1/2+x,1/2-y,1/2+z
loop_
_atom_site_type_symbol
_atom_site_label
_atom_site_fract_x
_atom_site_fract_y
_atom_site_fract_z
Si Si1 0.393387 0.098922 0.847677
Si Si2 0.697088 0.346613 0.139294
Si Si3 0.211011 0.493809 0.085462
Si Si4 0.859059 0.505632 0.134241
Si Si5 0.687674 0.351738 0.478552
Si Si6 0.692176 0.807542 0.537065
O O1 0.327697 0.146314 0.755349
O O2 0.253111 0.042123 0.826585
O O3 0.542662 0.034988 0.883951
O O4 0.490114 0.169846 0.934956
O O5 0.731538 0.430497 0.107242
O O6 0.717659 0.257331 0.107638
O O7 0.512765 0.350915 0.091869
O O8 0.269807 0.593416 0.088743
O O9 0.271223 0.415933 0.063864
O O10 0.000000 0.500000 0.000000
O O11 0.775459 0.597005 0.075984
O O12 0.000000 0.521596 0.250000
O O13 0.750000 0.250000 0.500000
O O14 0.750000 0.750000 0.500000
#
# Coordination Sequence:
#
# PCOD9309057 Si02
#       6
#     8   8   8   8   8   8
#     4  10  21  42  65  90 135 171 217 261 327 390
#     4  11  24  40  65  99 130 167 221 269 324 395
#     4  10  20  40  65  86 128 172 209 260 332 383
#     4  10  21  42  67  90 125 172 216 267 323 388
#     4  12  23  41  64  93 129 168 215 269 329 396
#     4  11  20  39  69  97 127 170 221 270 322 384
#
# _framework density 9.8776119999999992
#
# number of rings (size 3 to 8) (size 9 to 14) (size 15 to 20)
#    0.000    1.333    5.000    2.500    0.000    0.667 
#    6.000    5.000    0.000    0.000    0.000    0.000 
#    0.000    0.000    0.000    0.000    0.000    0.000 
#
# Total GULP energy -133731.136520 kJ/mol
# GULP energy per Si atom -5572.130688 kJ/mol
# Density = 0.985513 g / cm^3
# Si number density = 9.877612 Si / 1000 Ang^3
#
#
#
# Elastic Constant Matrix: (Units=GPa)
#
#
# Indices 1 2 3 4 5 6 
#
# 1 105.6470 53.9458 10.8889 0.0000 -16.8461 0.0000
# 2 53.9458 181.1143 47.0734 0.0000 -16.1085 0.0000
# 3 10.8889 47.0734 53.2734 0.0000 -16.6984 0.0000
# 4 0.0000 0.0000 0.0000 28.9224 0.0000 -13.3811
# 5 -16.8461 -16.1085 -16.6984 0.0000 34.6002 0.0000
# 6 0.0000 0.0000 0.0000 -13.3811 0.0000 38.3315
#
#
#
# Elastic Compliance Matrix: (Units=1/GPa)
#
#
# Indices 1 2 3 4 5 6 
#
# 1 0.011965 -0.003750 0.002529 0.000000 0.005300 0.000000
# 2 -0.003750 0.008346 -0.007025 0.000000 -0.001331 0.000000
# 3 0.002529 -0.007025 0.028069 0.000000 0.011507 0.000000
# 4 0.000000 0.000000 0.000000 0.041235 0.000000 0.014395
# 5 0.005300 -0.001331 0.011507 0.000000 0.036416 0.000000
# 6 0.000000 0.000000 0.000000 0.014395 0.000000 0.031113
#
#
# Mechanical properties :
#
#
# Convention : Reuss Voigt Hill
#
# Bulk Modulus (GPa) = 31.36031 62.65010 47.00521
# Shear Modulus (GPa) = 27.13503 35.57928 31.35715
#
# Velocity S-wave (km/s) = 3.71018 4.24843 3.98840
# Velocity P-wave (km/s) = 5.85345 7.47312 6.71232
#
# Compressibility (1/GPa) = 0.03188744
#
# Stress axis : x y z
#
# Youngs Moduli (GPa) = 83.57982 119.82090 35.62713
#
# Poissons Ratio (x) = 0.44929 -0.09010
# Poissons Ratio (y) = 0.31339 0.25029
# Poissons Ratio (z) = -0.21138 0.84176
#
# Static dielectric constant tensor:
#      x y z
#    x 1.731840 0.000000 -0.002990 
#    y 0.000000 1.633400 0.000000 
#    z -0.002990 0.000000 1.880260 
# 
# From -- ./inp_files/143414.got.cif
#   From: 2010.05.17/outbox.ucp.g08.bks.cvg/sg15_72_cif.got.tgz:143414.got - 2010.06.11 12:40:34.
