data_PCOD9309772
_publ_section_title
;
Structure prediction by ZEFSAII (Michael W. Deem and Ramdas Pophale) SiO2 
 PCOD9309772
Probable space group: C 2/C
;
_chemical_formula_sum "Si O2"
_cell_formula_units_Z 30
_cell_length_a 30.000000
_cell_length_b 12.000000
_cell_length_c 9.000000
_cell_angle_alpha 90.000000
_cell_angle_beta 80.000000
_cell_angle_gamma 90.000000
_cell_volume 3190.777120
_symmetry_space_group_name_H-M "C 2/C"
_symmetry_group_IT_number 15
_symmetry_cell_setting 'monoclinic'
loop_
_space_group_symop_operation_xyz
x,y,z
-x,y,1/2-z
-x,-y,-z
x,-y,1/2+z
1/2+x,1/2+y,z
1/2-x,1/2+y,1/2-z
1/2-x,1/2-y,-z
1/2+x,1/2-y,1/2+z
loop_
_atom_site_type_symbol
_atom_site_label
_atom_site_fract_x
_atom_site_fract_y
_atom_site_fract_z
Si Si1 0.758075 0.884899 0.018369
Si Si2 0.909262 0.139053 0.189944
Si Si3 0.699658 0.005431 0.306659
Si Si4 0.000000 0.251623 0.250000
Si Si5 0.047170 0.437846 0.011527
Si Si6 0.122977 0.304749 0.794369
Si Si7 0.365128 0.574874 0.531797
Si Si8 0.381239 0.143479 0.530244
O O1 0.722908 0.936530 0.159572
O O2 0.750000 0.750000 0.000000
O O3 0.810049 0.921075 0.030414
O O4 0.740893 0.945261 0.878724
O O5 0.963599 0.171392 0.182080
O O6 0.890087 0.101968 0.361518
O O7 0.890979 0.261534 0.148059
O O8 0.888832 0.037505 0.093395
O O9 0.665840 0.919262 0.408750
O O10 0.665688 0.110266 0.293393
O O11 0.968728 0.340394 0.362904
O O12 0.077377 0.368007 0.876161
O O13 0.081469 0.543905 0.018200
O O14 0.000000 0.500000 0.000000
O O15 0.120337 0.288888 0.620899
O O16 0.127683 0.185707 0.871274
#
# Coordination Sequence:
#
# PCOD9309772 Si02
#       8
#     8   8   8   4   8   8   8   8
#     4  12  24  45  71 102 144 187 240 292 358 430
#     4  12  27  48  72 102 144 192 239 294 358 426
#     4  11  24  42  69 107 139 184 232 298 354 424
#     4  12  24  46  70 112 142 190 238 302 356 438
#     4  11  22  41  71 104 141 178 234 295 363 420
#     4  11  23  43  68 104 142 181 231 293 361 421
#     4  12  26  48  72  99 145 193 236 293 356 428
#     4  11  24  41  71 104 146 178 231 297 362 418
#
# _framework density 9.4020980000000005
#
# number of rings (size 3 to 8) (size 9 to 14) (size 15 to 20)
#    0.000    0.533    5.333    3.200    1.867    0.533 
#    0.000    2.000    0.000    0.000    0.000    0.000 
#    0.000    0.000    0.000    0.000    0.000    0.000 
#
# Total GULP energy -167095.905159 kJ/mol
# GULP energy per Si atom -5569.863505 kJ/mol
# Density = 0.938070 g / cm^3
# Si number density = 9.402098 Si / 1000 Ang^3
#
#
#
# Elastic Constant Matrix: (Units=GPa)
#
#
# Indices 1 2 3 4 5 6 
#
# 1 119.7920 44.7971 17.3509 0.0000 -0.3001 0.0000
# 2 44.7971 143.0128 41.3620 0.0000 6.8483 0.0000
# 3 17.3509 41.3620 91.9122 0.0000 -5.5946 0.0000
# 4 0.0000 0.0000 0.0000 45.9454 0.0000 4.2368
# 5 -0.3001 6.8483 -5.5946 0.0000 31.5547 0.0000
# 6 0.0000 0.0000 0.0000 4.2368 0.0000 44.3949
#
#
#
# Elastic Compliance Matrix: (Units=1/GPa)
#
#
# Indices 1 2 3 4 5 6 
#
# 1 0.009489 -0.002869 -0.000462 0.000000 0.000631 0.000000
# 2 -0.002869 0.009092 -0.003712 0.000000 -0.002659 0.000000
# 3 -0.000462 -0.003712 0.012825 0.000000 0.003075 0.000000
# 4 0.000000 0.000000 0.000000 0.021958 0.000000 -0.002096
# 5 0.000631 -0.002659 0.003075 0.000000 0.032819 0.000000
# 6 0.000000 0.000000 0.000000 -0.002096 0.000000 0.022725
#
#
# Mechanical properties :
#
#
# Convention : Reuss Voigt Hill
#
# Bulk Modulus (GPa) = 57.73483 62.41521 60.07502
# Shear Modulus (GPa) = 38.82991 41.12614 39.97802
#
# Velocity S-wave (km/s) = 4.54911 4.68169 4.61588
# Velocity P-wave (km/s) = 7.63953 7.90497 7.77338
#
# Compressibility (1/GPa) = 0.01732057
#
# Stress axis : x y z
#
# Youngs Moduli (GPa) = 105.38335 109.98839 77.97504
#
# Poissons Ratio (x) = 0.31556 0.03601
# Poissons Ratio (y) = 0.30235 0.28942
# Poissons Ratio (z) = 0.04867 0.40824
#
# Static dielectric constant tensor:
#      x y z
#    x 1.670570 0.000000 0.032700 
#    y 0.000000 1.640830 0.000000 
#    z 0.032700 0.000000 1.702190 
# 
# From -- ./inp_files/69104.got.cif
#   From: 2010.05.17/outbox.ucp.g08.bks.cvg/sg15_35_cif.got.tgz:69104.got - 2010.06.11 12:40:34.
