data_PCOD9309448
_publ_section_title
;
Structure prediction by ZEFSAII (Michael W. Deem and Ramdas Pophale) SiO2 
 PCOD9309448
Probable space group: C 2/C
;
_chemical_formula_sum "Si O2"
_cell_formula_units_Z 32
_cell_length_a 15.000000
_cell_length_b 30.000000
_cell_length_c 9.000000
_cell_angle_alpha 90.000000
_cell_angle_beta 130.000000
_cell_angle_gamma 90.000000
_cell_volume 3102.479995
_symmetry_space_group_name_H-M "C 2/C"
_symmetry_group_IT_number 15
_symmetry_cell_setting 'monoclinic'
loop_
_space_group_symop_operation_xyz
x,y,z
-x,y,1/2-z
-x,-y,-z
x,-y,1/2+z
1/2+x,1/2+y,z
1/2-x,1/2+y,1/2-z
1/2-x,1/2-y,-z
1/2+x,1/2-y,1/2+z
loop_
_atom_site_type_symbol
_atom_site_label
_atom_site_fract_x
_atom_site_fract_y
_atom_site_fract_z
Si Si1 0.117124 0.467223 0.279918
Si Si2 0.525743 0.628395 0.057254
Si Si3 0.378944 0.937036 0.565912
Si Si4 0.342824 0.181412 0.704410
Si Si5 0.861231 0.208044 0.815597
Si Si6 0.781263 0.860734 0.977588
Si Si7 0.101122 0.692820 0.081014
Si Si8 0.683959 0.598163 0.500391
O O1 0.130509 0.519288 0.337401
O O2 0.239884 0.444756 0.458440
O O3 0.000000 0.452685 0.250000
O O4 0.109825 0.454739 0.094480
O O5 0.604300 0.624431 0.993775
O O6 0.613973 0.618441 0.286193
O O7 0.413831 0.596610 0.973815
O O8 0.466362 0.677658 0.994969
O O9 0.500000 0.915273 0.750000
O O10 0.277665 0.901381 0.493786
O O11 0.248909 0.210646 0.691414
O O12 0.357910 0.195392 0.548465
O O13 0.283740 0.133189 0.647948
O O14 0.466446 0.179174 0.918698
O O15 0.820440 0.179469 0.629079
O O16 0.897737 0.259090 0.836906
O O17 0.685326 0.840711 0.760138
#
# Coordination Sequence:
#
# PCOD9309448 Si02
#       8
#     8   8   8   8   8   8   8   8
#     4  11  25  44  76 106 141 174 221 282 340 415
#     4  10  23  43  71  95 134 188 228 284 333 406
#     4  11  26  44  71 109 139 176 222 279 346 411
#     4  10  23  41  65 100 130 179 230 287 338 408
#     4  11  25  44  64  96 136 181 237 284 339 404
#     4  12  26  45  71  98 142 182 227 284 352 406
#     4  11  25  40  68  98 134 181 231 288 344 401
#     4  10  22  42  73 101 135 180 232 273 344 404
#
# _framework density 10.314329000000001
#
# number of rings (size 3 to 8) (size 9 to 14) (size 15 to 20)
#    0.000    1.250    1.250    4.125   10.500    4.000 
#    2.250    0.625    5.500    0.000    0.000    0.000 
#    0.000    0.000    0.000    0.000    0.000    0.000 
#
# Total GULP energy -178707.553059 kJ/mol
# GULP energy per Si atom -5584.611033 kJ/mol
# Density = 1.029085 g / cm^3
# Si number density = 10.314329 Si / 1000 Ang^3
#
#
#
# Elastic Constant Matrix: (Units=GPa)
#
#
# Indices 1 2 3 4 5 6 
#
# 1 171.8016 53.4637 57.6301 0.0000 8.7588 0.0000
# 2 53.4637 68.2176 41.5625 0.0000 11.3904 0.0000
# 3 57.6301 41.5625 142.1137 0.0000 3.1872 0.0000
# 4 0.0000 0.0000 0.0000 27.6267 0.0000 0.7457
# 5 8.7588 11.3904 3.1872 0.0000 40.5702 0.0000
# 6 0.0000 0.0000 0.0000 0.7457 0.0000 22.9597
#
#
#
# Elastic Compliance Matrix: (Units=1/GPa)
#
#
# Indices 1 2 3 4 5 6 
#
# 1 0.008031 -0.005220 -0.001727 0.000000 -0.000133 0.000000
# 2 -0.005220 0.022133 -0.004250 0.000000 -0.004753 0.000000
# 3 -0.001727 -0.004250 0.008961 0.000000 0.000862 0.000000
# 4 0.000000 0.000000 0.000000 0.036229 0.000000 -0.001177
# 5 -0.000133 -0.004753 0.000862 0.000000 0.025944 0.000000
# 6 0.000000 0.000000 0.000000 -0.001177 0.000000 0.043593
#
#
# Mechanical properties :
#
#
# Convention : Reuss Voigt Hill
#
# Bulk Modulus (GPa) = 59.76870 76.38283 68.07577
# Shear Modulus (GPa) = 28.92518 33.52977 31.22748
#
# Velocity S-wave (km/s) = 3.74864 4.03600 3.89497
# Velocity P-wave (km/s) = 6.91179 7.66987 7.30068
#
# Compressibility (1/GPa) = 0.01673116
#
# Stress axis : x y z
#
# Youngs Moduli (GPa) = 124.51458 45.18240 111.60016
#
# Poissons Ratio (x) = 0.23584 0.19277
# Poissons Ratio (y) = 0.64993 0.47425
# Poissons Ratio (z) = 0.21507 0.19201
#
# Static dielectric constant tensor:
#      x y z
#    x 1.773290 0.000000 -0.007110 
#    y 0.000000 1.760020 0.000000 
#    z -0.007110 0.000000 1.774160 
# 
# From -- ./inp_files/44877.got.cif
#   From: 2010.05.17/outbox.ucp.g08.bks.cvg/sg15_23_cif.got.tgz:44877.got - 2010.06.11 12:40:34.
