data_PCOD9309056
_publ_section_title
;
Structure prediction by ZEFSAII (Michael W. Deem and Ramdas Pophale) SiO2 
 PCOD9309056
Probable space group: C 2/C
;
_chemical_formula_sum "Si O2"
_cell_formula_units_Z 28
_cell_length_a 21.000000
_cell_length_b 15.000000
_cell_length_c 9.000000
_cell_angle_alpha 90.000000
_cell_angle_beta 90.000000
_cell_angle_gamma 90.000000
_cell_volume 2835.000000
_symmetry_space_group_name_H-M "C 2/C"
_symmetry_group_IT_number 15
_symmetry_cell_setting 'monoclinic'
loop_
_space_group_symop_operation_xyz
x,y,z
-x,y,1/2-z
-x,-y,-z
x,-y,1/2+z
1/2+x,1/2+y,z
1/2-x,1/2+y,1/2-z
1/2-x,1/2-y,-z
1/2+x,1/2-y,1/2+z
loop_
_atom_site_type_symbol
_atom_site_label
_atom_site_fract_x
_atom_site_fract_y
_atom_site_fract_z
Si Si1 0.073903 0.337392 0.418182
Si Si2 0.000000 0.811627 0.750000
Si Si3 0.598989 0.699189 0.995765
Si Si4 0.901478 0.353212 0.747125
Si Si5 0.289786 0.422756 0.082063
Si Si6 0.500000 0.014819 0.750000
Si Si7 0.750431 0.394422 0.759180
Si Si8 0.309872 0.791766 0.262169
O O1 0.081191 0.318748 0.589968
O O2 0.143531 0.349651 0.343584
O O3 0.048842 0.249810 0.338504
O O4 0.022351 0.415141 0.379390
O O5 0.045539 0.842882 0.609327
O O6 0.580643 0.777500 0.875939
O O7 0.638822 0.619666 0.916204
O O8 0.648150 0.754759 0.100174
O O9 0.826511 0.377986 0.750049
O O10 0.940940 0.446058 0.743363
O O11 0.274609 0.522292 0.142228
O O12 0.245638 0.354350 0.174872
O O13 0.270307 0.416559 0.909387
O O14 0.719009 0.299457 0.806692
#
# Coordination Sequence:
#
# PCOD9309056 Si02
#       8
#     8   4   8   8   8   4   8   8
#     4  10  23  37  58  87 129 168 211 260 317 401
#     4   9  20  40  62  84 111 178 207 250 326 380
#     4  10  20  40  65  84 127 169 218 268 327 390
#     4  12  22  36  59  92 128 168 213 265 317 393
#     4  11  22  41  60  94 128 171 219 271 328 390
#     4  11  24  38  54  94 137 176 209 256 328 402
#     4  11  24  37  64  92 127 174 217 271 328 387
#     4  10  20  43  60  87 131 174 214 264 337 390
#
# _framework density 9.8765429999999999
#
# number of rings (size 3 to 8) (size 9 to 14) (size 15 to 20)
#    0.000    1.429    2.857    3.000    4.000    4.000 
#    0.000    0.000    0.000    7.714    0.000    7.000 
#    0.000    0.000    0.000    0.000    0.000    0.000 
#
# Total GULP energy -155971.325748 kJ/mol
# GULP energy per Si atom -5570.404491 kJ/mol
# Density = 0.985406 g / cm^3
# Si number density = 9.876543 Si / 1000 Ang^3
#
#
#
# Elastic Constant Matrix: (Units=GPa)
#
#
# Indices 1 2 3 4 5 6 
#
# 1 99.0207 23.9553 29.1423 0.0000 -14.4871 0.0000
# 2 23.9553 74.8675 25.8289 0.0000 3.8876 0.0000
# 3 29.1423 25.8289 84.4634 0.0000 0.5639 0.0000
# 4 0.0000 0.0000 0.0000 24.9484 0.0000 -8.0682
# 5 -14.4871 3.8876 0.5639 0.0000 30.2396 0.0000
# 6 0.0000 0.0000 0.0000 -8.0682 0.0000 38.1525
#
#
#
# Elastic Compliance Matrix: (Units=1/GPa)
#
#
# Indices 1 2 3 4 5 6 
#
# 1 0.012892 -0.003265 -0.003494 0.000000 0.006661 0.000000
# 2 -0.003265 0.015862 -0.003700 0.000000 -0.003535 0.000000
# 3 -0.003494 -0.003700 0.014186 0.000000 -0.001463 0.000000
# 4 0.000000 0.000000 0.000000 0.043025 0.000000 0.009099
# 5 0.006661 -0.003535 -0.001463 0.000000 0.036742 0.000000
# 6 0.000000 0.000000 0.000000 0.009099 0.000000 0.028135
#
#
# Mechanical properties :
#
#
# Convention : Reuss Voigt Hill
#
# Bulk Modulus (GPa) = 45.41211 46.24494 45.82853
# Shear Modulus (GPa) = 27.91716 30.62978 29.27347
#
# Velocity S-wave (km/s) = 3.76347 3.94208 3.85381
# Velocity P-wave (km/s) = 6.47493 6.64698 6.56152
#
# Compressibility (1/GPa) = 0.02202056
#
# Stress axis : x y z
#
# Youngs Moduli (GPa) = 77.56923 63.04417 70.49073
#
# Poissons Ratio (x) = 0.20587 0.24629
# Poissons Ratio (y) = 0.25330 0.26084
# Poissons Ratio (z) = 0.27102 0.23328
#
# Static dielectric constant tensor:
#      x y z
#    x 1.783900 0.000000 -0.029650 
#    y 0.000000 1.680760 0.000000 
#    z -0.029650 0.000000 1.739000 
# 
# From -- ./inp_files/55679.got.cif
#   From: 2010.05.17/outbox.ucp.g08.bks.cvg/sg15_28_cif.got.tgz:55679.got - 2010.06.11 12:40:34.
