data_PCOD9309194
_publ_section_title
;
Structure prediction by ZEFSAII (Michael W. Deem and Ramdas Pophale) SiO2 
 PCOD9309194
Probable space group: C 2/C
;
_chemical_formula_sum "Si O2"
_cell_formula_units_Z 16
_cell_length_a 15.000000
_cell_length_b 21.000000
_cell_length_c 15.000000
_cell_angle_alpha 90.000000
_cell_angle_beta 20.000000
_cell_angle_gamma 90.000000
_cell_volume 1616.045177
_symmetry_space_group_name_H-M "C 2/C"
_symmetry_group_IT_number 15
_symmetry_cell_setting 'monoclinic'
loop_
_space_group_symop_operation_xyz
x,y,z
-x,y,1/2-z
-x,-y,-z
x,-y,1/2+z
1/2+x,1/2+y,z
1/2-x,1/2+y,1/2-z
1/2-x,1/2-y,-z
1/2+x,1/2-y,1/2+z
loop_
_atom_site_type_symbol
_atom_site_label
_atom_site_fract_x
_atom_site_fract_y
_atom_site_fract_z
Si Si1 0.230782 0.125032 0.455432
Si Si2 0.118092 0.794364 0.882863
Si Si3 0.925875 0.485656 0.217579
Si Si4 0.430529 0.589350 0.207353
O O1 0.500000 0.147617 0.250000
O O2 0.155004 0.170501 0.444344
O O3 0.319560 0.058014 0.324981
O O4 0.000000 0.117607 0.750000
O O5 0.350786 0.745083 0.643344
O O6 0.119683 0.845848 0.800161
O O7 0.682128 0.441728 0.424364
O O8 0.000000 0.471967 0.250000
O O9 0.188617 0.460705 0.922942
O O10 0.500000 0.597518 0.250000
#
# Coordination Sequence:
#
# PCOD9309194 Si02
#       4
#     8   8   8   8
#     4  11  23  41  65  91 123 159 199 256 310 356
#     4  12  27  42  59  89 124 167 217 244 283 363
#     4   9  18  36  63  93 119 149 195 248 314 372
#     4  10  21  39  64  91 123 156 194 253 310 359
#
# _framework density 9.9007129999999997
#
# number of rings (size 3 to 8) (size 9 to 14) (size 15 to 20)
#    0.000    1.500    0.000    6.750    0.000    6.000 
#    0.000    0.000    0.000    4.500    0.000    0.000 
#    0.000    0.000    0.000    0.000    0.000    0.000 
#
# Total GULP energy -89216.742050 kJ/mol
# GULP energy per Si atom -5576.046378 kJ/mol
# Density = 0.987818 g / cm^3
# Si number density = 9.900713 Si / 1000 Ang^3
#
#
#
# Elastic Constant Matrix: (Units=GPa)
#
#
# Indices 1 2 3 4 5 6 
#
# 1 56.6840 19.6076 14.5123 0.1000 4.2066 0.0146
# 2 19.6076 57.6289 32.5629 0.0305 -0.7832 0.0449
# 3 14.5123 32.5629 139.5721 0.2543 -8.5655 -0.1000
# 4 0.1000 0.0305 0.2543 43.1976 -0.1293 -11.0842
# 5 4.2066 -0.7832 -8.5655 -0.1293 29.0265 -0.0077
# 6 0.0146 0.0449 -0.1000 -11.0842 -0.0077 56.4328
#
#
#
# Elastic Compliance Matrix: (Units=1/GPa)
#
#
# Indices 1 2 3 4 5 6 
#
# 1 0.020351 -0.006517 -0.000802 -0.000051 -0.003362 -0.000012
# 2 -0.006517 0.022095 -0.004464 0.000021 0.000224 -0.000020
# 3 -0.000802 -0.004464 0.008442 -0.000034 0.002487 0.000012
# 4 -0.000051 0.000021 -0.000034 0.024379 0.000108 0.004788
# 5 -0.003362 0.000224 0.002487 0.000108 0.035679 0.000031
# 6 -0.000012 -0.000020 0.000012 0.004788 0.000031 0.018661
#
#
# Mechanical properties :
#
#
# Convention : Reuss Voigt Hill
#
# Bulk Modulus (GPa) = 36.59856 43.02782 39.81319
# Shear Modulus (GPa) = 30.81129 38.21152 34.51140
#
# Velocity S-wave (km/s) = 3.94891 4.39764 4.17930
# Velocity P-wave (km/s) = 6.27015 6.89656 6.59080
#
# Compressibility (1/GPa) = 0.02732348
#
# Stress axis : x y z
#
# Youngs Moduli (GPa) = 49.13823 45.25950 118.45256
#
# Poissons Ratio (x) = 0.29494 0.09498
# Poissons Ratio (y) = 0.32022 0.52872
# Poissons Ratio (z) = 0.03940 0.20202
#
# Static dielectric constant tensor:
#      x y z
#    x 1.709230 -0.000070 -0.020690 
#    y -0.000070 1.713900 0.000130 
#    z -0.020690 0.000130 1.725770 
# 
# From -- ./inp_files/6412.got.cif
#   From: 2010.05.17/outbox.ucp.g08.bks.cvg/sg15_4_cif.got.tgz:6412.got - 2010.06.11 12:40:34.
