data_PCOD9309413
_publ_section_title
;
Structure prediction by ZEFSAII (Michael W. Deem and Ramdas Pophale) SiO2 
 PCOD9309413
Probable space group: C 2/C
;
_chemical_formula_sum "Si O2"
_cell_formula_units_Z 32
_cell_length_a 30.000000
_cell_length_b 9.000000
_cell_length_c 24.000000
_cell_angle_alpha 90.000000
_cell_angle_beta 150.000000
_cell_angle_gamma 90.000000
_cell_volume 3240.000000
_symmetry_space_group_name_H-M "C 2/C"
_symmetry_group_IT_number 15
_symmetry_cell_setting 'monoclinic'
loop_
_space_group_symop_operation_xyz
x,y,z
-x,y,1/2-z
-x,-y,-z
x,-y,1/2+z
1/2+x,1/2+y,z
1/2-x,1/2+y,1/2-z
1/2-x,1/2-y,-z
1/2+x,1/2-y,1/2+z
loop_
_atom_site_type_symbol
_atom_site_label
_atom_site_fract_x
_atom_site_fract_y
_atom_site_fract_z
Si Si1 0.452117 0.565482 0.258302
Si Si2 0.720279 0.040291 0.414958
Si Si3 0.879018 0.304596 0.260935
Si Si4 0.368823 0.521352 0.492638
Si Si5 0.823759 0.644164 0.910970
Si Si6 0.052060 0.418705 0.505369
Si Si7 0.278914 0.604237 0.591964
Si Si8 0.724819 0.292156 0.187291
O O1 0.500000 0.590996 0.250000
O O2 0.395454 0.697216 0.226019
O O3 0.530981 0.521836 0.385794
O O4 0.378678 0.436155 0.180996
O O5 0.811868 0.981944 0.486427
O O6 0.723031 0.217433 0.412266
O O7 0.718303 0.021945 0.479508
O O8 0.648447 0.960813 0.297843
O O9 0.802315 0.259191 0.223712
O O10 0.974107 0.320274 0.394156
O O11 0.354830 0.694317 0.465179
O O12 0.327198 0.430199 0.396565
O O13 0.758110 0.572258 0.886257
O O14 0.774135 0.665294 0.797974
O O15 0.910967 0.544855 0.995904
O O16 0.145183 0.326278 0.615329
O O17 0.000000 0.500000 0.500000
#
# Coordination Sequence:
#
# PCOD9309413 Si02
#       8
#     8   8   8   8   8   8   8   8
#     4  12  24  42  64  99 133 176 224 276 330 401
#     4   9  21  43  65  92 128 173 215 269 333 390
#     4  11  25  44  69  96 136 182 222 282 337 398
#     4  10  22  42  65  94 131 171 216 271 329 397
#     4  11  24  40  70  97 132 178 216 278 338 399
#     4  12  25  43  66 100 133 172 229 276 333 402
#     4  10  22  41  67  97 131 171 217 271 339 397
#     4  11  23  47  68  96 136 174 226 279 340 404
#
# _framework density 9.8765429999999999
#
# number of rings (size 3 to 8) (size 9 to 14) (size 15 to 20)
#    0.000    1.250    3.750    1.500    5.250    1.500 
#    0.000    2.500    0.000    0.000    0.000    0.000 
#    0.000    0.000    0.000    0.000    0.000    0.000 
#
# Total GULP energy -178276.694006 kJ/mol
# GULP energy per Si atom -5571.146688 kJ/mol
# Density = 0.985406 g / cm^3
# Si number density = 9.876543 Si / 1000 Ang^3
#
#
#
# Elastic Constant Matrix: (Units=GPa)
#
#
# Indices 1 2 3 4 5 6 
#
# 1 167.2845 23.4633 29.8006 0.0000 1.4807 0.0000
# 2 23.4633 28.7323 -0.7076 0.0000 -0.7396 0.0000
# 3 29.8006 -0.7076 76.1899 0.0000 6.3814 0.0000
# 4 0.0000 0.0000 0.0000 29.2451 0.0000 5.7950
# 5 1.4807 -0.7396 6.3814 0.0000 36.7024 0.0000
# 6 0.0000 0.0000 0.0000 5.7950 0.0000 32.6670
#
#
#
# Elastic Compliance Matrix: (Units=1/GPa)
#
#
# Indices 1 2 3 4 5 6 
#
# 1 0.007353 -0.006074 -0.002940 0.000000 0.000092 0.000000
# 2 -0.006074 0.039846 0.002697 0.000000 0.000579 0.000000
# 3 -0.002940 0.002697 0.014497 0.000000 -0.002348 0.000000
# 4 0.000000 0.000000 0.000000 0.035439 0.000000 -0.006287
# 5 0.000092 0.000579 -0.002348 0.000000 0.027662 0.000000
# 6 0.000000 0.000000 0.000000 -0.006287 0.000000 0.031727
#
#
# Mechanical properties :
#
#
# Convention : Reuss Voigt Hill
#
# Bulk Modulus (GPa) = 20.38266 41.92438 31.15352
# Shear Modulus (GPa) = 26.95241 34.36626 30.65933
#
# Velocity S-wave (km/s) = 3.69787 4.17561 3.94398
# Velocity P-wave (km/s) = 5.34542 6.67217 6.04530
#
# Compressibility (1/GPa) = 0.04906132
#
# Stress axis : x y z
#
# Youngs Moduli (GPa) = 136.00298 25.09672 68.98104
#
# Poissons Ratio (x) = 0.15245 0.20281
# Poissons Ratio (y) = 0.82614 -0.18608
# Poissons Ratio (z) = 0.39986 -0.06770
#
# Static dielectric constant tensor:
#      x y z
#    x 1.699290 0.000000 -0.032880 
#    y 0.000000 1.739400 0.000000 
#    z -0.032880 0.000000 1.705880 
# 
# From -- ./inp_files/284443.got.cif
#   From: 2010.05.17/outbox.ucp.g08.bks.cvg/sg15_143_cif.got.tgz:284443.got - 2010.06.11 12:40:34.
