data_PCOD9309238
_publ_section_title
;
Structure prediction by ZEFSAII (Michael W. Deem and Ramdas Pophale) SiO2 
 PCOD9309238
Probable space group: C 2/C
;
_chemical_formula_sum "Si O2"
_cell_formula_units_Z 28
_cell_length_a 15.000000
_cell_length_b 24.000000
_cell_length_c 9.000000
_cell_angle_alpha 90.000000
_cell_angle_beta 60.000000
_cell_angle_gamma 90.000000
_cell_volume 2805.922308
_symmetry_space_group_name_H-M "C 2/C"
_symmetry_group_IT_number 15
_symmetry_cell_setting 'monoclinic'
loop_
_space_group_symop_operation_xyz
x,y,z
-x,y,1/2-z
-x,-y,-z
x,-y,1/2+z
1/2+x,1/2+y,z
1/2-x,1/2+y,1/2-z
1/2-x,1/2-y,-z
1/2+x,1/2-y,1/2+z
loop_
_atom_site_type_symbol
_atom_site_label
_atom_site_fract_x
_atom_site_fract_y
_atom_site_fract_z
Si Si1 0.731147 0.033394 0.908055
Si Si2 0.389440 0.255681 0.400250
Si Si3 0.254016 0.247423 0.757657
Si Si4 0.730174 0.655342 0.012781
Si Si5 0.900876 0.059644 0.243888
Si Si6 0.396026 0.610728 0.923824
Si Si7 0.380571 0.940603 0.305499
O O1 0.794928 0.082297 0.936209
O O2 0.659151 0.053778 0.832278
O O3 0.820150 0.989996 0.782713
O O4 0.666043 0.995388 0.075300
O O5 0.500000 0.239483 0.250000
O O6 0.360085 0.231741 0.585834
O O7 0.315804 0.239035 0.325855
O O8 0.384342 0.322577 0.426151
O O9 0.213539 0.194710 0.884008
O O10 0.262854 0.300602 0.857745
O O11 0.830122 0.616551 0.909270
O O12 0.643951 0.608968 0.114353
O O13 0.000000 0.038105 0.250000
O O14 0.915221 0.088550 0.073485
O O15 0.500000 0.596685 0.750000
O O16 0.500000 0.939654 0.250000
#
# Coordination Sequence:
#
# PCOD9309238 Si02
#       7
#     8   8   8   8   8   8   8
#     4  11  23  42  64  88 129 163 202 260 313 373
#     4  10  22  38  61  91 123 155 205 250 309 370
#     4  10  21  41  62  87 122 165 201 255 312 366
#     4  10  23  40  63  87 124 162 207 257 309 365
#     4  11  24  39  61  96 128 161 205 253 318 387
#     4  11  23  38  63  94 128 161 202 253 322 385
#     4  11  24  42  63  90 120 165 219 257 305 361
#
# _framework density 9.9788940000000004
#
# number of rings (size 3 to 8) (size 9 to 14) (size 15 to 20)
#    0.000    1.429    2.857    1.714    8.000    2.286 
#    0.000    2.857    0.000    1.714    0.000    0.000 
#    0.000    0.000    0.000    0.000    0.000    0.000 
#
# Total GULP energy -156292.517890 kJ/mol
# GULP energy per Si atom -5581.875639 kJ/mol
# Density = 0.995618 g / cm^3
# Si number density = 9.978894 Si / 1000 Ang^3
#
#
#
# Elastic Constant Matrix: (Units=GPa)
#
#
# Indices 1 2 3 4 5 6 
#
# 1 110.3054 -2.4448 31.4981 0.0000 9.7162 0.0000
# 2 -2.4448 24.4166 5.9189 0.0000 1.2098 0.0000
# 3 31.4981 5.9189 88.7127 0.0000 12.6473 0.0000
# 4 0.0000 0.0000 0.0000 -26.4799 0.0000 0.6977
# 5 9.7162 1.2098 12.6473 0.0000 29.4938 0.0000
# 6 0.0000 0.0000 0.0000 0.6977 0.0000 22.8657
#
#
#
# Elastic Compliance Matrix: (Units=1/GPa)
#
#
# Indices 1 2 3 4 5 6 
#
# 1 0.010283 0.001976 -0.003503 0.000000 -0.001967 0.000000
# 2 0.001976 0.042017 -0.003373 0.000000 -0.000928 0.000000
# 3 -0.003503 -0.003373 0.013374 0.000000 -0.004443 0.000000
# 4 0.000000 0.000000 0.000000 -0.037734 0.000000 0.001151
# 5 -0.001967 -0.000928 -0.004443 0.000000 0.036497 0.000000
# 6 0.000000 0.000000 0.000000 0.001151 0.000000 0.043698
#
#
# Mechanical properties :
#
#
# Convention : Reuss Voigt Hill
#
# Bulk Modulus (GPa) = 17.89670 32.59771 25.24720
# Shear Modulus (GPa) = 36.61420 17.74007 27.17713
#
# Velocity S-wave (km/s) = 4.28785 2.98464 3.69417
# Velocity P-wave (km/s) = 5.78800 5.31472 5.55640
#
# Compressibility (1/GPa) = 0.05587623
#
# Stress axis : x y z
#
# Youngs Moduli (GPa) = 97.24865 23.79980 74.76986
#
# Poissons Ratio (x) = -0.04703 0.26188
# Poissons Ratio (y) = -0.19217 0.25218
# Poissons Ratio (z) = 0.34061 0.08027
#
# Static dielectric constant tensor:
#      x y z
#    x 1.713640 0.000000 -0.065740 
#    y 0.000000 1.674070 0.000000 
#    z -0.065740 0.000000 1.785160 
# 
# From -- ./inp_files/42530.got.cif
#   From: 2010.05.17/outbox.ucp.g08.bks.cvg/sg15_22_cif.got.tgz:42530.got - 2010.06.11 12:40:34.
