data_PCOD9309139
_publ_section_title
;
Structure prediction by ZEFSAII (Michael W. Deem and Ramdas Pophale) SiO2 
 PCOD9309139
Probable space group: C 2/C
;
_chemical_formula_sum "Si O2"
_cell_formula_units_Z 28
_cell_length_a 18.000000
_cell_length_b 18.000000
_cell_length_c 9.000000
_cell_angle_alpha 90.000000
_cell_angle_beta 70.000000
_cell_angle_gamma 90.000000
_cell_volume 2740.143682
_symmetry_space_group_name_H-M "C 2/C"
_symmetry_group_IT_number 15
_symmetry_cell_setting 'monoclinic'
loop_
_space_group_symop_operation_xyz
x,y,z
-x,y,1/2-z
-x,-y,-z
x,-y,1/2+z
1/2+x,1/2+y,z
1/2-x,1/2+y,1/2-z
1/2-x,1/2-y,-z
1/2+x,1/2-y,1/2+z
loop_
_atom_site_type_symbol
_atom_site_label
_atom_site_fract_x
_atom_site_fract_y
_atom_site_fract_z
Si Si1 0.225743 0.093600 0.690532
Si Si2 0.128010 0.778670 0.261372
Si Si3 0.647323 0.776903 0.419197
Si Si4 0.729238 0.966200 0.026587
Si Si5 0.445722 0.953625 0.427071
Si Si6 0.243209 0.192799 0.140456
Si Si7 0.488859 0.831686 0.588304
O O1 0.146967 0.137311 0.787976
O O2 0.282773 0.162916 0.614141
O O3 0.260226 0.051443 0.808519
O O4 0.219940 0.035592 0.562577
O O5 0.189555 0.720366 0.291755
O O6 0.044147 0.750660 0.373412
O O7 0.135132 0.765002 0.081704
O O8 0.664196 0.717379 0.280578
O O9 0.570949 0.827561 0.447621
O O10 0.637918 0.987463 0.059158
O O11 0.750153 0.890786 0.922280
O O12 0.500000 0.938347 0.250000
O O13 0.430158 0.879912 0.531630
O O14 0.500000 0.000000 0.500000
O O15 0.250000 0.250000 0.000000
O O16 0.500000 0.860975 0.750000
#
# Coordination Sequence:
#
# PCOD9309139 Si02
#       7
#     8   8   8   8   8   8   8
#     4  11  24  38  57  89 119 153 203 242 293 352
#     4  10  21  39  60  84 117 154 200 247 286 353
#     4  10  21  38  60  88 116 152 198 241 294 355
#     4  12  24  37  58  83 121 160 193 240 299 344
#     4  12  24  37  54  85 126 161 191 232 291 368
#     4  11  20  37  58  84 116 152 200 248 285 347
#     4  10  21  37  60  85 115 156 193 240 296 350
#
# _framework density 10.218442
#
# number of rings (size 3 to 8) (size 9 to 14) (size 15 to 20)
#    0.000    1.143    4.286    4.714    4.000    1.143 
#    0.000    0.000    0.000    0.857    0.000    0.000 
#    0.000    0.000    0.000    0.000    0.000    0.000 
#
# Total GULP energy -156112.950560 kJ/mol
# GULP energy per Si atom -5575.462520 kJ/mol
# Density = 1.019518 g / cm^3
# Si number density = 10.218442 Si / 1000 Ang^3
#
#
#
# Elastic Constant Matrix: (Units=GPa)
#
#
# Indices 1 2 3 4 5 6 
#
# 1 25.2295 14.0227 22.5886 0.0000 6.6678 0.0000
# 2 14.0227 70.5281 12.5630 0.0000 -14.8580 0.0000
# 3 22.5886 12.5630 62.8269 0.0000 -2.2280 0.0000
# 4 0.0000 0.0000 0.0000 22.5479 0.0000 0.0543
# 5 6.6678 -14.8580 -2.2280 0.0000 16.3599 0.0000
# 6 0.0000 0.0000 0.0000 0.0543 0.0000 21.3918
#
#
#
# Elastic Compliance Matrix: (Units=1/GPa)
#
#
# Indices 1 2 3 4 5 6 
#
# 1 0.111352 -0.032479 -0.036372 0.000000 -0.079834 0.000000
# 2 -0.032479 0.027571 0.007558 0.000000 0.039306 0.000000
# 3 -0.036372 0.007558 0.028389 0.000000 0.025554 0.000000
# 4 0.000000 0.000000 0.000000 0.044350 0.000000 -0.000113
# 5 -0.079834 0.039306 0.025554 0.000000 0.132841 0.000000
# 6 0.000000 0.000000 0.000000 -0.000113 0.000000 0.046747
#
#
# Mechanical properties :
#
#
# Convention : Reuss Voigt Hill
#
# Bulk Modulus (GPa) = 22.35837 28.54812 25.45325
# Shear Modulus (GPa) = 9.45639 19.35395 14.40517
#
# Velocity S-wave (km/s) = 2.15341 3.08069 2.65780
# Velocity P-wave (km/s) = 4.14087 5.16270 4.67976
#
# Compressibility (1/GPa) = 0.04472597
#
# Stress axis : x y z
#
# Youngs Moduli (GPa) = 8.98055 36.27048 35.22546
#
# Poissons Ratio (x) = 1.17803 1.28121
# Poissons Ratio (y) = 0.29168 -0.26624
# Poissons Ratio (z) = 0.32664 -0.27414
#
# Static dielectric constant tensor:
#      x y z
#    x 1.840680 0.000000 -0.004940 
#    y 0.000000 1.542190 0.000000 
#    z -0.004940 0.000000 1.740670 
# 
# From -- ./inp_files/49024.got.cif
#   From: 2010.05.17/outbox.ucp.g08.bks.cvg/sg15_25_cif.got.tgz:49024.got - 2010.06.11 12:40:34.
