data_PCOD9309749
_publ_section_title
;
Structure prediction by ZEFSAII (Michael W. Deem and Ramdas Pophale) SiO2 
 PCOD9309749
Probable space group: C 2/C
;
_chemical_formula_sum "Si O2"
_cell_formula_units_Z 30
_cell_length_a 21.000000
_cell_length_b 21.000000
_cell_length_c 15.000000
_cell_angle_alpha 90.000000
_cell_angle_beta 30.000000
_cell_angle_gamma 90.000000
_cell_volume 3307.500000
_symmetry_space_group_name_H-M "C 2/C"
_symmetry_group_IT_number 15
_symmetry_cell_setting 'monoclinic'
loop_
_space_group_symop_operation_xyz
x,y,z
-x,y,1/2-z
-x,-y,-z
x,-y,1/2+z
1/2+x,1/2+y,z
1/2-x,1/2+y,1/2-z
1/2-x,1/2-y,-z
1/2+x,1/2-y,1/2+z
loop_
_atom_site_type_symbol
_atom_site_label
_atom_site_fract_x
_atom_site_fract_y
_atom_site_fract_z
Si Si1 0.834801 0.623375 0.054679
Si Si2 0.600393 0.876413 0.812972
Si Si3 0.088112 0.735657 0.001014
Si Si4 0.500000 0.233510 0.750000
Si Si5 0.413414 0.029135 0.444341
Si Si6 0.193902 0.137145 0.728550
Si Si7 0.054825 0.178486 0.365650
Si Si8 0.634945 0.653198 0.592886
O O1 0.871831 0.633987 0.114891
O O2 0.683995 0.634802 0.214173
O O3 0.878098 0.547658 0.988796
O O4 0.902591 0.680826 0.914110
O O5 0.508106 0.937431 0.904030
O O6 0.739317 0.880569 0.598411
O O7 0.530127 0.814523 0.853743
O O8 0.211358 0.690840 0.849380
O O9 0.075378 0.772324 0.922846
O O10 0.109325 0.784744 0.058800
O O11 0.462132 0.281450 0.709660
O O12 0.500000 0.039287 0.250000
O O13 0.282572 0.072674 0.609379
O O14 0.155911 0.160389 0.674097
O O15 0.071190 0.139048 0.944954
O O16 0.500000 0.616515 0.750000
#
# Coordination Sequence:
#
# PCOD9309749 Si02
#       8
#     8   8   8   4   8   8   8   8
#     4  12  24  45  71  95 130 178 231 281 327 401
#     4  11  23  40  63  98 134 173 223 273 331 401
#     4  11  22  35  63  94 133 173 209 267 336 403
#     4  12  26  46  70  98 136 176 234 288 336 398
#     4  11  24  44  69  96 131 180 227 273 328 400
#     4  11  24  40  64  96 140 173 219 274 339 411
#     4  12  24  44  66 100 134 173 225 283 347 393
#     4  12  22  33  61  98 136 174 210 270 341 405
#
# _framework density 9.0702949999999998
#
# number of rings (size 3 to 8) (size 9 to 14) (size 15 to 20)
#    0.000    0.533    6.000    2.800    1.867    0.533 
#    0.000    0.000    1.467    0.000    0.000    0.000 
#    0.000    0.000    0.000    0.000    0.000    0.000 
#
# Total GULP energy -167033.201167 kJ/mol
# GULP energy per Si atom -5567.773372 kJ/mol
# Density = 0.904965 g / cm^3
# Si number density = 9.070295 Si / 1000 Ang^3
#
#
#
# Elastic Constant Matrix: (Units=GPa)
#
#
# Indices 1 2 3 4 5 6 
#
# 1 127.2297 39.2183 52.7265 -0.0002 1.3937 0.0001
# 2 39.2183 111.7932 42.6236 -0.0002 -6.9445 0.0002
# 3 52.7265 42.6236 153.0192 -0.0005 -13.9478 0.0004
# 4 -0.0002 -0.0002 -0.0005 31.2978 0.0003 0.9768
# 5 1.3937 -6.9445 -13.9478 0.0003 44.1321 -0.0002
# 6 0.0001 0.0002 0.0004 0.9768 -0.0002 34.1891
#
#
#
# Elastic Compliance Matrix: (Units=1/GPa)
#
#
# Indices 1 2 3 4 5 6 
#
# 1 0.009813 -0.002458 -0.002842 0.000000 -0.001595 0.000000
# 2 -0.002458 0.010646 -0.002017 0.000000 0.001115 0.000000
# 3 -0.002842 -0.002017 0.008294 0.000000 0.002394 0.000000
# 4 0.000000 0.000000 0.000000 0.031980 0.000000 -0.000914
# 5 -0.001595 0.001115 0.002394 0.000000 0.023642 0.000000
# 6 0.000000 0.000000 0.000000 -0.000914 0.000000 0.029275
#
#
# Mechanical properties :
#
#
# Convention : Reuss Voigt Hill
#
# Bulk Modulus (GPa) = 70.82426 73.46431 72.14429
# Shear Modulus (GPa) = 37.59720 39.08873 38.34296
#
# Velocity S-wave (km/s) = 4.55746 4.64698 4.60244
# Velocity P-wave (km/s) = 8.17438 8.32933 8.25222
#
# Compressibility (1/GPa) = 0.01411946
#
# Stress axis : x y z
#
# Youngs Moduli (GPa) = 101.90916 93.93584 120.56428
#
# Poissons Ratio (x) = 0.23089 0.34263
# Poissons Ratio (y) = 0.25048 0.24315
# Poissons Ratio (z) = 0.28962 0.18944
#
# Static dielectric constant tensor:
#      x y z
#    x 1.651320 0.000000 -0.012740 
#    y 0.000000 1.644840 0.000000 
#    z -0.012740 0.000000 1.682500 
# 
# From -- ./inp_files/169463.got.cif
#   From: 2010.05.17/outbox.ucp.g08.bks.cvg/sg15_85_cif.got.tgz:169463.got - 2010.06.11 12:40:34.
