data_PCOD9309764
_publ_section_title
;
Structure prediction by ZEFSAII (Michael W. Deem and Ramdas Pophale) SiO2 
 PCOD9309764
Probable space group: C 2/C
;
_chemical_formula_sum "Si O2"
_cell_formula_units_Z 24
_cell_length_a 21.000000
_cell_length_b 18.000000
_cell_length_c 18.000000
_cell_angle_alpha 90.000000
_cell_angle_beta 20.000000
_cell_angle_gamma 90.000000
_cell_volume 2327.105055
_symmetry_space_group_name_H-M "C 2/C"
_symmetry_group_IT_number 15
_symmetry_cell_setting 'monoclinic'
loop_
_space_group_symop_operation_xyz
x,y,z
-x,y,1/2-z
-x,-y,-z
x,-y,1/2+z
1/2+x,1/2+y,z
1/2-x,1/2+y,1/2-z
1/2-x,1/2-y,-z
1/2+x,1/2-y,1/2+z
loop_
_atom_site_type_symbol
_atom_site_label
_atom_site_fract_x
_atom_site_fract_y
_atom_site_fract_z
Si Si1 0.154401 0.430906 0.512574
Si Si2 0.496772 0.813630 0.406830
Si Si3 0.472573 0.360736 0.428231
Si Si4 0.335221 0.424902 0.739000
Si Si5 0.941216 0.686801 0.142998
Si Si6 0.413147 0.653079 0.427091
O O1 0.366030 0.400823 0.297206
O O2 0.211934 0.502109 0.396899
O O3 0.066267 0.364757 0.558986
O O4 0.000000 0.444465 0.750000
O O5 0.314427 0.859278 0.584449
O O6 0.504246 0.819936 0.487997
O O7 0.467350 0.730062 0.409650
O O8 0.689941 0.846843 0.165561
O O9 0.425587 0.407819 0.557157
O O10 0.267800 0.345349 0.619510
O O11 0.546055 0.275845 0.359635
O O12 0.501283 0.412381 0.616067
O O13 0.500000 0.651881 0.250000
#
# Coordination Sequence:
#
# PCOD9309764 Si02
#       6
#     8   8   8   8   8   8
#     4  12  29  46  69 104 149 183 233 302 363 413
#     4  11  22  40  70 101 137 182 239 290 340 423
#     4  11  22  46  77 100 134 184 242 293 349 421
#     4  11  26  44  69 101 146 186 229 294 353 431
#     4  11  22  45  76 102 131 183 247 292 343 420
#     4  12  23  36  66 103 142 191 232 279 354 422
#
# _framework density 10.313243
#
# number of rings (size 3 to 8) (size 9 to 14) (size 15 to 20)
#    0.000    0.667    5.000    3.000    2.333    5.333 
#    0.000    0.000    0.000    0.000    0.000    0.000 
#    0.000    0.000    0.000    0.000    0.000    0.000 
#
# Total GULP energy -133927.157844 kJ/mol
# GULP energy per Si atom -5580.298244 kJ/mol
# Density = 1.028977 g / cm^3
# Si number density = 10.313243 Si / 1000 Ang^3
#
#
#
# Elastic Constant Matrix: (Units=GPa)
#
#
# Indices 1 2 3 4 5 6 
#
# 1 39.1300 4.8775 10.6827 0.0105 0.3569 -0.0090
# 2 4.8775 90.2555 13.4259 -0.0029 10.7582 -0.0148
# 3 10.6827 13.4259 163.2656 0.0155 -0.3348 -0.0166
# 4 0.0105 -0.0029 0.0155 38.4067 -0.0098 1.2556
# 5 0.3569 10.7582 -0.3348 -0.0098 29.7318 0.0106
# 6 -0.0090 -0.0148 -0.0166 1.2556 0.0106 20.4041
#
#
#
# Elastic Compliance Matrix: (Units=1/GPa)
#
#
# Indices 1 2 3 4 5 6 
#
# 1 0.026143 -0.001184 -0.001613 -0.000007 0.000097 0.000010
# 2 -0.001184 0.011785 -0.000900 0.000000 -0.004260 0.000009
# 3 -0.001613 -0.000900 0.006305 -0.000002 0.000416 0.000004
# 4 -0.000007 0.000000 -0.000002 0.026090 0.000009 -0.001605
# 5 0.000097 -0.004260 0.000416 0.000009 0.035179 -0.000022
# 6 0.000010 0.000009 0.000004 -0.001605 -0.000022 0.049109
#
#
# Mechanical properties :
#
#
# Convention : Reuss Voigt Hill
#
# Bulk Modulus (GPa) = 27.14565 38.95815 33.05190
# Shear Modulus (GPa) = 28.68846 35.28619 31.98732
#
# Velocity S-wave (km/s) = 3.73346 4.14057 3.94228
# Velocity P-wave (km/s) = 5.63686 6.46433 6.06472
#
# Compressibility (1/GPa) = 0.03683832
#
# Stress axis : x y z
#
# Youngs Moduli (GPa) = 38.25122 84.85062 158.59364
#
# Poissons Ratio (x) = 0.10049 0.25581
# Poissons Ratio (y) = 0.04530 0.14280
# Poissons Ratio (z) = 0.06170 0.07640
#
# Static dielectric constant tensor:
#      x y z
#    x 1.736630 -0.000010 -0.015750 
#    y -0.000010 1.759770 0.000020 
#    z -0.015750 0.000020 1.738480 
# 
# From -- ./inp_files/216238.got.cif
#   From: 2010.05.17/outbox.ucp.g08.bks.cvg/sg15_109_cif.got.tgz:216238.got - 2010.06.11 12:40:34.
