data_PCOD9309719
_publ_section_title
;
Structure prediction by ZEFSAII (Michael W. Deem and Ramdas Pophale) SiO2 
 PCOD9309719
Probable space group: C 2/C
;
_chemical_formula_sum "Si O2"
_cell_formula_units_Z 26
_cell_length_a 18.000000
_cell_length_b 9.000000
_cell_length_c 18.000000
_cell_angle_alpha 90.000000
_cell_angle_beta 100.000000
_cell_angle_gamma 90.000000
_cell_volume 2871.699408
_symmetry_space_group_name_H-M "C 2/C"
_symmetry_group_IT_number 15
_symmetry_cell_setting 'monoclinic'
loop_
_space_group_symop_operation_xyz
x,y,z
-x,y,1/2-z
-x,-y,-z
x,-y,1/2+z
1/2+x,1/2+y,z
1/2-x,1/2+y,1/2-z
1/2-x,1/2-y,-z
1/2+x,1/2-y,1/2+z
loop_
_atom_site_type_symbol
_atom_site_label
_atom_site_fract_x
_atom_site_fract_y
_atom_site_fract_z
Si Si1 0.710828 0.629490 0.369738
Si Si2 0.294522 0.800061 0.741268
Si Si3 0.000000 0.607235 0.750000
Si Si4 0.127659 0.247645 0.161532
Si Si5 0.697233 0.118544 0.524759
Si Si6 0.090169 0.970696 0.245199
Si Si7 0.146492 0.466355 0.367441
O O1 0.777900 0.640509 0.320491
O O2 0.746572 0.512873 0.434866
O O3 0.636759 0.556058 0.318399
O O4 0.683258 0.799644 0.382539
O O5 0.212706 0.727388 0.708311
O O6 0.364815 0.685843 0.752589
O O7 0.307781 0.930691 0.683643
O O8 0.060780 0.681859 0.701552
O O9 0.061973 0.537801 0.817536
O O10 0.142203 0.312218 0.080422
O O11 0.108038 0.072190 0.174632
O O12 0.750000 0.250000 0.500000
O O13 0.651306 0.047067 0.448031
O O14 0.000000 0.961555 0.250000
#
# Coordination Sequence:
#
# PCOD9309719 Si02
#       7
#     8   8   4   8   8   8   8
#     4  11  21  41  69 100 131 181 234 275 344 407
#     4  11  22  40  70 100 130 180 239 280 325 415
#     4  12  24  42  70 100 134 174 232 292 340 396
#     4  11  21  42  66  96 132 183 225 280 346 401
#     4  12  25  42  69 100 143 182 230 282 348 421
#     4  11  21  39  68 101 131 174 231 290 336 398
#     4  12  24  41  66 103 137 177 224 293 349 411
#
# _framework density 9.0538720000000001
#
# number of rings (size 3 to 8) (size 9 to 14) (size 15 to 20)
#    0.000    0.615    6.923    3.231    1.077    0.615 
#    0.000    0.000    0.000    4.615    0.000    0.000 
#    0.000    0.000    0.000    0.000    0.000    0.000 
#
# Total GULP energy -144785.584787 kJ/mol
# GULP energy per Si atom -5568.676338 kJ/mol
# Density = 0.903327 g / cm^3
# Si number density = 9.053872 Si / 1000 Ang^3
#
#
#
# Elastic Constant Matrix: (Units=GPa)
#
#
# Indices 1 2 3 4 5 6 
#
# 1 158.1236 52.4471 46.9351 0.0000 -5.6785 0.0000
# 2 52.4471 122.4401 60.7344 0.0000 -2.2450 0.0000
# 3 46.9351 60.7344 120.9856 0.0000 -1.3259 0.0000
# 4 0.0000 0.0000 0.0000 43.0870 0.0000 -5.1160
# 5 -5.6785 -2.2450 -1.3259 0.0000 34.7217 0.0000
# 6 0.0000 0.0000 0.0000 -5.1160 0.0000 39.0756
#
#
#
# Elastic Compliance Matrix: (Units=1/GPa)
#
#
# Indices 1 2 3 4 5 6 
#
# 1 0.007680 -0.002395 -0.001766 0.000000 0.001034 0.000000
# 2 -0.002395 0.011631 -0.004908 0.000000 0.000173 0.000000
# 3 -0.001766 -0.004908 0.011412 0.000000 -0.000170 0.000000
# 4 0.000000 0.000000 0.000000 0.023575 0.000000 0.003087
# 5 0.001034 0.000173 -0.000170 0.000000 0.028974 0.000000
# 6 0.000000 0.000000 0.000000 0.003087 0.000000 0.025996
#
#
# Mechanical properties :
#
#
# Convention : Reuss Voigt Hill
#
# Bulk Modulus (GPa) = 79.45203 80.19808 79.82505
# Shear Modulus (GPa) = 37.99418 39.47239 38.73328
#
# Velocity S-wave (km/s) = 4.58561 4.67396 4.63000
# Velocity P-wave (km/s) = 8.48585 8.57400 8.53004
#
# Compressibility (1/GPa) = 0.01258621
#
# Stress axis : x y z
#
# Youngs Moduli (GPa) = 130.21307 85.98044 87.62566
#
# Poissons Ratio (x) = 0.20590 0.15473
# Poissons Ratio (y) = 0.31183 0.43003
# Poissons Ratio (z) = 0.22993 0.42196
#
# Static dielectric constant tensor:
#      x y z
#    x 1.600210 0.000000 -0.000070 
#    y 0.000000 1.707640 0.000000 
#    z -0.000070 0.000000 1.667780 
# 
# From -- ./inp_files/209186.got.cif
#   From: 2010.05.17/outbox.ucp.g08.bks.cvg/sg15_105_cif.got.tgz:209186.got - 2010.06.11 12:40:34.
