data_PCOD9309251
_publ_section_title
;
Structure prediction by ZEFSAII (Michael W. Deem and Ramdas Pophale) SiO2 
 PCOD9309251
Probable space group: C 2/C
;
_chemical_formula_sum "Si O2"
_cell_formula_units_Z 20
_cell_length_a 9.000000
_cell_length_b 18.000000
_cell_length_c 12.000000
_cell_angle_alpha 90.000000
_cell_angle_beta 90.000000
_cell_angle_gamma 90.000000
_cell_volume 1944.000000
_symmetry_space_group_name_H-M "C 2/C"
_symmetry_group_IT_number 15
_symmetry_cell_setting 'monoclinic'
loop_
_space_group_symop_operation_xyz
x,y,z
-x,y,1/2-z
-x,-y,-z
x,-y,1/2+z
1/2+x,1/2+y,z
1/2-x,1/2+y,1/2-z
1/2-x,1/2-y,-z
1/2+x,1/2-y,1/2+z
loop_
_atom_site_type_symbol
_atom_site_label
_atom_site_fract_x
_atom_site_fract_y
_atom_site_fract_z
Si Si1 0.429362 0.328335 0.014815
Si Si2 0.359047 0.471548 0.173953
Si Si3 0.721259 0.222810 0.303855
Si Si4 0.748445 0.128421 0.076060
Si Si5 0.651410 0.130939 0.819189
O O1 0.395324 0.406393 0.081375
O O2 0.399744 0.264685 0.111848
O O3 0.328087 0.312727 0.902501
O O4 0.597405 0.333125 0.967211
O O5 0.500000 0.495357 0.250000
O O6 0.288367 0.543184 0.111860
O O7 0.256822 0.432909 0.268416
O O8 0.693117 0.166272 0.196041
O O9 0.790796 0.291294 0.233475
O O10 0.652685 0.130643 0.956967
O O11 0.500000 0.118721 0.750000
#
# Coordination Sequence:
#
# PCOD9309251 Si02
#       5
#     8   8   8   8   8
#     4  10  21  41  66 105 137 172 230 290 334 414
#     4  11  23  41  71 105 133 178 233 285 345 412
#     4  10  23  40  68 102 138 179 230 285 350 403
#     4  12  23  40  75  96 141 183 234 282 350 407
#     4  11  25  44  63  95 143 184 230 285 339 413
#
# _framework density 10.288066000000001
#
# number of rings (size 3 to 8) (size 9 to 14) (size 15 to 20)
#    0.000    1.200    2.000    4.200    2.800    0.800 
#    0.000    2.000    8.800    0.000    0.000    0.000 
#    0.000    0.000    0.000    0.000    0.000    0.000 
#
# Total GULP energy -111458.995365 kJ/mol
# GULP energy per Si atom -5572.949768 kJ/mol
# Density = 1.026465 g / cm^3
# Si number density = 10.288066 Si / 1000 Ang^3
#
#
#
# Elastic Constant Matrix: (Units=GPa)
#
#
# Indices 1 2 3 4 5 6 
#
# 1 49.5812 18.5624 26.4419 0.0000 15.4081 0.0000
# 2 18.5624 105.5711 53.3137 0.0000 8.0443 0.0000
# 3 26.4419 53.3137 228.0529 0.0000 19.5892 0.0000
# 4 0.0000 0.0000 0.0000 55.3876 0.0000 3.6777
# 5 15.4081 8.0443 19.5892 0.0000 49.8194 0.0000
# 6 0.0000 0.0000 0.0000 3.6777 0.0000 22.8757
#
#
#
# Elastic Compliance Matrix: (Units=1/GPa)
#
#
# Indices 1 2 3 4 5 6 
#
# 1 0.024084 -0.002966 -0.001553 0.000000 -0.006359 0.000000
# 2 -0.002966 0.011134 -0.002260 0.000000 0.000008 0.000000
# 3 -0.001553 -0.002260 0.005196 0.000000 -0.001198 0.000000
# 4 0.000000 0.000000 0.000000 0.018249 0.000000 -0.002934
# 5 -0.006359 0.000008 -0.001198 0.000000 0.022509 0.000000
# 6 0.000000 0.000000 0.000000 -0.002934 0.000000 0.044186
#
#
# Mechanical properties :
#
#
# Convention : Reuss Voigt Hill
#
# Bulk Modulus (GPa) = 37.23387 64.42680 50.83033
# Shear Modulus (GPa) = 33.81394 44.60902 39.21148
#
# Velocity S-wave (km/s) = 4.05823 4.66123 4.37014
# Velocity P-wave (km/s) = 6.33198 7.76845 7.08670
#
# Compressibility (1/GPa) = 0.02685727
#
# Stress axis : x y z
#
# Youngs Moduli (GPa) = 41.52201 89.81217 192.44896
#
# Poissons Ratio (x) = 0.26637 0.29884
# Poissons Ratio (y) = 0.12315 0.43489
# Poissons Ratio (z) = 0.06448 0.20295
#
# Static dielectric constant tensor:
#      x y z
#    x 1.849130 0.000000 0.014000 
#    y 0.000000 1.765850 0.000000 
#    z 0.014000 0.000000 1.718960 
# 
# From -- ./inp_files/76824.got.cif
#   From: 2010.05.17/outbox.ucp.g08.bks.cvg/sg15_39_cif.got.tgz:76824.got - 2010.06.11 12:40:34.
