data_PCOD9309614
_publ_section_title
;
Structure prediction by ZEFSAII (Michael W. Deem and Ramdas Pophale) SiO2 
 PCOD9309614
Probable space group: C 2/C
;
_chemical_formula_sum "Si O2"
_cell_formula_units_Z 30
_cell_length_a 27.000000
_cell_length_b 18.000000
_cell_length_c 12.000000
_cell_angle_alpha 90.000000
_cell_angle_beta 150.000000
_cell_angle_gamma 90.000000
_cell_volume 2916.000000
_symmetry_space_group_name_H-M "C 2/C"
_symmetry_group_IT_number 15
_symmetry_cell_setting 'monoclinic'
loop_
_space_group_symop_operation_xyz
x,y,z
-x,y,1/2-z
-x,-y,-z
x,-y,1/2+z
1/2+x,1/2+y,z
1/2-x,1/2+y,1/2-z
1/2-x,1/2-y,-z
1/2+x,1/2-y,1/2+z
loop_
_atom_site_type_symbol
_atom_site_label
_atom_site_fract_x
_atom_site_fract_y
_atom_site_fract_z
Si Si1 0.817139 0.138263 0.201633
Si Si2 0.806038 0.180878 0.761118
Si Si3 0.205489 0.037398 0.899055
Si Si4 0.000000 0.643764 0.750000
Si Si5 0.066115 0.427863 0.600346
Si Si6 0.146164 0.752139 0.907597
Si Si7 0.097035 0.875736 0.387410
Si Si8 0.403113 0.229750 0.253714
O O1 0.884346 0.187763 0.246994
O O2 0.839671 0.141397 0.378067
O O3 0.813352 0.050641 0.160518
O O4 0.717995 0.188064 0.996813
O O5 0.821760 0.094437 0.755862
O O6 0.698689 0.203910 0.504505
O O7 0.877217 0.233061 0.823286
O O8 0.813164 0.200719 0.905840
O O9 0.149302 0.072285 0.897460
O O10 0.321791 0.049993 0.150132
O O11 0.943228 0.592807 0.548889
O O12 0.934321 0.699427 0.693814
O O13 0.041612 0.349280 0.617279
O O14 0.000000 0.500000 0.500000
O O15 0.064758 0.798748 0.262546
O O16 0.000000 0.913400 0.250000
#
# Coordination Sequence:
#
# PCOD9309614 Si02
#       8
#     8   8   8   4   8   8   8   8
#     4  11  25  43  64  99 135 172 225 290 340 404
#     4   9  17  38  69  90 117 182 221 264 336 403
#     4  10  24  44  69  95 140 173 230 282 343 407
#     4  12  24  42  68  94 144 174 224 280 328 426
#     4  11  23  42  67 104 136 179 219 280 351 400
#     4  11  23  41  65  97 133 180 223 274 342 406
#     4  11  24  42  67  95 131 181 226 287 333 406
#     4   9  18  39  66  92 126 170 228 268 323 413
#
# _framework density 10.288066000000001
#
# number of rings (size 3 to 8) (size 9 to 14) (size 15 to 20)
#    0.000    1.600    2.667    2.400    3.733    0.533 
#    4.800    0.000    0.000    0.000    0.000    0.000 
#    0.000    0.000    0.000    0.000    0.000    0.000 
#
# Total GULP energy -167292.476914 kJ/mol
# GULP energy per Si atom -5576.415897 kJ/mol
# Density = 1.026465 g / cm^3
# Si number density = 10.288066 Si / 1000 Ang^3
#
#
#
# Elastic Constant Matrix: (Units=GPa)
#
#
# Indices 1 2 3 4 5 6 
#
# 1 96.9195 59.2340 19.4289 0.0000 -7.0924 0.0000
# 2 59.2340 193.6502 39.6651 0.0000 -9.9678 0.0000
# 3 19.4289 39.6651 59.3248 0.0000 -14.5658 0.0000
# 4 0.0000 0.0000 0.0000 26.9313 0.0000 2.2932
# 5 -7.0924 -9.9678 -14.5658 0.0000 44.8569 0.0000
# 6 0.0000 0.0000 0.0000 2.2932 0.0000 40.5011
#
#
#
# Elastic Compliance Matrix: (Units=1/GPa)
#
#
# Indices 1 2 3 4 5 6 
#
# 1 0.012880 -0.003563 -0.001663 0.000000 0.000705 0.000000
# 2 -0.003563 0.006969 -0.003532 0.000000 -0.000162 0.000000
# 3 -0.001663 -0.003532 0.021195 0.000000 0.005835 0.000000
# 4 0.000000 0.000000 0.000000 0.037311 0.000000 -0.002113
# 5 0.000705 -0.000162 0.005835 0.000000 0.024263 0.000000
# 6 0.000000 0.000000 0.000000 -0.002113 0.000000 0.024810
#
#
# Mechanical properties :
#
#
# Convention : Reuss Voigt Hill
#
# Bulk Modulus (GPa) = 42.50274 65.17229 53.83752
# Shear Modulus (GPa) = 32.72487 37.89563 35.31025
#
# Velocity S-wave (km/s) = 3.99234 4.29619 4.14705
# Velocity P-wave (km/s) = 6.47711 7.50681 7.01089
#
# Compressibility (1/GPa) = 0.02352789
#
# Stress axis : x y z
#
# Youngs Moduli (GPa) = 77.63765 143.49273 47.18016
#
# Poissons Ratio (x) = 0.51126 0.07846
# Poissons Ratio (y) = 0.27662 0.16666
# Poissons Ratio (z) = 0.12912 0.50687
#
# Static dielectric constant tensor:
#      x y z
#    x 1.825920 0.000000 0.050920 
#    y 0.000000 1.717790 0.000000 
#    z 0.050920 0.000000 1.829270 
# 
# From -- ./inp_files/123998.got.cif
#   From: 2010.05.17/outbox.ucp.g08.bks.cvg/sg15_62_cif.got.tgz:123998.got - 2010.06.11 12:40:34.
