data_PCOD9309076
_publ_section_title
;
Structure prediction by ZEFSAII (Michael W. Deem and Ramdas Pophale) SiO2 
 PCOD9309076
Probable space group: C 2/C
;
_chemical_formula_sum "Si O2"
_cell_formula_units_Z 28
_cell_length_a 9.000000
_cell_length_b 18.000000
_cell_length_c 27.000000
_cell_angle_alpha 90.000000
_cell_angle_beta 40.000000
_cell_angle_gamma 90.000000
_cell_volume 2811.553005
_symmetry_space_group_name_H-M "C 2/C"
_symmetry_group_IT_number 15
_symmetry_cell_setting 'monoclinic'
loop_
_space_group_symop_operation_xyz
x,y,z
-x,y,1/2-z
-x,-y,-z
x,-y,1/2+z
1/2+x,1/2+y,z
1/2-x,1/2+y,1/2-z
1/2-x,1/2-y,-z
1/2+x,1/2-y,1/2+z
loop_
_atom_site_type_symbol
_atom_site_label
_atom_site_fract_x
_atom_site_fract_y
_atom_site_fract_z
Si Si1 0.259488 0.789342 0.817289
Si Si2 0.910780 0.843702 0.350989
Si Si3 0.742902 0.770000 0.795074
Si Si4 0.959521 0.926509 0.579349
Si Si5 0.013602 0.568339 0.356290
Si Si6 0.232036 0.465953 0.217285
Si Si7 0.493999 0.042854 0.950057
O O1 0.500000 0.834984 0.750000
O O2 0.331354 0.719818 0.832487
O O3 0.203977 0.762836 0.777047
O O4 0.079389 0.845801 0.886005
O O5 0.675133 0.890762 0.413698
O O6 0.047474 0.792517 0.356853
O O7 0.110532 0.906525 0.293417
O O8 0.623383 0.849965 0.835107
O O9 0.000000 0.763778 0.750000
O O10 0.763128 0.928711 0.586023
O O11 0.233251 0.933676 0.500704
O O12 0.885296 0.992172 0.636454
O O13 0.065745 0.515682 0.389497
O O14 0.138344 0.528065 0.278571
O O15 0.000000 0.433597 0.250000
O O16 0.500000 0.000000 0.000000
#
# Coordination Sequence:
#
# PCOD9309076 Si02
#       7
#     8   8   8   8   8   8   8
#     4  10  20  41  70  99 134 166 223 287 337 400
#     4  11  24  44  66 103 134 171 225 281 340 400
#     4  11  24  41  69 103 137 170 223 289 349 397
#     4  11  20  47  68  97 140 179 224 275 344 408
#     4  11  24  42  71 104 128 186 225 284 340 404
#     4  10  21  39  74 102 131 171 228 287 339 387
#     4  12  28  43  67  99 144 183 233 276 327 415
#
# _framework density 9.9589090000000002
#
# number of rings (size 3 to 8) (size 9 to 14) (size 15 to 20)
#    0.000    1.143    5.714    1.286   10.000    0.571 
#    0.000    0.714    0.000    0.000    0.000    0.000 
#    0.000    0.000    0.000    0.000    0.000    0.000 
#
# Total GULP energy -155939.739109 kJ/mol
# GULP energy per Si atom -5569.276397 kJ/mol
# Density = 0.993624 g / cm^3
# Si number density = 9.958909 Si / 1000 Ang^3
#
#
#
# Elastic Constant Matrix: (Units=GPa)
#
#
# Indices 1 2 3 4 5 6 
#
# 1 126.1996 41.8671 34.4035 0.0030 -25.3896 -0.0027
# 2 41.8671 132.2627 45.1699 0.0026 -20.0900 -0.0034
# 3 34.4035 45.1699 55.2961 0.0072 -26.5259 -0.0139
# 4 0.0030 0.0026 0.0072 24.5293 -0.0045 -13.5333
# 5 -25.3896 -20.0900 -26.5259 -0.0045 39.9277 0.0068
# 6 -0.0027 -0.0034 -0.0139 -13.5333 0.0068 25.3276
#
#
#
# Elastic Compliance Matrix: (Units=1/GPa)
#
#
# Indices 1 2 3 4 5 6 
#
# 1 0.010025 -0.001503 -0.003397 -0.000001 0.003362 -0.000002
# 2 -0.001503 0.010721 -0.008357 -0.000001 -0.001113 -0.000003
# 3 -0.003397 -0.008357 0.035184 0.000002 0.017009 0.000014
# 4 -0.000001 -0.000001 0.000002 0.057810 0.000002 0.030890
# 5 0.003362 -0.001113 0.017009 0.000002 0.037923 0.000000
# 6 -0.000002 -0.000003 0.000014 0.030890 0.000000 0.055988
#
#
# Mechanical properties :
#
#
# Convention : Reuss Voigt Hill
#
# Bulk Modulus (GPa) = 33.99375 61.84882 47.92129
# Shear Modulus (GPa) = 20.49430 30.77813 25.63621
#
# Velocity S-wave (km/s) = 3.21119 3.93524 3.59151
# Velocity P-wave (km/s) = 5.55456 7.19497 6.42731
#
# Compressibility (1/GPa) = 0.02941717
#
# Stress axis : x y z
#
# Youngs Moduli (GPa) = 99.75204 93.27190 28.42187
#
# Poissons Ratio (x) = 0.14014 0.09655
# Poissons Ratio (y) = 0.14988 0.23752
# Poissons Ratio (z) = 0.33887 0.77947
#
# Static dielectric constant tensor:
#      x y z
#    x 1.774810 0.000000 0.003460 
#    y 0.000000 1.715280 0.000000 
#    z 0.003460 0.000000 1.756380 
# 
# From -- ./inp_files/191070.got.cif
#   From: 2010.05.17/outbox.ucp.g08.bks.cvg/sg15_96_cif.got.tgz:191070.got - 2010.06.11 12:40:34.
