data_PCOD9309650
_publ_section_title
;
Structure prediction by ZEFSAII (Michael W. Deem and Ramdas Pophale) SiO2 
 PCOD9309650
Probable space group: C 2/C
;
_chemical_formula_sum "Si O2"
_cell_formula_units_Z 32
_cell_length_a 18.000000
_cell_length_b 24.000000
_cell_length_c 21.000000
_cell_angle_alpha 90.000000
_cell_angle_beta 20.000000
_cell_angle_gamma 90.000000
_cell_volume 3102.806740
_symmetry_space_group_name_H-M "C 2/C"
_symmetry_group_IT_number 15
_symmetry_cell_setting 'monoclinic'
loop_
_space_group_symop_operation_xyz
x,y,z
-x,y,1/2-z
-x,-y,-z
x,-y,1/2+z
1/2+x,1/2+y,z
1/2-x,1/2+y,1/2-z
1/2-x,1/2-y,-z
1/2+x,1/2-y,1/2+z
loop_
_atom_site_type_symbol
_atom_site_label
_atom_site_fract_x
_atom_site_fract_y
_atom_site_fract_z
Si Si1 0.337257 0.520973 0.437842
Si Si2 0.169841 0.631366 0.258857
Si Si3 0.584842 0.937642 0.441687
Si Si4 0.496567 0.095926 0.634237
Si Si5 0.950558 0.114358 0.446179
Si Si6 0.210125 0.185174 0.038113
Si Si7 0.329731 0.185935 0.443545
Si Si8 0.408617 0.593124 0.938623
O O1 0.500000 0.506193 0.250000
O O2 0.133568 0.551166 0.566677
O O3 0.466431 0.563594 0.381437
O O4 0.289990 0.463782 0.512270
O O5 0.350020 0.637899 0.171561
O O6 0.029909 0.582022 0.401405
O O7 0.978444 0.674136 0.387437
O O8 0.307270 0.615194 0.086202
O O9 0.495246 0.907861 0.449041
O O10 0.840251 0.924160 0.248326
O O11 0.500000 0.000000 0.500000
O O12 0.595384 0.152955 0.583256
O O13 0.241562 0.092079 0.854074
O O14 0.845665 0.161837 0.486463
O O15 0.000000 0.173196 0.250000
O O16 0.250000 0.250000 0.000000
O O17 0.500000 0.177077 0.250000
O O18 0.250000 0.250000 0.500000
O O19 0.141906 0.140780 0.574717
#
# Coordination Sequence:
#
# PCOD9309650 Si02
#       8
#     8   8   8   8   8   8   8   8
#     4  11  23  39  66 100 138 183 228 273 349 427
#     4  11  25  46  67  99 139 177 233 289 352 410
#     4  12  26  42  71 105 140 183 228 287 348 423
#     4  11  23  42  65  98 139 182 226 276 349 416
#     4  11  22  42  66  97 142 179 223 287 344 412
#     4  11  22  41  66  97 133 177 229 278 342 422
#     4  10  26  48  74  99 134 184 243 302 356 412
#     4  11  26  46  67 101 139 182 233 288 355 424
#
# _framework density 10.313243
#
# number of rings (size 3 to 8) (size 9 to 14) (size 15 to 20)
#    0.000    1.000    1.250    6.750    7.000    3.000 
#    2.250    1.250    0.000    0.000    0.000    0.000 
#    0.000    0.000    0.000    0.000    0.000    0.000 
#
# Total GULP energy -178449.612875 kJ/mol
# GULP energy per Si atom -5576.550402 kJ/mol
# Density = 1.028977 g / cm^3
# Si number density = 10.313243 Si / 1000 Ang^3
#
#
#
# Elastic Constant Matrix: (Units=GPa)
#
#
# Indices 1 2 3 4 5 6 
#
# 1 137.7500 45.3515 24.4605 -0.0554 -28.2055 -0.0022
# 2 45.3515 124.4101 4.2667 0.0219 -25.8536 0.0431
# 3 24.4605 4.2667 91.1524 0.1612 -16.7439 0.1524
# 4 -0.0554 0.0219 0.1612 25.5171 0.0219 -3.5428
# 5 -28.2055 -25.8536 -16.7439 0.0219 48.7974 -0.0400
# 6 -0.0022 0.0431 0.1524 -3.5428 -0.0400 33.3578
#
#
#
# Elastic Compliance Matrix: (Units=1/GPa)
#
#
# Indices 1 2 3 4 5 6 
#
# 1 0.009085 -0.002566 -0.001711 0.000033 0.003304 0.000019
# 2 -0.002566 0.009778 0.000971 -0.000026 0.004030 -0.000015
# 3 -0.001711 0.000971 0.012057 -0.000092 0.003663 -0.000062
# 4 0.000033 -0.000026 -0.000092 0.039777 -0.000041 0.004225
# 5 0.003304 0.004030 0.003663 -0.000041 0.025795 0.000005
# 6 0.000019 -0.000015 -0.000062 0.004225 0.000005 0.030427
#
#
# Mechanical properties :
#
#
# Convention : Reuss Voigt Hill
#
# Bulk Modulus (GPa) = 41.13824 55.71888 48.42856
# Shear Modulus (GPa) = 35.30243 40.15004 37.72624
#
# Velocity S-wave (km/s) = 4.14153 4.41673 4.28134
# Velocity P-wave (km/s) = 6.54655 7.28574 6.92601
#
# Compressibility (1/GPa) = 0.02430829
#
# Stress axis : x y z
#
# Youngs Moduli (GPa) = 110.07292 102.27367 82.93652
#
# Poissons Ratio (x) = 0.26247 0.14189
# Poissons Ratio (y) = 0.28249 -0.08057
# Poissons Ratio (z) = 0.18832 -0.09935
#
# Static dielectric constant tensor:
#      x y z
#    x 1.878560 -0.000990 -0.127560 
#    y -0.000990 1.750590 0.001390 
#    z -0.127560 0.001390 1.974860 
# 
# From -- ./inp_files/250262.got.cif
#   From: 2010.05.17/outbox.ucp.g08.bks.cvg/sg15_126_cif.got.tgz:250262.got - 2010.06.11 12:40:34.
