data_PCOD9309032
_publ_section_title
;
Structure prediction by ZEFSAII (Michael W. Deem and Ramdas Pophale) SiO2 
 PCOD9309032
Probable space group: C 2/C
;
_chemical_formula_sum "Si O2"
_cell_formula_units_Z 28
_cell_length_a 18.000000
_cell_length_b 12.000000
_cell_length_c 15.000000
_cell_angle_alpha 90.000000
_cell_angle_beta 70.000000
_cell_angle_gamma 90.000000
_cell_volume 3044.604091
_symmetry_space_group_name_H-M "C 2/C"
_symmetry_group_IT_number 15
_symmetry_cell_setting 'monoclinic'
loop_
_space_group_symop_operation_xyz
x,y,z
-x,y,1/2-z
-x,-y,-z
x,-y,1/2+z
1/2+x,1/2+y,z
1/2-x,1/2+y,1/2-z
1/2-x,1/2-y,-z
1/2+x,1/2-y,1/2+z
loop_
_atom_site_type_symbol
_atom_site_label
_atom_site_fract_x
_atom_site_fract_y
_atom_site_fract_z
Si Si1 0.651275 0.576205 0.600139
Si Si2 0.928716 0.727257 0.146856
Si Si3 0.601229 0.174448 0.132334
Si Si4 0.519309 0.517631 0.887778
Si Si5 0.234561 0.752304 0.398462
Si Si6 0.323869 0.429308 0.750052
Si Si7 0.261500 0.010215 0.392083
O O1 0.643990 0.709014 0.589342
O O2 0.563489 0.522450 0.630498
O O3 0.685810 0.537338 0.681020
O O4 0.700846 0.527991 0.498088
O O5 0.909256 0.692304 0.256412
O O6 0.853699 0.716276 0.106884
O O7 0.018991 0.672616 0.107854
O O8 0.944928 0.859027 0.137311
O O9 0.656859 0.065335 0.105998
O O10 0.585953 0.433992 0.823577
O O11 0.500000 0.500000 0.000000
O O12 0.250000 0.750000 0.500000
O O13 0.296966 0.671978 0.323694
O O14 0.255714 0.880425 0.368458
O O15 0.269018 0.429330 0.684949
#
# Coordination Sequence:
#
# PCOD9309032 Si02
#       7
#     8   8   8   8   8   8   8
#     4  11  21  39  65  95 126 162 218 277 340 400
#     4  10  20  39  62  91 125 173 217 269 332 397
#     4  10  21  38  66  93 126 167 225 278 331 397
#     4  11  20  37  64  94 124 161 214 284 337 384
#     4  12  24  42  66  94 135 184 223 275 349 412
#     4  12  23  38  64  94 132 167 220 278 336 405
#     4  12  23  41  64  97 133 174 223 275 342 416
#
# _framework density 9.1965979999999998
#
# number of rings (size 3 to 8) (size 9 to 14) (size 15 to 20)
#    0.000    0.857    7.143    0.857    0.000    0.000 
#    0.000    0.714    6.286    0.000    0.000    0.000 
#    0.000    0.000    0.000    0.000    0.000    0.000 
#
# Total GULP energy -155942.730147 kJ/mol
# GULP energy per Si atom -5569.383220 kJ/mol
# Density = 0.917567 g / cm^3
# Si number density = 9.196598 Si / 1000 Ang^3
#
#
#
# Elastic Constant Matrix: (Units=GPa)
#
#
# Indices 1 2 3 4 5 6 
#
# 1 143.6578 36.2394 33.8480 0.0000 6.3027 0.0000
# 2 36.2394 62.2836 20.7706 0.0000 -13.3702 0.0000
# 3 33.8480 20.7706 104.0632 0.0000 1.8645 0.0000
# 4 0.0000 0.0000 0.0000 29.8256 0.0000 -1.0643
# 5 6.3027 -13.3702 1.8645 0.0000 32.4536 0.0000
# 6 0.0000 0.0000 0.0000 -1.0643 0.0000 32.8076
#
#
#
# Elastic Compliance Matrix: (Units=1/GPa)
#
#
# Indices 1 2 3 4 5 6 
#
# 1 0.008913 -0.005435 -0.001745 0.000000 -0.003870 0.000000
# 2 -0.005435 0.022430 -0.002897 0.000000 0.010462 0.000000
# 3 -0.001745 -0.002897 0.010782 0.000000 -0.001474 0.000000
# 4 0.000000 0.000000 0.000000 0.033567 0.000000 0.001089
# 5 -0.003870 0.010462 -0.001474 0.000000 0.035960 0.000000
# 6 0.000000 0.000000 0.000000 0.001089 0.000000 0.030516
#
#
# Mechanical properties :
#
#
# Convention : Reuss Voigt Hill
#
# Bulk Modulus (GPa) = 45.51317 54.63562 50.07439
# Shear Modulus (GPa) = 29.47361 33.62715 31.55038
#
# Velocity S-wave (km/s) = 4.00737 4.28043 4.14615
# Velocity P-wave (km/s) = 6.79781 7.36194 7.08549
#
# Compressibility (1/GPa) = 0.02197166
#
# Stress axis : x y z
#
# Youngs Moduli (GPa) = 112.19753 44.58392 92.74995
#
# Poissons Ratio (x) = 0.24230 0.16184
# Poissons Ratio (y) = 0.60976 0.26866
# Poissons Ratio (z) = 0.19578 0.12914
#
# Static dielectric constant tensor:
#      x y z
#    x 1.698910 0.000000 -0.016440 
#    y 0.000000 1.649630 0.000000 
#    z -0.016440 0.000000 1.656120 
# 
# From -- ./inp_files/160820.got.cif
#   From: 2010.05.17/outbox.ucp.g08.bks.cvg/sg15_81_cif.got.tgz:160820.got - 2010.06.11 12:40:34.
