data_PCOD9309675
_publ_section_title
;
Structure prediction by ZEFSAII (Michael W. Deem and Ramdas Pophale) SiO2 
 PCOD9309675
Probable space group: C 2/C
;
_chemical_formula_sum "Si O2"
_cell_formula_units_Z 30
_cell_length_a 27.000000
_cell_length_b 12.000000
_cell_length_c 18.000000
_cell_angle_alpha 90.000000
_cell_angle_beta 30.000000
_cell_angle_gamma 90.000000
_cell_volume 2916.000000
_symmetry_space_group_name_H-M "C 2/C"
_symmetry_group_IT_number 15
_symmetry_cell_setting 'monoclinic'
loop_
_space_group_symop_operation_xyz
x,y,z
-x,y,1/2-z
-x,-y,-z
x,-y,1/2+z
1/2+x,1/2+y,z
1/2-x,1/2+y,1/2-z
1/2-x,1/2-y,-z
1/2+x,1/2-y,1/2+z
loop_
_atom_site_type_symbol
_atom_site_label
_atom_site_fract_x
_atom_site_fract_y
_atom_site_fract_z
Si Si1 0.808723 0.782784 0.787407
Si Si2 0.186616 0.545602 0.545306
Si Si3 0.521588 0.804322 0.332944
Si Si4 0.794111 0.128388 0.140499
Si Si5 0.305715 0.555727 0.529851
Si Si6 0.587275 0.991112 0.947178
Si Si7 0.599754 0.159656 0.067212
Si Si8 0.000000 0.871908 0.750000
O O1 0.914407 0.743517 0.682176
O O2 0.811703 0.831077 0.700950
O O3 0.743379 0.669788 0.877535
O O4 0.762253 0.876135 0.901746
O O5 0.096977 0.629599 0.681348
O O6 0.226488 0.507647 0.574211
O O7 0.155557 0.437810 0.539795
O O8 0.442134 0.892883 0.459619
O O9 0.470262 0.705382 0.356868
O O10 0.686650 0.061843 0.280807
O O11 0.851714 0.022120 0.033764
O O12 0.830649 0.231793 0.040492
O O13 0.400943 0.570967 0.354011
O O14 0.500000 0.000000 0.000000
O O15 0.586519 0.101089 0.001677
O O16 0.500000 0.181725 0.250000
#
# Coordination Sequence:
#
# PCOD9309675 Si02
#       8
#     8   8   8   8   8   8   8   4
#     4  11  21  43  67  99 133 172 231 294 349 399
#     4  11  20  44  69  97 130 179 235 285 339 417
#     4  11  20  37  69  98 126 171 234 294 327 405
#     4  12  27  43  65  98 143 181 217 293 359 412
#     4  11  24  41  65  93 132 173 224 281 343 404
#     4  12  24  44  70 101 135 183 239 285 344 415
#     4  12  26  46  72 101 141 189 234 278 353 438
#     4  12  20  36  62  96 120 164 222 280 326 394
#
# _framework density 10.288066000000001
#
# number of rings (size 3 to 8) (size 9 to 14) (size 15 to 20)
#    0.000    0.533    5.333    5.600    0.933    0.533 
#    0.000    2.000    0.000    0.000    0.000    0.000 
#    0.000    0.000    0.000    0.000    0.000    0.000 
#
# Total GULP energy -167028.241415 kJ/mol
# GULP energy per Si atom -5567.608047 kJ/mol
# Density = 1.026465 g / cm^3
# Si number density = 10.288066 Si / 1000 Ang^3
#
#
#
# Elastic Constant Matrix: (Units=GPa)
#
#
# Indices 1 2 3 4 5 6 
#
# 1 95.7843 31.4671 21.7426 0.0000 11.4623 0.0000
# 2 31.4671 84.5192 35.6829 0.0000 10.3330 0.0000
# 3 21.7426 35.6829 60.9745 0.0000 10.4816 0.0000
# 4 0.0000 0.0000 0.0000 7.1283 0.0000 -6.9936
# 5 11.4623 10.3330 10.4816 0.0000 31.6666 0.0000
# 6 0.0000 0.0000 0.0000 -6.9936 0.0000 30.6627
#
#
#
# Elastic Compliance Matrix: (Units=1/GPa)
#
#
# Indices 1 2 3 4 5 6 
#
# 1 0.012332 -0.003454 -0.001911 0.000000 -0.002704 0.000000
# 2 -0.003454 0.016828 -0.008363 0.000000 -0.001473 0.000000
# 3 -0.001911 -0.008363 0.022679 0.000000 -0.004086 0.000000
# 4 0.000000 0.000000 0.000000 0.180729 0.000000 0.041221
# 5 -0.002704 -0.001473 -0.004086 0.000000 0.034391 0.000000
# 6 0.000000 0.000000 0.000000 0.041221 0.000000 0.042015
#
#
# Mechanical properties :
#
#
# Convention : Reuss Voigt Hill
#
# Bulk Modulus (GPa) = 41.01394 46.56257 43.78826
# Shear Modulus (GPa) = 14.51132 24.05055 19.28093
#
# Velocity S-wave (km/s) = 2.65854 3.42256 3.06445
# Velocity P-wave (km/s) = 5.42216 6.18847 5.81794
#
# Compressibility (1/GPa) = 0.02438195
#
# Stress axis : x y z
#
# Youngs Moduli (GPa) = 81.08813 59.42303 44.09445
#
# Poissons Ratio (x) = 0.20524 0.08428
# Poissons Ratio (y) = 0.28006 0.36878
# Poissons Ratio (z) = 0.15499 0.49698
#
# Static dielectric constant tensor:
#      x y z
#    x 1.860080 0.000000 0.122800 
#    y 0.000000 1.771280 0.000000 
#    z 0.122800 0.000000 2.036510 
# 
# From -- ./inp_files/222527.got.cif
#   From: 2010.05.17/outbox.ucp.g08.bks.cvg/sg15_112_cif.got.tgz:222527.got - 2010.06.11 12:40:34.
