data_PCOD9309158
_publ_section_title
;
Structure prediction by ZEFSAII (Michael W. Deem and Ramdas Pophale) SiO2 
 PCOD9309158
Probable space group: C 2/C
;
_chemical_formula_sum "Si O2"
_cell_formula_units_Z 32
_cell_length_a 24.000000
_cell_length_b 18.000000
_cell_length_c 21.000000
_cell_angle_alpha 90.000000
_cell_angle_beta 160.000000
_cell_angle_gamma 90.000000
_cell_volume 3102.806740
_symmetry_space_group_name_H-M "C 2/C"
_symmetry_group_IT_number 15
_symmetry_cell_setting 'monoclinic'
loop_
_space_group_symop_operation_xyz
x,y,z
-x,y,1/2-z
-x,-y,-z
x,-y,1/2+z
1/2+x,1/2+y,z
1/2-x,1/2+y,1/2-z
1/2-x,1/2-y,-z
1/2+x,1/2-y,1/2+z
loop_
_atom_site_type_symbol
_atom_site_label
_atom_site_fract_x
_atom_site_fract_y
_atom_site_fract_z
Si Si1 0.796621 0.879595 0.103035
Si Si2 0.196307 0.552421 0.879921
Si Si3 0.796957 0.677805 0.385529
Si Si4 0.313240 0.392922 0.975829
Si Si5 0.012562 0.269545 0.012277
Si Si6 0.842312 0.206256 0.042994
Si Si7 0.272147 0.764042 0.368098
Si Si8 0.808531 0.537202 0.477024
O O1 0.745555 0.805880 0.084905
O O2 0.991166 0.888908 0.311034
O O3 0.729675 0.950253 0.070420
O O4 0.742463 0.877221 0.971018
O O5 0.262111 0.479939 0.912738
O O6 0.001646 0.547914 0.675298
O O7 0.253514 0.633818 0.919230
O O8 0.246855 0.550487 0.009267
O O9 0.646012 0.722506 0.193409
O O10 0.871475 0.732065 0.519921
O O11 0.741043 0.600761 0.357668
O O12 0.929006 0.672098 0.470355
O O13 0.273817 0.324902 0.885017
O O14 0.078532 0.293110 0.013842
O O15 0.871119 0.216028 0.834856
O O16 0.000000 0.179067 0.250000
O O17 0.750000 0.250000 0.000000
#
# Coordination Sequence:
#
# PCOD9309158 Si02
#       8
#     8   8   8   8   8   8   8   8
#     4  10  22  38  65  97 124 163 201 265 333 391
#     4  10  22  36  58  99 130 165 192 251 331 393
#     4  11  22  41  61  92 124 166 214 261 305 374
#     4  10  22  38  64  96 129 157 202 262 333 388
#     4  10  24  39  66  81 122 173 222 261 296 371
#     4  12  23  36  66  97 128 166 207 256 328 384
#     4  11  21  44  63  89 122 165 221 265 313 371
#     4  10  21  38  60  90 136 157 200 258 322 382
#
# _framework density 10.313243
#
# number of rings (size 3 to 8) (size 9 to 14) (size 15 to 20)
#    0.000    1.500    2.500    2.625    5.250    0.000 
#    0.000    1.250   11.000    0.000    0.000    0.000 
#    0.000    0.000    0.000    0.000    0.000    0.000 
#
# Total GULP energy -178315.380957 kJ/mol
# GULP energy per Si atom -5572.355655 kJ/mol
# Density = 1.028977 g / cm^3
# Si number density = 10.313243 Si / 1000 Ang^3
#
#
#
# Elastic Constant Matrix: (Units=GPa)
#
#
# Indices 1 2 3 4 5 6 
#
# 1 89.6874 33.8474 1.4885 -0.0103 5.5133 -0.0040
# 2 33.8474 104.9422 3.1308 -0.0315 2.3370 -0.0257
# 3 1.4885 3.1308 60.2983 -0.0281 -0.8021 -0.0215
# 4 -0.0103 -0.0315 -0.0281 19.4051 -0.0172 3.6073
# 5 5.5133 2.3370 -0.8021 -0.0172 26.9044 -0.0120
# 6 -0.0040 -0.0257 -0.0215 3.6073 -0.0120 25.3811
#
#
#
# Elastic Compliance Matrix: (Units=1/GPa)
#
#
# Indices 1 2 3 4 5 6 
#
# 1 0.012834 -0.004085 -0.000135 -0.000001 -0.002279 -0.000003
# 2 -0.004085 0.010863 -0.000465 0.000013 -0.000120 0.000008
# 3 -0.000135 -0.000465 0.016619 0.000022 0.000564 0.000011
# 4 -0.000001 0.000013 0.000022 0.052931 0.000030 -0.007523
# 5 -0.002279 -0.000120 0.000564 0.000030 0.037663 0.000013
# 6 -0.000003 0.000008 0.000011 -0.007523 0.000013 0.040469
#
#
# Mechanical properties :
#
#
# Convention : Reuss Voigt Hill
#
# Bulk Modulus (GPa) = 32.31316 36.87349 34.59332
# Shear Modulus (GPa) = 26.16934 28.76886 27.46910
#
# Velocity S-wave (km/s) = 3.56578 3.73869 3.65326
# Velocity P-wave (km/s) = 5.71427 6.04588 5.88241
#
# Compressibility (1/GPa) = 0.03094715
#
# Stress axis : x y z
#
# Youngs Moduli (GPa) = 77.92017 92.05554 60.17136
#
# Poissons Ratio (x) = 0.37600 0.00813
# Poissons Ratio (y) = 0.31827 0.02797
# Poissons Ratio (z) = 0.01052 0.04279
#
# Static dielectric constant tensor:
#      x y z
#    x 1.819610 -0.000010 0.114410 
#    y -0.000010 1.748960 -0.000010 
#    z 0.114410 -0.000010 1.913140 
# 
# From -- ./inp_files/256041.got.cif
#   From: 2010.05.17/outbox.ucp.g08.bks.cvg/sg15_129_cif.got.tgz:256041.got - 2010.06.11 12:40:34.
