data_PCOD9309743
_publ_section_title
;
Structure prediction by ZEFSAII (Michael W. Deem and Ramdas Pophale) SiO2 
 PCOD9309743
Probable space group: C 2/C
;
_chemical_formula_sum "Si O2"
_cell_formula_units_Z 24
_cell_length_a 12.000000
_cell_length_b 9.000000
_cell_length_c 24.000000
_cell_angle_alpha 90.000000
_cell_angle_beta 70.000000
_cell_angle_gamma 90.000000
_cell_volume 2435.683273
_symmetry_space_group_name_H-M "C 2/C"
_symmetry_group_IT_number 15
_symmetry_cell_setting 'monoclinic'
loop_
_space_group_symop_operation_xyz
x,y,z
-x,y,1/2-z
-x,-y,-z
x,-y,1/2+z
1/2+x,1/2+y,z
1/2-x,1/2+y,1/2-z
1/2-x,1/2-y,-z
1/2+x,1/2-y,1/2+z
loop_
_atom_site_type_symbol
_atom_site_label
_atom_site_fract_x
_atom_site_fract_y
_atom_site_fract_z
Si Si1 0.293794 0.015139 0.689356
Si Si2 0.041004 0.890984 0.442271
Si Si3 0.448575 0.180793 0.866964
Si Si4 0.350243 0.492856 0.397854
Si Si5 0.236874 0.155316 0.818629
Si Si6 0.111749 0.400211 0.998153
O O1 0.205690 0.053896 0.652336
O O2 0.298801 0.831930 0.684770
O O3 0.421333 0.101811 0.660105
O O4 0.244027 0.071215 0.757829
O O5 0.146185 0.918522 0.378919
O O6 0.087539 0.750174 0.468430
O O7 0.000000 0.000000 0.500000
O O8 0.927081 0.876614 0.420704
O O9 0.435498 0.361395 0.875025
O O10 0.364846 0.148446 0.827903
O O11 0.392012 0.122910 0.934797
O O12 0.236505 0.538056 0.454652
O O13 0.000000 0.500000 0.000000
#
# Coordination Sequence:
#
# PCOD9309743 Si02
#       6
#     8   8   8   8   8   8
#     4  11  25  48  69 102 140 187 236 289 349 424
#     4  12  24  43  72 107 137 183 235 289 356 419
#     4  11  21  45  74  95 138 184 225 287 356 405
#     4  11  24  43  71 103 140 183 230 290 352 413
#     4  11  26  47  70 103 141 184 240 288 351 424
#     4  12  22  45  70 101 143 177 231 292 344 419
#
# _framework density 9.8534980000000001
#
# number of rings (size 3 to 8) (size 9 to 14) (size 15 to 20)
#    0.000    0.667    6.667    2.000    2.333    1.333 
#    9.000    0.000    0.000    0.000    0.000    0.000 
#    0.000    0.000    0.000    0.000    0.000    0.000 
#
# Total GULP energy -133966.959849 kJ/mol
# GULP energy per Si atom -5581.956660 kJ/mol
# Density = 0.983107 g / cm^3
# Si number density = 9.853498 Si / 1000 Ang^3
#
#
#
# Elastic Constant Matrix: (Units=GPa)
#
#
# Indices 1 2 3 4 5 6 
#
# 1 126.1123 24.0585 39.3511 0.0000 8.3253 0.0000
# 2 24.0585 23.8393 20.6342 0.0000 -6.6214 0.0000
# 3 39.3511 20.6342 173.9125 0.0000 11.0081 0.0000
# 4 0.0000 0.0000 0.0000 36.4209 0.0000 2.8555
# 5 8.3253 -6.6214 11.0081 0.0000 46.6128 0.0000
# 6 0.0000 0.0000 0.0000 2.8555 0.0000 44.8907
#
#
#
# Elastic Compliance Matrix: (Units=1/GPa)
#
#
# Indices 1 2 3 4 5 6 
#
# 1 0.010451 -0.010646 -0.000901 0.000000 -0.003166 0.000000
# 2 -0.010646 0.060789 -0.005554 0.000000 0.011848 0.000000
# 3 -0.000901 -0.005554 0.006754 0.000000 -0.002223 0.000000
# 4 0.000000 0.000000 0.000000 0.027594 0.000000 -0.001755
# 5 -0.003166 0.011848 -0.002223 0.000000 0.024227 0.000000
# 6 0.000000 0.000000 0.000000 -0.001755 0.000000 0.022388
#
#
# Mechanical properties :
#
#
# Convention : Reuss Voigt Hill
#
# Bulk Modulus (GPa) = 22.83527 54.66133 38.74830
# Shear Modulus (GPa) = 24.87545 41.57288 33.22416
#
# Velocity S-wave (km/s) = 3.55669 4.59797 4.11043
# Velocity P-wave (km/s) = 5.33660 7.48235 6.49865
#
# Compressibility (1/GPa) = 0.04379191
#
# Stress axis : x y z
#
# Youngs Moduli (GPa) = 95.68843 16.45027 148.07086
#
# Poissons Ratio (x) = 0.17513 0.13343
# Poissons Ratio (y) = 1.01871 0.82232
# Poissons Ratio (z) = 0.08623 0.09136
#
# Static dielectric constant tensor:
#      x y z
#    x 1.697400 0.000000 -0.014300 
#    y 0.000000 1.742280 0.000000 
#    z -0.014300 0.000000 1.699100 
# 
# From -- ./inp_files/267815.got.cif
#   From: 2010.05.17/outbox.ucp.g08.bks.cvg/sg15_134_cif.got.tgz:267815.got - 2010.06.11 12:40:34.
