data_PCOD9309321
_publ_section_title
;
Structure prediction by ZEFSAII (Michael W. Deem and Ramdas Pophale) SiO2 
 PCOD9309321
Probable space group: C 2/C
;
_chemical_formula_sum "Si O2"
_cell_formula_units_Z 32
_cell_length_a 15.000000
_cell_length_b 24.000000
_cell_length_c 18.000000
_cell_angle_alpha 90.000000
_cell_angle_beta 30.000000
_cell_angle_gamma 90.000000
_cell_volume 3240.000000
_symmetry_space_group_name_H-M "C 2/C"
_symmetry_group_IT_number 15
_symmetry_cell_setting 'monoclinic'
loop_
_space_group_symop_operation_xyz
x,y,z
-x,y,1/2-z
-x,-y,-z
x,-y,1/2+z
1/2+x,1/2+y,z
1/2-x,1/2+y,1/2-z
1/2-x,1/2-y,-z
1/2+x,1/2-y,1/2+z
loop_
_atom_site_type_symbol
_atom_site_label
_atom_site_fract_x
_atom_site_fract_y
_atom_site_fract_z
Si Si1 0.825945 0.658652 0.417093
Si Si2 0.837834 0.736278 0.548468
Si Si3 0.000455 0.937193 0.659251
Si Si4 0.317999 0.271116 0.108040
Si Si5 0.693929 0.852332 0.897725
Si Si6 0.799342 0.650495 0.927554
Si Si7 0.016256 0.066572 0.649222
Si Si8 0.774769 0.649641 0.696761
O O1 0.882387 0.689632 0.453466
O O2 0.744297 0.710194 0.430272
O O3 0.685276 0.608072 0.518743
O O4 0.000000 0.637873 0.250000
O O5 0.703136 0.700095 0.695965
O O6 0.986828 0.758768 0.498385
O O7 0.166327 0.901463 0.508314
O O8 0.000000 0.937716 0.750000
O O9 0.819894 0.901156 0.774855
O O10 0.017781 0.001795 0.622518
O O11 0.236385 0.209164 0.176412
O O12 0.289912 0.294592 0.045423
O O13 0.238365 0.321802 0.213670
O O14 0.695872 0.848630 0.986231
O O15 0.484435 0.860607 0.028738
O O16 0.000000 0.644602 0.750000
O O17 0.000000 0.064323 0.750000
O O18 0.849262 0.097382 0.730528
#
# Coordination Sequence:
#
# PCOD9309321 Si02
#       8
#     8   8   8   8   8   8   8   8
#     4  11  22  36  62  93 130 164 210 254 312 367
#     4  10  22  36  58  94 133 164 199 254 311 380
#     4   9  23  43  64  86 122 167 218 259 305 374
#     4  11  22  36  62  93 132 157 198 261 318 379
#     4  10  23  40  62  94 125 165 211 257 316 374
#     4  11  22  41  64  90 124 168 207 262 318 373
#     4  11  22  43  65  87 124 174 213 254 307 379
#     4  11  21  38  62  95 125 163 205 254 316 371
#
# _framework density 9.8765429999999999
#
# number of rings (size 3 to 8) (size 9 to 14) (size 15 to 20)
#    0.000    1.500    3.750    1.125    5.250    2.500 
#    0.000    0.625    0.000    0.000    0.000    0.000 
#    0.000    0.000    0.000    0.000    0.000    0.000 
#
# Total GULP energy -178342.851710 kJ/mol
# GULP energy per Si atom -5573.214116 kJ/mol
# Density = 0.985406 g / cm^3
# Si number density = 9.876543 Si / 1000 Ang^3
#
#
#
# Elastic Constant Matrix: (Units=GPa)
#
#
# Indices 1 2 3 4 5 6 
#
# 1 76.3098 41.5811 35.7513 0.0007 -12.1565 0.0047
# 2 41.5811 170.6198 52.6615 0.0154 -27.4420 0.0229
# 3 35.7513 52.6615 84.9610 0.0140 -26.1181 0.0316
# 4 0.0007 0.0154 0.0140 24.5387 0.0050 -8.8961
# 5 -12.1565 -27.4420 -26.1181 0.0050 29.9355 -0.0141
# 6 0.0047 0.0229 0.0316 -8.8961 -0.0141 23.7966
#
#
#
# Elastic Compliance Matrix: (Units=1/GPa)
#
#
# Indices 1 2 3 4 5 6 
#
# 1 0.017087 -0.002433 -0.005787 0.000008 -0.000340 0.000009
# 2 -0.002433 0.007911 -0.002670 -0.000005 0.003934 -0.000003
# 3 -0.005787 -0.002670 0.019658 -0.000020 0.012353 -0.000023
# 4 0.000008 -0.000005 -0.000020 0.047141 -0.000019 0.017623
# 5 -0.000340 0.003934 0.012353 -0.000019 0.047652 0.000001
# 6 0.000009 -0.000003 -0.000023 0.017623 0.000001 0.048611
#
#
# Mechanical properties :
#
#
# Convention : Reuss Voigt Hill
#
# Bulk Modulus (GPa) = 43.71393 65.76426 54.73909
# Shear Modulus (GPa) = 22.99228 29.11394 26.05311
#
# Velocity S-wave (km/s) = 3.41542 3.84330 3.63566
# Velocity P-wave (km/s) = 6.14261 7.28423 6.73764
#
# Compressibility (1/GPa) = 0.02287601
#
# Stress axis : x y z
#
# Youngs Moduli (GPa) = 58.52383 126.40936 50.87033
#
# Poissons Ratio (x) = 0.30753 0.29438
# Poissons Ratio (y) = 0.14238 0.13583
# Poissons Ratio (z) = 0.33866 0.33754
#
# Static dielectric constant tensor:
#      x y z
#    x 1.769730 -0.000010 0.041330 
#    y -0.000010 1.686480 0.000000 
#    z 0.041330 0.000000 1.763800 
# 
# From -- ./inp_files/207327.got.cif
#   From: 2010.05.17/outbox.ucp.g08.bks.cvg/sg15_104_cif.got.tgz:207327.got - 2010.06.11 12:40:34.
