data_PCOD9309821
_publ_section_title
;
Structure prediction by ZEFSAII (Michael W. Deem and Ramdas Pophale) SiO2 
 PCOD9309821
Probable space group: C 2/C
;
_chemical_formula_sum "Si O2"
_cell_formula_units_Z 28
_cell_length_a 30.000000
_cell_length_b 12.000000
_cell_length_c 15.000000
_cell_angle_alpha 90.000000
_cell_angle_beta 30.000000
_cell_angle_gamma 90.000000
_cell_volume 2700.000000
_symmetry_space_group_name_H-M "C 2/C"
_symmetry_group_IT_number 15
_symmetry_cell_setting 'monoclinic'
loop_
_space_group_symop_operation_xyz
x,y,z
-x,y,1/2-z
-x,-y,-z
x,-y,1/2+z
1/2+x,1/2+y,z
1/2-x,1/2+y,1/2-z
1/2-x,1/2-y,-z
1/2+x,1/2-y,1/2+z
loop_
_atom_site_type_symbol
_atom_site_label
_atom_site_fract_x
_atom_site_fract_y
_atom_site_fract_z
Si Si1 0.039004 0.830833 0.402488
Si Si2 0.366421 0.522003 0.162881
Si Si3 0.261259 0.881866 0.466885
Si Si4 0.255336 0.526997 0.181173
Si Si5 0.311263 0.738887 0.982946
Si Si6 0.951608 0.615666 0.575047
Si Si7 0.902728 0.411890 0.959516
O O1 0.096910 0.811495 0.214193
O O2 0.947694 0.892830 0.536376
O O3 0.016020 0.715099 0.488446
O O4 0.096232 0.904581 0.370051
O O5 0.290095 0.557421 0.364921
O O6 0.331214 0.517434 0.124123
O O7 0.250000 0.750000 0.500000
O O8 0.366691 0.896677 0.284400
O O9 0.234120 0.937216 0.418182
O O10 0.162378 0.509393 0.394102
O O11 0.261498 0.648327 0.128434
O O12 0.344199 0.840317 0.989536
O O13 0.250000 0.750000 0.000000
O O14 0.923062 0.643571 0.521725
O O15 0.000000 0.500000 0.500000
O O16 0.000000 0.437770 0.750000
#
# Coordination Sequence:
#
# PCOD9309821 Si02
#       7
#     8   8   8   8   8   8   8
#     4  11  23  44  73 104 139 189 246 297 353 437
#     4  11  24  46  73 104 141 189 245 298 360 429
#     4  11  24  47  67 100 143 193 227 295 366 423
#     4  11  27  44  70 107 138 186 239 298 359 431
#     4  12  26  46  74 101 143 192 249 302 361 437
#     4  11  25  42  70 104 147 185 234 297 371 432
#     4  11  25  43  70 107 140 187 238 297 366 433
#
# _framework density 10.370369999999999
#
# number of rings (size 3 to 8) (size 9 to 14) (size 15 to 20)
#    0.000    0.857    4.286    1.714    8.000    0.000 
#    0.000    0.000    0.000    0.000    0.000    0.000 
#    0.000    0.000    0.000    0.000    0.000    0.000 
#
# Total GULP energy -156350.529468 kJ/mol
# GULP energy per Si atom -5583.947481 kJ/mol
# Density = 1.034677 g / cm^3
# Si number density = 10.370370 Si / 1000 Ang^3
#
#
#
# Elastic Constant Matrix: (Units=GPa)
#
#
# Indices 1 2 3 4 5 6 
#
# 1 74.4804 68.6446 33.1596 0.0000 15.1487 0.0000
# 2 68.6446 141.4036 76.9848 0.0000 -14.2599 0.0000
# 3 33.1596 76.9848 154.4516 0.0000 0.8118 0.0000
# 4 0.0000 0.0000 0.0000 34.0746 0.0000 9.1555
# 5 15.1487 -14.2599 0.8118 0.0000 21.9671 0.0000
# 6 0.0000 0.0000 0.0000 9.1555 0.0000 7.4631
#
#
#
# Elastic Compliance Matrix: (Units=1/GPa)
#
#
# Indices 1 2 3 4 5 6 
#
# 1 0.063405 -0.042239 0.007817 0.000000 -0.071433 0.000000
# 2 -0.042239 0.038864 -0.010591 0.000000 0.054749 0.000000
# 3 0.007817 -0.010591 0.010142 0.000000 -0.012640 0.000000
# 4 0.000000 0.000000 0.000000 0.043777 0.000000 -0.053704
# 5 -0.071433 0.054749 -0.012640 0.000000 0.130790 0.000000
# 6 0.000000 0.000000 0.000000 -0.053704 0.000000 0.199875
#
#
# Mechanical properties :
#
#
# Convention : Reuss Voigt Hill
#
# Bulk Modulus (GPa) = 44.67506 80.87929 62.77717
# Shear Modulus (GPa) = 8.55664 25.47073 17.01369
#
# Velocity S-wave (km/s) = 2.03334 3.50816 2.86720
# Velocity P-wave (km/s) = 5.20569 7.44913 6.42607
#
# Compressibility (1/GPa) = 0.02238385
#
# Stress axis : x y z
#
# Youngs Moduli (GPa) = 15.77169 25.73061 98.60329
#
# Poissons Ratio (x) = 1.08684 -0.77075
# Poissons Ratio (y) = 0.66618 1.04429
# Poissons Ratio (z) = -0.12328 0.27251
#
# Static dielectric constant tensor:
#      x y z
#    x 1.758310 0.000000 -0.010900 
#    y 0.000000 1.810520 0.000000 
#    z -0.010900 0.000000 1.770060 
# 
# From -- ./inp_files/181908.got.cif
#   From: 2010.05.17/outbox.ucp.g08.bks.cvg/sg15_91_cif.got.tgz:181908.got - 2010.06.11 12:40:34.
