data_PCOD9309185
_publ_section_title
;
Structure prediction by ZEFSAII (Michael W. Deem and Ramdas Pophale) SiO2 
 PCOD9309185
Probable space group: C 2/C
;
_chemical_formula_sum "Si O2"
_cell_formula_units_Z 30
_cell_length_a 18.000000
_cell_length_b 9.000000
_cell_length_c 21.000000
_cell_angle_alpha 90.000000
_cell_angle_beta 60.000000
_cell_angle_gamma 90.000000
_cell_volume 2946.218424
_symmetry_space_group_name_H-M "C 2/C"
_symmetry_group_IT_number 15
_symmetry_cell_setting 'monoclinic'
loop_
_space_group_symop_operation_xyz
x,y,z
-x,y,1/2-z
-x,-y,-z
x,-y,1/2+z
1/2+x,1/2+y,z
1/2-x,1/2+y,1/2-z
1/2-x,1/2-y,-z
1/2+x,1/2-y,1/2+z
loop_
_atom_site_type_symbol
_atom_site_label
_atom_site_fract_x
_atom_site_fract_y
_atom_site_fract_z
Si Si1 0.836451 0.776057 0.842474
Si Si2 0.912980 0.859375 0.188344
Si Si3 0.500000 0.527192 0.250000
Si Si4 0.704989 0.016001 0.941574
Si Si5 0.601696 0.046281 0.358969
Si Si6 0.751542 0.971562 0.195869
Si Si7 0.823805 0.720212 0.350797
Si Si8 0.418954 0.010458 0.886464
O O1 0.779606 0.690211 0.814379
O O2 0.885811 0.651007 0.861286
O O3 0.913050 0.878446 0.784142
O O4 0.769525 0.876527 0.909631
O O5 0.924660 0.719869 0.136374
O O6 0.847332 0.968787 0.181100
O O7 0.860459 0.798997 0.272167
O O8 0.995338 0.933246 0.186290
O O9 0.638150 0.004203 0.911135
O O10 0.766683 0.159543 0.911693
O O11 0.646537 0.012423 0.028092
O O12 0.682248 0.017400 0.278356
O O13 0.515957 0.967874 0.369025
O O14 0.739157 0.087767 0.144374
O O15 0.903230 0.635703 0.349993
#
# Coordination Sequence:
#
# PCOD9309185 Si02
#       8
#     8   8   4   8   8   8   8   8
#     4  11  23  40  61  92 118 161 196 249 303 351
#     4  11  21  38  62  93 121 150 191 263 302 354
#     4  12  22  34  64  90 124 142 200 254 310 342
#     4  12  22  42  63  85 124 167 202 236 294 366
#     4  11  22  38  65  89 121 154 203 246 305 347
#     4  10  21  39  63  89 121 150 194 252 308 358
#     4  10  22  39  63  88 116 160 199 241 302 352
#     4  11  25  41  60  89 125 161 205 243 285 359
#
# _framework density 10.182544
#
# number of rings (size 3 to 8) (size 9 to 14) (size 15 to 20)
#    0.000    1.067    4.000    2.800    1.867    4.800 
#    0.000    0.000    0.000    1.600    0.000    0.000 
#    0.000    0.000    0.000    0.000    0.000    0.000 
#
# Total GULP energy -167532.540467 kJ/mol
# GULP energy per Si atom -5584.418016 kJ/mol
# Density = 1.015937 g / cm^3
# Si number density = 10.182544 Si / 1000 Ang^3
#
#
#
# Elastic Constant Matrix: (Units=GPa)
#
#
# Indices 1 2 3 4 5 6 
#
# 1 97.0169 23.6359 -21.3662 0.0000 -0.6858 0.0000
# 2 23.6359 84.1379 -0.3312 0.0000 6.6948 0.0001
# 3 -21.3662 -0.3312 15.4471 0.0000 5.9469 0.0000
# 4 0.0000 0.0000 0.0000 39.2559 0.0000 -8.4766
# 5 -0.6858 6.6948 5.9469 0.0000 1.9922 0.0000
# 6 0.0000 0.0001 0.0000 -8.4766 0.0000 33.4571
#
#
#
# Elastic Compliance Matrix: (Units=1/GPa)
#
#
# Indices 1 2 3 4 5 6 
#
# 1 0.010127 -0.008255 -0.012115 0.000000 0.067393 0.000000
# 2 -0.008255 0.010884 -0.026740 0.000000 0.040403 0.000000
# 3 -0.012115 -0.026740 -0.096596 0.000000 0.374046 0.000000
# 4 0.000000 0.000000 0.000000 0.026948 0.000000 0.006828
# 5 0.067393 0.040403 0.374046 0.000000 -0.727199 0.000000
# 6 0.000000 0.000000 0.000000 0.006828 0.000000 0.031619
#
#
# Mechanical properties :
#
#
# Convention : Reuss Voigt Hill
#
# Bulk Modulus (GPa) = -5.88910 22.27544 8.19317
# Shear Modulus (GPa) = -7.07614 27.91858 10.42122
#
# Velocity S-wave (km/s) = -1.86606 3.70659 2.26458
# Velocity P-wave (km/s) = 2.74608 5.41112 3.29691
#
# Compressibility (1/GPa) = -0.16980511
#
# Stress axis : x y z
#
# Youngs Moduli (GPa) = 98.74759 91.87739 -10.35235
#
# Poissons Ratio (x) = 0.75845 -0.12542
# Poissons Ratio (y) = 0.81516 -0.27682
# Poissons Ratio (z) = 1.19635 2.45677
#
# Static dielectric constant tensor:
#      x y z
#    x 1.727450 0.000000 0.035330 
#    y 0.000000 1.799980 0.000000 
#    z 0.035330 0.000000 1.705710 
# 
# From -- ./inp_files/247536.got.cif
#   From: 2010.05.17/outbox.ucp.g08.bks.cvg/sg15_124_cif.got.tgz:247536.got - 2010.06.11 12:40:34.
