data_PCOD9309695
_publ_section_title
;
Structure prediction by ZEFSAII (Michael W. Deem and Ramdas Pophale) SiO2 
 PCOD9309695
Probable space group: C 2/C
;
_chemical_formula_sum "Si O2"
_cell_formula_units_Z 28
_cell_length_a 24.000000
_cell_length_b 15.000000
_cell_length_c 9.000000
_cell_angle_alpha 90.000000
_cell_angle_beta 120.000000
_cell_angle_gamma 90.000000
_cell_volume 2805.922308
_symmetry_space_group_name_H-M "C 2/C"
_symmetry_group_IT_number 15
_symmetry_cell_setting 'monoclinic'
loop_
_space_group_symop_operation_xyz
x,y,z
-x,y,1/2-z
-x,-y,-z
x,-y,1/2+z
1/2+x,1/2+y,z
1/2-x,1/2+y,1/2-z
1/2-x,1/2-y,-z
1/2+x,1/2-y,1/2+z
loop_
_atom_site_type_symbol
_atom_site_label
_atom_site_fract_x
_atom_site_fract_y
_atom_site_fract_z
Si Si1 0.747179 0.891194 0.981447
Si Si2 0.939710 0.490233 0.055371
Si Si3 0.705874 0.015968 0.144069
Si Si4 0.068603 0.282923 0.521832
Si Si5 0.360133 0.740140 0.595474
Si Si6 0.814462 0.699841 0.531526
Si Si7 0.071539 0.321849 0.096381
O O1 0.719187 0.966643 0.834216
O O2 0.692552 0.815991 0.931124
O O3 0.813776 0.845947 0.017680
O O4 0.754025 0.942233 0.146138
O O5 0.000000 0.485334 0.250000
O O6 0.865996 0.512784 0.004566
O O7 0.926079 0.391444 0.973146
O O8 0.952503 0.577966 0.974303
O O9 0.713659 0.115151 0.091334
O O10 0.089289 0.238931 0.703084
O O11 0.128818 0.254353 0.494682
O O12 0.989962 0.274798 0.404508
O O13 0.403237 0.767989 0.512364
O O14 0.750000 0.750000 0.500000
O O15 0.862436 0.667344 0.724699
#
# Coordination Sequence:
#
# PCOD9309695 Si02
#       7
#     8   8   8   8   8   8   8
#     4  11  23  40  58  86 121 162 210 259 294 360
#     4  11  21  34  53  85 126 167 200 232 286 381
#     4  11  22  39  58  85 122 164 207 250 305 361
#     4  11  23  38  56  86 125 165 206 244 303 376
#     4  11  23  38  60  86 124 161 210 252 305 354
#     4  11  24  39  59  89 126 163 209 258 303 363
#     4  12  23  36  59  88 125 171 202 250 306 367
#
# _framework density 9.9788940000000004
#
# number of rings (size 3 to 8) (size 9 to 14) (size 15 to 20)
#    0.000    0.857    4.286    5.571    2.000    0.000 
#    0.000    0.000    0.000    0.000    0.000   18.000 
#    0.000    0.000    0.000    0.000    0.000    0.000 
#
# Total GULP energy -155893.404502 kJ/mol
# GULP energy per Si atom -5567.621589 kJ/mol
# Density = 0.995618 g / cm^3
# Si number density = 9.978894 Si / 1000 Ang^3
#
#
#
# Elastic Constant Matrix: (Units=GPa)
#
#
# Indices 1 2 3 4 5 6 
#
# 1 139.8736 23.1275 23.5314 0.0000 9.8972 0.0000
# 2 23.1275 21.2361 13.2965 0.0000 2.9331 0.0000
# 3 23.5314 13.2965 72.3486 0.0000 7.1635 0.0000
# 4 0.0000 0.0000 0.0000 15.3818 0.0000 -1.7529
# 5 9.8972 2.9331 7.1635 0.0000 32.5986 0.0000
# 6 0.0000 0.0000 0.0000 -1.7529 0.0000 37.2122
#
#
#
# Elastic Compliance Matrix: (Units=1/GPa)
#
#
# Indices 1 2 3 4 5 6 
#
# 1 0.008905 -0.008767 -0.001120 0.000000 -0.001669 0.000000
# 2 -0.008767 0.062076 -0.008452 0.000000 -0.001066 0.000000
# 3 -0.001120 -0.008452 0.015978 0.000000 -0.002411 0.000000
# 4 0.000000 0.000000 0.000000 0.065363 0.000000 0.003079
# 5 -0.001669 -0.001066 -0.002411 0.000000 0.031809 0.000000
# 6 0.000000 0.000000 0.000000 0.003079 0.000000 0.027018
#
#
# Mechanical properties :
#
#
# Convention : Reuss Voigt Hill
#
# Bulk Modulus (GPa) = 19.88745 39.26324 29.57534
# Shear Modulus (GPa) = 18.89741 28.60540 23.75140
#
# Velocity S-wave (km/s) = 3.08046 3.79000 3.45350
# Velocity P-wave (km/s) = 4.75802 6.23442 5.54557
#
# Compressibility (1/GPa) = 0.05028297
#
# Stress axis : x y z
#
# Youngs Moduli (GPa) = 112.29189 16.10925 62.58515
#
# Poissons Ratio (x) = 0.14123 0.07010
# Poissons Ratio (y) = 0.98443 0.52895
# Poissons Ratio (z) = 0.12577 0.13615
#
# Static dielectric constant tensor:
#      x y z
#    x 1.863870 0.000000 -0.173180 
#    y 0.000000 1.685430 0.000000 
#    z -0.173180 0.000000 1.934150 
# 
# From -- ./inp_files/62013.got.cif
#   From: 2010.05.17/outbox.ucp.g08.bks.cvg/sg15_32_cif.got.tgz:62013.got - 2010.06.11 12:40:34.
