data_PCOD9309890
_publ_section_title
;
Structure prediction by ZEFSAII (Michael W. Deem and Ramdas Pophale) SiO2 
 PCOD9309890
Probable space group: C 2/C
;
_chemical_formula_sum "Si O2"
_cell_formula_units_Z 26
_cell_length_a 30.000000
_cell_length_b 9.000000
_cell_length_c 15.000000
_cell_angle_alpha 90.000000
_cell_angle_beta 140.000000
_cell_angle_gamma 90.000000
_cell_volume 2603.289819
_symmetry_space_group_name_H-M "C 2/C"
_symmetry_group_IT_number 15
_symmetry_cell_setting 'monoclinic'
loop_
_space_group_symop_operation_xyz
x,y,z
-x,y,1/2-z
-x,-y,-z
x,-y,1/2+z
1/2+x,1/2+y,z
1/2-x,1/2+y,1/2-z
1/2-x,1/2-y,-z
1/2+x,1/2-y,1/2+z
loop_
_atom_site_type_symbol
_atom_site_label
_atom_site_fract_x
_atom_site_fract_y
_atom_site_fract_z
Si Si1 0.104203 0.379399 0.265681
Si Si2 0.807733 0.554056 0.951673
Si Si3 0.500000 0.263033 0.750000
Si Si4 0.612435 0.400021 0.051801
Si Si5 0.850610 0.434474 0.824146
Si Si6 0.842710 0.054905 0.214337
Si Si7 0.304735 0.588956 0.468913
O O1 0.149272 0.473927 0.404779
O O2 0.040703 0.330061 0.234570
O O3 0.096905 0.482017 0.164553
O O4 0.141498 0.226120 0.288525
O O5 0.838158 0.514912 0.900436
O O6 0.730567 0.484960 0.848866
O O7 0.811061 0.732757 0.967272
O O8 0.449407 0.362904 0.611604
O O9 0.634942 0.237304 0.125370
O O10 0.602764 0.497785 0.127072
O O11 0.664024 0.492224 0.065097
O O12 0.777518 0.440779 0.659734
O O13 0.838144 0.965159 0.113637
#
# Coordination Sequence:
#
# PCOD9309890 Si02
#       7
#     8   8   4   8   8   8   8
#     4  12  27  45  72 102 147 197 239 289 353 421
#     4  12  23  40  70 113 143 177 226 302 369 431
#     4  12  28  54  66  94 148 200 254 292 326 426
#     4  12  26  46  72 103 146 189 240 291 353 426
#     4  12  23  41  73 109 142 180 229 299 369 425
#     4  12  23  41  73 106 142 181 225 303 369 425
#     4  12  22  41  70 112 144 176 229 302 370 428
#
# _framework density 9.9873630000000002
#
# number of rings (size 3 to 8) (size 9 to 14) (size 15 to 20)
#    0.000    0.000    7.692    2.769    2.154    1.231 
#    0.000    0.769    0.000    0.000    0.000    0.000 
#    0.000    0.000    0.000    0.000    0.000    0.000 
#
# Total GULP energy -145130.150353 kJ/mol
# GULP energy per Si atom -5581.928860 kJ/mol
# Density = 0.996463 g / cm^3
# Si number density = 9.987363 Si / 1000 Ang^3
#
#
#
# Elastic Constant Matrix: (Units=GPa)
#
#
# Indices 1 2 3 4 5 6 
#
# 1 144.5860 57.1939 43.4353 0.0000 -35.8213 0.0000
# 2 57.1939 132.0117 32.5918 0.0000 -10.5965 0.0000
# 3 43.4353 32.5918 98.6212 0.0000 -28.4729 0.0000
# 4 0.0000 0.0000 0.0000 39.4656 0.0000 -18.4842
# 5 -35.8213 -10.5965 -28.4729 0.0000 44.9817 0.0000
# 6 0.0000 0.0000 0.0000 -18.4842 0.0000 40.1856
#
#
#
# Elastic Compliance Matrix: (Units=1/GPa)
#
#
# Indices 1 2 3 4 5 6 
#
# 1 0.010406 -0.003614 -0.001520 0.000000 0.006474 0.000000
# 2 -0.003614 0.009505 -0.002122 0.000000 -0.001982 0.000000
# 3 -0.001520 -0.002122 0.013480 0.000000 0.006823 0.000000
# 4 0.000000 0.000000 0.000000 0.032296 0.000000 0.014855
# 5 0.006474 -0.001982 0.006823 0.000000 0.031238 0.000000
# 6 0.000000 0.000000 0.000000 0.014855 0.000000 0.031717
#
#
# Mechanical properties :
#
#
# Convention : Reuss Voigt Hill
#
# Bulk Modulus (GPa) = 52.96339 71.29565 62.12952
# Shear Modulus (GPa) = 33.45639 41.05979 37.25809
#
# Velocity S-wave (km/s) = 4.09704 4.53878 4.32355
# Velocity P-wave (km/s) = 6.99669 7.95222 7.48971
#
# Compressibility (1/GPa) = 0.01888097
#
# Stress axis : x y z
#
# Youngs Moduli (GPa) = 96.09684 105.20259 74.18287
#
# Poissons Ratio (x) = 0.38016 0.11275
# Poissons Ratio (y) = 0.34725 0.15741
# Poissons Ratio (z) = 0.14606 0.22323
#
# Static dielectric constant tensor:
#      x y z
#    x 1.738270 0.000000 0.044120 
#    y 0.000000 1.698840 0.000000 
#    z 0.044120 0.000000 1.748030 
# 
# From -- ./inp_files/181078.got.cif
#   From: 2010.05.17/outbox.ucp.g08.bks.cvg/sg15_91_cif.got.tgz:181078.got - 2010.06.11 12:40:34.
