data_PCOD9309272
_publ_section_title
;
Structure prediction by ZEFSAII (Michael W. Deem and Ramdas Pophale) SiO2 
 PCOD9309272
Probable space group: C 2/C
;
_chemical_formula_sum "Si O2"
_cell_formula_units_Z 28
_cell_length_a 30.000000
_cell_length_b 12.000000
_cell_length_c 9.000000
_cell_angle_alpha 90.000000
_cell_angle_beta 60.000000
_cell_angle_gamma 90.000000
_cell_volume 2805.922308
_symmetry_space_group_name_H-M "C 2/C"
_symmetry_group_IT_number 15
_symmetry_cell_setting 'monoclinic'
loop_
_space_group_symop_operation_xyz
x,y,z
-x,y,1/2-z
-x,-y,-z
x,-y,1/2+z
1/2+x,1/2+y,z
1/2-x,1/2+y,1/2-z
1/2-x,1/2-y,-z
1/2+x,1/2-y,1/2+z
loop_
_atom_site_type_symbol
_atom_site_label
_atom_site_fract_x
_atom_site_fract_y
_atom_site_fract_z
Si Si1 0.130545 0.972628 0.696016
Si Si2 0.804740 0.892704 0.192003
Si Si3 0.075173 0.200791 0.797694
Si Si4 0.667748 0.845577 0.766552
Si Si5 0.689028 0.068202 0.894334
Si Si6 0.388513 0.756793 0.095327
Si Si7 0.510907 0.120514 0.055731
O O1 0.151913 0.931016 0.500279
O O2 0.119545 0.857354 0.801231
O O3 0.176912 0.044964 0.689369
O O4 0.084476 0.066059 0.791168
O O5 0.798616 0.759026 0.228318
O O6 0.748467 0.937792 0.248794
O O7 0.115707 0.274470 0.824779
O O8 0.089669 0.223171 0.602464
O O9 0.022592 0.266682 0.921839
O O10 0.683544 0.898241 0.578958
O O11 0.664818 0.948679 0.886577
O O12 0.661849 0.168841 0.849977
O O13 0.431612 0.841848 0.083254
O O14 0.500000 0.102897 0.250000
O O15 0.500000 0.000000 0.000000
#
# Coordination Sequence:
#
# PCOD9309272 Si02
#       7
#     8   8   8   8   8   8   8
#     4  11  22  41  62  90 125 168 215 255 315 371
#     4  11  24  39  63  86 129 167 212 261 311 378
#     4   9  20  42  63  88 126 160 204 260 315 374
#     4  10  23  39  59  90 121 165 208 258 317 376
#     4  11  23  39  61  89 127 164 212 262 316 374
#     4  10  22  38  63  90 123 163 202 265 314 369
#     4  10  21  42  66  93 123 159 203 256 322 375
#
# _framework density 9.9788940000000004
#
# number of rings (size 3 to 8) (size 9 to 14) (size 15 to 20)
#    0.000    1.714    1.429    2.143    4.000    1.143 
#    5.143    0.000    0.000    0.000    0.000    0.000 
#    0.000    0.000    0.000    0.000    0.000    0.000 
#
# Total GULP energy -155985.825829 kJ/mol
# GULP energy per Si atom -5570.922351 kJ/mol
# Density = 0.995618 g / cm^3
# Si number density = 9.978894 Si / 1000 Ang^3
#
#
#
# Elastic Constant Matrix: (Units=GPa)
#
#
# Indices 1 2 3 4 5 6 
#
# 1 54.8024 24.3666 8.8827 0.0000 -3.1079 0.0000
# 2 24.3666 177.7199 29.1525 0.0000 18.9976 0.0000
# 3 8.8827 29.1525 51.0134 0.0000 8.2230 0.0000
# 4 0.0000 0.0000 0.0000 37.8746 0.0000 11.0343
# 5 -3.1079 18.9976 8.2230 0.0000 19.3468 0.0000
# 6 0.0000 0.0000 0.0000 11.0343 0.0000 36.3025
#
#
#
# Elastic Compliance Matrix: (Units=1/GPa)
#
#
# Indices 1 2 3 4 5 6 
#
# 1 0.020571 -0.003145 -0.003022 0.000000 0.007678 0.000000
# 2 -0.003145 0.007160 -0.002501 0.000000 -0.006473 0.000000
# 3 -0.003022 -0.002501 0.022803 0.000000 -0.007722 0.000000
# 4 0.000000 0.000000 0.000000 0.028968 0.000000 -0.008805
# 5 0.007678 -0.006473 -0.007722 0.000000 0.062560 0.000000
# 6 0.000000 0.000000 0.000000 -0.008805 0.000000 0.030223
#
#
# Mechanical properties :
#
#
# Convention : Reuss Voigt Hill
#
# Bulk Modulus (GPa) = 30.12249 45.37104 37.74676
# Shear Modulus (GPa) = 24.91439 33.44704 29.18071
#
# Velocity S-wave (km/s) = 3.53704 4.09820 3.82792
# Velocity P-wave (km/s) = 5.63974 6.72135 6.20416
#
# Compressibility (1/GPa) = 0.03319779
#
# Stress axis : x y z
#
# Youngs Moduli (GPa) = 48.61180 139.65929 43.85453
#
# Poissons Ratio (x) = 0.43929 0.13253
# Poissons Ratio (y) = 0.15291 0.10967
# Poissons Ratio (z) = 0.14691 0.34925
#
# Static dielectric constant tensor:
#      x y z
#    x 1.822840 0.000000 0.013990 
#    y 0.000000 1.702550 0.000000 
#    z 0.013990 0.000000 1.696800 
# 
# From -- ./inp_files/69299.got.cif
#   From: 2010.05.17/outbox.ucp.g08.bks.cvg/sg15_35_cif.got.tgz:69299.got - 2010.06.11 12:40:34.
