data_PCOD9309773
_publ_section_title
;
Structure prediction by ZEFSAII (Michael W. Deem and Ramdas Pophale) SiO2 
 PCOD9309773
Probable space group: C 2/C
;
_chemical_formula_sum "Si O2"
_cell_formula_units_Z 24
_cell_length_a 15.000000
_cell_length_b 18.000000
_cell_length_c 15.000000
_cell_angle_alpha 90.000000
_cell_angle_beta 40.000000
_cell_angle_gamma 90.000000
_cell_volume 2603.289819
_symmetry_space_group_name_H-M "C 2/C"
_symmetry_group_IT_number 15
_symmetry_cell_setting 'monoclinic'
loop_
_space_group_symop_operation_xyz
x,y,z
-x,y,1/2-z
-x,-y,-z
x,-y,1/2+z
1/2+x,1/2+y,z
1/2-x,1/2+y,1/2-z
1/2-x,1/2-y,-z
1/2+x,1/2-y,1/2+z
loop_
_atom_site_type_symbol
_atom_site_label
_atom_site_fract_x
_atom_site_fract_y
_atom_site_fract_z
Si Si1 0.915351 0.331228 0.039569
Si Si2 0.205471 0.420510 0.845938
Si Si3 0.207522 0.078794 0.818977
Si Si4 0.656060 0.950259 0.096480
Si Si5 0.342851 0.128951 0.400186
Si Si6 0.595518 0.656330 0.444132
O O1 0.810259 0.360523 0.196047
O O2 0.947414 0.243481 0.027053
O O3 0.834896 0.340277 0.006827
O O4 0.055017 0.383894 0.933263
O O5 0.243808 0.501486 0.770193
O O6 0.324325 0.369288 0.708203
O O7 0.195682 0.425751 0.963246
O O8 0.242748 0.071517 0.898048
O O9 0.044855 0.105423 0.933188
O O10 0.500000 0.927493 0.250000
O O11 0.656713 0.039692 0.093501
O O12 0.500000 0.151927 0.250000
O O13 0.215527 0.148693 0.430268
#
# Coordination Sequence:
#
# PCOD9309773 Si02
#       6
#     8   8   8   8   8   8
#     4  12  24  46  71 101 139 188 227 280 354 417
#     4  12  23  46  73  96 139 187 229 281 343 414
#     4  12  25  44  71 103 137 181 235 288 333 409
#     4  11  22  42  73 104 125 180 249 278 325 416
#     4  11  22  41  73 100 139 179 227 286 347 417
#     4  12  27  44  66 109 146 173 227 295 350 400
#
# _framework density 9.2191039999999997
#
# number of rings (size 3 to 8) (size 9 to 14) (size 15 to 20)
#    0.000    0.333    6.667    3.500    0.000    1.333 
#    0.000    5.000    0.000    0.000    0.000    0.000 
#    0.000    0.000    0.000    0.000    0.000    0.000 
#
# Total GULP energy -133893.650534 kJ/mol
# GULP energy per Si atom -5578.902106 kJ/mol
# Density = 0.919812 g / cm^3
# Si number density = 9.219104 Si / 1000 Ang^3
#
#
#
# Elastic Constant Matrix: (Units=GPa)
#
#
# Indices 1 2 3 4 5 6 
#
# 1 147.6482 41.5392 64.1491 0.0001 7.6381 0.0000
# 2 41.5392 108.3567 43.3052 0.0000 -0.6361 0.0000
# 3 64.1491 43.3052 147.4949 0.0003 0.1649 -0.0001
# 4 0.0001 0.0000 0.0003 38.1700 -0.0002 -0.6968
# 5 7.6381 -0.6361 0.1649 -0.0002 55.9950 0.0001
# 6 0.0000 0.0000 -0.0001 -0.6968 0.0001 29.0726
#
#
#
# Elastic Compliance Matrix: (Units=1/GPa)
#
#
# Indices 1 2 3 4 5 6 
#
# 1 0.008827 -0.002104 -0.003220 0.000000 -0.001218 0.000000
# 2 -0.002104 0.010958 -0.002303 0.000000 0.000418 0.000000
# 3 -0.003220 -0.002303 0.008856 0.000000 0.000387 0.000000
# 4 0.000000 0.000000 0.000000 0.026210 0.000000 0.000628
# 5 -0.001218 0.000418 0.000387 0.000000 0.018029 0.000000
# 6 0.000000 0.000000 0.000000 0.000628 0.000000 0.034412
#
#
# Mechanical properties :
#
#
# Convention : Reuss Voigt Hill
#
# Bulk Modulus (GPa) = 74.69635 77.94298 76.31966
# Shear Modulus (GPa) = 39.36789 41.61460 40.49125
#
# Velocity S-wave (km/s) = 4.62575 4.75592 4.69129
# Velocity P-wave (km/s) = 8.31443 8.51602 8.41583
#
# Compressibility (1/GPa) = 0.01338754
#
# Stress axis : x y z
#
# Youngs Moduli (GPa) = 113.29143 91.25636 112.91863
#
# Poissons Ratio (x) = 0.19202 0.36358
# Poissons Ratio (y) = 0.23838 0.26002
# Poissons Ratio (z) = 0.36478 0.21014
#
# Static dielectric constant tensor:
#      x y z
#    x 1.660000 0.000000 0.004450 
#    y 0.000000 1.664810 0.000000 
#    z 0.004450 0.000000 1.653710 
# 
# From -- ./inp_files/155063.got.cif
#   From: 2010.05.17/outbox.ucp.g08.bks.cvg/sg15_78_cif.got.tgz:155063.got - 2010.06.11 12:40:34.
