data_PCOD9309034
_publ_section_title
;
Structure prediction by ZEFSAII (Michael W. Deem and Ramdas Pophale) SiO2 
 PCOD9309034
Probable space group: C 2/C
;
_chemical_formula_sum "Si O2"
_cell_formula_units_Z 24
_cell_length_a 15.000000
_cell_length_b 12.000000
_cell_length_c 21.000000
_cell_angle_alpha 90.000000
_cell_angle_beta 140.000000
_cell_angle_gamma 90.000000
_cell_volume 2429.737165
_symmetry_space_group_name_H-M "C 2/C"
_symmetry_group_IT_number 15
_symmetry_cell_setting 'monoclinic'
loop_
_space_group_symop_operation_xyz
x,y,z
-x,y,1/2-z
-x,-y,-z
x,-y,1/2+z
1/2+x,1/2+y,z
1/2-x,1/2+y,1/2-z
1/2-x,1/2-y,-z
1/2+x,1/2-y,1/2+z
loop_
_atom_site_type_symbol
_atom_site_label
_atom_site_fract_x
_atom_site_fract_y
_atom_site_fract_z
Si Si1 0.655432 0.647971 0.971197
Si Si2 0.328440 0.244678 0.437350
Si Si3 0.119538 0.872368 0.730360
Si Si4 0.804292 0.099161 0.036372
Si Si5 0.604185 0.371653 0.248089
Si Si6 0.856159 0.795927 0.897637
O O1 0.675493 0.633419 0.057170
O O2 0.750000 0.750000 0.000000
O O3 0.696427 0.532878 0.960383
O O4 0.493110 0.661905 0.864874
O O5 0.219128 0.211512 0.322999
O O6 0.311921 0.151828 0.483341
O O7 0.293888 0.356873 0.458311
O O8 0.488703 0.249742 0.506342
O O9 0.145417 0.862130 0.669221
O O10 0.952856 0.856652 0.644993
O O11 0.143693 0.998669 0.765769
O O12 0.500000 0.353430 0.250000
O O13 0.740815 0.299144 0.329235
#
# Coordination Sequence:
#
# PCOD9309034 Si02
#       6
#     8   8   8   8   8   8
#     4  11  22  41  65  84 123 166 206 250 304 372
#     4  10  20  39  63  94 122 156 209 254 300 360
#     4  10  21  38  63  88 123 163 205 246 307 369
#     4   9  21  39  66  90 122 166 203 246 312 365
#     4  11  22  41  62  86 120 168 207 244 310 374
#     4  11  24  38  59  96 122 158 205 258 305 353
#
# _framework density 9.8776119999999992
#
# number of rings (size 3 to 8) (size 9 to 14) (size 15 to 20)
#    0.000    1.667    1.667    3.500    0.000    8.000 
#    3.000    0.000   14.667    0.000    0.000    0.000 
#    0.000    0.000    0.000    0.000    0.000    0.000 
#
# Total GULP energy -133938.589341 kJ/mol
# GULP energy per Si atom -5580.774556 kJ/mol
# Density = 0.985513 g / cm^3
# Si number density = 9.877612 Si / 1000 Ang^3
#
#
#
# Elastic Constant Matrix: (Units=GPa)
#
#
# Indices 1 2 3 4 5 6 
#
# 1 69.2743 23.4125 -1.6332 0.0000 -3.4042 0.0000
# 2 23.4125 68.2970 29.0609 0.0000 11.0418 0.0000
# 3 -1.6332 29.0609 68.7406 0.0000 -16.0329 0.0000
# 4 0.0000 0.0000 0.0000 28.6889 0.0000 0.7350
# 5 -3.4042 11.0418 -16.0329 0.0000 26.2517 0.0000
# 6 0.0000 0.0000 0.0000 0.7350 0.0000 15.3242
#
#
#
# Elastic Compliance Matrix: (Units=1/GPa)
#
#
# Indices 1 2 3 4 5 6 
#
# 1 0.019579 -0.012661 0.008923 0.000000 0.013314 0.000000
# 2 -0.012661 0.032051 -0.020265 0.000000 -0.027499 0.000000
# 3 0.008923 -0.020265 0.029834 0.000000 0.027902 0.000000
# 4 0.000000 0.000000 0.000000 0.034900 0.000000 -0.001674
# 5 0.013314 -0.027499 0.027902 0.000000 0.068426 0.000000
# 6 0.000000 0.000000 0.000000 -0.001674 0.000000 0.065337
#
#
# Mechanical properties :
#
#
# Convention : Reuss Voigt Hill
#
# Bulk Modulus (GPa) = 29.88726 34.22137 32.05431
# Shear Modulus (GPa) = 16.16632 24.41774 20.29203
#
# Velocity S-wave (km/s) = 2.86375 3.51951 3.20843
# Velocity P-wave (km/s) = 5.10846 5.82033 5.47598
#
# Compressibility (1/GPa) = 0.03345907
#
# Stress axis : x y z
#
# Youngs Moduli (GPa) = 51.07491 31.20041 33.51852
#
# Poissons Ratio (x) = 0.39504 -0.29909
# Poissons Ratio (y) = 0.64667 0.67924
# Poissons Ratio (z) = -0.45575 0.63226
#
# Static dielectric constant tensor:
#      x y z
#    x 1.730380 0.000000 -0.050430 
#    y 0.000000 1.667240 0.000000 
#    z -0.050430 0.000000 1.718750 
# 
# From -- ./inp_files/243965.got.cif
#   From: 2010.05.17/outbox.ucp.g08.bks.cvg/sg15_122_cif.got.tgz:243965.got - 2010.06.11 12:40:34.
