data_PCOD9309891
_publ_section_title
;
Structure prediction by ZEFSAII (Michael W. Deem and Ramdas Pophale) SiO2 
 PCOD9309891
Probable space group: C 2/C
;
_chemical_formula_sum "Si O2"
_cell_formula_units_Z 22
_cell_length_a 24.000000
_cell_length_b 12.000000
_cell_length_c 9.000000
_cell_angle_alpha 90.000000
_cell_angle_beta 120.000000
_cell_angle_gamma 90.000000
_cell_volume 2244.737847
_symmetry_space_group_name_H-M "C 2/C"
_symmetry_group_IT_number 15
_symmetry_cell_setting 'monoclinic'
loop_
_space_group_symop_operation_xyz
x,y,z
-x,y,1/2-z
-x,-y,-z
x,-y,1/2+z
1/2+x,1/2+y,z
1/2-x,1/2+y,1/2-z
1/2-x,1/2-y,-z
1/2+x,1/2-y,1/2+z
loop_
_atom_site_type_symbol
_atom_site_label
_atom_site_fract_x
_atom_site_fract_y
_atom_site_fract_z
Si Si1 0.860540 0.382473 0.992288
Si Si2 0.644128 0.548845 0.947027
Si Si3 0.943934 0.910170 0.881833
Si Si4 0.500000 0.218973 0.750000
Si Si5 0.791783 0.204307 0.692226
Si Si6 0.287226 0.945901 0.198725
O O1 0.829880 0.283218 0.854988
O O2 0.842064 0.485990 0.860427
O O3 0.935537 0.353658 0.125205
O O4 0.819077 0.402910 0.088285
O O5 0.600399 0.451920 0.815712
O O6 0.654823 0.630311 0.820917
O O7 0.604688 0.595857 0.038396
O O8 0.718533 0.512258 0.081928
O O9 0.978437 0.799223 0.860713
O O10 0.000000 0.000000 0.000000
O O11 0.750000 0.250000 0.500000
O O12 0.738455 0.147103 0.724328
#
# Coordination Sequence:
#
# PCOD9309891 Si02
#       6
#     8   8   8   4   8   8
#     4  12  26  47  70 102 142 188 240 289 354 427
#     4  12  22  41  71  98 137 176 225 294 360 392
#     4  12  23  43  66 101 141 182 226 285 356 418
#     4  12  28  44  70 102 144 196 246 274 346 442
#     4  12  24  41  70 110 136 174 236 293 359 419
#     4  12  24  46  71 101 142 181 232 302 357 408
#
# _framework density 9.8006989999999998
#
# number of rings (size 3 to 8) (size 9 to 14) (size 15 to 20)
#    0.000    0.000    7.273    2.727    2.545    0.727 
#    0.000    0.000    0.000    0.000    0.000    0.000 
#    0.000    0.000    0.000    0.000    0.000    0.000 
#
# Total GULP energy -122755.276058 kJ/mol
# GULP energy per Si atom -5579.785275 kJ/mol
# Density = 0.977839 g / cm^3
# Si number density = 9.800699 Si / 1000 Ang^3
#
#
#
# Elastic Constant Matrix: (Units=GPa)
#
#
# Indices 1 2 3 4 5 6 
#
# 1 159.7687 9.6478 59.3855 0.0000 -13.4355 0.0000
# 2 9.6478 -18.4657 24.2140 0.0000 -1.0190 0.0000
# 3 59.3855 24.2140 130.2933 0.0000 -1.9220 0.0000
# 4 0.0000 0.0000 0.0000 51.8840 0.0000 -1.8153
# 5 -13.4355 -1.0190 -1.9220 0.0000 64.9338 0.0000
# 6 0.0000 0.0000 0.0000 -1.8153 0.0000 40.2912
#
#
#
# Elastic Compliance Matrix: (Units=1/GPa)
#
#
# Indices 1 2 3 4 5 6 
#
# 1 0.007670 -0.000506 -0.003380 0.000000 0.001479 0.000000
# 2 -0.000506 -0.043497 0.008306 0.000000 -0.000541 0.000000
# 3 -0.003380 0.008306 0.007667 0.000000 -0.000342 0.000000
# 4 0.000000 0.000000 0.000000 0.019304 0.000000 0.000870
# 5 0.001479 -0.000541 -0.000342 0.000000 0.015688 0.000000
# 6 0.000000 0.000000 0.000000 0.000870 0.000000 0.024859
#
#
# Mechanical properties :
#
#
# Convention : Reuss Voigt Hill
#
# Bulk Modulus (GPa) = -51.76005 50.89899 -0.43053
# Shear Modulus (GPa) = 304.67474 43.31172 173.99323
#
# Velocity S-wave (km/s) = 12.48089 4.70576 9.43178
# Velocity P-wave (km/s) = 13.46229 7.45312 10.88077
#
# Compressibility (1/GPa) = -0.01931992
#
# Stress axis : x y z
#
# Youngs Moduli (GPa) = 130.37155 -22.99011 130.43157
#
# Poissons Ratio (x) = -0.01164 0.44087
# Poissons Ratio (y) = 0.06602 -1.08342
# Poissons Ratio (z) = 0.44067 0.19097
#
# Static dielectric constant tensor:
#      x y z
#    x 1.679170 0.000000 -0.004470 
#    y 0.000000 1.802870 0.000000 
#    z -0.004470 0.000000 1.687450 
# 
# From -- ./inp_files/54337.got.cif
#   From: 2010.05.17/outbox.ucp.g08.bks.cvg/sg15_28_cif.got.tgz:54337.got - 2010.06.11 12:40:34.
