data_PCOD9309484
_publ_section_title
;
Structure prediction by ZEFSAII (Michael W. Deem and Ramdas Pophale) SiO2 
 PCOD9309484
Probable space group: C 2/C
;
_chemical_formula_sum "Si O2"
_cell_formula_units_Z 24
_cell_length_a 21.000000
_cell_length_b 12.000000
_cell_length_c 15.000000
_cell_angle_alpha 90.000000
_cell_angle_beta 40.000000
_cell_angle_gamma 90.000000
_cell_volume 2429.737165
_symmetry_space_group_name_H-M "C 2/C"
_symmetry_group_IT_number 15
_symmetry_cell_setting 'monoclinic'
loop_
_space_group_symop_operation_xyz
x,y,z
-x,y,1/2-z
-x,-y,-z
x,-y,1/2+z
1/2+x,1/2+y,z
1/2-x,1/2+y,1/2-z
1/2-x,1/2-y,-z
1/2+x,1/2-y,1/2+z
loop_
_atom_site_type_symbol
_atom_site_label
_atom_site_fract_x
_atom_site_fract_y
_atom_site_fract_z
Si Si1 0.883498 0.520197 0.093073
Si Si2 0.684012 0.775706 0.936266
Si Si3 0.343272 0.405231 0.886359
Si Si4 0.021821 0.952088 0.379436
Si Si5 0.790309 0.905874 0.575994
Si Si6 0.766331 0.167814 0.807072
O O1 0.888106 0.629322 0.024999
O O2 0.797343 0.548724 0.261607
O O3 0.824552 0.421705 0.102201
O O4 0.000000 0.500000 0.000000
O O5 0.772486 0.842789 0.890928
O O6 0.722147 0.710916 0.807665
O O7 0.640672 0.686177 0.052644
O O8 0.437819 0.454370 0.732527
O O9 0.289016 0.511108 0.992351
O O10 0.123232 0.876481 0.282245
O O11 0.910120 0.909828 0.472262
O O12 0.000000 0.000000 0.500000
O O13 0.763771 0.774774 0.600925
#
# Coordination Sequence:
#
# PCOD9309484 Si02
#       6
#     8   8   8   8   8   8
#     4  11  23  46  69 101 144 189 233 286 351 427
#     4  10  22  44  72 103 140 182 235 293 347 417
#     4  11  22  45  72 105 144 179 239 301 346 416
#     4  12  22  44  73 101 139 180 242 295 347 424
#     4  11  25  42  66 107 140 183 238 286 354 416
#     4  11  23  44  70 101 138 192 234 281 357 418
#
# _framework density 9.8776119999999992
#
# number of rings (size 3 to 8) (size 9 to 14) (size 15 to 20)
#    0.000    1.000    5.000    1.500    4.667    0.667 
#    6.000    2.500    0.000    0.000    0.000    0.000 
#    0.000    0.000    0.000    0.000    0.000    0.000 
#
# Total GULP energy -133747.837069 kJ/mol
# GULP energy per Si atom -5572.826545 kJ/mol
# Density = 0.985513 g / cm^3
# Si number density = 9.877612 Si / 1000 Ang^3
#
#
#
# Elastic Constant Matrix: (Units=GPa)
#
#
# Indices 1 2 3 4 5 6 
#
# 1 117.9929 49.8458 48.0772 0.0000 -23.1093 0.0000
# 2 49.8458 139.7725 56.6537 0.0000 -8.0223 0.0000
# 3 48.0772 56.6537 136.6715 0.0000 -15.1243 0.0000
# 4 0.0000 0.0000 0.0000 42.8546 0.0000 0.9610
# 5 -23.1093 -8.0223 -15.1243 0.0000 54.2844 0.0000
# 6 0.0000 0.0000 0.0000 0.9610 0.0000 51.3841
#
#
#
# Elastic Compliance Matrix: (Units=1/GPa)
#
#
# Indices 1 2 3 4 5 6 
#
# 1 0.011407 -0.002878 -0.002403 0.000000 0.003761 0.000000
# 2 -0.002878 0.009330 -0.002928 0.000000 -0.000662 0.000000
# 3 -0.002403 -0.002928 0.009508 0.000000 0.001193 0.000000
# 4 0.000000 0.000000 0.000000 0.023344 0.000000 -0.000437
# 5 0.003761 -0.000662 0.001193 0.000000 0.020257 0.000000
# 6 0.000000 0.000000 0.000000 -0.000437 0.000000 0.019469
#
#
# Mechanical properties :
#
#
# Convention : Reuss Voigt Hill
#
# Bulk Modulus (GPa) = 72.33057 78.17672 75.25364
# Shear Modulus (GPa) = 43.72793 45.69530 44.71161
#
# Velocity S-wave (km/s) = 4.70987 4.81466 4.76256
# Velocity P-wave (km/s) = 8.14065 8.40039 8.27154
#
# Compressibility (1/GPa) = 0.01382541
#
# Stress axis : x y z
#
# Youngs Moduli (GPa) = 87.66749 107.18449 105.17257
#
# Poissons Ratio (x) = 0.30846 0.25278
# Poissons Ratio (y) = 0.25229 0.30798
# Poissons Ratio (z) = 0.21070 0.31387
#
# Static dielectric constant tensor:
#      x y z
#    x 1.751840 0.000000 0.015300 
#    y 0.000000 1.750250 0.000000 
#    z 0.015300 0.000000 1.686530 
# 
# From -- ./inp_files/167851.got.cif
#   From: 2010.05.17/outbox.ucp.g08.bks.cvg/sg15_84_cif.got.tgz:167851.got - 2010.06.11 12:40:34.
