data_PCOD9309807
_publ_section_title
;
Structure prediction by ZEFSAII (Michael W. Deem and Ramdas Pophale) SiO2 
 PCOD9309807
Probable space group: C 2/C
;
_chemical_formula_sum "Si O2"
_cell_formula_units_Z 30
_cell_length_a 24.000000
_cell_length_b 9.000000
_cell_length_c 15.000000
_cell_angle_alpha 90.000000
_cell_angle_beta 70.000000
_cell_angle_gamma 90.000000
_cell_volume 3044.604091
_symmetry_space_group_name_H-M "C 2/C"
_symmetry_group_IT_number 15
_symmetry_cell_setting 'monoclinic'
loop_
_space_group_symop_operation_xyz
x,y,z
-x,y,1/2-z
-x,-y,-z
x,-y,1/2+z
1/2+x,1/2+y,z
1/2-x,1/2+y,1/2-z
1/2-x,1/2-y,-z
1/2+x,1/2-y,1/2+z
loop_
_atom_site_type_symbol
_atom_site_label
_atom_site_fract_x
_atom_site_fract_y
_atom_site_fract_z
Si Si1 0.190708 0.917096 0.080083
Si Si2 0.560392 0.333583 0.083220
Si Si3 0.843732 0.864127 0.748067
Si Si4 0.248962 0.367976 0.635631
Si Si5 0.546644 0.884281 0.435630
Si Si6 0.980049 0.894631 0.657977
Si Si7 0.623483 0.025292 0.747729
Si Si8 0.500000 0.884524 0.750000
O O1 0.123055 0.861338 0.097763
O O2 0.230904 0.794520 0.108518
O O3 0.184064 0.050583 0.153053
O O4 0.220623 0.946880 0.967192
O O5 0.524415 0.486829 0.087774
O O6 0.515180 0.227764 0.161796
O O7 0.572976 0.235058 0.989759
O O8 0.796686 0.865101 0.691170
O O9 0.909385 0.932654 0.689247
O O10 0.860201 0.698382 0.771841
O O11 0.184515 0.437850 0.696385
O O12 0.514874 0.773088 0.382463
O O13 0.599681 0.977003 0.362270
O O14 0.500000 0.000000 0.500000
O O15 0.000000 0.898130 0.750000
O O16 0.562616 0.972601 0.730331
#
# Coordination Sequence:
#
# PCOD9309807 Si02
#       8
#     8   8   8   8   8   8   8   4
#     4  11  23  44  74  98 132 190 232 286 349 420
#     4  12  22  44  69 106 133 180 235 284 354 418
#     4  11  24  43  70  99 141 179 231 287 350 414
#     4  11  25  46  69  99 139 183 236 284 343 426
#     4  11  25  39  66 102 141 180 223 282 347 418
#     4  11  23  42  70 102 139 176 223 292 346 402
#     4  11  25  44  64  99 137 178 222 288 348 405
#     4  12  22  40  74  94 140 174 224 284 362 408
#
# _framework density 9.8534980000000001
#
# number of rings (size 3 to 8) (size 9 to 14) (size 15 to 20)
#    0.000    0.800    4.667    2.800    3.733    1.600 
#    0.000    1.333    0.000    0.000    0.000    0.000 
#    0.000    0.000    0.000    0.000    0.000    0.000 
#
# Total GULP energy -167360.401308 kJ/mol
# GULP energy per Si atom -5578.680044 kJ/mol
# Density = 0.983107 g / cm^3
# Si number density = 9.853498 Si / 1000 Ang^3
#
#
#
# Elastic Constant Matrix: (Units=GPa)
#
#
# Indices 1 2 3 4 5 6 
#
# 1 170.3734 46.0237 50.0415 0.0000 -0.3817 0.0000
# 2 46.0237 75.4898 50.4315 0.0000 -4.9764 0.0000
# 3 50.0415 50.4315 111.5535 0.0000 -10.6972 0.0000
# 4 0.0000 0.0000 0.0000 47.5529 0.0000 -7.4094
# 5 -0.3817 -4.9764 -10.6972 0.0000 41.3011 0.0000
# 6 0.0000 0.0000 0.0000 -7.4094 0.0000 36.7872
#
#
#
# Elastic Compliance Matrix: (Units=1/GPa)
#
#
# Indices 1 2 3 4 5 6 
#
# 1 0.007297 -0.003243 -0.001885 0.000000 -0.000812 0.000000
# 2 -0.003243 0.020420 -0.007736 0.000000 0.000427 0.000000
# 3 -0.001885 -0.007736 0.013553 0.000000 0.002561 0.000000
# 4 0.000000 0.000000 0.000000 0.021711 0.000000 0.004373
# 5 -0.000812 0.000427 0.002561 0.000000 0.024920 0.000000
# 6 0.000000 0.000000 0.000000 0.004373 0.000000 0.028064
#
#
# Mechanical properties :
#
#
# Convention : Reuss Voigt Hill
#
# Bulk Modulus (GPa) = 64.34158 72.26778 68.30468
# Shear Modulus (GPa) = 34.04286 39.18959 36.61622
#
# Velocity S-wave (km/s) = 4.16077 4.46422 4.31517
# Velocity P-wave (km/s) = 7.47012 7.95758 7.71770
#
# Compressibility (1/GPa) = 0.01554205
#
# Stress axis : x y z
#
# Youngs Moduli (GPa) = 137.03460 48.97118 73.78539
#
# Poissons Ratio (x) = 0.15882 0.13910
# Poissons Ratio (y) = 0.44441 0.57080
# Poissons Ratio (z) = 0.25834 0.37884
#
# Static dielectric constant tensor:
#      x y z
#    x 1.688570 0.000000 0.016480 
#    y 0.000000 1.701800 0.000000 
#    z 0.016480 0.000000 1.796310 
# 
# From -- ./inp_files/172372.got.cif
#   From: 2010.05.17/outbox.ucp.g08.bks.cvg/sg15_87_cif.got.tgz:172372.got - 2010.06.11 12:40:34.
