data_PCOD9309628
_publ_section_title
;
Structure prediction by ZEFSAII (Michael W. Deem and Ramdas Pophale) SiO2 
 PCOD9309628
Probable space group: C 2/C
;
_chemical_formula_sum "Si O2"
_cell_formula_units_Z 22
_cell_length_a 21.000000
_cell_length_b 12.000000
_cell_length_c 9.000000
_cell_angle_alpha 90.000000
_cell_angle_beta 70.000000
_cell_angle_gamma 90.000000
_cell_volume 2131.222864
_symmetry_space_group_name_H-M "C 2/C"
_symmetry_group_IT_number 15
_symmetry_cell_setting 'monoclinic'
loop_
_space_group_symop_operation_xyz
x,y,z
-x,y,1/2-z
-x,-y,-z
x,-y,1/2+z
1/2+x,1/2+y,z
1/2-x,1/2+y,1/2-z
1/2-x,1/2-y,-z
1/2+x,1/2-y,1/2+z
loop_
_atom_site_type_symbol
_atom_site_label
_atom_site_fract_x
_atom_site_fract_y
_atom_site_fract_z
Si Si1 0.000000 0.683354 0.750000
Si Si2 0.099376 0.158866 0.002500
Si Si3 0.583017 0.567460 0.686347
Si Si4 0.193365 0.372330 0.894696
Si Si5 0.358621 0.080498 0.744543
Si Si6 0.694819 0.714348 0.415215
O O1 0.935871 0.611986 0.736462
O O2 0.034122 0.764558 0.598700
O O3 0.098017 0.097678 0.845128
O O4 0.159575 0.249740 0.941849
O O5 0.101075 0.059451 0.122779
O O6 0.500000 0.580587 0.750000
O O7 0.631890 0.646908 0.543619
O O8 0.149749 0.461165 0.831051
O O9 0.263005 0.354759 0.745567
O O10 0.189104 0.417552 0.068556
O O11 0.334084 0.176824 0.648965
O O12 0.750000 0.750000 0.500000
#
# Coordination Sequence:
#
# PCOD9309628 Si02
#       6
#     4   8   8   8   8   8
#     4  10  24  50  76 110 156 198 268 320 388 460
#     4  11  25  44  71 110 144 195 250 312 382 459
#     4  12  26  44  75 105 149 193 251 313 385 453
#     4  11  26  47  72 110 150 203 262 314 384 461
#     4  11  26  48  76 108 157 205 263 322 391 454
#     4  12  26  48  75 113 153 204 258 320 393 469
#
# _framework density 10.322711999999999
#
# number of rings (size 3 to 8) (size 9 to 14) (size 15 to 20)
#    0.000    0.727    2.727    3.273    7.636    4.364 
#    1.636    0.000    0.000    0.000    0.000    0.000 
#    0.000    0.000    0.000    0.000    0.000    0.000 
#
# Total GULP energy -122982.103200 kJ/mol
# GULP energy per Si atom -5590.095600 kJ/mol
# Density = 1.029922 g / cm^3
# Si number density = 10.322712 Si / 1000 Ang^3
#
#
#
# Elastic Constant Matrix: (Units=GPa)
#
#
# Indices 1 2 3 4 5 6 
#
# 1 102.0937 44.1964 35.8384 0.0000 -10.4745 0.0000
# 2 44.1964 124.8564 44.6973 0.0000 0.7919 0.0000
# 3 35.8384 44.6973 159.8452 0.0000 -15.9904 0.0000
# 4 0.0000 0.0000 0.0000 59.4562 0.0000 3.9077
# 5 -10.4745 0.7919 -15.9904 0.0000 52.5172 0.0000
# 6 0.0000 0.0000 0.0000 3.9077 0.0000 36.9613
#
#
#
# Elastic Compliance Matrix: (Units=1/GPa)
#
#
# Indices 1 2 3 4 5 6 
#
# 1 0.012159 -0.003794 -0.001462 0.000000 0.002037 0.000000
# 2 -0.003794 0.010127 -0.002137 0.000000 -0.001560 0.000000
# 3 -0.001462 -0.002137 0.007380 0.000000 0.001988 0.000000
# 4 0.000000 0.000000 0.000000 0.016937 0.000000 -0.001791
# 5 0.002037 -0.001560 0.001988 0.000000 0.020077 0.000000
# 6 0.000000 0.000000 0.000000 -0.001791 0.000000 0.027245
#
#
# Mechanical properties :
#
#
# Convention : Reuss Voigt Hill
#
# Bulk Modulus (GPa) = 67.19800 70.69548 68.94674
# Shear Modulus (GPa) = 43.98677 47.25783 45.62230
#
# Velocity S-wave (km/s) = 4.62083 4.78956 4.70595
# Velocity P-wave (km/s) = 7.81593 8.05628 7.93701
#
# Compressibility (1/GPa) = 0.01488140
#
# Stress axis : x y z
#
# Youngs Moduli (GPa) = 82.24124 98.74428 135.49677
#
# Poissons Ratio (x) = 0.37462 0.19803
# Poissons Ratio (y) = 0.31201 0.28960
# Poissons Ratio (z) = 0.12020 0.21105
#
# Static dielectric constant tensor:
#      x y z
#    x 1.777930 0.000000 0.009410 
#    y 0.000000 1.736460 0.000000 
#    z 0.009410 0.000000 1.734700 
# 
# From -- ./inp_files/54336.got.cif
#   From: 2010.05.17/outbox.ucp.g08.bks.cvg/sg15_28_cif.got.tgz:54336.got - 2010.06.11 12:40:34.
