data_PCOD9309798
_publ_section_title
;
Structure prediction by ZEFSAII (Michael W. Deem and Ramdas Pophale) SiO2 
 PCOD9309798
Probable space group: C 2/C
;
_chemical_formula_sum "Si O2"
_cell_formula_units_Z 24
_cell_length_a 15.000000
_cell_length_b 27.000000
_cell_length_c 9.000000
_cell_angle_alpha 90.000000
_cell_angle_beta 40.000000
_cell_angle_gamma 90.000000
_cell_volume 2342.960837
_symmetry_space_group_name_H-M "C 2/C"
_symmetry_group_IT_number 15
_symmetry_cell_setting 'monoclinic'
loop_
_space_group_symop_operation_xyz
x,y,z
-x,y,1/2-z
-x,-y,-z
x,-y,1/2+z
1/2+x,1/2+y,z
1/2-x,1/2+y,1/2-z
1/2-x,1/2-y,-z
1/2+x,1/2-y,1/2+z
loop_
_atom_site_type_symbol
_atom_site_label
_atom_site_fract_x
_atom_site_fract_y
_atom_site_fract_z
Si Si1 0.145878 0.539398 0.484090
Si Si2 0.393338 0.364399 0.261190
Si Si3 0.593669 0.393294 0.772303
Si Si4 0.640587 0.741491 0.775485
Si Si5 0.856547 0.564403 0.359968
Si Si6 0.329707 0.279706 0.769097
O O1 0.268808 0.574598 0.384570
O O2 0.127750 0.545854 0.329908
O O3 0.179863 0.483161 0.491047
O O4 0.000000 0.551504 0.750000
O O5 0.500000 0.343304 0.250000
O O6 0.344248 0.318118 0.223879
O O7 0.262424 0.394173 0.487114
O O8 0.491934 0.400489 0.042237
O O9 0.500000 0.404878 0.750000
O O10 0.631899 0.334748 0.726637
O O11 0.750000 0.750000 0.500000
O O12 0.709400 0.779555 0.800710
O O13 0.471160 0.744952 0.016393
O O14 0.000000 0.583661 0.250000
O O15 0.250000 0.250000 0.000000
#
# Coordination Sequence:
#
# PCOD9309798 Si02
#       6
#     8   8   8   8   8   8
#     4  11  25  45  68 101 136 174 220 274 334 399
#     4  11  23  45  64  96 136 171 222 276 330 392
#     4  11  25  43  68  96 135 178 222 277 331 394
#     4  11  23  40  67  92 133 173 221 271 336 394
#     4  11  25  44  70  98 138 172 219 275 332 400
#     4  11  23  44  63  96 131 176 224 278 328 394
#
# _framework density 10.243449
#
# number of rings (size 3 to 8) (size 9 to 14) (size 15 to 20)
#    0.000    1.000    1.667    7.000    4.667    4.000 
#    0.000    0.000    0.000    0.000    0.000    0.000 
#    0.000    0.000    0.000    0.000    0.000    0.000 
#
# Total GULP energy -133766.501117 kJ/mol
# GULP energy per Si atom -5573.604213 kJ/mol
# Density = 1.022013 g / cm^3
# Si number density = 10.243449 Si / 1000 Ang^3
#
#
#
# Elastic Constant Matrix: (Units=GPa)
#
#
# Indices 1 2 3 4 5 6 
#
# 1 106.2173 19.5558 13.2336 0.0000 -13.7076 0.0000
# 2 19.5558 51.3081 36.7664 0.0000 -20.6128 0.0000
# 3 13.2336 36.7664 109.0961 0.0000 -21.5511 0.0000
# 4 0.0000 0.0000 0.0000 36.6736 0.0000 -5.3804
# 5 -13.7076 -20.6128 -21.5511 0.0000 44.8189 0.0000
# 6 0.0000 0.0000 0.0000 -5.3804 0.0000 27.3240
#
#
#
# Elastic Compliance Matrix: (Units=1/GPa)
#
#
# Indices 1 2 3 4 5 6 
#
# 1 0.010227 -0.003390 0.000234 0.000000 0.001681 0.000000
# 2 -0.003390 0.030089 -0.007956 0.000000 0.008976 0.000000
# 3 0.000234 -0.007956 0.012277 0.000000 0.002316 0.000000
# 4 0.000000 0.000000 0.000000 0.028079 0.000000 0.005529
# 5 0.001681 0.008976 0.002316 0.000000 0.028068 0.000000
# 6 0.000000 0.000000 0.000000 0.005529 0.000000 0.037687
#
#
# Mechanical properties :
#
#
# Convention : Reuss Voigt Hill
#
# Bulk Modulus (GPa) = 32.92901 45.08146 39.00524
# Shear Modulus (GPa) = 27.96844 34.90100 31.43472
#
# Velocity S-wave (km/s) = 3.69885 4.13192 3.92137
# Velocity P-wave (km/s) = 5.86090 6.69451 6.29152
#
# Compressibility (1/GPa) = 0.03036836
#
# Stress axis : x y z
#
# Youngs Moduli (GPa) = 97.78399 33.23422 81.45627
#
# Poissons Ratio (x) = 0.11267 -0.01907
# Poissons Ratio (y) = 0.33151 0.64807
# Poissons Ratio (z) = -0.02289 0.26441
#
# Static dielectric constant tensor:
#      x y z
#    x 1.786330 0.000000 0.026010 
#    y 0.000000 1.698960 0.000000 
#    z 0.026010 0.000000 1.743140 
# 
# From -- ./inp_files/33818.got.cif
#   From: 2010.05.17/outbox.ucp.g08.bks.cvg/sg15_17_cif.got.tgz:33818.got - 2010.06.11 12:40:34.
