data_PCOD9309368
_publ_section_title
;
Structure prediction by ZEFSAII (Michael W. Deem and Ramdas Pophale) SiO2 
 PCOD9309368
Probable space group: C 2/C
;
_chemical_formula_sum "Si O2"
_cell_formula_units_Z 18
_cell_length_a 15.000000
_cell_length_b 27.000000
_cell_length_c 9.000000
_cell_angle_alpha 90.000000
_cell_angle_beta 30.000000
_cell_angle_gamma 90.000000
_cell_volume 1822.500000
_symmetry_space_group_name_H-M "C 2/C"
_symmetry_group_IT_number 15
_symmetry_cell_setting 'monoclinic'
loop_
_space_group_symop_operation_xyz
x,y,z
-x,y,1/2-z
-x,-y,-z
x,-y,1/2+z
1/2+x,1/2+y,z
1/2-x,1/2+y,1/2-z
1/2-x,1/2-y,-z
1/2+x,1/2-y,1/2+z
loop_
_atom_site_type_symbol
_atom_site_label
_atom_site_fract_x
_atom_site_fract_y
_atom_site_fract_z
Si Si1 0.125247 0.312855 0.788341
Si Si2 0.293085 0.456866 0.185283
Si Si3 0.675925 0.439449 0.705754
Si Si4 0.000000 0.636620 0.750000
Si Si5 0.000000 0.392457 0.750000
Si Si6 0.000000 0.228638 0.750000
O O1 0.327599 0.302701 0.542101
O O2 0.119949 0.356742 0.676652
O O3 0.052490 0.264129 0.811152
O O4 0.001907 0.329437 0.101776
O O5 0.284244 0.513294 0.250658
O O6 0.118648 0.427028 0.477615
O O7 0.462763 0.430475 0.021096
O O8 0.307960 0.456090 0.987915
O O9 0.821942 0.397027 0.519215
#
# Coordination Sequence:
#
# PCOD9309368 Si02
#       6
#     8   8   8   4   4   4
#     4  10  23  40  66  89 119 152 198 247 309 363
#     4  10  22  40  57  84 127 169 200 243 290 343
#     4  10  23  39  57  87 127 164 204 241 292 343
#     4  12  23  38  61 100 116 156 203 252 287 358
#     4  11  21  38  62  90 116 164 198 252 287 355
#     4   9  22  48  63  88 118 154 193 244 322 379
#
# _framework density 9.8765429999999999
#
# number of rings (size 3 to 8) (size 9 to 14) (size 15 to 20)
#    0.000    1.778    2.222    0.667    6.222    2.667 
#    0.000    0.000    0.000    0.000    0.000    0.000 
#    0.000    0.000    0.000    0.000    0.000    0.000 
#
# Total GULP energy -100429.917877 kJ/mol
# GULP energy per Si atom -5579.439882 kJ/mol
# Density = 0.985406 g / cm^3
# Si number density = 9.876543 Si / 1000 Ang^3
#
#
#
# Elastic Constant Matrix: (Units=GPa)
#
#
# Indices 1 2 3 4 5 6 
#
# 1 41.0104 18.2205 6.3770 0.0000 -6.1886 0.0000
# 2 18.2205 36.4770 35.7922 0.0000 -8.3242 0.0000
# 3 6.3770 35.7922 69.4886 -0.0001 -14.3795 0.0000
# 4 0.0000 0.0000 -0.0001 36.2346 0.0000 6.0490
# 5 -6.1886 -8.3242 -14.3795 0.0000 28.3767 0.0000
# 6 0.0000 0.0000 0.0000 6.0490 0.0000 -12.8090
#
#
#
# Elastic Compliance Matrix: (Units=1/GPa)
#
#
# Indices 1 2 3 4 5 6 
#
# 1 0.036504 -0.029920 0.013285 0.000000 0.005916 0.000000
# 2 -0.029920 0.080054 -0.039077 0.000000 -0.002843 0.000000
# 3 0.013285 -0.039077 0.035220 0.000000 0.009282 0.000000
# 4 0.000000 0.000000 0.000000 0.025581 0.000000 0.012081
# 5 0.005916 -0.002843 0.009282 0.000000 0.040400 0.000000
# 6 0.000000 0.000000 0.000000 0.012081 0.000000 -0.072365
#
#
# Mechanical properties :
#
#
# Convention : Reuss Voigt Hill
#
# Bulk Modulus (GPa) = 24.77972 29.75059 27.26516
# Shear Modulus (GPa) = 18.50016 16.13289 17.31652
#
# Velocity S-wave (km/s) = 3.06366 2.86094 2.96404
# Velocity P-wave (km/s) = 5.00866 5.09973 5.05440
#
# Compressibility (1/GPa) = 0.04035558
#
# Stress axis : x y z
#
# Youngs Moduli (GPa) = 27.39425 12.49159 28.39299
#
# Poissons Ratio (x) = 0.37375 -0.37721
# Poissons Ratio (y) = 0.81963 1.10951
# Poissons Ratio (z) = -0.36394 0.48813
#
# Static dielectric constant tensor:
#      x y z
#    x 1.698520 0.000000 -0.028300 
#    y 0.000000 1.675840 0.000000 
#    z -0.028300 0.000000 1.676180 
# 
# From -- ./inp_files/23124.got.cif
#   From: 2010.05.17/outbox.ucp.g08.bks.cvg/sg15_12_cif.got.tgz:23124.got - 2010.06.11 12:40:34.
