data_PCOD9309154
_publ_section_title
;
Structure prediction by ZEFSAII (Michael W. Deem and Ramdas Pophale) SiO2 
 PCOD9309154
Probable space group: C 2/C
;
_chemical_formula_sum "Si O2"
_cell_formula_units_Z 30
_cell_length_a 15.000000
_cell_length_b 30.000000
_cell_length_c 21.000000
_cell_angle_alpha 90.000000
_cell_angle_beta 160.000000
_cell_angle_gamma 90.000000
_cell_volume 3232.090354
_symmetry_space_group_name_H-M "C 2/C"
_symmetry_group_IT_number 15
_symmetry_cell_setting 'monoclinic'
loop_
_space_group_symop_operation_xyz
x,y,z
-x,y,1/2-z
-x,-y,-z
x,-y,1/2+z
1/2+x,1/2+y,z
1/2-x,1/2+y,1/2-z
1/2-x,1/2-y,-z
1/2+x,1/2-y,1/2+z
loop_
_atom_site_type_symbol
_atom_site_label
_atom_site_fract_x
_atom_site_fract_y
_atom_site_fract_z
Si Si1 0.199573 0.480355 0.549451
Si Si2 0.439940 0.247435 0.016981
Si Si3 0.500000 0.819966 0.750000
Si Si4 0.484007 0.239948 0.907027
Si Si5 0.239539 0.919582 0.032366
Si Si6 0.645793 0.064898 0.151088
Si Si7 0.803689 0.648530 0.977287
Si Si8 0.214453 0.682059 0.950515
O O1 0.500000 0.497570 0.750000
O O2 0.193669 0.450692 0.482413
O O3 0.144213 0.448629 0.574132
O O4 0.001714 0.522072 0.417344
O O5 0.221978 0.285749 0.873410
O O6 0.586468 0.242626 0.047442
O O7 0.680207 0.265931 0.219391
O O8 0.356369 0.198785 0.985846
O O9 0.618910 0.846483 0.893346
O O10 0.601626 0.202450 0.940129
O O11 0.558527 0.286287 0.923330
O O12 0.500000 0.920814 0.250000
O O13 0.202484 0.868607 0.985197
O O14 0.958433 0.932282 0.874906
O O15 0.491146 0.109921 0.070824
O O16 0.500000 0.638900 0.750000
O O17 0.000000 0.683817 0.750000
#
# Coordination Sequence:
#
# PCOD9309154 Si02
#       8
#     8   8   4   8   8   8   8   8
#     4   9  20  43  67  92 125 160 203 265 316 385
#     4  12  22  40  60  84 122 171 214 260 316 370
#     4  12  26  44  60  90 136 164 218 282 312 366
#     4  11  22  35  60  83 119 169 208 256 314 373
#     4  10  22  39  63  93 130 159 200 264 316 384
#     4  10  22  42  67  93 123 167 210 253 328 387
#     4  12  25  43  65  95 124 173 223 268 321 388
#     4  10  21  38  53  89 125 156 205 259 311 376
#
# _framework density 9.2819190000000003
#
# number of rings (size 3 to 8) (size 9 to 14) (size 15 to 20)
#    0.000    1.333    3.333    2.400    1.867    0.533 
#    6.000    0.000    0.000    0.000    0.000    0.000 
#    0.000    0.000    0.000    0.000    0.000    0.000 
#
# Total GULP energy -167082.691746 kJ/mol
# GULP energy per Si atom -5569.423058 kJ/mol
# Density = 0.926079 g / cm^3
# Si number density = 9.281919 Si / 1000 Ang^3
#
#
#
# Elastic Constant Matrix: (Units=GPa)
#
#
# Indices 1 2 3 4 5 6 
#
# 1 105.3787 51.4859 35.5041 0.0037 9.8552 0.0035
# 2 51.4859 111.7852 52.2765 0.0057 7.7841 0.0014
# 3 35.5041 52.2765 123.3042 -0.0100 19.1034 0.0246
# 4 0.0037 0.0057 -0.0100 28.7032 0.0035 4.6144
# 5 9.8552 7.7841 19.1034 0.0035 25.5324 0.0019
# 6 0.0035 0.0014 0.0246 4.6144 0.0019 31.1308
#
#
#
# Elastic Compliance Matrix: (Units=1/GPa)
#
#
# Indices 1 2 3 4 5 6 
#
# 1 0.012586 -0.005125 -0.001064 -0.000001 -0.002500 0.000000
# 2 -0.005125 0.013246 -0.004322 -0.000004 0.001174 0.000004
# 3 -0.001064 -0.004322 0.011290 0.000007 -0.006719 -0.000009
# 4 -0.000001 -0.000004 0.000007 0.035690 -0.000008 -0.005290
# 5 -0.002500 0.001174 -0.006719 -0.000008 0.044800 0.000004
# 6 0.000000 0.000004 -0.000009 -0.005290 0.000004 0.032907
#
#
# Mechanical properties :
#
#
# Convention : Reuss Voigt Hill
#
# Bulk Modulus (GPa) = 62.11388 68.77788 65.44588
# Shear Modulus (GPa) = 28.26371 30.48672 29.37522
#
# Velocity S-wave (km/s) = 3.90617 4.05688 3.98224
# Velocity P-wave (km/s) = 7.34006 7.68597 7.51501
#
# Compressibility (1/GPa) = 0.01609946
#
# Stress axis : x y z
#
# Youngs Moduli (GPa) = 79.45435 75.49655 88.57785
#
# Poissons Ratio (x) = 0.38694 0.09423
# Poissons Ratio (y) = 0.40722 0.38281
# Poissons Ratio (z) = 0.08452 0.32628
#
# Static dielectric constant tensor:
#      x y z
#    x 1.645920 0.000000 -0.020050 
#    y 0.000000 1.610490 -0.000010 
#    z -0.020050 -0.000010 1.690660 
# 
# From -- ./inp_files/44871.got.cif
#   From: 2010.05.17/outbox.ucp.g08.bks.cvg/sg15_23_cif.got.tgz:44871.got - 2010.06.11 12:40:34.
