data_PCOD9309261
_publ_section_title
;
Structure prediction by ZEFSAII (Michael W. Deem and Ramdas Pophale) SiO2 
 PCOD9309261
Probable space group: C 2/C
;
_chemical_formula_sum "Si O2"
_cell_formula_units_Z 30
_cell_length_a 21.000000
_cell_length_b 15.000000
_cell_length_c 27.000000
_cell_angle_alpha 90.000000
_cell_angle_beta 160.000000
_cell_angle_gamma 90.000000
_cell_volume 2908.881319
_symmetry_space_group_name_H-M "C 2/C"
_symmetry_group_IT_number 15
_symmetry_cell_setting 'monoclinic'
loop_
_space_group_symop_operation_xyz
x,y,z
-x,y,1/2-z
-x,-y,-z
x,-y,1/2+z
1/2+x,1/2+y,z
1/2-x,1/2+y,1/2-z
1/2-x,1/2-y,-z
1/2+x,1/2-y,1/2+z
loop_
_atom_site_type_symbol
_atom_site_label
_atom_site_fract_x
_atom_site_fract_y
_atom_site_fract_z
Si Si1 0.709252 0.838575 0.234883
Si Si2 0.442332 0.153609 0.055120
Si Si3 0.354921 0.443594 0.104214
Si Si4 0.831445 0.525136 0.340286
Si Si5 0.500000 0.689991 0.250000
Si Si6 0.113242 0.203322 0.741928
Si Si7 0.049531 0.915528 0.890728
Si Si8 0.843660 0.783639 0.446521
O O1 0.836664 0.824901 0.278342
O O2 0.785544 0.805997 0.345743
O O3 0.685462 0.945822 0.212611
O O4 0.518276 0.785385 0.080789
O O5 0.610832 0.115281 0.145861
O O6 0.514887 0.204923 0.156372
O O7 0.320880 0.075491 0.990475
O O8 0.297645 0.202967 0.911532
O O9 0.500000 0.485090 0.250000
O O10 0.464838 0.358122 0.162514
O O11 0.318219 0.504547 0.030133
O O12 0.653414 0.542024 0.245281
O O13 0.000000 0.500000 0.500000
O O14 0.447562 0.643311 0.158006
O O15 0.674759 0.744756 0.356116
O O16 0.099629 0.869049 0.978975
#
# Coordination Sequence:
#
# PCOD9309261 Si02
#       8
#     8   8   8   8   4   8   8   8
#     4  12  25  45  71 102 143 180 237 287 355 423
#     4  11  24  41  72  97 136 178 230 281 347 407
#     4  10  21  41  67  98 130 180 224 285 345 413
#     4  12  24  44  70 105 137 186 237 287 346 426
#     4  12  26  46  72 100 138 188 236 294 354 424
#     4  11  22  43  66  98 133 177 225 280 342 415
#     4  12  24  45  70 101 141 181 239 287 358 415
#     4  12  28  44  71 104 141 189 230 297 355 428
#
# _framework density 10.313243
#
# number of rings (size 3 to 8) (size 9 to 14) (size 15 to 20)
#    0.000    0.533    4.667    4.000    1.867    0.533 
#    2.400    0.000    0.000    0.000    0.000    0.000 
#    0.000    0.000    0.000    0.000    0.000    0.000 
#
# Total GULP energy -167143.065208 kJ/mol
# GULP energy per Si atom -5571.435507 kJ/mol
# Density = 1.028977 g / cm^3
# Si number density = 10.313243 Si / 1000 Ang^3
#
#
#
# Elastic Constant Matrix: (Units=GPa)
#
#
# Indices 1 2 3 4 5 6 
#
# 1 139.2088 11.1227 35.5403 -0.0015 -11.1763 -0.0008
# 2 11.1227 37.8834 19.3643 0.0163 -15.8967 0.0052
# 3 35.5403 19.3643 61.9224 0.0488 -17.3331 0.0062
# 4 -0.0015 0.0163 0.0488 11.7099 0.0031 -10.5342
# 5 -11.1763 -15.8967 -17.3331 0.0031 39.5098 -0.0004
# 6 -0.0008 0.0052 0.0062 -10.5342 -0.0004 60.7434
#
#
#
# Elastic Compliance Matrix: (Units=1/GPa)
#
#
# Indices 1 2 3 4 5 6 
#
# 1 0.008420 0.000107 -0.004774 0.000025 0.000331 0.000005
# 2 0.000107 0.034892 -0.008019 -0.000024 0.010551 -0.000006
# 3 -0.004774 -0.008019 0.022932 -0.000104 0.005483 -0.000020
# 4 0.000025 -0.000024 -0.000104 0.101184 -0.000056 0.017547
# 5 0.000331 0.010551 0.005483 -0.000056 0.032054 -0.000011
# 6 0.000005 -0.000006 -0.000020 0.017547 -0.000011 0.019506
#
#
# Mechanical properties :
#
#
# Convention : Reuss Voigt Hill
#
# Bulk Modulus (GPa) = 24.46689 41.22989 32.84839
# Shear Modulus (GPa) = 19.38102 33.92509 26.65306
#
# Velocity S-wave (km/s) = 3.06864 4.05993 3.59859
# Velocity P-wave (km/s) = 4.94399 6.48148 5.76423
#
# Compressibility (1/GPa) = 0.04087156
#
# Stress axis : x y z
#
# Youngs Moduli (GPa) = 118.76231 28.65990 43.60767
#
# Poissons Ratio (x) = -0.00305 0.20816
# Poissons Ratio (y) = -0.01265 0.34969
# Poissons Ratio (z) = 0.56692 0.22983
#
# Static dielectric constant tensor:
#      x y z
#    x 1.604590 0.000000 0.070860 
#    y 0.000000 1.935630 -0.000010 
#    z 0.070860 -0.000010 1.751200 
# 
# From -- ./inp_files/301214.got.cif
#   From: 2010.05.17/outbox.ucp.g08.bks.cvg/sg15_151_cif.got.tgz:301214.got - 2010.06.11 12:40:34.
