data_PCOD9309212
_publ_section_title
;
Structure prediction by ZEFSAII (Michael W. Deem and Ramdas Pophale) SiO2 
 PCOD9309212
Probable space group: C 2/C
;
_chemical_formula_sum "Si O2"
_cell_formula_units_Z 32
_cell_length_a 18.000000
_cell_length_b 21.000000
_cell_length_c 24.000000
_cell_angle_alpha 90.000000
_cell_angle_beta 20.000000
_cell_angle_gamma 90.000000
_cell_volume 3102.806740
_symmetry_space_group_name_H-M "C 2/C"
_symmetry_group_IT_number 15
_symmetry_cell_setting 'monoclinic'
loop_
_space_group_symop_operation_xyz
x,y,z
-x,y,1/2-z
-x,-y,-z
x,-y,1/2+z
1/2+x,1/2+y,z
1/2-x,1/2+y,1/2-z
1/2-x,1/2-y,-z
1/2+x,1/2-y,1/2+z
loop_
_atom_site_type_symbol
_atom_site_label
_atom_site_fract_x
_atom_site_fract_y
_atom_site_fract_z
Si Si1 0.528306 0.637765 0.651644
Si Si2 0.432384 0.006208 0.732536
Si Si3 0.267121 0.763944 0.820699
Si Si4 0.354634 0.155543 0.757152
Si Si5 0.848998 0.586835 0.505750
Si Si6 0.144264 0.319368 0.855120
Si Si7 0.106964 0.108058 0.472235
Si Si8 0.237471 0.213847 0.109142
O O1 0.454166 0.711152 0.696514
O O2 0.748514 0.635935 0.531737
O O3 0.566100 0.605647 0.566282
O O4 0.344545 0.593915 0.811998
O O5 0.500000 0.996056 0.750000
O O6 0.593147 0.975587 0.571629
O O7 0.217055 0.959533 0.876703
O O8 0.420783 0.083652 0.731957
O O9 0.231318 0.781712 0.781038
O O10 0.274158 0.833010 0.844277
O O11 0.064400 0.724801 0.986850
O O12 0.557160 0.187937 0.576104
O O13 0.286763 0.211032 0.850806
O O14 0.124011 0.134855 0.889896
O O15 0.059947 0.614882 0.388067
O O16 0.248463 0.324431 0.842183
O O17 0.000000 0.201288 0.250000
#
# Coordination Sequence:
#
# PCOD9309212 Si02
#       8
#     8   8   8   8   8   8   8   8
#     4  10  21  40  62 107 148 196 240 287 345 425
#     4  12  26  49  70 106 149 200 243 291 357 445
#     4  11  20  35  64 102 145 187 235 289 342 416
#     4  12  28  49  77 108 141 184 250 308 376 435
#     4  10  22  41  65  99 154 189 239 284 348 430
#     4  11  21  39  64 102 139 179 234 295 354 414
#     4  12  23  44  74 104 154 196 241 289 364 433
#     4  12  26  50  78 108 138 182 246 321 380 424
#
# _framework density 10.313243
#
# number of rings (size 3 to 8) (size 9 to 14) (size 15 to 20)
#    0.000    0.750    5.000    3.375    0.000    0.500 
#   11.250    3.750    0.000    0.000    0.000    0.000 
#    0.000    0.000    0.000    0.000    0.000    0.000 
#
# Total GULP energy -178167.719396 kJ/mol
# GULP energy per Si atom -5567.741231 kJ/mol
# Density = 1.028977 g / cm^3
# Si number density = 10.313243 Si / 1000 Ang^3
#
#
#
# Elastic Constant Matrix: (Units=GPa)
#
#
# Indices 1 2 3 4 5 6 
#
# 1 103.3206 48.4142 42.0282 -0.0267 2.5007 -0.0041
# 2 48.4142 129.0297 48.8396 -0.0568 4.0669 0.0102
# 3 42.0282 48.8396 115.5836 -0.0265 17.4146 0.0278
# 4 -0.0267 -0.0568 -0.0265 37.5780 -0.0136 2.6601
# 5 2.5007 4.0669 17.4146 -0.0136 41.9971 -0.0119
# 6 -0.0041 0.0102 0.0278 2.6601 -0.0119 32.2933
#
#
#
# Elastic Compliance Matrix: (Units=1/GPa)
#
#
# Indices 1 2 3 4 5 6 
#
# 1 0.012634 -0.003545 -0.003237 0.000001 0.000933 0.000006
# 2 -0.003545 0.010244 -0.003117 0.000011 0.000511 -0.000002
# 3 -0.003237 -0.003117 0.011809 0.000001 -0.004402 -0.000011
# 4 0.000001 0.000011 0.000001 0.026767 0.000007 -0.002205
# 5 0.000933 0.000511 -0.004402 0.000007 0.025531 0.000013
# 6 0.000006 -0.000002 -0.000011 -0.002205 0.000013 0.031148
#
#
# Mechanical properties :
#
#
# Convention : Reuss Voigt Hill
#
# Bulk Modulus (GPa) = 67.15745 69.61089 68.38417
# Shear Modulus (GPa) = 34.99146 36.28380 35.63763
#
# Velocity S-wave (km/s) = 4.12325 4.19870 4.16114
# Velocity P-wave (km/s) = 7.43625 7.57146 7.50416
#
# Compressibility (1/GPa) = 0.01489038
#
# Stress axis : x y z
#
# Youngs Moduli (GPa) = 79.15428 97.62055 84.68259
#
# Poissons Ratio (x) = 0.34603 0.27408
# Poissons Ratio (y) = 0.28057 0.26392
# Poissons Ratio (z) = 0.25619 0.30425
#
# Static dielectric constant tensor:
#      x y z
#    x 1.803710 -0.000010 -0.013020 
#    y -0.000010 1.729850 0.000080 
#    z -0.013020 0.000080 1.822760 
# 
# From -- ./inp_files/278109.got.cif
#   From: 2010.05.17/outbox.ucp.g08.bks.cvg/sg15_140_cif.got.tgz:278109.got - 2010.06.11 12:40:34.
