data_PCOD9309184
_publ_section_title
;
Structure prediction by ZEFSAII (Michael W. Deem and Ramdas Pophale) SiO2 
 PCOD9309184
Probable space group: C 2/C
;
_chemical_formula_sum "Si O2"
_cell_formula_units_Z 24
_cell_length_a 18.000000
_cell_length_b 15.000000
_cell_length_c 18.000000
_cell_angle_alpha 90.000000
_cell_angle_beta 30.000000
_cell_angle_gamma 90.000000
_cell_volume 2430.000000
_symmetry_space_group_name_H-M "C 2/C"
_symmetry_group_IT_number 15
_symmetry_cell_setting 'monoclinic'
loop_
_space_group_symop_operation_xyz
x,y,z
-x,y,1/2-z
-x,-y,-z
x,-y,1/2+z
1/2+x,1/2+y,z
1/2-x,1/2+y,1/2-z
1/2-x,1/2-y,-z
1/2+x,1/2-y,1/2+z
loop_
_atom_site_type_symbol
_atom_site_label
_atom_site_fract_x
_atom_site_fract_y
_atom_site_fract_z
Si Si1 0.036141 0.537533 0.136752
Si Si2 0.032155 0.332558 0.307993
Si Si3 0.759893 0.306030 0.654168
Si Si4 0.516011 0.345027 0.144415
Si Si5 0.190155 0.321507 0.715570
Si Si6 0.871203 0.984547 0.800722
O O1 0.000000 0.574240 0.250000
O O2 0.967925 0.439051 0.192468
O O3 0.935266 0.600770 0.174116
O O4 0.213286 0.526091 0.968190
O O5 0.183099 0.285991 0.199108
O O6 0.000000 0.304897 0.250000
O O7 0.913049 0.307334 0.474784
O O8 0.756784 0.314226 0.745602
O O9 0.670910 0.391677 0.700145
O O10 0.500000 0.344977 0.250000
O O11 0.404375 0.266942 0.219043
O O12 0.445972 0.440714 0.183977
O O13 0.675794 0.333555 0.962566
O O14 0.000000 0.966500 0.750000
#
# Coordination Sequence:
#
# PCOD9309184 Si02
#       6
#     8   8   8   8   8   8
#     4  10  21  39  63  89 119 158 203 246 294 355
#     4  10  22  40  63  87 118 164 205 243 290 354
#     4  11  24  39  61  92 126 157 195 250 302 353
#     4  11  23  40  62  86 118 161 204 244 291 359
#     4  12  24  39  62  92 124 157 195 249 307 354
#     4  10  22  40  62  88 119 158 204 248 292 353
#
# _framework density 9.8765429999999999
#
# number of rings (size 3 to 8) (size 9 to 14) (size 15 to 20)
#    0.000    1.333    0.000    6.000    0.000    8.667 
#    0.000    0.000    0.000    0.000    0.000    0.000 
#    0.000    0.000    0.000    0.000    0.000    0.000 
#
# Total GULP energy -133765.275031 kJ/mol
# GULP energy per Si atom -5573.553126 kJ/mol
# Density = 0.985406 g / cm^3
# Si number density = 9.876543 Si / 1000 Ang^3
#
#
#
# Elastic Constant Matrix: (Units=GPa)
#
#
# Indices 1 2 3 4 5 6 
#
# 1 80.1845 4.2366 13.1157 -0.0007 10.6301 -0.0017
# 2 4.2366 31.2940 6.0431 -0.0010 -9.7872 0.0009
# 3 13.1157 6.0431 83.2987 -0.0012 8.1366 -0.0001
# 4 -0.0007 -0.0010 -0.0012 36.5357 0.0009 -15.9336
# 5 10.6301 -9.7872 8.1366 0.0009 30.9311 0.0005
# 6 -0.0017 0.0009 -0.0001 -15.9336 0.0005 137.9225
#
#
#
# Elastic Compliance Matrix: (Units=1/GPa)
#
#
# Indices 1 2 3 4 5 6 
#
# 1 0.013574 -0.003236 -0.001382 0.000000 -0.005326 0.000000
# 2 -0.003236 0.037426 -0.003562 0.000000 0.013892 0.000000
# 3 -0.001382 -0.003562 0.012876 0.000000 -0.004039 0.000000
# 4 0.000000 0.000000 0.000000 0.028823 -0.000001 0.003330
# 5 -0.005326 0.013892 -0.004039 -0.000001 0.039618 0.000000
# 6 0.000000 0.000000 0.000000 0.003330 0.000000 0.007635
#
#
# Mechanical properties :
#
#
# Convention : Reuss Voigt Hill
#
# Bulk Modulus (GPa) = 21.04669 26.84088 23.94378
# Shear Modulus (GPa) = 29.04414 52.50331 40.77372
#
# Velocity S-wave (km/s) = 3.83869 5.16115 4.54824
# Velocity P-wave (km/s) = 5.50685 7.00959 6.30316
#
# Compressibility (1/GPa) = 0.04751341
#
# Stress axis : x y z
#
# Youngs Moduli (GPa) = 73.66833 26.71961 77.66604
#
# Poissons Ratio (x) = 0.08647 0.10736
# Poissons Ratio (y) = 0.23841 0.27668
# Poissons Ratio (z) = 0.10184 0.09519
#
# Static dielectric constant tensor:
#      x y z
#    x 1.757600 0.000000 -0.005340 
#    y 0.000000 1.713860 0.000000 
#    z -0.005340 0.000000 1.677260 
# 
# From -- ./inp_files/211304.got.cif
#   From: 2010.05.17/outbox.ucp.g08.bks.cvg/sg15_106_cif.got.tgz:211304.got - 2010.06.11 12:40:34.
