data_PCOD9309908
_publ_section_title
;
Structure prediction by ZEFSAII (Michael W. Deem and Ramdas Pophale) SiO2 
 PCOD9309908
Probable space group: C 2/C
;
_chemical_formula_sum "Si O2"
_cell_formula_units_Z 24
_cell_length_a 12.000000
_cell_length_b 9.000000
_cell_length_c 24.000000
_cell_angle_alpha 90.000000
_cell_angle_beta 70.000000
_cell_angle_gamma 90.000000
_cell_volume 2435.683273
_symmetry_space_group_name_H-M "C 2/C"
_symmetry_group_IT_number 15
_symmetry_cell_setting 'monoclinic'
loop_
_space_group_symop_operation_xyz
x,y,z
-x,y,1/2-z
-x,-y,-z
x,-y,1/2+z
1/2+x,1/2+y,z
1/2-x,1/2+y,1/2-z
1/2-x,1/2-y,-z
1/2+x,1/2-y,1/2+z
loop_
_atom_site_type_symbol
_atom_site_label
_atom_site_fract_x
_atom_site_fract_y
_atom_site_fract_z
Si Si1 0.665084 0.122415 0.991970
Si Si2 0.189609 0.246578 0.825578
Si Si3 0.234107 0.406846 0.697215
Si Si4 0.556177 0.217703 0.894465
Si Si5 0.961257 0.419965 0.868435
Si Si6 0.708229 0.328416 0.566269
O O1 0.604586 0.069864 0.060161
O O2 0.750000 0.250000 0.000000
O O3 0.580208 0.176938 0.955765
O O4 0.743261 0.993601 0.950845
O O5 0.219942 0.341134 0.763051
O O6 0.245372 0.279751 0.878877
O O7 0.049927 0.280806 0.855881
O O8 0.222977 0.077164 0.806793
O O9 0.333578 0.310321 0.648087
O O10 0.121081 0.409189 0.672861
O O11 0.433240 0.307313 0.909843
O O12 0.539156 0.070688 0.859005
O O13 0.750000 0.250000 0.500000
#
# Coordination Sequence:
#
# PCOD9309908 Si02
#       6
#     8   8   8   8   8   8
#     4  12  25  43  74 108 146 184 242 294 355 428
#     4  12  27  48  75 101 148 187 246 299 357 434
#     4  12  28  48  70 108 139 194 242 294 362 432
#     4  12  25  45  75 102 149 189 237 296 363 425
#     4  12  24  50  71 104 145 190 234 302 359 424
#     4  12  25  47  74 108 145 193 235 297 370 426
#
# _framework density 9.8534980000000001
#
# number of rings (size 3 to 8) (size 9 to 14) (size 15 to 20)
#    0.000    0.000    6.667    3.000    2.333    1.333 
#    3.000    0.000    0.000    0.000    0.000    0.000 
#    0.000    0.000    0.000    0.000    0.000    0.000 
#
# Total GULP energy -133925.134717 kJ/mol
# GULP energy per Si atom -5580.213947 kJ/mol
# Density = 0.983107 g / cm^3
# Si number density = 9.853498 Si / 1000 Ang^3
#
#
#
# Elastic Constant Matrix: (Units=GPa)
#
#
# Indices 1 2 3 4 5 6 
#
# 1 154.0560 56.9933 37.7454 0.0000 37.1064 0.0000
# 2 56.9933 123.1938 40.9743 0.0000 18.9325 0.0000
# 3 37.7454 40.9743 125.2903 0.0000 39.7432 0.0000
# 4 0.0000 0.0000 0.0000 42.2994 0.0000 -4.5363
# 5 37.1064 18.9325 39.7432 0.0000 41.0982 0.0000
# 6 0.0000 0.0000 0.0000 -4.5363 0.0000 46.7495
#
#
#
# Elastic Compliance Matrix: (Units=1/GPa)
#
#
# Indices 1 2 3 4 5 6 
#
# 1 0.009416 -0.003419 0.000690 0.000000 -0.007594 0.000000
# 2 -0.003419 0.010453 -0.002654 0.000000 0.000838 0.000000
# 3 0.000690 -0.002654 0.012191 0.000000 -0.011189 0.000000
# 4 0.000000 0.000000 0.000000 0.023890 0.000000 0.002318
# 5 -0.007594 0.000838 -0.011189 0.000000 0.041623 0.000000
# 6 0.000000 0.000000 0.000000 0.002318 0.000000 0.021616
#
#
# Mechanical properties :
#
#
# Convention : Reuss Voigt Hill
#
# Bulk Modulus (GPa) = 46.96139 74.88511 60.92325
# Shear Modulus (GPa) = 36.48271 43.81790 40.15030
#
# Velocity S-wave (km/s) = 4.30729 4.72048 4.51861
# Velocity P-wave (km/s) = 6.97270 8.23361 7.62925
#
# Compressibility (1/GPa) = 0.02129409
#
# Stress axis : x y z
#
# Youngs Moduli (GPa) = 106.20387 95.66723 82.02765
#
# Poissons Ratio (x) = 0.32705 -0.05662
# Poissons Ratio (y) = 0.36307 0.21774
# Poissons Ratio (z) = -0.07330 0.25394
#
# Static dielectric constant tensor:
#      x y z
#    x 1.699440 0.000000 -0.031620 
#    y 0.000000 1.731310 0.000000 
#    z -0.031620 0.000000 1.725070 
# 
# From -- ./inp_files/267637.got.cif
#   From: 2010.05.17/outbox.ucp.g08.bks.cvg/sg15_134_cif.got.tgz:267637.got - 2010.06.11 12:40:34.
