data_PCOD9309877
_publ_section_title
;
Structure prediction by ZEFSAII (Michael W. Deem and Ramdas Pophale) SiO2 
 PCOD9309877
Probable space group: C 2/C
;
_chemical_formula_sum "Si O2"
_cell_formula_units_Z 28
_cell_length_a 9.000000
_cell_length_b 12.000000
_cell_length_c 30.000000
_cell_angle_alpha 90.000000
_cell_angle_beta 60.000000
_cell_angle_gamma 90.000000
_cell_volume 2805.922308
_symmetry_space_group_name_H-M "C 2/C"
_symmetry_group_IT_number 15
_symmetry_cell_setting 'monoclinic'
loop_
_space_group_symop_operation_xyz
x,y,z
-x,y,1/2-z
-x,-y,-z
x,-y,1/2+z
1/2+x,1/2+y,z
1/2-x,1/2+y,1/2-z
1/2-x,1/2-y,-z
1/2+x,1/2-y,1/2+z
loop_
_atom_site_type_symbol
_atom_site_label
_atom_site_fract_x
_atom_site_fract_y
_atom_site_fract_z
Si Si1 0.803829 0.202394 0.443959
Si Si2 0.792732 0.029104 0.771885
Si Si3 0.078229 0.972312 0.039142
Si Si4 0.636889 0.220316 0.270731
Si Si5 0.049059 0.397635 0.545118
Si Si6 0.076693 0.210887 0.610262
Si Si7 0.909532 0.383879 0.111678
O O1 0.750000 0.250000 0.500000
O O2 0.620791 0.164918 0.449328
O O3 0.936439 0.293442 0.402578
O O4 0.910241 0.089937 0.437393
O O5 0.732180 0.904466 0.761209
O O6 0.000000 0.019347 0.750000
O O7 0.774221 0.155076 0.751423
O O8 0.677689 0.053691 0.833045
O O9 0.000497 0.882510 0.086649
O O10 0.272982 0.923299 0.006984
O O11 0.000000 0.000000 0.000000
O O12 0.500000 0.209002 0.250000
O O13 0.546533 0.247294 0.331487
O O14 0.111231 0.318829 0.575489
O O15 0.989123 0.518544 0.569927
O O16 0.251119 0.170188 0.608238
#
# Coordination Sequence:
#
# PCOD9309877 Si02
#       7
#     8   8   8   8   8   8   8
#     4  12  24  42  70 102 144 193 240 293 359 432
#     4  11  25  50  76 108 145 187 247 315 378 450
#     4  12  25  45  71 108 152 202 249 299 363 444
#     4  11  25  49  75 107 144 185 247 312 378 448
#     4  12  25  46  69 104 147 188 247 295 354 438
#     4  12  24  46  73 102 145 193 238 306 368 437
#     4  12  24  46  74 102 143 189 239 300 371 440
#
# _framework density 9.9788940000000004
#
# number of rings (size 3 to 8) (size 9 to 14) (size 15 to 20)
#    0.000    0.286    7.143    3.429    0.000    2.857 
#    5.143    0.000    0.000    0.000    0.000    0.000 
#    0.000    0.000    0.000    0.000    0.000    0.000 
#
# Total GULP energy -155944.782281 kJ/mol
# GULP energy per Si atom -5569.456510 kJ/mol
# Density = 0.995618 g / cm^3
# Si number density = 9.978894 Si / 1000 Ang^3
#
#
#
# Elastic Constant Matrix: (Units=GPa)
#
#
# Indices 1 2 3 4 5 6 
#
# 1 91.6976 56.7629 17.6297 0.0000 -0.3015 0.0000
# 2 56.7629 159.5409 34.5586 0.0000 5.1184 0.0000
# 3 17.6297 34.5586 92.8105 0.0000 -3.5324 0.0000
# 4 0.0000 0.0000 0.0000 41.9115 0.0000 -1.6228
# 5 -0.3015 5.1184 -3.5324 0.0000 27.2007 0.0000
# 6 0.0000 0.0000 0.0000 -1.6228 0.0000 55.5054
#
#
#
# Elastic Compliance Matrix: (Units=1/GPa)
#
#
# Indices 1 2 3 4 5 6 
#
# 1 0.014076 -0.004860 -0.000828 0.000000 0.000963 0.000000
# 2 -0.004860 0.008568 -0.002342 0.000000 -0.001970 0.000000
# 3 -0.000828 -0.002342 0.011879 0.000000 0.001974 0.000000
# 4 0.000000 0.000000 0.000000 0.023887 0.000000 0.000698
# 5 0.000963 -0.001970 0.001974 0.000000 0.037402 0.000000
# 6 0.000000 0.000000 0.000000 0.000698 0.000000 0.018037
#
#
# Mechanical properties :
#
#
# Convention : Reuss Voigt Hill
#
# Bulk Modulus (GPa) = 54.15975 62.43903 58.29939
# Shear Modulus (GPa) = 36.74823 40.59671 38.67247
#
# Velocity S-wave (km/s) = 4.29569 4.51502 4.40672
# Velocity P-wave (km/s) = 7.19722 7.65076 7.42745
#
# Compressibility (1/GPa) = 0.01846390
#
# Stress axis : x y z
#
# Youngs Moduli (GPa) = 71.04309 116.71962 84.18172
#
# Poissons Ratio (x) = 0.56722 0.06967
# Poissons Ratio (y) = 0.34525 0.19716
# Poissons Ratio (z) = 0.05879 0.27336
#
# Static dielectric constant tensor:
#      x y z
#    x 1.738470 0.000000 -0.003710 
#    y 0.000000 1.756040 0.000000 
#    z -0.003710 0.000000 1.764860 
# 
# From -- ./inp_files/307422.got.cif
#   From: 2010.05.17/outbox.ucp.g08.bks.cvg/sg15_154_cif.got.tgz:307422.got - 2010.06.11 12:40:34.
