data_PCOD9309977
_publ_section_title
;
Structure prediction by ZEFSAII (Michael W. Deem and Ramdas Pophale) SiO2 
 PCOD9309977
Probable space group: P 2 2 2
;
_chemical_formula_sum "Si O2"
_cell_formula_units_Z 29
_cell_length_a 5.467530
_cell_length_b 15.902722
_cell_length_c 13.652112
_cell_angle_alpha 90.000000
_cell_angle_beta 90.000000
_cell_angle_gamma 90.000000
_cell_volume 1187.032157
_symmetry_space_group_name_H-M "P 2 2 2"
_symmetry_group_IT_number 16
_symmetry_cell_setting 'orthorhombic'
loop_
_space_group_symop_operation_xyz
x,y,z
-x,-y,z
x,-y,-z
-x,y,-z
loop_
_atom_site_type_symbol
_atom_site_label
_atom_site_fract_x
_atom_site_fract_y
_atom_site_fract_z
Si Si1 0.412925 0.388510 0.607857
Si Si2 0.892766 0.594617 0.099516
Si Si3 0.500000 0.500000 0.000000
Si Si4 0.579145 0.795059 0.681901
Si Si5 0.036736 0.091714 0.883885
Si Si6 0.464533 0.810228 0.887422
Si Si7 0.908757 0.628581 0.313412
Si Si8 0.076930 0.182353 0.388535
O O1 0.500000 0.410861 0.500000
O O2 0.391527 0.286576 0.613499
O O3 0.643610 0.412872 0.674649
O O4 0.145014 0.416664 0.641358
O O5 0.948625 0.642125 0.198062
O O6 0.000000 0.500000 0.108790
O O7 0.621207 0.567501 0.073440
O O8 0.000000 0.634468 0.000000
O O9 0.526937 0.757049 0.790220
O O10 0.345930 0.848131 0.644417
O O11 0.839979 0.841898 0.676133
O O12 0.808168 0.155017 0.864882
O O13 0.318652 0.120866 0.876296
O O14 0.000000 0.000000 0.837201
O O15 0.000000 0.082611 0.000000
O O16 0.500000 0.778721 0.000000
O O17 0.892459 0.717522 0.368911
O O18 0.000000 0.165116 0.500000
#
# Coordination Sequence:
#
# PCOD9309977 Si02
#       8
#     4   4   1   4   4   4   4   4
#     4  10  20  35  54  76 105 131 167 211 253 299
#     4   9  20  35  54  77 102 132 171 208 248 297
#     4   8  18  36  56  70 106 136 166 216 254 280
#     4  10  18  31  49  73 101 134 166 199 250 300
#     4   9  17  30  47  67  95 135 175 207 242 286
#     4  10  19  30  46  71 104 137 164 202 246 292
#     4  10  19  32  56  78  97 133 168 205 253 296
#     4  10  19  34  53  73 101 128 165 211 251 295
#
# _framework density 24.430675999999998
#
# number of rings (size 3 to 8) (size 9 to 14) (size 15 to 20)
#    0.000    2.483    0.000    5.379    3.862    1.655 
#    0.000    5.517    0.000    4.552    0.000    0.000 
#    0.000   64.000    0.000    0.000    0.000    0.000 
#
# Total GULP energy -161587.209974 kJ/mol
# GULP energy per Si atom -5571.972758 kJ/mol
# Density = 2.437507 g / cm^3
# Si number density = 24.430676 Si / 1000 Ang^3
#
#
#
# Elastic Constant Matrix: (Units=GPa)
#
#
# Indices 1 2 3 4 5 6 
#
# 1 194.1936 4.4908 21.6159 0.0000 0.0000 0.0000
# 2 4.4908 24.8051 -6.0175 0.0000 0.0000 0.0000
# 3 21.6159 -6.0175 130.4763 0.0000 0.0000 0.0000
# 4 0.0000 0.0000 0.0000 10.4524 0.0000 0.0000
# 5 0.0000 0.0000 0.0000 0.0000 58.5559 0.0000
# 6 0.0000 0.0000 0.0000 0.0000 0.0000 5.6235
#
#
#
# Elastic Compliance Matrix: (Units=1/GPa)
#
#
# Indices 1 2 3 4 5 6 
#
# 1 0.005280 -0.001181 -0.000929 0.000000 0.000000 0.000000
# 2 -0.001181 0.041035 0.002088 0.000000 0.000000 0.000000
# 3 -0.000929 0.002088 0.007914 0.000000 0.000000 0.000000
# 4 0.000000 0.000000 0.000000 0.095672 0.000000 0.000000
# 5 0.000000 0.000000 0.000000 0.000000 0.017078 0.000000
# 6 0.000000 0.000000 0.000000 0.000000 0.000000 0.177826
#
#
# Mechanical properties :
#
#
# Convention : Reuss Voigt Hill
#
# Bulk Modulus (GPa) = 18.45541 43.29482 30.87512
# Shear Modulus (GPa) = 13.77745 36.88540 25.33143
#
# Velocity S-wave (km/s) = 2.37732 3.88983 3.22354
# Velocity P-wave (km/s) = 3.88666 6.15908 5.14978
#
# Compressibility (1/GPa) = 0.05418465
#
# Stress axis : x y z
#
# Youngs Moduli (GPa) = 189.38466 24.36957 126.35061
#
# Poissons Ratio (x) = 0.02879 0.11741
# Poissons Ratio (y) = 0.22374 -0.26385
# Poissons Ratio (z) = 0.17599 -0.05089
#
# Static dielectric constant tensor:
#      x y z
#    x 2.187250 0.000000 0.000000 
#    y 0.000000 1.973230 0.000000 
#    z 0.000000 0.000000 1.893770 
# 
# From -- ./inp_files/6105.got.cif
#   From: 2010.05.17/outbox.cif.g08.bks.cpg/sg16_4_cif.got.tgz:6105.got - 2010.06.03 22:28:35.
