data_PCOD9309546
_publ_section_title
;
Structure prediction by ZEFSAII (Michael W. Deem and Ramdas Pophale) SiO2 
 PCOD9309546
Probable space group: C 2/C
;
_chemical_formula_sum "Si O2"
_cell_formula_units_Z 32
_cell_length_a 24.000000
_cell_length_b 9.000000
_cell_length_c 30.000000
_cell_angle_alpha 90.000000
_cell_angle_beta 30.000000
_cell_angle_gamma 90.000000
_cell_volume 3240.000000
_symmetry_space_group_name_H-M "C 2/C"
_symmetry_group_IT_number 15
_symmetry_cell_setting 'monoclinic'
loop_
_space_group_symop_operation_xyz
x,y,z
-x,y,1/2-z
-x,-y,-z
x,-y,1/2+z
1/2+x,1/2+y,z
1/2-x,1/2+y,1/2-z
1/2-x,1/2-y,-z
1/2+x,1/2-y,1/2+z
loop_
_atom_site_type_symbol
_atom_site_label
_atom_site_fract_x
_atom_site_fract_y
_atom_site_fract_z
Si Si1 0.773521 0.253400 0.757690
Si Si2 0.973927 0.328777 0.931897
Si Si3 0.186503 0.121211 0.516495
Si Si4 0.202820 0.682582 0.577982
Si Si5 0.296727 0.420114 0.779788
Si Si6 0.128535 0.642292 0.473963
Si Si7 0.956471 0.831347 0.538690
Si Si8 0.980550 0.091301 0.312832
O O1 0.726801 0.291632 0.740484
O O2 0.792015 0.079113 0.757176
O O3 0.674667 0.319493 0.857510
O O4 0.898081 0.323882 0.674448
O O5 0.892860 0.212530 0.962487
O O6 0.923207 0.496128 0.966262
O O7 0.976966 0.267005 0.980354
O O8 0.250000 0.250000 0.500000
O O9 0.105512 0.018782 0.602821
O O10 0.271999 0.994816 0.437558
O O11 0.250000 0.750000 0.500000
O O12 0.277947 0.766235 0.563194
O O13 0.077993 0.749842 0.659185
O O14 0.194382 0.417248 0.885168
O O15 0.410315 0.399867 0.730585
O O16 0.030415 0.753855 0.526362
O O17 0.000000 0.000000 0.500000
O O18 0.000000 0.024726 0.250000
#
# Coordination Sequence:
#
# PCOD9309546 Si02
#       8
#     8   8   8   8   8   8   8   8
#     4  12  26  44  70 103 144 185 245 290 362 429
#     4  12  23  45  70 102 139 188 238 292 361 431
#     4  11  25  46  72 102 141 184 236 297 365 432
#     4  10  23  43  69 101 133 184 231 288 359 427
#     4  12  25  47  70 105 143 192 237 300 358 432
#     4  12  24  45  72  96 141 191 238 288 366 433
#     4  12  26  43  67 103 144 187 236 303 353 421
#     4  11  23  45  74 104 141 187 241 299 364 431
#
# _framework density 9.8765429999999999
#
# number of rings (size 3 to 8) (size 9 to 14) (size 15 to 20)
#    0.000    0.500    5.000    4.125    3.500    0.000 
#    2.250    0.625    0.000    0.000    0.000    0.000 
#    0.000    0.000    0.000    0.000    0.000    0.000 
#
# Total GULP energy -178668.872968 kJ/mol
# GULP energy per Si atom -5583.402280 kJ/mol
# Density = 0.985406 g / cm^3
# Si number density = 9.876543 Si / 1000 Ang^3
#
#
#
# Elastic Constant Matrix: (Units=GPa)
#
#
# Indices 1 2 3 4 5 6 
#
# 1 138.2353 62.4436 28.7957 -0.0001 -24.4056 -0.0031
# 2 62.4436 161.9461 40.9176 0.0023 -19.9474 -0.0020
# 3 28.7957 40.9176 120.8289 -0.0019 -18.3526 0.0015
# 4 -0.0001 0.0023 -0.0019 29.3416 -0.0005 3.4940
# 5 -24.4056 -19.9474 -18.3526 -0.0005 38.0137 0.0035
# 6 -0.0031 -0.0020 0.0015 3.4940 0.0035 45.4350
#
#
#
# Elastic Compliance Matrix: (Units=1/GPa)
#
#
# Indices 1 2 3 4 5 6 
#
# 1 0.009446 -0.002970 -0.000605 0.000000 0.004214 0.000000
# 2 -0.002970 0.007940 -0.001767 -0.000001 0.001406 0.000000
# 3 -0.000605 -0.001767 0.009517 0.000001 0.003279 -0.000001
# 4 0.000000 -0.000001 0.000001 0.034396 0.000001 -0.002645
# 5 0.004214 0.001406 0.003279 0.000001 0.031332 -0.000002
# 6 0.000000 0.000000 -0.000001 -0.002645 -0.000002 0.022213
#
#
# Mechanical properties :
#
#
# Convention : Reuss Voigt Hill
#
# Bulk Modulus (GPa) = 61.66390 76.14712 68.90551
# Shear Modulus (GPa) = 38.18686 41.81497 40.00091
#
# Velocity S-wave (km/s) = 4.40160 4.60595 4.50493
# Velocity P-wave (km/s) = 7.55759 8.18044 7.87517
#
# Compressibility (1/GPa) = 0.01621694
#
# Stress axis : x y z
#
# Youngs Moduli (GPa) = 105.86804 125.94623 105.07631
#
# Poissons Ratio (x) = 0.37408 0.06360
# Poissons Ratio (y) = 0.31445 0.18571
# Poissons Ratio (z) = 0.06408 0.22259
#
# Static dielectric constant tensor:
#      x y z
#    x 1.695730 0.000000 0.031170 
#    y 0.000000 1.687750 0.000000 
#    z 0.031170 0.000000 1.735840 
# 
# From -- ./inp_files/318610.got.cif
#   From: 2010.05.17/outbox.ucp.g08.bks.cvg/sg15_160_cif.got.tgz:318610.got - 2010.06.11 12:40:34.
