data_PCOD9309768
_publ_section_title
;
Structure prediction by ZEFSAII (Michael W. Deem and Ramdas Pophale) SiO2 
 PCOD9309768
Probable space group: C 2/C
;
_chemical_formula_sum "Si O2"
_cell_formula_units_Z 24
_cell_length_a 21.000000
_cell_length_b 12.000000
_cell_length_c 27.000000
_cell_angle_alpha 90.000000
_cell_angle_beta 20.000000
_cell_angle_gamma 90.000000
_cell_volume 2327.105055
_symmetry_space_group_name_H-M "C 2/C"
_symmetry_group_IT_number 15
_symmetry_cell_setting 'monoclinic'
loop_
_space_group_symop_operation_xyz
x,y,z
-x,y,1/2-z
-x,-y,-z
x,-y,1/2+z
1/2+x,1/2+y,z
1/2-x,1/2+y,1/2-z
1/2-x,1/2-y,-z
1/2+x,1/2-y,1/2+z
loop_
_atom_site_type_symbol
_atom_site_label
_atom_site_fract_x
_atom_site_fract_y
_atom_site_fract_z
Si Si1 0.380159 0.342104 0.470712
Si Si2 0.455171 0.955963 0.451863
Si Si3 0.287737 0.609121 0.928054
Si Si4 0.550950 0.628980 0.476288
Si Si5 0.787549 0.009348 0.273990
Si Si6 0.670347 0.260320 0.789565
O O1 0.290996 0.380280 0.484669
O O2 0.336160 0.210971 0.502856
O O3 0.320195 0.379842 0.569147
O O4 0.582042 0.401975 0.319960
O O5 0.333635 0.984987 0.588612
O O6 0.508714 0.829700 0.403655
O O7 0.331593 0.002436 0.498589
O O8 0.654200 0.005915 0.323319
O O9 0.500000 0.611467 0.750000
O O10 0.500000 0.500000 0.500000
O O11 0.656829 0.697603 0.356404
O O12 0.365969 0.705000 0.626818
O O13 0.884232 0.128620 0.200344
#
# Coordination Sequence:
#
# PCOD9309768 Si02
#       6
#     8   8   8   8   8   8
#     4  11  24  43  67 102 139 186 237 301 357 430
#     4  11  23  40  70 101 139 195 230 296 363 430
#     4  11  25  44  68 100 149 190 233 291 371 448
#     4  12  25  42  72 108 145 183 246 310 360 427
#     4  11  22  41  70 100 138 177 251 298 350 419
#     4  12  23  42  67 108 140 180 238 314 358 414
#
# _framework density 10.313243
#
# number of rings (size 3 to 8) (size 9 to 14) (size 15 to 20)
#    0.000    0.667    6.667    1.000    4.667    0.000 
#    3.000    0.833    0.000    0.000    0.000    0.000 
#    0.000    0.000    0.000    0.000    0.000    0.000 
#
# Total GULP energy -133640.283326 kJ/mol
# GULP energy per Si atom -5568.345139 kJ/mol
# Density = 1.028977 g / cm^3
# Si number density = 10.313243 Si / 1000 Ang^3
#
#
#
# Elastic Constant Matrix: (Units=GPa)
#
#
# Indices 1 2 3 4 5 6 
#
# 1 78.2748 39.4683 12.3982 0.0060 8.5801 -0.0612
# 2 39.4683 131.8988 51.6447 -0.0226 -12.9664 -0.1203
# 3 12.3982 51.6447 82.2259 -0.0027 -0.9953 -0.0947
# 4 0.0060 -0.0226 -0.0027 40.5540 0.0048 3.8032
# 5 8.5801 -12.9664 -0.9953 0.0048 22.7226 0.0902
# 6 -0.0612 -0.1203 -0.0947 3.8032 0.0902 167.0213
#
#
#
# Elastic Compliance Matrix: (Units=1/GPa)
#
#
# Indices 1 2 3 4 5 6 
#
# 1 0.017023 -0.006685 0.001509 -0.000006 -0.010176 0.000008
# 2 -0.006685 0.013406 -0.007293 0.000007 0.009855 -0.000002
# 3 0.001509 -0.007293 0.016466 -0.000003 -0.004010 0.000007
# 4 -0.000006 0.000007 -0.000003 0.024711 0.000003 -0.000563
# 5 -0.010176 0.009855 -0.004010 0.000003 0.053300 -0.000028
# 6 0.000008 -0.000002 0.000007 -0.000563 -0.000028 0.006000
#
#
# Mechanical properties :
#
#
# Convention : Reuss Voigt Hill
#
# Bulk Modulus (GPa) = 45.54364 55.49131 50.51748
# Shear Modulus (GPa) = 30.64414 58.65214 44.64814
#
# Velocity S-wave (km/s) = 3.85862 5.33827 4.65758
# Velocity P-wave (km/s) = 6.47920 8.05962 7.31223
#
# Compressibility (1/GPa) = 0.02195696
#
# Stress axis : x y z
#
# Youngs Moduli (GPa) = 58.74504 74.59211 60.73049
#
# Poissons Ratio (x) = 0.49864 -0.09163
# Poissons Ratio (y) = 0.39270 0.44291
# Poissons Ratio (z) = -0.08863 0.54400
#
# Static dielectric constant tensor:
#      x y z
#    x 1.792370 0.000000 0.023200 
#    y 0.000000 1.801830 0.000020 
#    z 0.023200 0.000020 1.771900 
# 
# From -- ./inp_files/300906.got.cif
#   From: 2010.05.17/outbox.ucp.g08.bks.cvg/sg15_151_cif.got.tgz:300906.got - 2010.06.11 12:40:34.
