data_PCOD9309348
_publ_section_title
;
Structure prediction by ZEFSAII (Michael W. Deem and Ramdas Pophale) SiO2 
 PCOD9309348
Probable space group: C 2/C
;
_chemical_formula_sum "Si O2"
_cell_formula_units_Z 20
_cell_length_a 21.000000
_cell_length_b 12.000000
_cell_length_c 12.000000
_cell_angle_alpha 90.000000
_cell_angle_beta 40.000000
_cell_angle_gamma 90.000000
_cell_volume 1943.789732
_symmetry_space_group_name_H-M "C 2/C"
_symmetry_group_IT_number 15
_symmetry_cell_setting 'monoclinic'
loop_
_space_group_symop_operation_xyz
x,y,z
-x,y,1/2-z
-x,-y,-z
x,-y,1/2+z
1/2+x,1/2+y,z
1/2-x,1/2+y,1/2-z
1/2-x,1/2-y,-z
1/2+x,1/2-y,1/2+z
loop_
_atom_site_type_symbol
_atom_site_label
_atom_site_fract_x
_atom_site_fract_y
_atom_site_fract_z
Si Si1 0.163463 0.842409 0.089731
Si Si2 0.138072 0.306691 0.046866
Si Si3 0.948823 0.821111 0.491220
Si Si4 0.482812 0.884920 0.086043
Si Si5 0.342632 0.405032 0.833714
O O1 0.061792 0.822732 0.295745
O O2 0.188201 0.971737 0.085837
O O3 0.250000 0.750000 0.000000
O O4 0.125775 0.838645 0.011969
O O5 0.088026 0.383137 0.210767
O O6 0.127745 0.178980 0.104578
O O7 0.082953 0.332331 0.005416
O O8 0.251215 0.342672 0.896538
O O9 0.935328 0.699020 0.561665
O O10 0.926659 0.902379 0.625607
O O11 0.500000 0.000000 0.000000
#
# Coordination Sequence:
#
# PCOD9309348 Si02
#       5
#     8   8   8   8   8
#     4  11  26  42  67  99 134 167 222 283 326 390
#     4   9  22  40  64  96 126 180 223 262 327 405
#     4  10  25  44  62  99 128 178 216 262 346 389
#     4  10  22  38  66  94 135 169 221 281 326 387
#     4  10  22  44  66  92 134 177 221 259 328 414
#
# _framework density 10.289179000000001
#
# number of rings (size 3 to 8) (size 9 to 14) (size 15 to 20)
#    0.000    2.000    0.000    0.600    8.400    9.600 
#    3.600    0.000    0.000    0.000    0.000    0.000 
#    0.000    0.000    0.000    0.000    0.000    0.000 
#
# Total GULP energy -111608.273354 kJ/mol
# GULP energy per Si atom -5580.413668 kJ/mol
# Density = 1.026576 g / cm^3
# Si number density = 10.289179 Si / 1000 Ang^3
#
#
#
# Elastic Constant Matrix: (Units=GPa)
#
#
# Indices 1 2 3 4 5 6 
#
# 1 115.2207 65.8544 33.8153 0.0000 1.7472 0.0000
# 2 65.8544 163.5213 47.1909 0.0000 11.3182 0.0000
# 3 33.8153 47.1909 72.7382 0.0000 -1.7670 0.0000
# 4 0.0000 0.0000 0.0000 33.5937 0.0000 -2.6495
# 5 1.7472 11.3182 -1.7670 0.0000 36.2998 0.0000
# 6 0.0000 0.0000 0.0000 -2.6495 0.0000 24.6385
#
#
#
# Elastic Compliance Matrix: (Units=1/GPa)
#
#
# Indices 1 2 3 4 5 6 
#
# 1 0.011776 -0.003940 -0.002906 0.000000 0.000520 0.000000
# 2 -0.003940 0.009093 -0.004137 0.000000 -0.002847 0.000000
# 3 -0.002906 -0.004137 0.017839 0.000000 0.002298 0.000000
# 4 0.000000 0.000000 0.000000 0.030022 0.000000 0.003228
# 5 0.000520 -0.002847 0.002298 0.000000 0.028523 0.000000
# 6 0.000000 0.000000 0.000000 0.003228 0.000000 0.040934
#
#
# Mechanical properties :
#
#
# Convention : Reuss Voigt Hill
#
# Bulk Modulus (GPa) = 59.72878 71.68906 65.70892
# Shear Modulus (GPa) = 30.16921 32.54772 31.35846
#
# Velocity S-wave (km/s) = 3.83308 3.98131 3.90790
# Velocity P-wave (km/s) = 6.97696 7.48647 7.23620
#
# Compressibility (1/GPa) = 0.01674235
#
# Stress axis : x y z
#
# Youngs Moduli (GPa) = 84.92072 109.97444 56.05843
#
# Poissons Ratio (x) = 0.43328 0.16289
# Poissons Ratio (y) = 0.33457 0.23191
# Poissons Ratio (z) = 0.24675 0.45496
#
# Static dielectric constant tensor:
#      x y z
#    x 1.729350 0.000000 -0.038410 
#    y 0.000000 1.735820 0.000000 
#    z -0.038410 0.000000 1.807080 
# 
# From -- ./inp_files/103580.got.cif
#   From: 2010.05.17/outbox.ucp.g08.bks.cvg/sg15_52_cif.got.tgz:103580.got - 2010.06.11 12:40:34.
