data_PCOD9309490
_publ_section_title
;
Structure prediction by ZEFSAII (Michael W. Deem and Ramdas Pophale) SiO2 
 PCOD9309490
Probable space group: C 2/C
;
_chemical_formula_sum "Si O2"
_cell_formula_units_Z 24
_cell_length_a 15.000000
_cell_length_b 15.000000
_cell_length_c 30.000000
_cell_angle_alpha 90.000000
_cell_angle_beta 20.000000
_cell_angle_gamma 90.000000
_cell_volume 2308.635967
_symmetry_space_group_name_H-M "C 2/C"
_symmetry_group_IT_number 15
_symmetry_cell_setting 'monoclinic'
loop_
_space_group_symop_operation_xyz
x,y,z
-x,y,1/2-z
-x,-y,-z
x,-y,1/2+z
1/2+x,1/2+y,z
1/2-x,1/2+y,1/2-z
1/2-x,1/2-y,-z
1/2+x,1/2-y,1/2+z
loop_
_atom_site_type_symbol
_atom_site_label
_atom_site_fract_x
_atom_site_fract_y
_atom_site_fract_z
Si Si1 0.937278 0.438554 0.891772
Si Si2 0.828811 0.276445 0.513764
Si Si3 0.169042 0.091822 0.829926
Si Si4 0.097169 0.241600 0.784368
Si Si5 0.030350 0.534861 0.936394
Si Si6 0.000000 0.312950 0.250000
Si Si7 0.500000 0.644266 0.750000
O O1 0.989627 0.458503 0.919350
O O2 0.124051 0.514391 0.781669
O O3 0.015378 0.337525 0.842050
O O4 0.626715 0.446403 0.027405
O O5 0.750000 0.250000 0.500000
O O6 0.837395 0.383808 0.514608
O O7 0.658957 0.238709 0.635120
O O8 0.132443 0.246894 0.370468
O O9 0.146037 0.170039 0.801979
O O10 0.287310 0.132397 0.820243
O O11 0.899339 0.205566 0.838688
O O12 0.312903 0.580659 0.808657
O O13 0.000000 0.500000 0.000000
#
# Coordination Sequence:
#
# PCOD9309490 Si02
#       7
#     8   8   8   8   8   4   4
#     4  12  28  47  80 108 162 205 255 335 399 456
#     4  11  24  48  75 107 158 206 256 324 383 468
#     4  12  28  51  72 118 154 206 269 324 392 481
#     4  11  25  47  79 107 160 205 259 322 402 463
#     4  11  25  41  73 112 150 194 266 319 383 461
#     4  12  28  46  78 110 156 212 274 305 397 478
#     4  10  22  46  68 104 148 196 250 313 381 472
#
# _framework density 10.395749
#
# number of rings (size 3 to 8) (size 9 to 14) (size 15 to 20)
#    0.000    0.667    5.000    1.500   11.667    2.000 
#    0.000    0.000    0.000    0.000    0.000    0.000 
#    0.000    0.000    0.000    0.000    0.000    0.000 
#
# Total GULP energy -133895.236123 kJ/mol
# GULP energy per Si atom -5578.968172 kJ/mol
# Density = 1.037209 g / cm^3
# Si number density = 10.395749 Si / 1000 Ang^3
#
#
#
# Elastic Constant Matrix: (Units=GPa)
#
#
# Indices 1 2 3 4 5 6 
#
# 1 168.9679 55.2848 29.4673 -0.0541 7.3281 0.0017
# 2 55.2848 125.1594 46.7985 -0.1268 10.2141 0.0199
# 3 29.4673 46.7985 128.9814 -0.0136 2.1247 0.0210
# 4 -0.0541 -0.1268 -0.0136 36.6893 0.0410 9.1587
# 5 7.3281 10.2141 2.1247 0.0410 41.5010 0.0048
# 6 0.0017 0.0199 0.0210 9.1587 0.0048 55.5618
#
#
#
# Elastic Compliance Matrix: (Units=1/GPa)
#
#
# Indices 1 2 3 4 5 6 
#
# 1 0.006962 -0.002826 -0.000557 0.000001 -0.000505 0.000001
# 2 -0.002826 0.010578 -0.003161 0.000035 -0.001943 -0.000008
# 3 -0.000557 -0.003161 0.009020 -0.000009 0.000414 -0.000001
# 4 0.000001 0.000035 -0.000009 0.028426 -0.000036 -0.004686
# 5 -0.000505 -0.001943 0.000414 -0.000036 0.024642 0.000004
# 6 0.000001 -0.000008 -0.000001 -0.004686 0.000004 0.018770
#
#
# Mechanical properties :
#
#
# Convention : Reuss Voigt Hill
#
# Bulk Modulus (GPa) = 74.21697 76.24553 75.23125
# Shear Modulus (GPa) = 43.11227 46.18762 44.64994
#
# Velocity S-wave (km/s) = 4.55857 4.71836 4.63915
# Velocity P-wave (km/s) = 7.96748 8.15076 8.05964
#
# Compressibility (1/GPa) = 0.01347401
#
# Stress axis : x y z
#
# Youngs Moduli (GPa) = 143.63973 94.53305 110.86189
#
# Poissons Ratio (x) = 0.26712 0.06174
# Poissons Ratio (y) = 0.40588 0.35039
# Poissons Ratio (z) = 0.08000 0.29878
#
# Static dielectric constant tensor:
#      x y z
#    x 1.745060 -0.000250 -0.043880 
#    y -0.000250 1.870030 0.000950 
#    z -0.043880 0.000950 1.843010 
# 
# From -- ./inp_files/314107.got.cif
#   From: 2010.05.17/outbox.ucp.g08.bks.cvg/sg15_158_cif.got.tgz:314107.got - 2010.06.11 12:40:34.
