data_PCOD9309074
_publ_section_title
;
Structure prediction by ZEFSAII (Michael W. Deem and Ramdas Pophale) SiO2 
 PCOD9309074
Probable space group: C 2/C
;
_chemical_formula_sum "Si O2"
_cell_formula_units_Z 28
_cell_length_a 15.000000
_cell_length_b 12.000000
_cell_length_c 15.000000
_cell_angle_alpha 90.000000
_cell_angle_beta 90.000000
_cell_angle_gamma 90.000000
_cell_volume 2700.000000
_symmetry_space_group_name_H-M "C 2/C"
_symmetry_group_IT_number 15
_symmetry_cell_setting 'monoclinic'
loop_
_space_group_symop_operation_xyz
x,y,z
-x,y,1/2-z
-x,-y,-z
x,-y,1/2+z
1/2+x,1/2+y,z
1/2-x,1/2+y,1/2-z
1/2-x,1/2-y,-z
1/2+x,1/2-y,1/2+z
loop_
_atom_site_type_symbol
_atom_site_label
_atom_site_fract_x
_atom_site_fract_y
_atom_site_fract_z
Si Si1 0.534842 0.310032 0.085708
Si Si2 0.158314 0.386148 0.011875
Si Si3 0.500000 0.599581 0.250000
Si Si4 0.661380 0.565518 0.711223
Si Si5 0.987193 0.286897 0.104526
Si Si6 0.500000 0.141913 0.250000
Si Si7 0.636185 0.021533 0.840746
Si Si8 0.337869 0.659238 0.600820
O O1 0.614142 0.384875 0.123481
O O2 0.519347 0.218905 0.164082
O O3 0.439746 0.375217 0.077873
O O4 0.550648 0.251811 0.991388
O O5 0.252848 0.405873 0.060592
O O6 0.078906 0.353345 0.080049
O O7 0.131275 0.482970 0.944271
O O8 0.169729 0.280600 0.944665
O O9 0.410210 0.524840 0.252367
O O10 0.505379 0.678532 0.163722
O O11 0.760778 0.526310 0.688198
O O12 0.669025 0.654274 0.792341
O O13 0.917376 0.362509 0.158592
O O14 0.417741 0.063761 0.221713
#
# Coordination Sequence:
#
# PCOD9309074 Si02
#       8
#     8   8   4   8   8   4   8   8
#     4  11  22  47  75  97 140 184 233 283 341 420
#     4  10  23  42  72 100 140 182 231 277 351 414
#     4  12  28  46  68 104 138 184 228 296 342 402
#     4  12  26  44  70 104 138 175 240 282 350 411
#     4  11  27  45  70 100 147 178 230 290 346 403
#     4  12  22  44  74 100 134 190 228 274 352 406
#     4  12  27  42  69 107 137 182 229 285 346 416
#     4  10  20  41  69 104 131 181 227 285 334 409
#
# _framework density 10.370369999999999
#
# number of rings (size 3 to 8) (size 9 to 14) (size 15 to 20)
#    0.000    0.857    5.714    0.857   10.000    3.429 
#    0.000    0.000    0.000    0.000    0.000    0.000 
#    0.000    0.000    0.000    0.000    0.000    0.000 
#
# Total GULP energy -156509.840126 kJ/mol
# GULP energy per Si atom -5589.637147 kJ/mol
# Density = 1.034677 g / cm^3
# Si number density = 10.370370 Si / 1000 Ang^3
#
#
#
# Elastic Constant Matrix: (Units=GPa)
#
#
# Indices 1 2 3 4 5 6 
#
# 1 179.8529 42.1169 31.1925 0.0000 7.4131 0.0000
# 2 42.1169 51.1768 16.4992 0.0000 -4.7140 0.0000
# 3 31.1925 16.4992 90.7928 0.0000 3.7179 0.0000
# 4 0.0000 0.0000 0.0000 41.0799 0.0000 5.2628
# 5 7.4131 -4.7140 3.7179 0.0000 44.9853 0.0000
# 6 0.0000 0.0000 0.0000 5.2628 0.0000 21.1103
#
#
#
# Elastic Compliance Matrix: (Units=1/GPa)
#
#
# Indices 1 2 3 4 5 6 
#
# 1 0.007184 -0.005620 -0.001379 0.000000 -0.001659 0.000000
# 2 -0.005620 0.025436 -0.002848 0.000000 0.003827 0.000000
# 3 -0.001379 -0.002848 0.012049 0.000000 -0.001067 0.000000
# 4 0.000000 0.000000 0.000000 0.025146 0.000000 -0.006269
# 5 -0.001659 0.003827 -0.001067 0.000000 0.022992 0.000000
# 6 0.000000 0.000000 0.000000 -0.006269 0.000000 0.048933
#
#
# Mechanical properties :
#
#
# Convention : Reuss Voigt Hill
#
# Bulk Modulus (GPa) = 40.04083 55.71553 47.87818
# Shear Modulus (GPa) = 29.45347 36.90269 33.17808
#
# Velocity S-wave (km/s) = 3.77248 4.22268 4.00391
# Velocity P-wave (km/s) = 6.19054 7.12010 6.67153
#
# Compressibility (1/GPa) = 0.02497451
#
# Stress axis : x y z
#
# Youngs Moduli (GPa) = 139.20378 39.31416 82.99410
#
# Poissons Ratio (x) = 0.22096 0.11443
# Poissons Ratio (y) = 0.78236 0.23638
# Poissons Ratio (z) = 0.19193 0.11197
#
# Static dielectric constant tensor:
#      x y z
#    x 1.738740 0.000000 0.018240 
#    y 0.000000 1.767920 0.000000 
#    z 0.018240 0.000000 1.727040 
# 
# From -- ./inp_files/152647.got.cif
#   From: 2010.05.17/outbox.ucp.g08.bks.cvg/sg15_77_cif.got.tgz:152647.got - 2010.06.11 12:40:34.
