data_PCOD9309395
_publ_section_title
;
Structure prediction by ZEFSAII (Michael W. Deem and Ramdas Pophale) SiO2 
 PCOD9309395
Probable space group: C 2/C
;
_chemical_formula_sum "Si O2"
_cell_formula_units_Z 32
_cell_length_a 12.000000
_cell_length_b 9.000000
_cell_length_c 30.000000
_cell_angle_alpha 90.000000
_cell_angle_beta 90.000000
_cell_angle_gamma 90.000000
_cell_volume 3240.000000
_symmetry_space_group_name_H-M "C 2/C"
_symmetry_group_IT_number 15
_symmetry_cell_setting 'monoclinic'
loop_
_space_group_symop_operation_xyz
x,y,z
-x,y,1/2-z
-x,-y,-z
x,-y,1/2+z
1/2+x,1/2+y,z
1/2-x,1/2+y,1/2-z
1/2-x,1/2-y,-z
1/2+x,1/2-y,1/2+z
loop_
_atom_site_type_symbol
_atom_site_label
_atom_site_fract_x
_atom_site_fract_y
_atom_site_fract_z
Si Si1 0.160692 0.138300 0.363896
Si Si2 0.783860 0.841170 0.296532
Si Si3 0.619170 0.113577 0.273442
Si Si4 0.960280 0.283000 0.579867
Si Si5 0.238767 0.404658 0.065859
Si Si6 0.144123 0.642982 0.005203
Si Si7 0.977972 0.122922 0.668518
Si Si8 0.013215 0.621547 0.912181
O O1 0.248035 0.242452 0.338861
O O2 0.068796 0.251511 0.382645
O O3 0.215958 0.039579 0.402989
O O4 0.103317 0.018294 0.331246
O O5 0.805066 0.718668 0.258188
O O6 0.906543 0.907364 0.306344
O O7 0.691890 0.968763 0.286744
O O8 0.500000 0.071723 0.250000
O O9 0.581621 0.230759 0.311474
O O10 0.838932 0.216980 0.564168
O O11 0.999520 0.165860 0.617100
O O12 0.958771 0.450169 0.600615
O O13 0.054931 0.299614 0.541918
O O14 0.197459 0.485258 0.020496
O O15 0.120046 0.352426 0.085953
O O16 0.250000 0.750000 0.000000
O O17 0.072442 0.632676 0.960409
#
# Coordination Sequence:
#
# PCOD9309395 Si02
#       8
#     8   8   8   8   8   8   8   8
#     4  11  23  39  61  91 120 159 201 247 301 357
#     4  11  22  40  66  88 125 161 190 246 299 350
#     4  10  23  41  62  93 121 156 198 240 294 357
#     4  10  22  41  62  87 120 162 202 254 307 357
#     4  10  22  42  59  87 122 160 204 256 300 360
#     4  11  22  39  60  87 123 158 206 257 306 360
#     4  10  23  41  60  90 121 153 204 245 295 361
#     4  11  23  38  60  87 120 159 206 252 305 359
#
# _framework density 9.8765429999999999
#
# number of rings (size 3 to 8) (size 9 to 14) (size 15 to 20)
#    0.000    1.500    1.250    4.500    0.000    7.500 
#    2.250    0.000    0.000    0.000    0.000    0.000 
#    0.000    0.000    0.000    0.000    0.000    0.000 
#
# Total GULP energy -178610.380840 kJ/mol
# GULP energy per Si atom -5581.574401 kJ/mol
# Density = 0.985406 g / cm^3
# Si number density = 9.876543 Si / 1000 Ang^3
#
#
#
# Elastic Constant Matrix: (Units=GPa)
#
#
# Indices 1 2 3 4 5 6 
#
# 1 136.0659 53.4091 14.3045 0.0000 2.7739 0.0000
# 2 53.4091 83.1185 13.8504 0.0000 2.5628 0.0000
# 3 14.3045 13.8504 32.5721 0.0000 -4.0157 0.0000
# 4 0.0000 0.0000 0.0000 34.6411 0.0000 0.6046
# 5 2.7739 2.5628 -4.0157 0.0000 28.1968 0.0000
# 6 0.0000 0.0000 0.0000 0.6046 0.0000 48.3951
#
#
#
# Elastic Compliance Matrix: (Units=1/GPa)
#
#
# Indices 1 2 3 4 5 6 
#
# 1 0.009936 -0.006050 -0.001876 0.000000 -0.000695 0.000000
# 2 -0.006050 0.016744 -0.004659 0.000000 -0.001590 0.000000
# 3 -0.001876 -0.004659 0.034181 0.000000 0.005476 0.000000
# 4 0.000000 0.000000 0.000000 0.028874 0.000000 -0.000361
# 5 -0.000695 -0.001590 0.005476 0.000000 0.036458 0.000000
# 6 0.000000 0.000000 0.000000 -0.000361 0.000000 0.020668
#
#
# Mechanical properties :
#
#
# Convention : Reuss Voigt Hill
#
# Bulk Modulus (GPa) = 28.01905 46.09828 37.05867
# Shear Modulus (GPa) = 27.18453 33.59276 30.38864
#
# Velocity S-wave (km/s) = 3.71376 4.12835 3.92653
# Velocity P-wave (km/s) = 5.71006 6.79060 6.27364
#
# Compressibility (1/GPa) = 0.03569000
#
# Stress axis : x y z
#
# Youngs Moduli (GPa) = 100.64760 59.72266 29.25572
#
# Poissons Ratio (x) = 0.36134 0.05489
# Poissons Ratio (y) = 0.60894 0.13630
# Poissons Ratio (z) = 0.18885 0.27825
#
# Static dielectric constant tensor:
#      x y z
#    x 1.679530 0.000000 -0.008070 
#    y 0.000000 1.676760 0.000000 
#    z -0.008070 0.000000 1.758650 
# 
# From -- ./inp_files/310312.got.cif
#   From: 2010.05.17/outbox.ucp.g08.bks.cvg/sg15_156_cif.got.tgz:310312.got - 2010.06.11 12:40:34.
