data_PCOD9309025
_publ_section_title
;
Structure prediction by ZEFSAII (Michael W. Deem and Ramdas Pophale) SiO2 
 PCOD9309025
Probable space group: C 2/C
;
_chemical_formula_sum "Si O2"
_cell_formula_units_Z 30
_cell_length_a 24.000000
_cell_length_b 15.000000
_cell_length_c 18.000000
_cell_angle_alpha 90.000000
_cell_angle_beta 150.000000
_cell_angle_gamma 90.000000
_cell_volume 3240.000000
_symmetry_space_group_name_H-M "C 2/C"
_symmetry_group_IT_number 15
_symmetry_cell_setting 'monoclinic'
loop_
_space_group_symop_operation_xyz
x,y,z
-x,y,1/2-z
-x,-y,-z
x,-y,1/2+z
1/2+x,1/2+y,z
1/2-x,1/2+y,1/2-z
1/2-x,1/2-y,-z
1/2+x,1/2-y,1/2+z
loop_
_atom_site_type_symbol
_atom_site_label
_atom_site_fract_x
_atom_site_fract_y
_atom_site_fract_z
Si Si1 0.000000 0.575869 0.750000
Si Si2 0.993983 0.028281 0.831543
Si Si3 0.428387 0.857090 0.410969
Si Si4 0.571910 0.018236 0.979089
Si Si5 0.312812 0.780185 0.999591
Si Si6 0.818506 0.927072 0.722543
Si Si7 0.002083 0.155356 0.530157
Si Si8 0.837809 0.123782 0.921729
O O1 0.997221 0.513772 0.675971
O O2 0.896825 0.642193 0.620685
O O3 0.000000 0.042714 0.750000
O O4 0.984441 0.118093 0.870724
O O5 0.882896 0.973365 0.728616
O O6 0.100450 0.966201 0.978492
O O7 0.518907 0.892377 0.455066
O O8 0.457399 0.756651 0.469785
O O9 0.298022 0.872556 0.236772
O O10 0.446906 0.929944 0.496262
O O11 0.704558 0.026888 0.117713
O O12 0.250000 0.750000 0.000000
O O13 0.220130 0.828082 0.842908
O O14 0.368936 0.701605 0.017064
O O15 0.910964 0.913388 0.891638
O O16 0.108986 0.145096 0.598195
#
# Coordination Sequence:
#
# PCOD9309025 Si02
#       8
#     4   8   8   8   8   8   8   8
#     4  10  22  34  52  84 120 148 180 234 306 352
#     4  11  24  40  61  89 125 160 201 253 307 358
#     4  11  22  39  64  87 115 158 207 244 292 356
#     4  10  22  40  59  89 120 155 195 250 303 358
#     4  11  21  31  57  90 123 149 184 246 303 366
#     4  10  20  39  60  87 120 153 200 247 304 358
#     4  11  22  39  62  89 116 164 207 251 293 365
#     4  11  22  39  62  91 121 156 204 250 307 359
#
# _framework density 9.2592590000000001
#
# number of rings (size 3 to 8) (size 9 to 14) (size 15 to 20)
#    0.000    1.333    1.333    6.400    4.667    1.067 
#    1.200    0.000    0.000    1.600    0.000    0.000 
#    0.000    0.000    0.000    0.000    0.000    0.000 
#
# Total GULP energy -167253.693947 kJ/mol
# GULP energy per Si atom -5575.123132 kJ/mol
# Density = 0.923818 g / cm^3
# Si number density = 9.259259 Si / 1000 Ang^3
#
#
#
# Elastic Constant Matrix: (Units=GPa)
#
#
# Indices 1 2 3 4 5 6 
#
# 1 126.7103 34.1445 35.1138 0.0000 -2.5210 0.0000
# 2 34.1445 70.5426 20.3351 0.0000 -5.3593 0.0000
# 3 35.1138 20.3351 69.4493 0.0000 8.1078 0.0000
# 4 0.0000 0.0000 0.0000 24.8316 0.0000 -1.7187
# 5 -2.5210 -5.3593 8.1078 0.0000 35.9777 0.0000
# 6 0.0000 0.0000 0.0000 -1.7187 0.0000 28.1962
#
#
#
# Elastic Compliance Matrix: (Units=1/GPa)
#
#
# Indices 1 2 3 4 5 6 
#
# 1 0.010028 -0.003572 -0.004153 0.000000 0.001106 0.000000
# 2 -0.003572 0.017176 -0.003587 0.000000 0.003117 0.000000
# 3 -0.004153 -0.003587 0.018122 0.000000 -0.004909 0.000000
# 4 0.000000 0.000000 0.000000 0.040442 0.000000 0.002465
# 5 0.001106 0.003117 -0.004909 0.000000 0.029443 0.000000
# 6 0.000000 0.000000 0.000000 0.002465 0.000000 0.035616
#
#
# Mechanical properties :
#
#
# Convention : Reuss Voigt Hill
#
# Bulk Modulus (GPa) = 44.05110 49.54324 46.79717
# Shear Modulus (GPa) = 27.62157 29.60834 28.61495
#
# Velocity S-wave (km/s) = 3.86627 4.00290 3.93518
# Velocity P-wave (km/s) = 6.61589 6.94087 6.78033
#
# Compressibility (1/GPa) = 0.02270091
#
# Stress axis : x y z
#
# Youngs Moduli (GPa) = 99.72487 58.22189 55.18095
#
# Poissons Ratio (x) = 0.20799 0.22917
# Poissons Ratio (y) = 0.35625 0.19792
# Poissons Ratio (z) = 0.41417 0.20883
#
# Static dielectric constant tensor:
#      x y z
#    x 1.682520 0.000000 -0.030120 
#    y 0.000000 1.637230 0.000000 
#    z -0.030120 0.000000 1.676720 
# 
# From -- ./inp_files/219602.got.cif
#   From: 2010.05.17/outbox.ucp.g08.bks.cvg/sg15_110_cif.got.tgz:219602.got - 2010.06.11 12:40:34.
