data_PCOD9309736
_publ_section_title
;
Structure prediction by ZEFSAII (Michael W. Deem and Ramdas Pophale) SiO2 
 PCOD9309736
Probable space group: C 2/C
;
_chemical_formula_sum "Si O2"
_cell_formula_units_Z 32
_cell_length_a 15.000000
_cell_length_b 18.000000
_cell_length_c 18.000000
_cell_angle_alpha 90.000000
_cell_angle_beta 40.000000
_cell_angle_gamma 90.000000
_cell_volume 3123.947783
_symmetry_space_group_name_H-M "C 2/C"
_symmetry_group_IT_number 15
_symmetry_cell_setting 'monoclinic'
loop_
_space_group_symop_operation_xyz
x,y,z
-x,y,1/2-z
-x,-y,-z
x,-y,1/2+z
1/2+x,1/2+y,z
1/2-x,1/2+y,1/2-z
1/2-x,1/2-y,-z
1/2+x,1/2-y,1/2+z
loop_
_atom_site_type_symbol
_atom_site_label
_atom_site_fract_x
_atom_site_fract_y
_atom_site_fract_z
Si Si1 0.435416 0.970756 0.461628
Si Si2 0.102601 0.305614 0.496222
Si Si3 0.391458 0.911815 0.875366
Si Si4 0.657940 0.643057 0.440672
Si Si5 0.907495 0.953603 0.118118
Si Si6 0.640332 0.555208 0.206404
Si Si7 0.846573 0.355384 0.198891
Si Si8 0.762455 0.693300 0.211271
O O1 0.270445 0.976475 0.577345
O O2 0.499228 0.890776 0.399649
O O3 0.500000 0.000000 0.500000
O O4 0.465376 0.021223 0.370736
O O5 0.143311 0.357038 0.537010
O O6 0.166485 0.225157 0.467885
O O7 0.168690 0.340082 0.379547
O O8 0.931808 0.303891 0.600522
O O9 0.500000 0.875715 0.750000
O O10 0.253689 0.920528 0.915234
O O11 0.502135 0.619654 0.559066
O O12 0.707167 0.658138 0.324732
O O13 0.754300 0.919151 0.204344
O O14 0.891489 0.003435 0.201971
O O15 0.000000 0.000000 0.000000
O O16 0.500000 0.561636 0.250000
O O17 0.700938 0.634726 0.192569
O O18 0.805759 0.274720 0.257128
#
# Coordination Sequence:
#
# PCOD9309736 Si02
#       8
#     8   8   8   8   8   8   8   8
#     4  12  23  45  71  96 135 184 230 274 337 425
#     4  11  21  43  66  96 135 180 222 269 343 419
#     4  12  24  38  64 103 136 169 221 282 341 400
#     4  11  24  40  64  99 137 168 219 284 344 401
#     4  12  24  40  66 101 131 169 224 286 340 399
#     4  12  25  45  70  99 138 180 229 288 348 404
#     4  11  24  41  73  97 127 181 236 271 331 416
#     4  11  22  44  69  96 128 185 229 274 339 416
#
# _framework density 10.243449
#
# number of rings (size 3 to 8) (size 9 to 14) (size 15 to 20)
#    0.000    0.500    7.500    1.125    1.750    0.000 
#    0.000    1.875    0.000    0.000    0.000    0.000 
#    0.000    0.000    0.000    0.000    0.000    0.000 
#
# Total GULP energy -178273.131961 kJ/mol
# GULP energy per Si atom -5571.035374 kJ/mol
# Density = 1.022013 g / cm^3
# Si number density = 10.243449 Si / 1000 Ang^3
#
#
#
# Elastic Constant Matrix: (Units=GPa)
#
#
# Indices 1 2 3 4 5 6 
#
# 1 43.1092 15.7787 -6.3524 -0.0002 -22.0510 0.0001
# 2 15.7787 83.0305 5.5455 0.0000 14.0598 0.0001
# 3 -6.3524 5.5455 81.4103 -0.0005 -15.6984 0.0004
# 4 -0.0002 0.0000 -0.0005 41.4073 0.0001 -6.4364
# 5 -22.0510 14.0598 -15.6984 0.0001 29.4830 0.0000
# 6 0.0001 0.0001 0.0004 -6.4364 0.0000 23.4839
#
#
#
# Elastic Compliance Matrix: (Units=1/GPa)
#
#
# Indices 1 2 3 4 5 6 
#
# 1 0.096546 -0.038516 0.030784 0.000001 0.106967 0.000000
# 2 -0.038516 0.028879 -0.014691 0.000000 -0.050401 0.000000
# 3 0.030784 -0.014691 0.023934 0.000000 0.042774 0.000000
# 4 0.000001 0.000000 0.000000 0.025225 0.000001 0.006914
# 5 0.106967 -0.050401 0.042774 0.000001 0.160731 0.000000
# 6 0.000000 0.000000 0.000000 0.006914 0.000000 0.044477
#
#
# Mechanical properties :
#
#
# Convention : Reuss Voigt Hill
#
# Bulk Modulus (GPa) = 9.56839 26.38817 17.97828
# Shear Modulus (GPa) = 10.88193 31.71338 21.29766
#
# Velocity S-wave (km/s) = 2.30720 3.93871 3.22774
# Velocity P-wave (km/s) = 3.43194 5.79595 4.76294
#
# Compressibility (1/GPa) = 0.10451084
#
# Stress axis : x y z
#
# Youngs Moduli (GPa) = 10.35780 34.62719 41.78102
#
# Poissons Ratio (x) = 1.33370 -1.28617
# Poissons Ratio (y) = 0.39894 0.61383
# Poissons Ratio (z) = -0.31885 0.50873
#
# Static dielectric constant tensor:
#      x y z
#    x 1.756070 0.000000 -0.016580 
#    y 0.000000 1.965740 0.000000 
#    z -0.016580 0.000000 1.779330 
# 
# From -- ./inp_files/206436.got.cif
#   From: 2010.05.17/outbox.ucp.g08.bks.cvg/sg15_104_cif.got.tgz:206436.got - 2010.06.11 12:40:34.
