data_PCOD9309284
_publ_section_title
;
Structure prediction by ZEFSAII (Michael W. Deem and Ramdas Pophale) SiO2 
 PCOD9309284
Probable space group: C 2/C
;
_chemical_formula_sum "Si O2"
_cell_formula_units_Z 30
_cell_length_a 24.000000
_cell_length_b 9.000000
_cell_length_c 21.000000
_cell_angle_alpha 90.000000
_cell_angle_beta 40.000000
_cell_angle_gamma 90.000000
_cell_volume 2915.684598
_symmetry_space_group_name_H-M "C 2/C"
_symmetry_group_IT_number 15
_symmetry_cell_setting 'monoclinic'
loop_
_space_group_symop_operation_xyz
x,y,z
-x,y,1/2-z
-x,-y,-z
x,-y,1/2+z
1/2+x,1/2+y,z
1/2-x,1/2+y,1/2-z
1/2-x,1/2-y,-z
1/2+x,1/2-y,1/2+z
loop_
_atom_site_type_symbol
_atom_site_label
_atom_site_fract_x
_atom_site_fract_y
_atom_site_fract_z
Si Si1 0.359930 0.205339 0.675840
Si Si2 0.948177 0.809658 0.038007
Si Si3 0.693843 0.143685 0.262477
Si Si4 0.693169 0.342346 0.134427
Si Si5 0.464847 0.536624 0.921317
Si Si6 0.614451 0.823624 0.581003
Si Si7 0.906356 0.848917 0.766692
Si Si8 0.000000 0.575390 0.750000
O O1 0.459462 0.228008 0.560989
O O2 0.290952 0.301331 0.695310
O O3 0.364602 0.285516 0.739293
O O4 0.325306 0.035425 0.718755
O O5 0.872645 0.700338 0.125207
O O6 0.966696 0.907650 0.085172
O O7 0.915198 0.917116 0.009687
O O8 0.676636 0.239787 0.212197
O O9 0.649184 0.246433 0.116650
O O10 0.652233 0.508130 0.163514
O O11 0.796699 0.364142 0.033895
O O12 0.427104 0.686459 0.922973
O O13 0.504892 0.434466 0.830814
O O14 0.549102 0.961006 0.657023
O O15 0.929842 0.697122 0.784658
#
# Coordination Sequence:
#
# PCOD9309284 Si02
#       8
#     8   8   8   8   8   8   8   4
#     4  11  26  41  67 104 137 182 231 278 347 409
#     4  10  23  42  70 101 136 186 228 278 341 416
#     4  12  24  45  69  99 143 179 225 291 341 409
#     4  11  24  45  70  97 135 177 229 285 347 407
#     4  10  21  42  71  95 135 174 232 274 343 404
#     4  11  25  43  71 101 130 179 229 285 344 412
#     4  11  23  45  65  97 137 178 226 281 341 406
#     4  12  26  44  68 100 134 182 234 280 348 408
#
# _framework density 10.289179000000001
#
# number of rings (size 3 to 8) (size 9 to 14) (size 15 to 20)
#    0.000    1.067    1.333    4.400    7.467    0.533 
#    9.600    0.000    0.000    0.000    0.000    0.000 
#    0.000    0.000    0.000    0.000    0.000    0.000 
#
# Total GULP energy -167236.231930 kJ/mol
# GULP energy per Si atom -5574.541064 kJ/mol
# Density = 1.026576 g / cm^3
# Si number density = 10.289179 Si / 1000 Ang^3
#
#
#
# Elastic Constant Matrix: (Units=GPa)
#
#
# Indices 1 2 3 4 5 6 
#
# 1 73.5622 28.9816 17.4992 0.0000 3.9599 0.0000
# 2 28.9816 180.7257 62.3533 -0.0009 -3.6964 0.0009
# 3 17.4992 62.3533 109.2056 0.0000 -5.5333 0.0000
# 4 0.0000 -0.0009 0.0000 43.2841 0.0003 2.6530
# 5 3.9599 -3.6964 -5.5333 0.0003 22.7721 -0.0003
# 6 0.0000 0.0009 0.0000 2.6530 -0.0003 47.3610
#
#
#
# Elastic Compliance Matrix: (Units=1/GPa)
#
#
# Indices 1 2 3 4 5 6 
#
# 1 0.014881 -0.001959 -0.001431 0.000000 -0.003253 0.000000
# 2 -0.001959 0.007149 -0.003738 0.000000 0.000593 0.000000
# 3 -0.001431 -0.003738 0.011646 0.000000 0.002472 0.000000
# 4 0.000000 0.000000 0.000000 0.023183 0.000000 -0.001299
# 5 -0.003253 0.000593 0.002472 0.000000 0.045176 0.000000
# 6 0.000000 0.000000 0.000000 -0.001299 0.000000 0.021187
#
#
# Mechanical properties :
#
#
# Convention : Reuss Voigt Hill
#
# Bulk Modulus (GPa) = 51.49248 64.57351 58.03300
# Shear Modulus (GPa) = 34.73379 39.66072 37.19725
#
# Velocity S-wave (km/s) = 4.11284 4.39487 4.25619
# Velocity P-wave (km/s) = 6.90151 7.56311 7.23987
#
# Compressibility (1/GPa) = 0.01942031
#
# Stress axis : x y z
#
# Youngs Moduli (GPa) = 67.19820 139.87474 85.86749
#
# Poissons Ratio (x) = 0.27406 0.12285
# Poissons Ratio (y) = 0.13166 0.32097
# Poissons Ratio (z) = 0.09614 0.52285
#
# Static dielectric constant tensor:
#      x y z
#    x 1.771380 0.000000 -0.001390 
#    y 0.000000 1.736210 0.000000 
#    z -0.001390 0.000000 1.792680 
# 
# From -- ./inp_files/255157.got.cif
#   From: 2010.05.17/outbox.ucp.g08.bks.cvg/sg15_128_cif.got.tgz:255157.got - 2010.06.11 12:40:34.
