data_PCOD9309222
_publ_section_title
;
Structure prediction by ZEFSAII (Michael W. Deem and Ramdas Pophale) SiO2 
 PCOD9309222
Probable space group: C 2/C
;
_chemical_formula_sum "Si O2"
_cell_formula_units_Z 24
_cell_length_a 15.000000
_cell_length_b 12.000000
_cell_length_c 27.000000
_cell_angle_alpha 90.000000
_cell_angle_beta 150.000000
_cell_angle_gamma 90.000000
_cell_volume 2430.000000
_symmetry_space_group_name_H-M "C 2/C"
_symmetry_group_IT_number 15
_symmetry_cell_setting 'monoclinic'
loop_
_space_group_symop_operation_xyz
x,y,z
-x,y,1/2-z
-x,-y,-z
x,-y,1/2+z
1/2+x,1/2+y,z
1/2-x,1/2+y,1/2-z
1/2-x,1/2-y,-z
1/2+x,1/2-y,1/2+z
loop_
_atom_site_type_symbol
_atom_site_label
_atom_site_fract_x
_atom_site_fract_y
_atom_site_fract_z
Si Si1 0.550378 0.176535 0.361157
Si Si2 0.500000 0.798751 0.250000
Si Si3 0.000000 0.152650 0.750000
Si Si4 0.453212 0.653026 0.549289
Si Si5 0.871753 0.321479 0.934614
Si Si6 0.689918 0.962877 0.263422
Si Si7 0.152333 0.452650 0.130751
O O1 0.559349 0.267504 0.322595
O O2 0.520750 0.252417 0.395530
O O3 0.746566 0.118890 0.455620
O O4 0.397614 0.085787 0.276249
O O5 0.328275 0.723694 0.151859
O O6 0.577970 0.878975 0.244460
O O7 0.171185 0.084033 0.814171
O O8 0.505449 0.719044 0.524461
O O9 0.600170 0.555228 0.623846
O O10 0.865356 0.416153 0.888835
O O11 0.977687 0.386854 0.028218
O O12 0.674138 0.929084 0.198686
#
# Coordination Sequence:
#
# PCOD9309222 Si02
#       7
#     8   4   4   8   8   8   8
#     4  11  22  40  62  93 123 161 208 253 308 369
#     4  10  24  44  60  86 134 164 196 258 320 358
#     4  12  22  38  62  98 120 162 212 258 296 374
#     4  10  21  40  65  87 129 162 197 260 317 352
#     4  10  21  41  61  91 127 160 203 261 310 359
#     4  11  23  43  62  93 121 167 206 251 310 376
#     4  11  22  38  66  93 122 160 217 251 301 373
#
# _framework density 9.8765429999999999
#
# number of rings (size 3 to 8) (size 9 to 14) (size 15 to 20)
#    0.000    1.333    5.000    1.000    0.000    0.667 
#    6.000    2.500    0.000    0.000    0.000    0.000 
#    0.000    0.000    0.000    0.000    0.000    0.000 
#
# Total GULP energy -133935.222249 kJ/mol
# GULP energy per Si atom -5580.634260 kJ/mol
# Density = 0.985406 g / cm^3
# Si number density = 9.876543 Si / 1000 Ang^3
#
#
#
# Elastic Constant Matrix: (Units=GPa)
#
#
# Indices 1 2 3 4 5 6 
#
# 1 67.9181 10.0442 3.0636 -0.0001 7.6118 0.0000
# 2 10.0442 56.4135 16.5198 0.0000 10.3158 0.0000
# 3 3.0636 16.5198 47.7937 -0.0002 19.9502 0.0000
# 4 -0.0001 0.0000 -0.0002 26.9683 -0.0001 12.7756
# 5 7.6118 10.3158 19.9502 -0.0001 31.8186 0.0000
# 6 0.0000 0.0000 0.0000 12.7756 0.0000 30.1770
#
#
#
# Elastic Compliance Matrix: (Units=1/GPa)
#
#
# Indices 1 2 3 4 5 6 
#
# 1 0.015451 -0.002482 0.001455 0.000000 -0.003804 0.000000
# 2 -0.002482 0.020317 -0.005908 0.000000 -0.002289 0.000000
# 3 0.001455 -0.005908 0.030094 0.000000 -0.017302 0.000000
# 4 0.000000 0.000000 0.000000 0.046383 0.000000 -0.019636
# 5 -0.003804 -0.002289 -0.017302 0.000000 0.043928 0.000000
# 6 0.000000 0.000000 0.000000 -0.019636 0.000000 0.041451
#
#
# Mechanical properties :
#
#
# Convention : Reuss Voigt Hill
#
# Bulk Modulus (GPa) = 19.23307 25.70895 22.47101
# Shear Modulus (GPa) = 21.85084 27.29261 24.57173
#
# Velocity S-wave (km/s) = 3.32956 3.72114 3.53078
# Velocity P-wave (km/s) = 4.95371 5.61301 5.29363
#
# Compressibility (1/GPa) = 0.05199377
#
# Stress axis : x y z
#
# Youngs Moduli (GPa) = 64.71938 49.22063 33.22906
#
# Poissons Ratio (x) = 0.12214 -0.04836
# Poissons Ratio (y) = 0.16060 0.19631
# Poissons Ratio (z) = -0.09419 0.29079
#
# Static dielectric constant tensor:
#      x y z
#    x 1.798350 0.000000 -0.108150 
#    y 0.000000 1.683700 0.000000 
#    z -0.108150 0.000000 1.819810 
# 
# From -- ./inp_files/151875.got.cif
#   From: 2010.05.17/outbox.ucp.g08.bks.cvg/sg15_76_cif.got.tgz:151875.got - 2010.06.11 12:40:34.
