data_PCOD9309124
_publ_section_title
;
Structure prediction by ZEFSAII (Michael W. Deem and Ramdas Pophale) SiO2 
 PCOD9309124
Probable space group: C 2/C
;
_chemical_formula_sum "Si O2"
_cell_formula_units_Z 32
_cell_length_a 24.000000
_cell_length_b 9.000000
_cell_length_c 15.000000
_cell_angle_alpha 90.000000
_cell_angle_beta 90.000000
_cell_angle_gamma 90.000000
_cell_volume 3240.000000
_symmetry_space_group_name_H-M "C 2/C"
_symmetry_group_IT_number 15
_symmetry_cell_setting 'monoclinic'
loop_
_space_group_symop_operation_xyz
x,y,z
-x,y,1/2-z
-x,-y,-z
x,-y,1/2+z
1/2+x,1/2+y,z
1/2-x,1/2+y,1/2-z
1/2-x,1/2-y,-z
1/2+x,1/2-y,1/2+z
loop_
_atom_site_type_symbol
_atom_site_label
_atom_site_fract_x
_atom_site_fract_y
_atom_site_fract_z
Si Si1 0.895127 0.436302 0.753264
Si Si2 0.574437 0.113626 0.046734
Si Si3 0.179342 0.082476 0.312671
Si Si4 0.567207 0.279378 0.725128
Si Si5 0.446048 0.166381 0.067146
Si Si6 0.290166 0.271327 0.288248
Si Si7 0.059782 0.934206 0.532525
Si Si8 0.840633 0.844220 0.482918
O O1 0.916980 0.377791 0.847884
O O2 0.906815 0.613653 0.762258
O O3 0.930304 0.384845 0.666511
O O4 0.833341 0.359388 0.754076
O O5 0.511453 0.173779 0.039500
O O6 0.625031 0.194311 0.996987
O O7 0.576050 0.951410 0.004239
O O8 0.115591 0.122963 0.277885
O O9 0.227330 0.202790 0.282120
O O10 0.181663 0.092944 0.422156
O O11 0.197207 0.921495 0.270039
O O12 0.500000 0.278191 0.750000
O O13 0.561315 0.339270 0.623753
O O14 0.421645 0.327154 0.047881
O O15 0.302916 0.313123 0.394133
O O16 0.107521 0.054185 0.547047
O O17 0.000000 0.000000 0.500000
#
# Coordination Sequence:
#
# PCOD9309124 Si02
#       8
#     8   8   8   8   8   8   8   8
#     4  11  23  41  66  98 138 179 241 289 353 417
#     4  10  21  36  59  92 135 181 231 283 343 422
#     4  12  25  48  75 100 143 185 242 297 363 434
#     4  12  25  43  69 105 144 192 235 295 363 431
#     4  11  21  36  62  93 136 188 228 288 349 414
#     4  11  26  48  73 105 137 191 242 305 354 432
#     4  12  23  41  63 102 150 185 237 295 361 438
#     4  11  23  44  67 101 139 185 236 293 367 428
#
# _framework density 9.8765429999999999
#
# number of rings (size 3 to 8) (size 9 to 14) (size 15 to 20)
#    0.000    0.750    3.750    4.500    1.750    0.000 
#    0.000    1.250    0.000    0.000    0.000    0.000 
#    0.000    0.000    0.000    0.000    0.000    0.000 
#
# Total GULP energy -178226.598079 kJ/mol
# GULP energy per Si atom -5569.581190 kJ/mol
# Density = 0.985406 g / cm^3
# Si number density = 9.876543 Si / 1000 Ang^3
#
#
#
# Elastic Constant Matrix: (Units=GPa)
#
#
# Indices 1 2 3 4 5 6 
#
# 1 107.1672 41.6154 25.3995 0.0000 4.2573 0.0000
# 2 41.6154 100.2316 30.7902 0.0000 1.3929 0.0000
# 3 25.3995 30.7902 115.0395 0.0000 -4.1347 0.0000
# 4 0.0000 0.0000 0.0000 38.9474 0.0000 2.4248
# 5 4.2573 1.3929 -4.1347 0.0000 28.7506 0.0000
# 6 0.0000 0.0000 0.0000 2.4248 0.0000 32.4271
#
#
#
# Elastic Compliance Matrix: (Units=1/GPa)
#
#
# Indices 1 2 3 4 5 6 
#
# 1 0.011395 -0.004267 -0.001434 0.000000 -0.001687 0.000000
# 2 -0.004267 0.012494 -0.002414 0.000000 -0.000321 0.000000
# 3 -0.001434 -0.002414 0.009717 0.000000 0.001727 0.000000
# 4 0.000000 0.000000 0.000000 0.025796 0.000000 -0.001929
# 5 -0.001687 -0.000321 0.001727 0.000000 0.035296 0.000000
# 6 0.000000 0.000000 0.000000 -0.001929 0.000000 0.030983
#
#
# Mechanical properties :
#
#
# Convention : Reuss Voigt Hill
#
# Bulk Modulus (GPa) = 57.54779 57.56095 57.55437
# Shear Modulus (GPa) = 33.85161 35.00059 34.42610
#
# Velocity S-wave (km/s) = 4.14422 4.21397 4.17924
# Velocity P-wave (km/s) = 7.21777 7.27188 7.24488
#
# Compressibility (1/GPa) = 0.01737686
#
# Stress axis : x y z
#
# Youngs Moduli (GPa) = 87.75606 80.03563 102.90794
#
# Poissons Ratio (x) = 0.34152 0.14762
# Poissons Ratio (y) = 0.37446 0.24837
# Poissons Ratio (z) = 0.12588 0.19317
#
# Static dielectric constant tensor:
#      x y z
#    x 1.724430 0.000000 0.002450 
#    y 0.000000 1.785930 0.000000 
#    z 0.002450 0.000000 1.684190 
# 
# From -- ./inp_files/172406.got.cif
#   From: 2010.05.17/outbox.ucp.g08.bks.cvg/sg15_87_cif.got.tgz:172406.got - 2010.06.11 12:40:34.
