data_PCOD9309019
_publ_section_title
;
Structure prediction by ZEFSAII (Michael W. Deem and Ramdas Pophale) SiO2 
 PCOD9309019
Probable space group: C 2/C
;
_chemical_formula_sum "Si O2"
_cell_formula_units_Z 28
_cell_length_a 9.000000
_cell_length_b 18.000000
_cell_length_c 18.000000
_cell_angle_alpha 90.000000
_cell_angle_beta 70.000000
_cell_angle_gamma 90.000000
_cell_volume 2740.143682
_symmetry_space_group_name_H-M "C 2/C"
_symmetry_group_IT_number 15
_symmetry_cell_setting 'monoclinic'
loop_
_space_group_symop_operation_xyz
x,y,z
-x,y,1/2-z
-x,-y,-z
x,-y,1/2+z
1/2+x,1/2+y,z
1/2-x,1/2+y,1/2-z
1/2-x,1/2-y,-z
1/2+x,1/2-y,1/2+z
loop_
_atom_site_type_symbol
_atom_site_label
_atom_site_fract_x
_atom_site_fract_y
_atom_site_fract_z
Si Si1 0.500000 0.544844 0.750000
Si Si2 0.953537 0.117073 0.035743
Si Si3 0.941416 0.264807 0.627637
Si Si4 0.500000 0.128072 0.250000
Si Si5 0.742669 0.138445 0.614622
Si Si6 0.997791 0.287101 0.051732
Si Si7 0.723250 0.482817 0.826194
Si Si8 0.680418 0.359682 0.095415
O O1 0.639078 0.496959 0.762404
O O2 0.420236 0.593914 0.828483
O O3 0.943413 0.201125 0.069791
O O4 0.913388 0.051533 0.098183
O O5 0.838728 0.109626 0.984364
O O6 0.125597 0.116005 0.969016
O O7 0.933602 0.323281 0.693727
O O8 0.821539 0.196265 0.658301
O O9 0.930573 0.292170 0.544314
O O10 0.109343 0.223452 0.603403
O O11 0.640760 0.077409 0.197011
O O12 0.618006 0.187760 0.593287
O O13 0.704470 0.061197 0.659763
O O14 0.859959 0.347031 0.083069
#
# Coordination Sequence:
#
# PCOD9309019 Si02
#       8
#     4   8   8   4   8   8   8   8
#     4  12  25  40  60  87 132 178 206 248 333 392
#     4  10  20  43  66  92 125 169 210 260 316 379
#     4  10  20  43  66  93 123 175 205 260 317 384
#     4  12  27  42  64  91 142 160 220 264 319 376
#     4  10  22  40  70  93 128 158 218 261 321 367
#     4  10  20  38  71  99 118 159 225 268 301 369
#     4  12  26  44  61  97 127 177 206 266 319 384
#     4  10  20  38  67  92 122 168 215 253 313 385
#
# _framework density 10.218442
#
# number of rings (size 3 to 8) (size 9 to 14) (size 15 to 20)
#    0.000    1.714    2.857    6.000    2.000    2.286 
#    0.000    1.429    0.000    0.000    0.000    0.000 
#    0.000    0.000    0.000    0.000    0.000    0.000 
#
# Total GULP energy -156154.834465 kJ/mol
# GULP energy per Si atom -5576.958374 kJ/mol
# Density = 1.019518 g / cm^3
# Si number density = 10.218442 Si / 1000 Ang^3
#
#
#
# Elastic Constant Matrix: (Units=GPa)
#
#
# Indices 1 2 3 4 5 6 
#
# 1 65.7105 38.0359 26.2015 0.0000 16.9531 0.0000
# 2 38.0359 104.8880 44.7690 0.0000 27.9040 0.0000
# 3 26.2015 44.7690 23.5573 0.0000 26.1796 0.0000
# 4 0.0000 0.0000 0.0000 36.1100 0.0000 -32.3229
# 5 16.9531 27.9040 26.1796 0.0000 10.7651 0.0000
# 6 0.0000 0.0000 0.0000 -32.3229 0.0000 -114.3055
#
#
#
# Elastic Compliance Matrix: (Units=1/GPa)
#
#
# Indices 1 2 3 4 5 6 
#
# 1 0.022483 -0.001345 -0.007649 0.000000 -0.013319 0.000000
# 2 -0.001345 0.021890 -0.012098 0.000000 -0.025201 0.000000
# 3 -0.007649 -0.012098 -0.015102 0.000000 0.080130 0.000000
# 4 0.000000 0.000000 0.000000 0.022099 0.000000 -0.006249
# 5 -0.013319 -0.025201 0.080130 0.000000 -0.015679 0.000000
# 6 0.000000 0.000000 0.000000 -0.006249 0.000000 -0.006981
#
#
# Mechanical properties :
#
#
# Convention : Reuss Voigt Hill
#
# Bulk Modulus (GPa) = -77.44244 45.79649 -15.82297
# Shear Modulus (GPa) = 75.08692 -7.80944 33.63874
#
# Velocity S-wave (km/s) = 6.06800 -1.95692 4.06147
# Velocity P-wave (km/s) = 3.33444 4.16549 3.77292
#
# Compressibility (1/GPa) = -0.01291282
#
# Stress axis : x y z
#
# Youngs Moduli (GPa) = 44.47807 45.68340 -66.21683
#
# Poissons Ratio (x) = 0.06144 -0.50649
# Poissons Ratio (y) = 0.05982 -0.80109
# Poissons Ratio (z) = 0.34021 0.55268
#
# Static dielectric constant tensor:
#      x y z
#    x 1.795840 0.000000 -0.036490 
#    y 0.000000 1.696210 0.000000 
#    z -0.036490 0.000000 1.758520 
# 
# From -- ./inp_files/190960.got.cif
#   From: 2010.05.17/outbox.ucp.g08.bks.cvg/sg15_96_cif.got.tgz:190960.got - 2010.06.11 12:40:34.
