data_PCOD9309881
_publ_section_title
;
Structure prediction by ZEFSAII (Michael W. Deem and Ramdas Pophale) SiO2 
 PCOD9309881
Probable space group: C 2/C
;
_chemical_formula_sum "Si O2"
_cell_formula_units_Z 18
_cell_length_a 12.000000
_cell_length_b 15.000000
_cell_length_c 15.000000
_cell_angle_alpha 90.000000
_cell_angle_beta 40.000000
_cell_angle_gamma 90.000000
_cell_volume 1735.526546
_symmetry_space_group_name_H-M "C 2/C"
_symmetry_group_IT_number 15
_symmetry_cell_setting 'monoclinic'
loop_
_space_group_symop_operation_xyz
x,y,z
-x,y,1/2-z
-x,-y,-z
x,-y,1/2+z
1/2+x,1/2+y,z
1/2-x,1/2+y,1/2-z
1/2-x,1/2-y,-z
1/2+x,1/2-y,1/2+z
loop_
_atom_site_type_symbol
_atom_site_label
_atom_site_fract_x
_atom_site_fract_y
_atom_site_fract_z
Si Si1 0.698730 0.770924 0.287007
Si Si2 0.426720 0.218195 0.437187
Si Si3 0.222483 0.939726 0.352651
Si Si4 0.558417 0.579102 0.320048
Si Si5 0.500000 0.071644 0.250000
O O1 0.601653 0.783864 0.439852
O O2 0.664523 0.854310 0.244250
O O3 0.662599 0.673462 0.266180
O O4 0.904565 0.778668 0.181237
O O5 0.250000 0.250000 0.500000
O O6 0.472526 0.129288 0.355512
O O7 0.085714 0.909968 0.512527
O O8 0.154188 0.991411 0.304398
O O9 0.333552 0.013058 0.335109
O O10 0.500000 0.568717 0.250000
#
# Coordination Sequence:
#
# PCOD9309881 Si02
#       5
#     8   8   8   8   4
#     4  12  25  46  73 104 145 188 241 292 362 426
#     4  12  23  44  72 105 141 186 240 299 350 419
#     4  11  27  47  69 108 145 186 245 298 352 430
#     4  11  26  48  71 104 149 192 235 295 364 427
#     4  12  26  46  72 106 144 188 250 294 356 428
#
# _framework density 10.371492
#
# number of rings (size 3 to 8) (size 9 to 14) (size 15 to 20)
#    0.000    0.444    6.667    0.000    7.778    3.556 
#    0.000    0.000    0.000    0.000    0.000    0.000 
#    0.000    0.000    0.000    0.000    0.000    0.000 
#
# Total GULP energy -100370.416658 kJ/mol
# GULP energy per Si atom -5576.134259 kJ/mol
# Density = 1.034789 g / cm^3
# Si number density = 10.371492 Si / 1000 Ang^3
#
#
#
# Elastic Constant Matrix: (Units=GPa)
#
#
# Indices 1 2 3 4 5 6 
#
# 1 76.6802 10.0054 8.6024 -0.0004 36.8124 -0.0005
# 2 10.0054 87.7620 26.7091 -0.0003 23.6420 -0.0006
# 3 8.6024 26.7091 91.9251 -0.0002 21.8469 -0.0007
# 4 -0.0004 -0.0003 -0.0002 -29.2542 0.0004 -28.5127
# 5 36.8124 23.6420 21.8469 0.0004 31.8792 0.0003
# 6 -0.0005 -0.0006 -0.0007 -28.5127 0.0003 1.2448
#
#
#
# Elastic Compliance Matrix: (Units=1/GPa)
#
#
# Indices 1 2 3 4 5 6 
#
# 1 0.036633 0.008001 0.006822 -0.000001 -0.052911 0.000000
# 2 0.008001 0.016284 -0.000495 -0.000001 -0.020976 0.000000
# 3 0.006822 -0.000495 0.014536 -0.000001 -0.017472 0.000000
# 4 -0.000001 -0.000001 -0.000001 -0.001466 0.000003 -0.033568
# 5 -0.052911 -0.020976 -0.017472 0.000003 0.119997 0.000000
# 6 0.000000 0.000000 0.000000 -0.033568 0.000000 0.034441
#
#
# Mechanical properties :
#
#
# Convention : Reuss Voigt Hill
#
# Bulk Modulus (GPa) = 10.40485 38.55566 24.48025
# Shear Modulus (GPa) = 22.34081 14.84401 18.59241
#
# Velocity S-wave (km/s) = 3.28537 2.67800 2.99711
# Velocity P-wave (km/s) = 4.40665 5.30942 4.87896
#
# Compressibility (1/GPa) = 0.09610902
#
# Stress axis : x y z
#
# Youngs Moduli (GPa) = 27.29772 61.41146 68.79356
#
# Poissons Ratio (x) = -0.49135 -0.46930
# Poissons Ratio (y) = -0.21841 0.03404
# Poissons Ratio (z) = -0.18622 0.03039
#
# Static dielectric constant tensor:
#      x y z
#    x 1.776870 0.000000 -0.084590 
#    y 0.000000 1.773910 0.000000 
#    z -0.084590 0.000000 1.606980 
# 
# From -- ./inp_files/55585.got.cif
#   From: 2010.05.17/outbox.ucp.g08.bks.cvg/sg15_28_cif.got.tgz:55585.got - 2010.06.11 12:40:34.
