data_PCOD9309023
_publ_section_title
;
Structure prediction by ZEFSAII (Michael W. Deem and Ramdas Pophale) SiO2 
 PCOD9309023
Probable space group: C 2/C
;
_chemical_formula_sum "Si O2"
_cell_formula_units_Z 32
_cell_length_a 15.000000
_cell_length_b 21.000000
_cell_length_c 30.000000
_cell_angle_alpha 90.000000
_cell_angle_beta 160.000000
_cell_angle_gamma 90.000000
_cell_volume 3232.090354
_symmetry_space_group_name_H-M "C 2/C"
_symmetry_group_IT_number 15
_symmetry_cell_setting 'monoclinic'
loop_
_space_group_symop_operation_xyz
x,y,z
-x,y,1/2-z
-x,-y,-z
x,-y,1/2+z
1/2+x,1/2+y,z
1/2-x,1/2+y,1/2-z
1/2-x,1/2-y,-z
1/2+x,1/2-y,1/2+z
loop_
_atom_site_type_symbol
_atom_site_label
_atom_site_fract_x
_atom_site_fract_y
_atom_site_fract_z
Si Si1 0.238537 0.584229 0.392915
Si Si2 0.972482 0.977803 0.288087
Si Si3 0.277588 0.068102 0.610042
Si Si4 0.032691 0.374340 0.070174
Si Si5 0.600940 0.866177 0.002242
Si Si6 0.110785 0.078454 0.431646
Si Si7 0.928965 0.638717 0.322258
Si Si8 0.536704 0.264974 0.216078
O O1 0.517145 0.603288 0.504692
O O2 0.238877 0.507920 0.391297
O O3 0.000000 0.605639 0.250000
O O4 0.176775 0.607559 0.413722
O O5 0.693819 0.940171 0.156703
O O6 0.000000 0.005172 0.250000
O O7 0.190065 0.923010 0.394920
O O8 0.034883 0.022783 0.359866
O O9 0.500000 0.089045 0.750000
O O10 0.279196 0.071143 0.556542
O O11 0.959802 0.369914 0.983666
O O12 0.232248 0.317076 0.174011
O O13 0.778475 0.373196 0.980794
O O14 0.771668 0.802171 0.080072
O O15 0.446100 0.869834 0.883475
O O16 0.830309 0.102984 0.315223
O O17 0.915823 0.710098 0.297307
O O18 0.500000 0.242512 0.250000
#
# Coordination Sequence:
#
# PCOD9309023 Si02
#       8
#     8   8   8   8   8   8   8   8
#     4  10  20  39  57  84 120 162 213 260 301 359
#     4   9  21  38  60  88 125 164 203 247 310 386
#     4  10  23  39  57  82 129 169 203 259 316 366
#     4   9  22  41  61  84 131 160 197 259 324 367
#     4   9  20  40  61  91 116 161 205 254 309 371
#     4  12  25  34  59  95 124 164 202 252 325 380
#     4  12  23  34  64  92 119 156 220 251 302 377
#     4   9  20  42  64  82 113 164 213 263 305 361
#
# _framework density 9.9007129999999997
#
# number of rings (size 3 to 8) (size 9 to 14) (size 15 to 20)
#    0.000    2.000    1.250    3.000    5.250    3.500 
#    0.000    0.000    0.000    0.000    0.000    0.000 
#    0.000    0.000    0.000    0.000    0.000    0.000 
#
# Total GULP energy -178287.124549 kJ/mol
# GULP energy per Si atom -5571.472642 kJ/mol
# Density = 0.987818 g / cm^3
# Si number density = 9.900713 Si / 1000 Ang^3
#
#
#
# Elastic Constant Matrix: (Units=GPa)
#
#
# Indices 1 2 3 4 5 6 
#
# 1 118.2745 19.8916 43.9603 -0.0032 -18.1207 0.0104
# 2 19.8916 45.6435 18.1436 -0.0112 2.2169 0.0037
# 3 43.9603 18.1436 61.5918 0.0591 -30.8827 0.0958
# 4 -0.0032 -0.0112 0.0591 -24.8153 -0.0002 -31.5198
# 5 -18.1207 2.2169 -30.8827 -0.0002 39.9732 -0.0141
# 6 0.0104 0.0037 0.0958 -31.5198 -0.0141 -24.1044
#
#
#
# Elastic Compliance Matrix: (Units=1/GPa)
#
#
# Indices 1 2 3 4 5 6 
#
# 1 0.011693 -0.001710 -0.008385 -0.000022 -0.001082 0.000001
# 2 -0.001710 0.028763 -0.013778 -0.000015 -0.013015 -0.000024
# 3 -0.008385 -0.013778 0.040410 0.000110 0.028184 -0.000005
# 4 -0.000022 -0.000015 0.000110 0.060971 0.000048 -0.079728
# 5 -0.001082 -0.013015 0.028184 0.000048 0.047022 0.000020
# 6 0.000001 -0.000024 -0.000005 -0.079728 0.000020 0.062769
#
#
# Mechanical properties :
#
#
# Convention : Reuss Voigt Hill
#
# Bulk Modulus (GPa) = 30.19272 43.27788 36.73530
# Shear Modulus (GPa) = 16.10737 7.77833 11.94285
#
# Velocity S-wave (km/s) = 2.85519 1.98411 2.45854
# Velocity P-wave (km/s) = 5.11374 5.21079 5.16249
#
# Compressibility (1/GPa) = 0.03312057
#
# Stress axis : x y z
#
# Youngs Moduli (GPa) = 85.52017 34.76632 24.74605
#
# Poissons Ratio (x) = 0.05947 0.20748
# Poissons Ratio (y) = 0.14628 0.34096
# Poissons Ratio (z) = 0.71705 0.47902
#
# Static dielectric constant tensor:
#      x y z
#    x 1.728480 0.000010 -0.002100 
#    y 0.000010 1.704860 -0.000010 
#    z -0.002100 -0.000010 1.719160 
# 
# From -- ./inp_files/314536.got.cif
#   From: 2010.05.17/outbox.ucp.g08.bks.cvg/sg15_158_cif.got.tgz:314536.got - 2010.06.11 12:40:34.
