data_PCOD9309318
_publ_section_title
;
Structure prediction by ZEFSAII (Michael W. Deem and Ramdas Pophale) SiO2 
 PCOD9309318
Probable space group: C 2/C
;
_chemical_formula_sum "Si O2"
_cell_formula_units_Z 18
_cell_length_a 15.000000
_cell_length_b 24.000000
_cell_length_c 15.000000
_cell_angle_alpha 90.000000
_cell_angle_beta 160.000000
_cell_angle_gamma 90.000000
_cell_volume 1846.908774
_symmetry_space_group_name_H-M "C 2/C"
_symmetry_group_IT_number 15
_symmetry_cell_setting 'monoclinic'
loop_
_space_group_symop_operation_xyz
x,y,z
-x,y,1/2-z
-x,-y,-z
x,-y,1/2+z
1/2+x,1/2+y,z
1/2-x,1/2+y,1/2-z
1/2-x,1/2-y,-z
1/2+x,1/2-y,1/2+z
loop_
_atom_site_type_symbol
_atom_site_label
_atom_site_fract_x
_atom_site_fract_y
_atom_site_fract_z
Si Si1 0.301126 0.413251 0.389469
Si Si2 0.884350 0.712995 0.231128
Si Si3 0.000000 0.940635 0.750000
Si Si4 0.046826 0.516546 0.396329
Si Si5 0.379931 0.885602 0.864073
O O1 0.341806 0.403313 0.532570
O O2 0.583199 0.404647 0.608030
O O3 0.179870 0.475849 0.279589
O O4 0.068640 0.378721 0.126207
O O5 0.871841 0.669979 0.299116
O O6 0.000000 0.684903 0.250000
O O7 0.098207 0.761358 0.448199
O O8 0.808858 0.979723 0.630006
O O9 0.000000 0.534384 0.250000
O O10 0.035183 0.568326 0.451016
#
# Coordination Sequence:
#
# PCOD9309318 Si02
#       5
#     8   8   4   8   8
#     4  11  23  37  56  85 122 157 193 239 277 349
#     4  10  22  43  62  86 120 152 190 242 291 342
#     4  10  22  40  52  82 128 160 190 230 288 336
#     4  10  22  36  55  84 128 160 189 231 281 350
#     4  12  23  36  61  89 112 158 200 237 286 339
#
# _framework density 9.7460149999999999
#
# number of rings (size 3 to 8) (size 9 to 14) (size 15 to 20)
#    0.000    1.333    2.222    3.333    6.222    0.000 
#    6.000    0.000    0.000    0.000    0.000   15.556 
#    0.000    0.000    0.000    0.000    0.000    0.000 
#
# Total GULP energy -100370.989204 kJ/mol
# GULP energy per Si atom -5576.166067 kJ/mol
# Density = 0.972383 g / cm^3
# Si number density = 9.746015 Si / 1000 Ang^3
#
#
#
# Elastic Constant Matrix: (Units=GPa)
#
#
# Indices 1 2 3 4 5 6 
#
# 1 -2.3158 21.5578 8.6234 -0.0016 29.5515 0.0017
# 2 21.5578 24.7294 7.9875 0.0009 -2.8306 0.0006
# 3 8.6234 7.9875 108.9245 0.0017 13.4420 0.0010
# 4 -0.0016 0.0009 0.0017 12.5364 0.0018 -5.4555
# 5 29.5515 -2.8306 13.4420 0.0018 42.6947 0.0004
# 6 0.0017 0.0006 0.0010 -5.4555 0.0004 24.9870
#
#
#
# Elastic Compliance Matrix: (Units=1/GPa)
#
#
# Indices 1 2 3 4 5 6 
#
# 1 -0.021674 0.021479 -0.001963 -0.000007 0.017044 -0.000001
# 2 0.021479 0.020750 -0.001620 0.000003 -0.012981 -0.000001
# 3 -0.001963 -0.001620 0.009676 -0.000001 -0.001796 0.000000
# 4 -0.000007 0.000003 -0.000001 0.088143 0.000001 0.019245
# 5 0.017044 -0.012981 -0.001796 0.000001 0.011330 -0.000001
# 6 -0.000001 -0.000001 0.000000 0.019245 -0.000001 0.044223
#
#
# Mechanical properties :
#
#
# Convention : Reuss Voigt Hill
#
# Bulk Modulus (GPa) = 22.44872 23.07506 22.76189
# Shear Modulus (GPa) = 38.02214 22.25491 30.13853
#
# Velocity S-wave (km/s) = 4.42141 3.38264 3.93644
# Velocity P-wave (km/s) = 6.13246 5.20771 5.68890
#
# Compressibility (1/GPa) = 0.04454597
#
# Stress axis : x y z
#
# Youngs Moduli (GPa) = -46.13722 48.19182 103.34387
#
# Poissons Ratio (x) = -1.03513 0.20281
# Poissons Ratio (y) = 0.99100 0.16743
# Poissons Ratio (z) = -0.09054 0.07808
#
# Static dielectric constant tensor:
#      x y z
#    x 1.724680 0.000000 -0.076930 
#    y 0.000000 1.651500 0.000000 
#    z -0.076930 0.000000 1.758890 
# 
# From -- ./inp_files/6859.got.cif
#   From: 2010.05.17/outbox.ucp.g08.bks.cvg/sg15_4_cif.got.tgz:6859.got - 2010.06.11 12:40:34.
