data_PCOD9309291
_publ_section_title
;
Structure prediction by ZEFSAII (Michael W. Deem and Ramdas Pophale) SiO2 
 PCOD9309291
Probable space group: C 2/C
;
_chemical_formula_sum "Si O2"
_cell_formula_units_Z 22
_cell_length_a 9.000000
_cell_length_b 21.000000
_cell_length_c 12.000000
_cell_angle_alpha 90.000000
_cell_angle_beta 70.000000
_cell_angle_gamma 90.000000
_cell_volume 2131.222864
_symmetry_space_group_name_H-M "C 2/C"
_symmetry_group_IT_number 15
_symmetry_cell_setting 'monoclinic'
loop_
_space_group_symop_operation_xyz
x,y,z
-x,y,1/2-z
-x,-y,-z
x,-y,1/2+z
1/2+x,1/2+y,z
1/2-x,1/2+y,1/2-z
1/2-x,1/2-y,-z
1/2+x,1/2-y,1/2+z
loop_
_atom_site_type_symbol
_atom_site_label
_atom_site_fract_x
_atom_site_fract_y
_atom_site_fract_z
Si Si1 0.242399 0.136032 0.438251
Si Si2 0.000000 0.280239 0.750000
Si Si3 0.342174 0.146762 0.988909
Si Si4 0.570676 0.715514 0.938443
Si Si5 0.186644 0.059932 0.226793
Si Si6 0.107401 0.551761 0.908129
O O1 0.392633 0.176307 0.356529
O O2 0.199718 0.091496 0.344556
O O3 0.288781 0.091957 0.530339
O O4 0.101643 0.184674 0.502664
O O5 0.102189 0.235357 0.803296
O O6 0.194921 0.163639 0.948774
O O7 0.477847 0.102994 0.899514
O O8 0.409455 0.217143 0.001907
O O9 0.270478 0.108509 0.115376
O O10 0.000000 0.052353 0.250000
O O11 0.280033 0.992517 0.196475
O O12 0.000000 0.500000 0.000000
#
# Coordination Sequence:
#
# PCOD9309291 Si02
#       6
#     8   4   8   8   8   8
#     4  12  23  44  71  96 136 177 224 277 331 407
#     4  12  22  40  66 104 134 180 212 268 348 396
#     4  10  21  43  67 101 134 173 223 279 334 399
#     4  11  23  40  72 100 139 171 220 278 340 405
#     4  11  22  44  72  94 131 183 226 274 338 387
#     4  10  23  43  68  96 130 180 229 273 328 396
#
# _framework density 10.322711999999999
#
# number of rings (size 3 to 8) (size 9 to 14) (size 15 to 20)
#    0.000    1.091    5.455    1.636    0.000    0.727 
#    1.636    1.818    0.000    0.000    0.000    0.000 
#    0.000    0.000    0.000    0.000    0.000    0.000 
#
# Total GULP energy -122910.425406 kJ/mol
# GULP energy per Si atom -5586.837518 kJ/mol
# Density = 1.029922 g / cm^3
# Si number density = 10.322712 Si / 1000 Ang^3
#
#
#
# Elastic Constant Matrix: (Units=GPa)
#
#
# Indices 1 2 3 4 5 6 
#
# 1 95.2838 42.8063 -1.9733 0.0000 -19.1281 0.0000
# 2 42.8063 119.3315 18.6754 0.0000 -11.5543 0.0000
# 3 -1.9733 18.6754 27.3836 0.0000 -6.2872 0.0000
# 4 0.0000 0.0000 0.0000 30.5786 0.0000 -6.6496
# 5 -19.1281 -11.5543 -6.2872 0.0000 27.3691 0.0000
# 6 0.0000 0.0000 0.0000 -6.6496 0.0000 53.0389
#
#
#
# Elastic Compliance Matrix: (Units=1/GPa)
#
#
# Indices 1 2 3 4 5 6 
#
# 1 0.015139 -0.005598 0.007174 0.000000 0.009865 0.000000
# 2 -0.005598 0.011634 -0.008560 0.000000 -0.000967 0.000000
# 3 0.007174 -0.008560 0.045599 0.000000 0.011875 0.000000
# 4 0.000000 0.000000 0.000000 0.033619 0.000000 0.004215
# 5 0.009865 -0.000967 0.011875 0.000000 0.045752 0.000000
# 6 0.000000 0.000000 0.000000 0.004215 0.000000 0.019383
#
#
# Mechanical properties :
#
#
# Convention : Reuss Voigt Hill
#
# Bulk Modulus (GPa) = 17.12207 40.11284 28.61745
# Shear Modulus (GPa) = 24.44242 34.36335 29.40289
#
# Velocity S-wave (km/s) = 3.44454 4.08420 3.77793
# Velocity P-wave (km/s) = 4.91235 6.45852 5.73776
#
# Compressibility (1/GPa) = 0.05840415
#
# Stress axis : x y z
#
# Youngs Moduli (GPa) = 66.05504 85.95423 21.93008
#
# Poissons Ratio (x) = 0.48118 -0.15732
# Poissons Ratio (y) = 0.36978 0.18772
# Poissons Ratio (z) = -0.47386 0.73576
#
# Static dielectric constant tensor:
#      x y z
#    x 1.785100 0.000000 0.037790 
#    y 0.000000 1.717890 0.000000 
#    z 0.037790 0.000000 1.739460 
# 
# From -- ./inp_files/78121.got.cif
#   From: 2010.05.17/outbox.ucp.g08.bks.cvg/sg15_40_cif.got.tgz:78121.got - 2010.06.11 12:40:34.
