data_PCOD9309856
_publ_section_title
;
Structure prediction by ZEFSAII (Michael W. Deem and Ramdas Pophale) SiO2 
 PCOD9309856
Probable space group: C 2/C
;
_chemical_formula_sum "Si O2"
_cell_formula_units_Z 28
_cell_length_a 21.000000
_cell_length_b 21.000000
_cell_length_c 18.000000
_cell_angle_alpha 90.000000
_cell_angle_beta 160.000000
_cell_angle_gamma 90.000000
_cell_volume 2714.955898
_symmetry_space_group_name_H-M "C 2/C"
_symmetry_group_IT_number 15
_symmetry_cell_setting 'monoclinic'
loop_
_space_group_symop_operation_xyz
x,y,z
-x,y,1/2-z
-x,-y,-z
x,-y,1/2+z
1/2+x,1/2+y,z
1/2-x,1/2+y,1/2-z
1/2-x,1/2-y,-z
1/2+x,1/2-y,1/2+z
loop_
_atom_site_type_symbol
_atom_site_label
_atom_site_fract_x
_atom_site_fract_y
_atom_site_fract_z
Si Si1 0.280499 0.675407 0.520910
Si Si2 0.126319 0.142377 0.463278
Si Si3 0.945565 0.196097 0.409841
Si Si4 0.975236 0.335107 0.032686
Si Si5 0.587964 0.493501 0.428461
Si Si6 0.833994 0.893974 0.231389
Si Si7 0.572595 0.091754 0.168627
O O1 0.500000 0.665517 0.750000
O O2 0.250000 0.750000 0.500000
O O3 0.252411 0.640736 0.568536
O O4 0.161332 0.646182 0.321738
O O5 0.354019 0.150720 0.722267
O O6 0.000000 0.155646 0.250000
O O7 0.046982 0.184227 0.443115
O O8 0.085602 0.068673 0.438002
O O9 0.963345 0.271292 0.445226
O O10 0.049524 0.154172 0.587555
O O11 0.729759 0.178723 0.160044
O O12 0.926402 0.387143 0.916146
O O13 0.500000 0.482419 0.250000
O O14 0.467176 0.451092 0.352146
O O15 0.797272 0.467523 0.667241
O O16 0.645555 0.920139 0.059876
#
# Coordination Sequence:
#
# PCOD9309856 Si02
#       7
#     8   8   8   8   8   8   8
#     4  12  22  36  58  99 139 182 225 260 310 392
#     4  11  28  49  70  99 129 172 225 285 343 402
#     4  12  24  46  71 102 135 169 219 283 343 398
#     4  12  24  46  71 102 135 169 219 283 343 398
#     4  11  24  45  66  96 142 179 228 271 317 394
#     4  12  22  40  66  98 139 182 218 264 325 386
#     4  12  22  40  66  98 139 182 218 264 325 386
#
# _framework density 10.313243
#
# number of rings (size 3 to 8) (size 9 to 14) (size 15 to 20)
#    0.000    0.286    7.143    2.143    0.000    3.429 
#    0.000    2.857    0.000    0.000    0.000    0.000 
#    0.000    0.000    0.000    0.000    0.000    0.000 
#
# Total GULP energy -156306.108309 kJ/mol
# GULP energy per Si atom -5582.361011 kJ/mol
# Density = 1.028977 g / cm^3
# Si number density = 10.313243 Si / 1000 Ang^3
#
#
#
# Elastic Constant Matrix: (Units=GPa)
#
#
# Indices 1 2 3 4 5 6 
#
# 1 30.4786 -5.6864 10.0714 0.0000 -5.7262 0.0000
# 2 -5.6864 50.7035 3.2405 0.0000 -2.7466 0.0000
# 3 10.0714 3.2405 156.9194 -0.0003 -4.6698 -0.0002
# 4 0.0000 0.0000 -0.0003 32.9838 -0.0001 -6.9709
# 5 -5.7262 -2.7466 -4.6698 -0.0001 48.8943 -0.0001
# 6 0.0000 0.0000 -0.0002 -6.9709 -0.0001 16.4481
#
#
#
# Elastic Compliance Matrix: (Units=1/GPa)
#
#
# Indices 1 2 3 4 5 6 
#
# 1 0.035125 0.004306 -0.002220 0.000000 0.004144 0.000000
# 2 0.004306 0.020333 -0.000649 0.000000 0.001584 0.000000
# 3 -0.002220 -0.000649 0.006538 0.000000 0.000328 0.000000
# 4 0.000000 0.000000 0.000000 0.033301 0.000000 0.014113
# 5 0.004144 0.001584 0.000328 0.000000 0.021058 0.000000
# 6 0.000000 0.000000 0.000000 0.014113 0.000000 0.066779
#
#
# Mechanical properties :
#
#
# Convention : Reuss Voigt Hill
#
# Bulk Modulus (GPa) = 15.41557 28.15027 21.78292
# Shear Modulus (GPa) = 24.76677 35.03032 29.89854
#
# Velocity S-wave (km/s) = 3.46891 4.12554 3.81139
# Velocity P-wave (km/s) = 4.85122 6.03081 5.47289
#
# Compressibility (1/GPa) = 0.06486946
#
# Stress axis : x y z
#
# Youngs Moduli (GPa) = 28.46951 49.18191 152.94384
#
# Poissons Ratio (x) = -0.21176 0.33954
# Poissons Ratio (y) = -0.12258 0.09927
# Poissons Ratio (z) = 0.06320 0.03192
#
# Static dielectric constant tensor:
#      x y z
#    x 1.844200 0.000000 0.076740 
#    y 0.000000 1.801930 0.000000 
#    z 0.076740 0.000000 1.735930 
# 
# From -- ./inp_files/216659.got.cif
#   From: 2010.05.17/outbox.ucp.g08.bks.cvg/sg15_109_cif.got.tgz:216659.got - 2010.06.11 12:40:34.
