data_PCOD9309829
_publ_section_title
;
Structure prediction by ZEFSAII (Michael W. Deem and Ramdas Pophale) SiO2 
 PCOD9309829
Probable space group: C 2/C
;
_chemical_formula_sum "Si O2"
_cell_formula_units_Z 32
_cell_length_a 30.000000
_cell_length_b 9.000000
_cell_length_c 15.000000
_cell_angle_alpha 90.000000
_cell_angle_beta 130.000000
_cell_angle_gamma 90.000000
_cell_volume 3102.479995
_symmetry_space_group_name_H-M "C 2/C"
_symmetry_group_IT_number 15
_symmetry_cell_setting 'monoclinic'
loop_
_space_group_symop_operation_xyz
x,y,z
-x,y,1/2-z
-x,-y,-z
x,-y,1/2+z
1/2+x,1/2+y,z
1/2-x,1/2+y,1/2-z
1/2-x,1/2-y,-z
1/2+x,1/2-y,1/2+z
loop_
_atom_site_type_symbol
_atom_site_label
_atom_site_fract_x
_atom_site_fract_y
_atom_site_fract_z
Si Si1 0.701267 0.690484 0.007791
Si Si2 0.813672 0.315573 0.103861
Si Si3 0.505881 0.067763 0.362665
Si Si4 0.509942 0.743566 0.159261
Si Si5 0.693188 0.065706 0.253291
Si Si6 0.383612 0.473019 0.715064
Si Si7 0.857417 0.484161 0.496137
Si Si8 0.424643 0.736749 0.886665
O O1 0.743603 0.638533 0.143381
O O2 0.660932 0.828876 0.982642
O O3 0.750000 0.750000 0.000000
O O4 0.657163 0.566681 0.908081
O O5 0.810326 0.439713 0.175517
O O6 0.847105 0.174628 0.186503
O O7 0.750000 0.250000 0.000000
O O8 0.845545 0.388171 0.056819
O O9 0.500000 0.107669 0.250000
O O10 0.576001 0.032142 0.456432
O O11 0.474280 0.190003 0.384939
O O12 0.472906 0.913159 0.347197
O O13 0.500000 0.774257 0.250000
O O14 0.553999 0.605503 0.222940
O O15 0.456207 0.711546 0.022966
O O16 0.634347 0.164778 0.187463
O O17 0.686077 0.010884 0.142709
O O18 0.400016 0.584646 0.814578
#
# Coordination Sequence:
#
# PCOD9309829 Si02
#       8
#     8   8   8   8   8   8   8   8
#     4  12  24  50  73 103 145 194 242 312 369 434
#     4  12  25  48  71 107 149 194 238 302 380 430
#     4  11  23  45  74 104 142 194 250 296 363 450
#     4  11  25  46  68 105 149 193 240 303 373 442
#     4  12  26  47  77 108 147 193 250 301 370 455
#     4  12  25  43  74 101 145 192 242 303 373 430
#     4  12  27  47  75 109 142 196 249 301 370 448
#     4  12  25  47  74 109 146 196 244 311 368 441
#
# _framework density 10.314329000000001
#
# number of rings (size 3 to 8) (size 9 to 14) (size 15 to 20)
#    0.000    0.250    5.000    4.500    3.500    1.500 
#    2.250    0.000    0.000    0.000    0.000    0.000 
#    0.000    0.000    0.000    0.000    0.000    0.000 
#
# Total GULP energy -178483.223406 kJ/mol
# GULP energy per Si atom -5577.600731 kJ/mol
# Density = 1.029085 g / cm^3
# Si number density = 10.314329 Si / 1000 Ang^3
#
#
#
# Elastic Constant Matrix: (Units=GPa)
#
#
# Indices 1 2 3 4 5 6 
#
# 1 53.3263 34.9597 20.1972 0.0000 13.3046 0.0000
# 2 34.9597 116.1755 32.9678 0.0000 6.7605 0.0000
# 3 20.1972 32.9678 154.8106 0.0000 12.4584 0.0000
# 4 0.0000 0.0000 0.0000 49.2999 0.0000 14.6651
# 5 13.3046 6.7605 12.4584 0.0000 39.7424 0.0000
# 6 0.0000 0.0000 0.0000 14.6651 0.0000 16.0952
#
#
#
# Elastic Compliance Matrix: (Units=1/GPa)
#
#
# Indices 1 2 3 4 5 6 
#
# 1 0.025504 -0.006902 -0.001298 0.000000 -0.006957 0.000000
# 2 -0.006902 0.011066 -0.001529 0.000000 0.000907 0.000000
# 3 -0.001298 -0.001529 0.007077 0.000000 -0.001524 0.000000
# 4 0.000000 0.000000 0.000000 0.027826 0.000000 -0.025353
# 5 -0.006957 0.000907 -0.001524 0.000000 0.027814 0.000000
# 6 0.000000 0.000000 0.000000 -0.025353 0.000000 0.085231
#
#
# Mechanical properties :
#
#
# Convention : Reuss Voigt Hill
#
# Bulk Modulus (GPa) = 41.33934 55.61798 48.47866
# Shear Modulus (GPa) = 23.58062 36.77337 30.17699
#
# Velocity S-wave (km/s) = 3.38464 4.22671 3.82889
# Velocity P-wave (km/s) = 5.94623 7.13023 6.56498
#
# Compressibility (1/GPa) = 0.02419003
#
# Stress axis : x y z
#
# Youngs Moduli (GPa) = 39.20890 90.36974 141.30108
#
# Poissons Ratio (x) = 0.62370 0.18338
# Poissons Ratio (y) = 0.27061 0.21606
# Poissons Ratio (z) = 0.05088 0.13818
#
# Static dielectric constant tensor:
#      x y z
#    x 1.791680 0.000000 0.028050 
#    y 0.000000 1.802570 0.000000 
#    z 0.028050 0.000000 1.776690 
# 
# From -- ./inp_files/181188.got.cif
#   From: 2010.05.17/outbox.ucp.g08.bks.cvg/sg15_91_cif.got.tgz:181188.got - 2010.06.11 12:40:34.
