data_PCOD9309254
_publ_section_title
;
Structure prediction by ZEFSAII (Michael W. Deem and Ramdas Pophale) SiO2 
 PCOD9309254
Probable space group: C 2/C
;
_chemical_formula_sum "Si O2"
_cell_formula_units_Z 24
_cell_length_a 9.000000
_cell_length_b 15.000000
_cell_length_c 27.000000
_cell_angle_alpha 90.000000
_cell_angle_beta 40.000000
_cell_angle_gamma 90.000000
_cell_volume 2342.960837
_symmetry_space_group_name_H-M "C 2/C"
_symmetry_group_IT_number 15
_symmetry_cell_setting 'monoclinic'
loop_
_space_group_symop_operation_xyz
x,y,z
-x,y,1/2-z
-x,-y,-z
x,-y,1/2+z
1/2+x,1/2+y,z
1/2-x,1/2+y,1/2-z
1/2-x,1/2-y,-z
1/2+x,1/2-y,1/2+z
loop_
_atom_site_type_symbol
_atom_site_label
_atom_site_fract_x
_atom_site_fract_y
_atom_site_fract_z
Si Si1 0.730879 0.999345 0.554898
Si Si2 0.724125 0.722699 0.723328
Si Si3 0.499480 0.093661 0.029696
Si Si4 0.140633 0.543144 0.763700
Si Si5 0.522942 0.609519 0.301572
Si Si6 0.940183 0.675883 0.950784
O O1 0.652320 0.917407 0.539812
O O2 0.549532 0.011008 0.646707
O O3 0.686625 0.085420 0.532314
O O4 0.000000 0.000000 0.500000
O O5 0.500000 0.752257 0.750000
O O6 0.716256 0.629894 0.755115
O O7 0.837284 0.798913 0.727882
O O8 0.893703 0.699775 0.635570
O O9 0.235475 0.115192 0.111616
O O10 0.569274 0.164386 0.970071
O O11 0.500000 0.000000 0.000000
O O12 0.326323 0.464970 0.709348
O O13 0.000000 0.563157 0.750000
O O14 0.500000 0.583174 0.250000
O O15 0.750000 0.750000 0.000000
#
# Coordination Sequence:
#
# PCOD9309254 Si02
#       6
#     8   8   8   8   8   8
#     4  10  23  40  62  94 127 163 214 263 319 385
#     4  11  25  42  65  98 133 170 218 269 329 393
#     4  10  22  40  66  93 127 170 214 263 326 385
#     4  11  25  40  65  95 131 173 215 270 322 387
#     4  12  23  43  68  94 133 173 220 271 332 385
#     4  10  21  41  66  91 127 166 210 263 322 388
#
# _framework density 10.243449
#
# number of rings (size 3 to 8) (size 9 to 14) (size 15 to 20)
#    0.000    1.333    3.333    1.500    9.333    1.333 
#    0.000    0.833    0.000    0.000    0.000    0.000 
#    0.000    0.000    0.000    0.000    0.000    0.000 
#
# Total GULP energy -133884.168081 kJ/mol
# GULP energy per Si atom -5578.507003 kJ/mol
# Density = 1.022013 g / cm^3
# Si number density = 10.243449 Si / 1000 Ang^3
#
#
#
# Elastic Constant Matrix: (Units=GPa)
#
#
# Indices 1 2 3 4 5 6 
#
# 1 99.1478 -4.3620 3.3525 0.0002 -6.7112 -0.0026
# 2 -4.3620 43.1306 -4.6214 0.0007 -5.3086 -0.0021
# 3 3.3525 -4.6214 -7.3404 -0.0022 -0.6415 -0.0102
# 4 0.0002 0.0007 -0.0022 15.4377 0.0003 -8.8489
# 5 -6.7112 -5.3086 -0.6415 0.0003 39.0481 0.0023
# 6 -0.0026 -0.0021 -0.0102 -8.8489 0.0023 26.6545
#
#
#
# Elastic Compliance Matrix: (Units=1/GPa)
#
#
# Indices 1 2 3 4 5 6 
#
# 1 0.010180 0.001647 0.003435 0.000002 0.002030 0.000003
# 2 0.001647 0.022281 -0.013545 -0.000006 0.003090 -0.000006
# 3 0.003435 -0.013545 -0.125846 -0.000056 -0.003319 -0.000067
# 4 0.000002 -0.000006 -0.000056 0.080000 -0.000004 0.026559
# 5 0.002030 0.003090 -0.003319 -0.000004 0.026324 -0.000004
# 6 0.000003 -0.000006 -0.000067 0.026559 -0.000004 0.046334
#
#
# Mechanical properties :
#
#
# Convention : Reuss Voigt Hill
#
# Bulk Modulus (GPa) = -9.06523 13.74183 2.33830
# Shear Modulus (GPa) = 126.81181 25.59932 76.20556
#
# Velocity S-wave (km/s) = 7.87613 3.53873 6.10557
# Velocity P-wave (km/s) = 8.84741 4.83931 7.13076
#
# Compressibility (1/GPa) = -0.11031159
#
# Stress axis : x y z
#
# Youngs Moduli (GPa) = 98.23478 44.88141 -7.94623
#
# Poissons Ratio (x) = -0.07394 0.02729
# Poissons Ratio (y) = -0.16183 -0.10763
# Poissons Ratio (z) = -0.33741 0.60793
#
# Static dielectric constant tensor:
#      x y z
#    x 1.658020 0.000000 0.046710 
#    y 0.000000 1.763680 0.000000 
#    z 0.046710 0.000000 1.720160 
# 
# From -- ./inp_files/288994.got.cif
#   From: 2010.05.17/outbox.ucp.g08.bks.cvg/sg15_145_cif.got.tgz:288994.got - 2010.06.11 12:40:34.
