data_PCOD9309060
_publ_section_title
;
Structure prediction by ZEFSAII (Michael W. Deem and Ramdas Pophale) SiO2 
 PCOD9309060
Probable space group: C 2/C
;
_chemical_formula_sum "Si O2"
_cell_formula_units_Z 24
_cell_length_a 9.000000
_cell_length_b 18.000000
_cell_length_c 30.000000
_cell_angle_alpha 90.000000
_cell_angle_beta 30.000000
_cell_angle_gamma 90.000000
_cell_volume 2430.000000
_symmetry_space_group_name_H-M "C 2/C"
_symmetry_group_IT_number 15
_symmetry_cell_setting 'monoclinic'
loop_
_space_group_symop_operation_xyz
x,y,z
-x,y,1/2-z
-x,-y,-z
x,-y,1/2+z
1/2+x,1/2+y,z
1/2-x,1/2+y,1/2-z
1/2-x,1/2-y,-z
1/2+x,1/2-y,1/2+z
loop_
_atom_site_type_symbol
_atom_site_label
_atom_site_fract_x
_atom_site_fract_y
_atom_site_fract_z
Si Si1 0.294301 0.535088 0.092348
Si Si2 0.849760 0.708928 0.741366
Si Si3 0.157136 0.572664 0.827768
Si Si4 0.718815 0.288176 0.900842
Si Si5 0.329375 0.946648 0.509953
Si Si6 0.162593 0.213026 0.087353
O O1 0.238586 0.623430 0.104219
O O2 0.988883 0.491984 0.164312
O O3 0.500000 0.500000 0.000000
O O4 0.501573 0.522789 0.081832
O O5 0.866075 0.644817 0.698738
O O6 0.512143 0.739391 0.833782
O O7 0.000000 0.689094 0.750000
O O8 0.038582 0.774229 0.668639
O O9 0.500000 0.560940 0.750000
O O10 0.991554 0.571891 0.919800
O O11 0.597206 0.273863 0.882081
O O12 0.441059 0.265834 0.004068
O O13 0.279194 0.869081 0.547612
O O14 0.500000 0.000000 0.500000
#
# Coordination Sequence:
#
# PCOD9309060 Si02
#       6
#     8   8   8   8   8   8
#     4   9  20  38  63  93 127 166 209 259 319 385
#     4  12  26  40  62  96 127 165 219 270 325 392
#     4  11  23  42  65  89 128 170 212 269 326 391
#     4  10  21  41  67  94 126 167 215 265 322 389
#     4  10  22  40  67  96 125 168 216 263 326 395
#     4  10  20  40  66  89 126 170 205 260 327 382
#
# _framework density 9.8765429999999999
#
# number of rings (size 3 to 8) (size 9 to 14) (size 15 to 20)
#    0.000    1.667    0.000    6.500    0.000    8.000 
#    0.000    3.333    0.000    0.000    0.000    0.000 
#    0.000    0.000    0.000    0.000    0.000    0.000 
#
# Total GULP energy -133927.196164 kJ/mol
# GULP energy per Si atom -5580.299840 kJ/mol
# Density = 0.985406 g / cm^3
# Si number density = 9.876543 Si / 1000 Ang^3
#
#
#
# Elastic Constant Matrix: (Units=GPa)
#
#
# Indices 1 2 3 4 5 6 
#
# 1 138.4104 74.2657 56.7927 0.0183 -22.5144 -0.0205
# 2 74.2657 113.9744 36.5086 -0.0061 -22.4936 0.0039
# 3 56.7927 36.5086 86.0483 -0.0141 -10.4464 0.0014
# 4 0.0183 -0.0061 -0.0141 25.3049 0.0034 -5.9269
# 5 -22.5144 -22.4936 -10.4464 0.0034 34.2310 -0.0108
# 6 -0.0205 0.0039 0.0014 -5.9269 -0.0108 37.8365
#
#
#
# Elastic Compliance Matrix: (Units=1/GPa)
#
#
# Indices 1 2 3 4 5 6 
#
# 1 0.013517 -0.006349 -0.005872 -0.000013 0.002926 0.000007
# 2 -0.006349 0.014271 -0.001280 0.000006 0.004811 -0.000003
# 3 -0.005872 -0.001280 0.016065 0.000012 0.000199 -0.000002
# 4 -0.000013 0.000006 0.000012 0.041023 -0.000003 0.006426
# 5 0.002926 0.004811 0.000199 -0.000003 0.034360 0.000010
# 6 0.000007 -0.000003 -0.000002 0.006426 0.000010 0.027436
#
#
# Mechanical properties :
#
#
# Convention : Reuss Voigt Hill
#
# Bulk Modulus (GPa) = 59.35158 74.84080 67.09619
# Shear Modulus (GPa) = 27.88760 30.86554 29.37657
#
# Velocity S-wave (km/s) = 3.76148 3.95722 3.86059
# Velocity P-wave (km/s) = 6.99835 7.67137 7.34258
#
# Compressibility (1/GPa) = 0.01684875
#
# Stress axis : x y z
#
# Youngs Moduli (GPa) = 73.97969 70.07446 62.24904
#
# Poissons Ratio (x) = 0.44492 0.36555
# Poissons Ratio (y) = 0.46971 0.07969
# Poissons Ratio (z) = 0.43444 0.08970
#
# Static dielectric constant tensor:
#      x y z
#    x 1.689070 -0.000010 -0.004950 
#    y -0.000010 1.725770 0.000080 
#    z -0.004950 0.000080 1.725220 
# 
# From -- ./inp_files/308703.got.cif
#   From: 2010.05.17/outbox.ucp.g08.bks.cvg/sg15_155_cif.got.tgz:308703.got - 2010.06.11 12:40:34.
