data_PCOD9309731
_publ_section_title
;
Structure prediction by ZEFSAII (Michael W. Deem and Ramdas Pophale) SiO2 
 PCOD9309731
Probable space group: C 2/C
;
_chemical_formula_sum "Si O2"
_cell_formula_units_Z 30
_cell_length_a 12.000000
_cell_length_b 24.000000
_cell_length_c 21.000000
_cell_angle_alpha 90.000000
_cell_angle_beta 30.000000
_cell_angle_gamma 90.000000
_cell_volume 3024.000000
_symmetry_space_group_name_H-M "C 2/C"
_symmetry_group_IT_number 15
_symmetry_cell_setting 'monoclinic'
loop_
_space_group_symop_operation_xyz
x,y,z
-x,y,1/2-z
-x,-y,-z
x,-y,1/2+z
1/2+x,1/2+y,z
1/2-x,1/2+y,1/2-z
1/2-x,1/2-y,-z
1/2+x,1/2-y,1/2+z
loop_
_atom_site_type_symbol
_atom_site_label
_atom_site_fract_x
_atom_site_fract_y
_atom_site_fract_z
Si Si1 0.113565 0.647636 0.341556
Si Si2 0.413209 0.540142 0.221661
Si Si3 0.805007 0.884447 0.528966
Si Si4 0.000000 0.476308 0.750000
Si Si5 0.035961 0.184425 0.437233
Si Si6 0.251133 0.707830 0.397619
Si Si7 0.733306 0.941835 0.235652
Si Si8 0.232292 0.611100 0.512486
O O1 0.237912 0.589232 0.294279
O O2 0.269505 0.677603 0.211508
O O3 0.124265 0.683331 0.399727
O O4 0.865738 0.635591 0.440527
O O5 0.500000 0.542627 0.250000
O O6 0.300465 0.482227 0.260351
O O7 0.630074 0.555245 0.072006
O O8 0.671710 0.934445 0.630267
O O9 0.850556 0.832338 0.552909
O O10 0.043880 0.908233 0.390723
O O11 0.857488 0.516150 0.774077
O O12 0.897945 0.241566 0.502677
O O13 0.850091 0.136906 0.515713
O O14 0.500000 0.724191 0.250000
O O15 0.274769 0.657826 0.437018
O O16 0.525875 0.901938 0.353263
#
# Coordination Sequence:
#
# PCOD9309731 Si02
#       8
#     8   8   8   4   8   8   8   8
#     4  11  22  46  66  92 131 169 214 268 326 394
#     4  11  21  42  66  91 128 180 217 257 321 382
#     4  12  24  43  64  97 139 171 214 268 330 394
#     4  12  20  44  66  94 136 178 222 260 322 388
#     4  11  24  41  70  95 125 169 217 275 329 377
#     4  12  24  43  74  96 123 175 225 274 328 381
#     4  12  26  36  66 102 134 175 214 265 322 390
#     4  11  23  44  63 102 134 161 225 275 314 388
#
# _framework density 9.9206350000000008
#
# number of rings (size 3 to 8) (size 9 to 14) (size 15 to 20)
#    0.000    0.533    6.667    3.200    1.867    2.133 
#    0.000    1.333    0.000    0.000    0.000    0.000 
#    0.000    0.000    0.000    0.000    0.000    0.000 
#
# Total GULP energy -167704.836936 kJ/mol
# GULP energy per Si atom -5590.161231 kJ/mol
# Density = 0.989806 g / cm^3
# Si number density = 9.920635 Si / 1000 Ang^3
#
#
#
# Elastic Constant Matrix: (Units=GPa)
#
#
# Indices 1 2 3 4 5 6 
#
# 1 111.0804 6.2451 18.6503 -0.0142 -24.4312 0.0044
# 2 6.2451 31.1333 7.5080 -0.0038 -4.5042 0.0333
# 3 18.6503 7.5080 77.0509 0.0186 -34.9185 0.0345
# 4 -0.0142 -0.0038 0.0186 16.5642 -0.0153 -10.3906
# 5 -24.4312 -4.5042 -34.9185 -0.0153 28.9617 -0.0057
# 6 0.0044 0.0333 0.0345 -10.3906 -0.0057 23.5798
#
#
#
# Elastic Compliance Matrix: (Units=1/GPa)
#
#
# Indices 1 2 3 4 5 6 
#
# 1 0.011519 -0.001173 0.003631 0.000023 0.013912 0.000008
# 2 -0.001173 0.033113 -0.002331 -0.000023 0.001350 -0.000053
# 3 0.003631 -0.002331 0.029873 -0.000021 0.038718 -0.000041
# 4 0.000023 -0.000023 -0.000021 0.083435 0.000042 0.036766
# 5 0.013912 0.001350 0.038718 0.000042 0.093155 -0.000020
# 6 0.000008 -0.000053 -0.000041 0.036766 -0.000020 0.058611
#
#
# Mechanical properties :
#
#
# Convention : Reuss Voigt Hill
#
# Bulk Modulus (GPa) = 13.37651 31.56347 22.46999
# Shear Modulus (GPa) = 14.95345 26.27856 20.61601
#
# Velocity S-wave (km/s) = 2.74825 3.64323 3.22692
# Velocity P-wave (km/s) = 4.10206 5.80000 5.02330
#
# Compressibility (1/GPa) = 0.07475790
#
# Stress axis : x y z
#
# Youngs Moduli (GPa) = 86.81545 30.19982 33.47491
#
# Poissons Ratio (x) = 0.03544 -0.12155
# Poissons Ratio (y) = 0.10188 0.07803
# Poissons Ratio (z) = -0.31523 0.07039
#
# Static dielectric constant tensor:
#      x y z
#    x 1.717080 0.000000 0.036030 
#    y 0.000000 1.692860 0.000010 
#    z 0.036030 0.000010 1.693460 
# 
# From -- ./inp_files/240841.got.cif
#   From: 2010.05.17/outbox.ucp.g08.bks.cvg/sg15_121_cif.got.tgz:240841.got - 2010.06.11 12:40:34.
