data_PCOD9309985
_publ_section_title
;
Structure prediction by ZEFSAII (Michael W. Deem and Ramdas Pophale) SiO2 
 PCOD9309985
Probable space group: P 2 2 2
;
_chemical_formula_sum "Si O2"
_cell_formula_units_Z 32
_cell_length_a 9.769177
_cell_length_b 7.081472
_cell_length_c 19.157828
_cell_angle_alpha 90.000000
_cell_angle_beta 90.000000
_cell_angle_gamma 90.000000
_cell_volume 1325.341480
_symmetry_space_group_name_H-M "P 2 2 2"
_symmetry_group_IT_number 16
_symmetry_cell_setting 'orthorhombic'
loop_
_space_group_symop_operation_xyz
x,y,z
-x,-y,z
x,-y,-z
-x,y,-z
loop_
_atom_site_type_symbol
_atom_site_label
_atom_site_fract_x
_atom_site_fract_y
_atom_site_fract_z
Si Si1 0.546646 0.754134 0.310629
Si Si2 0.006763 0.716307 0.391725
Si Si3 0.310336 0.676796 0.417681
Si Si4 0.497872 0.229676 0.919977
Si Si5 0.690821 0.170653 0.199892
Si Si6 0.276242 0.222026 0.432902
Si Si7 0.274643 0.282419 0.187415
Si Si8 0.007464 0.226155 0.768513
O O1 0.438734 0.683480 0.367591
O O2 0.435041 0.821144 0.253681
O O3 0.648229 0.863861 0.364911
O O4 0.650803 0.643357 0.258437
O O5 0.166337 0.765396 0.393587
O O6 0.000000 0.500000 0.416445
O O7 0.885857 0.822302 0.432363
O O8 0.966816 0.727013 0.310644
O O9 0.284969 0.451337 0.423275
O O10 0.337959 0.787552 0.489884
O O11 0.365120 0.260785 0.871672
O O12 0.627993 0.314263 0.878773
O O13 0.500000 0.000000 0.920261
O O14 0.500000 0.289387 0.000000
O O15 0.832725 0.269325 0.220316
O O16 0.717480 0.946806 0.194587
O O17 0.112523 0.319415 0.185235
O O18 0.000000 0.000000 0.777207
#
# Coordination Sequence:
#
# PCOD9309985 Si02
#       8
#     4   4   4   4   4   4   4   4
#     4  11  17  28  47  65  94 121 159 197 242 296
#     4  10  19  34  52  71  95 126 166 208 251 294
#     4  10  20  32  47  68  93 122 160 209 259 297
#     4   8  14  27  46  71 102 131 157 191 238 288
#     4   9  18  30  48  70  95 131 164 195 240 291
#     4  10  20  32  47  68  93 122 160 209 259 297
#     4   9  18  30  48  70  95 131 164 195 240 291
#     4  10  18  33  52  71  98 131 166 202 242 290
#
# _framework density 24.144722999999999
#
# number of rings (size 3 to 8) (size 9 to 14) (size 15 to 20)
#    0.000    2.375    2.500    2.250    0.000    2.500 
#    0.000    0.625    0.000   14.250    0.000    0.000 
#    0.000   51.000    0.000    0.000    0.000    0.000 
#
# Total GULP energy -178526.447954 kJ/mol
# GULP energy per Si atom -5578.951499 kJ/mol
# Density = 2.408977 g / cm^3
# Si number density = 24.144723 Si / 1000 Ang^3
#
#
#
# Elastic Constant Matrix: (Units=GPa)
#
#
# Indices 1 2 3 4 5 6 
#
# 1 209.7320 14.4640 72.3745 0.0000 0.0000 0.0000
# 2 14.4640 94.0646 -9.5578 0.0000 0.0000 0.0000
# 3 72.3745 -9.5578 166.4312 0.0000 0.0000 0.0000
# 4 0.0000 0.0000 0.0000 15.9443 0.0000 0.0000
# 5 0.0000 0.0000 0.0000 0.0000 26.8560 0.0000
# 6 0.0000 0.0000 0.0000 0.0000 0.0000 46.5302
#
#
#
# Elastic Compliance Matrix: (Units=1/GPa)
#
#
# Indices 1 2 3 4 5 6 
#
# 1 0.005729 -0.001141 -0.002557 0.000000 0.000000 0.000000
# 2 -0.001141 0.010921 0.001123 0.000000 0.000000 0.000000
# 3 -0.002557 0.001123 0.007185 0.000000 0.000000 0.000000
# 4 0.000000 0.000000 0.000000 0.062718 0.000000 0.000000
# 5 0.000000 0.000000 0.000000 0.000000 0.037236 0.000000
# 6 0.000000 0.000000 0.000000 0.000000 0.000000 0.021491
#
#
# Mechanical properties :
#
#
# Convention : Reuss Voigt Hill
#
# Bulk Modulus (GPa) = 53.51698 69.42104 61.46901
# Shear Modulus (GPa) = 31.91685 44.06258 37.98971
#
# Velocity S-wave (km/s) = 3.63974 4.27656 3.97093
# Velocity P-wave (km/s) = 6.31481 7.29382 6.82190
#
# Compressibility (1/GPa) = 0.01868566
#
# Stress axis : x y z
#
# Youngs Moduli (GPa) = 174.55160 91.57076 139.18173
#
# Poissons Ratio (x) = 0.10446 0.35586
# Poissons Ratio (y) = 0.19911 -0.15633
# Poissons Ratio (z) = 0.44630 -0.10285
#
# Static dielectric constant tensor:
#      x y z
#    x 1.940480 0.000000 0.000000 
#    y 0.000000 2.146330 0.000000 
#    z 0.000000 0.000000 1.874390 
# 
# From -- ./inp_files/8969.got.cif
#   From: 2010.05.17/outbox.cif.g08.bks.cpg/sg16_5_cif.got.tgz:8969.got - 2010.06.03 22:28:35.
