data_PCOD9309944
_publ_section_title
;
Structure prediction by ZEFSAII (Michael W. Deem and Ramdas Pophale) SiO2 
 PCOD9309944
Probable space group: P 2 2 2
;
_chemical_formula_sum "Si O2"
_cell_formula_units_Z 11
_cell_length_a 7.810402
_cell_length_b 11.818817
_cell_length_c 4.974695
_cell_angle_alpha 90.000000
_cell_angle_beta 90.000000
_cell_angle_gamma 90.000000
_cell_volume 459.212662
_symmetry_space_group_name_H-M "P 2 2 2"
_symmetry_group_IT_number 16
_symmetry_cell_setting 'orthorhombic'
loop_
_space_group_symop_operation_xyz
x,y,z
-x,-y,z
x,-y,-z
-x,y,-z
loop_
_atom_site_type_symbol
_atom_site_label
_atom_site_fract_x
_atom_site_fract_y
_atom_site_fract_z
Si Si1 0.697979 0.741911 0.584817
Si Si2 0.199385 0.873749 0.922246
Si Si3 0.736566 0.500000 0.500000
Si Si4 0.500000 0.500000 0.000000
O O1 0.500000 0.725637 0.500000
O O2 0.701807 0.787500 0.886018
O O3 0.803449 0.623759 0.581458
O O4 0.774372 0.835390 0.383363
O O5 0.000000 0.866379 0.000000
O O6 0.257202 0.000000 0.000000
O O7 0.635457 0.538610 0.228757
#
# Coordination Sequence:
#
# PCOD9309944 Si02
#       4
#     4   4   2   1
#     4  12  23  40  70  99 128 159 221 271 309 378
#     4  11  26  46  64  88 131 180 213 257 329 384
#     4  11  22  36  63  98 133 166 197 254 341 378
#     4  10  16  34  56  82 132 170 184 230 314 400
#
# _framework density 23.954039999999999
#
# number of rings (size 3 to 8) (size 9 to 14) (size 15 to 20)
#    0.000    0.727    3.636    5.455    0.000    7.273 
#    0.000    5.455    0.000    0.000    0.000    0.000 
#    0.000    0.000    0.000    0.000    0.000    0.000 
#
# Total GULP energy -61247.517378 kJ/mol
# GULP energy per Si atom -5567.956125 kJ/mol
# Density = 2.389952 g / cm^3
# Si number density = 23.954040 Si / 1000 Ang^3
#
#
#
# Elastic Constant Matrix: (Units=GPa)
#
#
# Indices 1 2 3 4 5 6 
#
# 1 60.4663 2.5060 -2.1045 0.0000 0.0000 0.0000
# 2 2.5060 146.0335 5.8547 0.0000 0.0000 0.0000
# 3 -2.1045 5.8547 120.4249 0.0000 0.0000 0.0000
# 4 0.0000 0.0000 0.0000 36.6568 0.0000 0.0000
# 5 0.0000 0.0000 0.0000 0.0000 29.4009 0.0000
# 6 0.0000 0.0000 0.0000 0.0000 0.0000 6.0711
#
#
#
# Elastic Compliance Matrix: (Units=1/GPa)
#
#
# Indices 1 2 3 4 5 6 
#
# 1 0.016561 -0.000296 0.000304 0.000000 0.000000 0.000000
# 2 -0.000296 0.006866 -0.000339 0.000000 0.000000 0.000000
# 3 0.000304 -0.000339 0.008326 0.000000 0.000000 0.000000
# 4 0.000000 0.000000 0.000000 0.027280 0.000000 0.000000
# 5 0.000000 0.000000 0.000000 0.000000 0.034013 0.000000
# 6 0.000000 0.000000 0.000000 0.000000 0.000000 0.164715
#
#
# Mechanical properties :
#
#
# Convention : Reuss Voigt Hill
#
# Bulk Modulus (GPa) = 32.16466 37.71523 34.93995
# Shear Modulus (GPa) = 18.60208 35.80367 27.20288
#
# Velocity S-wave (km/s) = 2.78973 3.87031 3.37356
# Velocity P-wave (km/s) = 4.88197 5.97924 5.45825
#
# Compressibility (1/GPa) = 0.03109002
#
# Stress axis : x y z
#
# Youngs Moduli (GPa) = 60.38283 145.63626 120.10975
#
# Poissons Ratio (x) = 0.04316 -0.03649
# Poissons Ratio (y) = 0.01790 0.04072
# Poissons Ratio (z) = -0.01835 0.04937
#
# Static dielectric constant tensor:
#      x y z
#    x 2.082930 0.000000 0.000000 
#    y 0.000000 1.953410 0.000000 
#    z 0.000000 0.000000 1.854190 
# 
# From -- ./inp_files/515.got.cif
#   From: 2010.05.17/outbox.cif.g08.bks.cpg/sg16_1_cif.got.tgz:515.got - 2010.06.03 22:28:35.
