data_PCOD9309456
_publ_section_title
;
Structure prediction by ZEFSAII (Michael W. Deem and Ramdas Pophale) SiO2 
 PCOD9309456
Probable space group: C 2/C
;
_chemical_formula_sum "Si O2"
_cell_formula_units_Z 30
_cell_length_a 12.000000
_cell_length_b 21.000000
_cell_length_c 18.000000
_cell_angle_alpha 90.000000
_cell_angle_beta 40.000000
_cell_angle_gamma 90.000000
_cell_volume 2915.684598
_symmetry_space_group_name_H-M "C 2/C"
_symmetry_group_IT_number 15
_symmetry_cell_setting 'monoclinic'
loop_
_space_group_symop_operation_xyz
x,y,z
-x,y,1/2-z
-x,-y,-z
x,-y,1/2+z
1/2+x,1/2+y,z
1/2-x,1/2+y,1/2-z
1/2-x,1/2-y,-z
1/2+x,1/2-y,1/2+z
loop_
_atom_site_type_symbol
_atom_site_label
_atom_site_fract_x
_atom_site_fract_y
_atom_site_fract_z
Si Si1 0.359360 0.873612 0.005870
Si Si2 0.500000 0.671353 0.750000
Si Si3 0.319337 0.424505 0.543902
Si Si4 0.086498 0.254479 0.851218
Si Si5 0.575746 0.690030 0.411972
Si Si6 0.526296 0.055588 0.547681
Si Si7 0.566002 0.411070 0.632336
Si Si8 0.819289 0.982545 0.180909
O O1 0.175425 0.865838 0.141585
O O2 0.484808 0.887023 0.012073
O O3 0.307709 0.920287 0.962863
O O4 0.454855 0.814294 0.918434
O O5 0.526910 0.709376 0.813628
O O6 0.311742 0.359614 0.595809
O O7 0.523114 0.432455 0.415110
O O8 0.281177 0.481959 0.621456
O O9 0.282886 0.274317 0.717435
O O10 0.040392 0.225480 0.960631
O O11 0.459024 0.646652 0.414837
O O12 0.729197 0.065180 0.470498
O O13 0.362121 0.043367 0.689454
O O14 0.500000 0.000000 0.500000
O O15 0.500000 0.394385 0.750000
O O16 0.426834 0.465448 0.676054
#
# Coordination Sequence:
#
# PCOD9309456 Si02
#       8
#     8   4   8   8   8   8   8   8
#     4  12  24  40  70 103 139 185 236 298 367 427
#     4  12  22  42  72 104 144 178 244 314 358 426
#     4  10  22  43  68 102 144 185 231 306 361 421
#     4  12  24  45  70 109 140 188 240 303 371 424
#     4  11  25  46  73 101 146 185 243 305 361 432
#     4  12  25  43  72 105 142 190 237 284 359 443
#     4  11  23  47  72 103 148 192 238 296 357 434
#     4  10  23  44  69 101 146 187 234 292 361 437
#
# _framework density 10.289179000000001
#
# number of rings (size 3 to 8) (size 9 to 14) (size 15 to 20)
#    0.000    0.800    4.000    3.600    1.867    0.000 
#    2.400    9.333    0.000    0.000    0.000    0.000 
#    0.000    0.000    0.000    0.000    0.000    0.000 
#
# Total GULP energy -167013.168882 kJ/mol
# GULP energy per Si atom -5567.105629 kJ/mol
# Density = 1.026576 g / cm^3
# Si number density = 10.289179 Si / 1000 Ang^3
#
#
#
# Elastic Constant Matrix: (Units=GPa)
#
#
# Indices 1 2 3 4 5 6 
#
# 1 135.5504 31.7157 46.8245 0.0000 6.1707 0.0006
# 2 31.7157 51.1117 18.8396 -0.0001 11.1860 0.0009
# 3 46.8245 18.8396 150.7052 0.0018 18.2749 0.0011
# 4 0.0000 -0.0001 0.0018 40.6136 -0.0007 3.9383
# 5 6.1707 11.1860 18.2749 -0.0007 47.2102 -0.0009
# 6 0.0006 0.0009 0.0011 3.9383 -0.0009 36.2484
#
#
#
# Elastic Compliance Matrix: (Units=1/GPa)
#
#
# Indices 1 2 3 4 5 6 
#
# 1 0.009357 -0.005130 -0.002377 0.000000 0.000912 0.000000
# 2 -0.005130 0.024091 -0.000847 0.000000 -0.004710 -0.000001
# 3 -0.002377 -0.000847 0.007783 0.000000 -0.002502 0.000000
# 4 0.000000 0.000000 0.000000 0.024884 0.000000 -0.002704
# 5 0.000912 -0.004710 -0.002502 0.000000 0.023147 0.000001
# 6 0.000000 -0.000001 0.000000 -0.002704 0.000001 0.027881
#
#
# Mechanical properties :
#
#
# Convention : Reuss Voigt Hill
#
# Bulk Modulus (GPa) = 40.77486 59.12521 49.95003
# Shear Modulus (GPa) = 35.20512 40.81361 38.00937
#
# Velocity S-wave (km/s) = 4.14065 4.45829 4.30240
# Velocity P-wave (km/s) = 6.53586 7.43612 7.00048
#
# Compressibility (1/GPa) = 0.02452492
#
# Stress axis : x y z
#
# Youngs Moduli (GPa) = 106.87139 41.50932 128.48392
#
# Poissons Ratio (x) = 0.21294 0.30536
# Poissons Ratio (y) = 0.54824 0.10877
# Poissons Ratio (z) = 0.25399 0.03514
#
# Static dielectric constant tensor:
#      x y z
#    x 1.872710 0.000000 -0.000730 
#    y 0.000000 2.111630 0.000000 
#    z -0.000730 0.000000 1.764380 
# 
# From -- ./inp_files/200516.got.cif
#   From: 2010.05.17/outbox.ucp.g08.bks.cvg/sg15_101_cif.got.tgz:200516.got - 2010.06.11 12:40:34.
