data_PCOD9309941
_publ_section_title
;
Structure prediction by ZEFSAII (Michael W. Deem and Ramdas Pophale) SiO2 
 PCOD9309941
Probable space group: P 2 2 2
;
_chemical_formula_sum "Si O2"
_cell_formula_units_Z 20
_cell_length_a 5.249277
_cell_length_b 13.321122
_cell_length_c 12.803047
_cell_angle_alpha 90.000000
_cell_angle_beta 90.000000
_cell_angle_gamma 90.000000
_cell_volume 895.269185
_symmetry_space_group_name_H-M "P 2 2 2"
_symmetry_group_IT_number 16
_symmetry_cell_setting 'orthorhombic'
loop_
_space_group_symop_operation_xyz
x,y,z
-x,-y,z
x,-y,-z
-x,y,-z
loop_
_atom_site_type_symbol
_atom_site_label
_atom_site_fract_x
_atom_site_fract_y
_atom_site_fract_z
Si Si1 0.255439 0.739262 0.931817
Si Si2 0.485226 0.621004 0.742533
Si Si3 0.005219 0.379349 0.624002
Si Si4 0.745173 0.886252 0.453042
Si Si5 0.750164 0.066963 0.790174
O O1 0.376173 0.654852 0.854952
O O2 0.205475 0.836807 0.861836
O O3 0.500000 0.767163 0.000000
O O4 0.000000 0.713749 0.000000
O O5 0.500000 0.500000 0.741761
O O6 0.756604 0.658060 0.695148
O O7 0.263173 0.658860 0.666315
O O8 0.000000 0.500000 0.640701
O O9 0.000000 0.367315 0.500000
O O10 0.500000 0.833553 0.500000
O O11 0.729606 0.897655 0.329855
O O12 0.000000 0.840715 0.500000
O O13 0.745000 0.000000 0.500000
O O14 0.500000 0.000000 0.815235
O O15 0.000000 0.000000 0.798338
#
# Coordination Sequence:
#
# PCOD9309941 Si02
#       5
#     4   4   4   4   4
#     4  12  28  47  64  92 132 172 231 299 331 383
#     4  10  21  41  67  94 128 173 220 273 341 403
#     4   9  17  33  64  99 133 167 203 255 328 415
#     4  10  16  32  59  91 122 161 205 257 314 392
#     4  12  23  40  68  93 126 174 217 264 335 404
#
# _framework density 22.339651
#
# number of rings (size 3 to 8) (size 9 to 14) (size 15 to 20)
#    0.000    1.400    4.000    3.000    0.000    5.200 
#    0.000    4.000    0.000    0.000    0.000    0.000 
#    0.000    0.000    0.000    0.000    0.000    0.000 
#
# Total GULP energy -111696.202662 kJ/mol
# GULP energy per Si atom -5584.810133 kJ/mol
# Density = 2.228881 g / cm^3
# Si number density = 22.339651 Si / 1000 Ang^3
#
#
#
# Elastic Constant Matrix: (Units=GPa)
#
#
# Indices 1 2 3 4 5 6 
#
# 1 219.7279 42.4361 65.1934 0.0000 0.0000 0.0000
# 2 42.4361 55.8053 19.2627 0.0000 0.0000 0.0000
# 3 65.1934 19.2627 131.1181 0.0000 0.0000 0.0000
# 4 0.0000 0.0000 0.0000 -34.9987 0.0000 0.0000
# 5 0.0000 0.0000 0.0000 0.0000 28.3755 0.0000
# 6 0.0000 0.0000 0.0000 0.0000 0.0000 28.4446
#
#
#
# Elastic Compliance Matrix: (Units=1/GPa)
#
#
# Indices 1 2 3 4 5 6 
#
# 1 0.005990 -0.003716 -0.002433 0.000000 0.000000 0.000000
# 2 -0.003716 0.021181 -0.001264 0.000000 0.000000 0.000000
# 3 -0.002433 -0.001264 0.009022 0.000000 0.000000 0.000000
# 4 0.000000 0.000000 0.000000 -0.028573 0.000000 0.000000
# 5 0.000000 0.000000 0.000000 0.000000 0.035242 0.000000
# 6 0.000000 0.000000 0.000000 0.000000 0.000000 0.035156
#
#
# Mechanical properties :
#
#
# Convention : Reuss Voigt Hill
#
# Bulk Modulus (GPa) = 46.79767 73.38175 60.08971
# Shear Modulus (GPa) = 50.01650 23.01491 36.51570
#
# Velocity S-wave (km/s) = 4.73685 3.21320 4.04737
# Velocity P-wave (km/s) = 7.13517 6.83269 6.98557
#
# Compressibility (1/GPa) = 0.02136859
#
# Stress axis : x y z
#
# Youngs Moduli (GPa) = 166.93228 47.21133 110.84015
#
# Poissons Ratio (x) = 0.17542 0.26964
# Poissons Ratio (y) = 0.62026 0.14014
# Poissons Ratio (z) = 0.40609 0.05969
#
# Static dielectric constant tensor:
#      x y z
#    x 1.913290 0.000000 0.000000 
#    y 0.000000 1.849270 0.000000 
#    z 0.000000 0.000000 1.848620 
# 
# From -- ./inp_files/5902.got.cif
#   From: 2010.05.17/outbox.cif.g08.bks.cpg/sg16_3_cif.got.tgz:5902.got - 2010.06.03 22:28:35.
