data_PCOD9309495
_publ_section_title
;
Structure prediction by ZEFSAII (Michael W. Deem and Ramdas Pophale) SiO2 
 PCOD9309495
Probable space group: C 2/C
;
_chemical_formula_sum "Si O2"
_cell_formula_units_Z 24
_cell_length_a 15.000000
_cell_length_b 27.000000
_cell_length_c 9.000000
_cell_angle_alpha 90.000000
_cell_angle_beta 40.000000
_cell_angle_gamma 90.000000
_cell_volume 2342.960837
_symmetry_space_group_name_H-M "C 2/C"
_symmetry_group_IT_number 15
_symmetry_cell_setting 'monoclinic'
loop_
_space_group_symop_operation_xyz
x,y,z
-x,y,1/2-z
-x,-y,-z
x,-y,1/2+z
1/2+x,1/2+y,z
1/2-x,1/2+y,1/2-z
1/2-x,1/2-y,-z
1/2+x,1/2-y,1/2+z
loop_
_atom_site_type_symbol
_atom_site_label
_atom_site_fract_x
_atom_site_fract_y
_atom_site_fract_z
Si Si1 0.020766 0.138086 0.556009
Si Si2 0.157303 0.661738 0.313308
Si Si3 0.399711 0.257080 0.239030
Si Si4 0.569226 0.457592 0.503827
Si Si5 0.383440 0.958164 0.145792
Si Si6 0.500000 0.115085 0.250000
Si Si7 0.500000 0.096239 0.750000
O O1 0.182164 0.154662 0.350199
O O2 0.000000 0.119386 0.750000
O O3 0.932595 0.187853 0.646332
O O4 0.964952 0.095689 0.521988
O O5 0.098809 0.717329 0.393706
O O6 0.114297 0.644762 0.200828
O O7 0.074237 0.628275 0.532286
O O8 0.500000 0.247026 0.250000
O O9 0.250000 0.250000 0.500000
O O10 0.500000 0.457241 0.750000
O O11 0.500000 0.500000 0.500000
O O12 0.728966 0.472723 0.308865
O O13 0.388285 0.935769 0.304572
O O14 0.424700 0.918838 0.967254
O O15 0.500000 0.000000 0.000000
#
# Coordination Sequence:
#
# PCOD9309495 Si02
#       7
#     8   8   8   8   8   4   4
#     4  11  23  43  71  98 139 174 231 282 341 398
#     4  11  21  41  65 100 136 177 222 279 336 404
#     4  11  21  38  68 101 132 174 224 275 330 404
#     4  12  29  46  71 100 139 181 226 283 348 411
#     4  11  25  43  70  96 133 175 230 278 342 404
#     4  10  23  36  72  94 130 178 231 276 334 408
#     4  10  25  42  66  96 138 172 221 280 340 398
#
# _framework density 10.243449
#
# number of rings (size 3 to 8) (size 9 to 14) (size 15 to 20)
#    0.000    1.000    4.167    3.000    9.333    0.000 
#    1.500    0.833    0.000    0.000    0.000    0.000 
#    0.000    0.000    0.000    0.000    0.000    0.000 
#
# Total GULP energy -133881.725928 kJ/mol
# GULP energy per Si atom -5578.405247 kJ/mol
# Density = 1.022013 g / cm^3
# Si number density = 10.243449 Si / 1000 Ang^3
#
#
#
# Elastic Constant Matrix: (Units=GPa)
#
#
# Indices 1 2 3 4 5 6 
#
# 1 140.7299 94.4596 71.3648 0.0000 -21.8228 0.0000
# 2 94.4596 128.3518 62.2815 0.0000 -11.7793 0.0000
# 3 71.3648 62.2815 75.2798 0.0000 -17.4026 0.0000
# 4 0.0000 0.0000 0.0000 34.4248 0.0000 5.4025
# 5 -21.8228 -11.7793 -17.4026 0.0000 47.6974 0.0000
# 6 0.0000 0.0000 0.0000 5.4025 0.0000 -1.8139
#
#
#
# Elastic Compliance Matrix: (Units=1/GPa)
#
#
# Indices 1 2 3 4 5 6 
#
# 1 0.017931 -0.008358 -0.009462 0.000000 0.002687 0.000000
# 2 -0.008358 0.016939 -0.006561 0.000000 -0.002035 0.000000
# 3 -0.009462 -0.006561 0.028730 0.000000 0.004533 0.000000
# 4 0.000000 0.000000 0.000000 0.019796 0.000000 0.058960
# 5 0.002687 -0.002035 0.004533 0.000000 0.023346 0.000000
# 6 0.000000 0.000000 0.000000 0.058960 0.000000 -0.375696
#
#
# Mechanical properties :
#
#
# Convention : Reuss Voigt Hill
#
# Bulk Modulus (GPa) = 67.39895 88.95261 78.17578
# Shear Modulus (GPa) = -23.22947 23.81203 0.29128
#
# Velocity S-wave (km/s) = -3.37095 3.41296 0.37747
# Velocity P-wave (km/s) = 4.22124 7.68405 6.19933
#
# Compressibility (1/GPa) = 0.01483703
#
# Stress axis : x y z
#
# Youngs Moduli (GPa) = 55.76955 59.03444 34.80641
#
# Poissons Ratio (x) = 0.49341 0.32935
# Poissons Ratio (y) = 0.46612 0.22838
# Poissons Ratio (z) = 0.52771 0.38735
#
# Static dielectric constant tensor:
#      x y z
#    x 2.171310 0.000000 -0.116690 
#    y 0.000000 1.911420 0.000000 
#    z -0.116690 0.000000 1.722420 
# 
# From -- ./inp_files/43885.got.cif
#   From: 2010.05.17/outbox.ucp.g08.bks.cvg/sg15_22_cif.got.tgz:43885.got - 2010.06.11 12:40:34.
