data_PCOD9309459
_publ_section_title
;
Structure prediction by ZEFSAII (Michael W. Deem and Ramdas Pophale) SiO2 
 PCOD9309459
Probable space group: C 2/C
;
_chemical_formula_sum "Si O2"
_cell_formula_units_Z 28
_cell_length_a 27.000000
_cell_length_b 9.000000
_cell_length_c 12.000000
_cell_angle_alpha 90.000000
_cell_angle_beta 70.000000
_cell_angle_gamma 90.000000
_cell_volume 2740.143682
_symmetry_space_group_name_H-M "C 2/C"
_symmetry_group_IT_number 15
_symmetry_cell_setting 'monoclinic'
loop_
_space_group_symop_operation_xyz
x,y,z
-x,y,1/2-z
-x,-y,-z
x,-y,1/2+z
1/2+x,1/2+y,z
1/2-x,1/2+y,1/2-z
1/2-x,1/2-y,-z
1/2+x,1/2-y,1/2+z
loop_
_atom_site_type_symbol
_atom_site_label
_atom_site_fract_x
_atom_site_fract_y
_atom_site_fract_z
Si Si1 0.034731 0.733778 0.498204
Si Si2 0.643560 0.765491 0.564810
Si Si3 0.319221 0.963333 0.320409
Si Si4 0.378201 0.698063 0.384615
Si Si5 0.079507 0.589938 0.920156
Si Si6 0.693734 0.500838 0.900696
Si Si7 0.896338 0.055939 0.710221
O O1 0.070690 0.760727 0.580664
O O2 0.055289 0.575589 0.435602
O O3 0.056225 0.868425 0.399589
O O4 0.971743 0.700164 0.565082
O O5 0.601093 0.851934 0.521915
O O6 0.681161 0.667829 0.453331
O O7 0.613234 0.659917 0.675429
O O8 0.673895 0.881809 0.619582
O O9 0.340606 0.836745 0.386811
O O10 0.364802 0.935953 0.190837
O O11 0.256178 0.959817 0.339035
O O12 0.336743 0.594111 0.481389
O O13 0.400382 0.608722 0.260312
O O14 0.657552 0.541791 0.821328
#
# Coordination Sequence:
#
# PCOD9309459 Si02
#       7
#     8   8   8   8   8   8   8
#     4  10  22  46  67  98 139 176 228 291 332 414
#     4  11  23  43  66 102 133 183 234 282 343 411
#     4  12  23  41  67 101 132 182 230 276 344 402
#     4  10  22  43  68  99 135 175 224 277 347 413
#     4  11  24  42  69 100 135 175 236 285 337 408
#     4  10  24  42  66  95 144 174 224 284 339 411
#     4  10  22  45  68 100 138 183 222 280 358 406
#
# _framework density 10.218442
#
# number of rings (size 3 to 8) (size 9 to 14) (size 15 to 20)
#    0.000    1.429    2.857    1.714    0.000    5.714 
#    0.000   15.714    0.000    0.000    0.000    0.000 
#    0.000    0.000    0.000    0.000    0.000    0.000 
#
# Total GULP energy -155918.189715 kJ/mol
# GULP energy per Si atom -5568.506776 kJ/mol
# Density = 1.019518 g / cm^3
# Si number density = 10.218442 Si / 1000 Ang^3
#
#
#
# Elastic Constant Matrix: (Units=GPa)
#
#
# Indices 1 2 3 4 5 6 
#
# 1 129.9975 6.6977 50.0902 0.0000 -27.3661 0.0000
# 2 6.6977 59.8528 21.9241 0.0000 -15.8117 0.0000
# 3 50.0902 21.9241 79.4039 0.0000 -22.5101 0.0000
# 4 0.0000 0.0000 0.0000 41.4041 0.0000 5.5761
# 5 -27.3661 -15.8117 -22.5101 0.0000 28.2017 0.0000
# 6 0.0000 0.0000 0.0000 5.5761 0.0000 34.7836
#
#
#
# Elastic Compliance Matrix: (Units=1/GPa)
#
#
# Indices 1 2 3 4 5 6 
#
# 1 0.011483 0.002993 -0.005733 0.000000 0.008245 0.000000
# 2 0.002993 0.020950 -0.004549 0.000000 0.011020 0.000000
# 3 -0.005733 -0.004549 0.019601 0.000000 0.007532 0.000000
# 4 0.000000 0.000000 0.000000 0.024685 0.000000 -0.003957
# 5 0.008245 0.011020 0.007532 0.000000 0.055650 0.000000
# 6 0.000000 0.000000 0.000000 -0.003957 0.000000 0.029384
#
#
# Mechanical properties :
#
#
# Convention : Reuss Voigt Hill
#
# Bulk Modulus (GPa) = 26.69683 47.40869 37.05276
# Shear Modulus (GPa) = 26.48086 33.58068 30.03077
#
# Velocity S-wave (km/s) = 3.60354 4.05796 3.83749
# Velocity P-wave (km/s) = 5.51411 6.72340 6.14856
#
# Compressibility (1/GPa) = 0.03745763
#
# Stress axis : x y z
#
# Youngs Moduli (GPa) = 87.08652 47.73263 51.01656
#
# Poissons Ratio (x) = -0.14287 0.29247
# Poissons Ratio (y) = -0.26066 0.23206
# Poissons Ratio (z) = 0.49925 0.21712
#
# Static dielectric constant tensor:
#      x y z
#    x 1.682890 0.000000 0.020120 
#    y 0.000000 1.793980 0.000000 
#    z 0.020120 0.000000 1.789560 
# 
# From -- ./inp_files/121907.got.cif
#   From: 2010.05.17/outbox.ucp.g08.bks.cvg/sg15_61_cif.got.tgz:121907.got - 2010.06.11 12:40:34.
