data_PCOD9309780
_publ_section_title
;
Structure prediction by ZEFSAII (Michael W. Deem and Ramdas Pophale) SiO2 
 PCOD9309780
Probable space group: C 2/C
;
_chemical_formula_sum "Si O2"
_cell_formula_units_Z 20
_cell_length_a 18.000000
_cell_length_b 15.000000
_cell_length_c 21.000000
_cell_angle_alpha 90.000000
_cell_angle_beta 160.000000
_cell_angle_gamma 90.000000
_cell_volume 1939.254213
_symmetry_space_group_name_H-M "C 2/C"
_symmetry_group_IT_number 15
_symmetry_cell_setting 'monoclinic'
loop_
_space_group_symop_operation_xyz
x,y,z
-x,y,1/2-z
-x,-y,-z
x,-y,1/2+z
1/2+x,1/2+y,z
1/2-x,1/2+y,1/2-z
1/2-x,1/2-y,-z
1/2+x,1/2-y,1/2+z
loop_
_atom_site_type_symbol
_atom_site_label
_atom_site_fract_x
_atom_site_fract_y
_atom_site_fract_z
Si Si1 0.299427 0.621359 0.167770
Si Si2 0.601450 0.862993 0.643948
Si Si3 0.057933 0.677553 0.719118
Si Si4 0.442556 0.347298 0.418901
Si Si5 0.122001 0.924849 0.280585
O O1 0.156584 0.605565 0.116620
O O2 0.430395 0.714419 0.279978
O O3 0.428998 0.530199 0.263557
O O4 0.143225 0.638347 0.982045
O O5 0.559564 0.757638 0.599776
O O6 0.382938 0.906476 0.496914
O O7 0.821539 0.874738 0.862738
O O8 0.267081 0.645204 0.839301
O O9 0.000000 0.661867 0.750000
O O10 0.416175 0.390078 0.325104
O O11 0.000000 0.892570 0.250000
#
# Coordination Sequence:
#
# PCOD9309780 Si02
#       5
#     8   8   8   8   8
#     4  11  23  45  69 103 142 176 229 289 346 413
#     4  11  22  46  73  99 138 187 228 281 351 408
#     4  11  22  42  74 102 138 182 226 283 354 418
#     4  11  23  45  73 102 138 186 231 278 351 409
#     4  12  27  46  69 103 142 180 235 292 332 408
#
# _framework density 10.313243
#
# number of rings (size 3 to 8) (size 9 to 14) (size 15 to 20)
#    0.000    0.800    4.000    5.400    0.000    4.000 
#    7.200    0.000    0.000    0.000    0.000    0.000 
#    0.000    0.000    0.000    0.000    0.000    0.000 
#
# Total GULP energy -111352.561912 kJ/mol
# GULP energy per Si atom -5567.628096 kJ/mol
# Density = 1.028977 g / cm^3
# Si number density = 10.313243 Si / 1000 Ang^3
#
#
#
# Elastic Constant Matrix: (Units=GPa)
#
#
# Indices 1 2 3 4 5 6 
#
# 1 203.6557 27.9615 44.1293 -0.0171 -0.5654 -0.0138
# 2 27.9615 59.8411 10.8328 -0.0367 -6.4245 -0.0311
# 3 44.1293 10.8328 94.8083 -0.0113 -8.0654 -0.0161
# 4 -0.0171 -0.0367 -0.0113 22.3370 0.0056 2.5539
# 5 -0.5654 -6.4245 -8.0654 0.0056 42.4770 -0.0053
# 6 -0.0138 -0.0311 -0.0161 2.5539 -0.0053 32.5578
#
#
#
# Elastic Compliance Matrix: (Units=1/GPa)
#
#
# Indices 1 2 3 4 5 6 
#
# 1 0.005765 -0.002325 -0.002481 0.000000 -0.000746 -0.000001
# 2 -0.002325 0.018215 -0.000780 0.000025 0.002576 0.000014
# 3 -0.002481 -0.000780 0.011972 0.000002 0.002122 0.000004
# 4 0.000000 0.000025 0.000002 0.045174 -0.000002 -0.003543
# 5 -0.000746 0.002576 0.002122 -0.000002 0.024325 0.000007
# 6 -0.000001 0.000014 0.000004 -0.003543 0.000007 0.030993
#
#
# Mechanical properties :
#
#
# Convention : Reuss Voigt Hill
#
# Bulk Modulus (GPa) = 40.35480 58.23912 49.29696
# Shear Modulus (GPa) = 32.07691 37.83314 34.95502
#
# Velocity S-wave (km/s) = 3.94779 4.28740 4.12110
# Velocity P-wave (km/s) = 6.35509 7.26674 6.82615
#
# Compressibility (1/GPa) = 0.02478020
#
# Stress axis : x y z
#
# Youngs Moduli (GPa) = 173.46074 54.90002 83.52710
#
# Poissons Ratio (x) = 0.12763 0.20725
# Poissons Ratio (y) = 0.40324 0.06516
# Poissons Ratio (z) = 0.43039 0.04282
#
# Static dielectric constant tensor:
#      x y z
#    x 1.804710 0.000000 0.012460 
#    y 0.000000 1.766560 -0.000010 
#    z 0.012460 -0.000010 1.791180 
# 
# From -- ./inp_files/249331.got.cif
#   From: 2010.05.17/outbox.ucp.g08.bks.cvg/sg15_125_cif.got.tgz:249331.got - 2010.06.11 12:40:34.
