data_PCOD9309641
_publ_section_title
;
Structure prediction by ZEFSAII (Michael W. Deem and Ramdas Pophale) SiO2 
 PCOD9309641
Probable space group: C 2/C
;
_chemical_formula_sum "Si O2"
_cell_formula_units_Z 32
_cell_length_a 24.000000
_cell_length_b 21.000000
_cell_length_c 18.000000
_cell_angle_alpha 90.000000
_cell_angle_beta 20.000000
_cell_angle_gamma 90.000000
_cell_volume 3102.806740
_symmetry_space_group_name_H-M "C 2/C"
_symmetry_group_IT_number 15
_symmetry_cell_setting 'monoclinic'
loop_
_space_group_symop_operation_xyz
x,y,z
-x,y,1/2-z
-x,-y,-z
x,-y,1/2+z
1/2+x,1/2+y,z
1/2-x,1/2+y,1/2-z
1/2-x,1/2-y,-z
1/2+x,1/2-y,1/2+z
loop_
_atom_site_type_symbol
_atom_site_label
_atom_site_fract_x
_atom_site_fract_y
_atom_site_fract_z
Si Si1 0.929416 0.933720 0.170049
Si Si2 0.572634 0.426344 0.499856
Si Si3 0.943258 0.319373 0.132655
Si Si4 0.948917 0.826546 0.395305
Si Si5 0.111054 0.536035 0.800759
Si Si6 0.127803 0.572749 0.154102
Si Si7 0.897636 0.296106 0.724171
Si Si8 0.064852 0.793850 0.585388
O O1 0.884044 0.917306 0.141809
O O2 0.791662 0.918204 0.402173
O O3 0.069100 0.884825 0.023882
O O4 0.964205 0.009158 0.133367
O O5 0.723330 0.446129 0.363263
O O6 0.506940 0.359527 0.616052
O O7 0.962217 0.394519 0.130089
O O8 0.754385 0.302894 0.363625
O O9 0.026435 0.268192 0.083499
O O10 0.996793 0.308874 0.980853
O O11 0.781007 0.792424 0.586679
O O12 0.000000 0.851646 0.250000
O O13 0.061439 0.770058 0.286289
O O14 0.137265 0.485219 0.701396
O O15 0.000000 0.500000 0.000000
O O16 0.088808 0.640490 0.241983
O O17 0.000000 0.556480 0.250000
O O18 0.000000 0.787477 0.750000
#
# Coordination Sequence:
#
# PCOD9309641 Si02
#       8
#     8   8   8   8   8   8   8   8
#     4  11  25  44  67 101 135 177 241 281 348 420
#     4  10  25  45  71  96 135 181 225 295 343 415
#     4  11  25  45  72  98 136 177 223 287 340 415
#     4  12  25  41  66 103 136 189 231 283 339 420
#     4  11  23  44  69  98 136 180 227 276 353 403
#     4  12  26  42  68 102 140 181 231 290 348 422
#     4  12  25  43  68  99 144 187 228 284 352 416
#     4  11  25  47  72 100 131 176 231 285 351 410
#
# _framework density 10.313243
#
# number of rings (size 3 to 8) (size 9 to 14) (size 15 to 20)
#    0.000    0.750    2.500    4.125    7.000    0.500 
#    4.500    0.000    0.000    0.000    0.000    0.000 
#    0.000    0.000    0.000    0.000    0.000    0.000 
#
# Total GULP energy -178698.866932 kJ/mol
# GULP energy per Si atom -5584.339592 kJ/mol
# Density = 1.028977 g / cm^3
# Si number density = 10.313243 Si / 1000 Ang^3
#
#
#
# Elastic Constant Matrix: (Units=GPa)
#
#
# Indices 1 2 3 4 5 6 
#
# 1 93.0941 49.6236 22.9993 0.0338 31.7487 -0.0024
# 2 49.6236 154.1645 -7.1818 -0.0064 17.4025 0.0048
# 3 22.9993 -7.1818 52.8738 -0.0103 17.6129 0.0081
# 4 0.0338 -0.0064 -0.0103 15.1666 -0.0105 -2.0235
# 5 31.7487 17.4025 17.6129 -0.0105 42.7232 0.0002
# 6 -0.0024 0.0048 0.0081 -2.0235 0.0002 60.5784
#
#
#
# Elastic Compliance Matrix: (Units=1/GPa)
#
#
# Indices 1 2 3 4 5 6 
#
# 1 0.017784 -0.004966 -0.005427 -0.000052 -0.008955 0.000000
# 2 -0.004966 0.008402 0.003723 0.000016 -0.001267 -0.000001
# 3 -0.005427 0.003723 0.024275 0.000025 -0.007491 -0.000003
# 4 -0.000052 0.000016 0.000025 0.066229 0.000038 0.002212
# 5 -0.008955 -0.001267 -0.007491 0.000038 0.033666 0.000002
# 6 0.000000 -0.000001 -0.000003 0.002212 0.000002 0.016581
#
#
# Mechanical properties :
#
#
# Convention : Reuss Voigt Hill
#
# Bulk Modulus (GPa) = 26.93960 47.89052 37.41506
# Shear Modulus (GPa) = 25.95368 39.33975 32.64671
#
# Velocity S-wave (km/s) = 3.55106 4.37194 3.98270
# Velocity P-wave (km/s) = 5.46831 6.98237 6.27120
#
# Compressibility (1/GPa) = 0.03712007
#
# Stress axis : x y z
#
# Youngs Moduli (GPa) = 56.22984 119.02448 41.19500
#
# Poissons Ratio (x) = 0.59112 0.22358
# Poissons Ratio (y) = 0.27926 -0.15339
# Poissons Ratio (z) = 0.30517 -0.44318
#
# Static dielectric constant tensor:
#      x y z
#    x 1.722870 -0.000010 -0.081590 
#    y -0.000010 1.731420 0.000020 
#    z -0.081590 0.000020 1.713800 
# 
# From -- ./inp_files/220238.got.cif
#   From: 2010.05.17/outbox.ucp.g08.bks.cvg/sg15_111_cif.got.tgz:220238.got - 2010.06.11 12:40:34.
