data_PCOD9309651
_publ_section_title
;
Structure prediction by ZEFSAII (Michael W. Deem and Ramdas Pophale) SiO2 
 PCOD9309651
Probable space group: C 2/C
;
_chemical_formula_sum "Si O2"
_cell_formula_units_Z 32
_cell_length_a 24.000000
_cell_length_b 9.000000
_cell_length_c 30.000000
_cell_angle_alpha 90.000000
_cell_angle_beta 30.000000
_cell_angle_gamma 90.000000
_cell_volume 3240.000000
_symmetry_space_group_name_H-M "C 2/C"
_symmetry_group_IT_number 15
_symmetry_cell_setting 'monoclinic'
loop_
_space_group_symop_operation_xyz
x,y,z
-x,y,1/2-z
-x,-y,-z
x,-y,1/2+z
1/2+x,1/2+y,z
1/2-x,1/2+y,1/2-z
1/2-x,1/2-y,-z
1/2+x,1/2-y,1/2+z
loop_
_atom_site_type_symbol
_atom_site_label
_atom_site_fract_x
_atom_site_fract_y
_atom_site_fract_z
Si Si1 0.644122 0.246963 0.515190
Si Si2 0.900743 0.628488 0.677491
Si Si3 0.294230 0.142989 0.653764
Si Si4 0.056124 0.722913 0.338468
Si Si5 0.407557 0.254113 0.354251
Si Si6 0.747127 0.504214 0.499099
Si Si7 0.999885 0.835964 0.024528
Si Si8 0.223435 0.699500 0.362444
O O1 0.514130 0.222987 0.594978
O O2 0.668858 0.402711 0.522157
O O3 0.679903 0.113463 0.523451
O O4 0.715613 0.233617 0.420382
O O5 0.837107 0.628175 0.674677
O O6 0.934465 0.455794 0.661493
O O7 0.821128 0.707757 0.769548
O O8 0.176857 0.224902 0.738291
O O9 0.387289 0.243661 0.564546
O O10 0.274263 0.978453 0.647401
O O11 0.971674 0.752391 0.356915
O O12 0.021105 0.814449 0.407499
O O13 0.500000 0.255065 0.250000
O O14 0.324836 0.395839 0.416385
O O15 0.325786 0.110353 0.414211
O O16 0.893613 0.753535 0.077001
O O17 0.000000 0.000000 0.000000
#
# Coordination Sequence:
#
# PCOD9309651 Si02
#       8
#     8   8   8   8   8   8   8   8
#     4  11  25  45  73  98 138 180 232 296 346 407
#     4  12  23  45  68 105 141 183 228 287 349 424
#     4  12  25  42  69 104 147 181 228 281 347 431
#     4  12  27  45  69 102 145 183 225 291 345 415
#     4  11  27  47  73  99 137 182 239 289 352 408
#     4  10  26  49  69 101 132 180 241 295 347 407
#     4  12  26  43  69 103 142 186 228 275 352 428
#     4  12  26  41  71 102 139 188 231 279 352 423
#
# _framework density 9.8765429999999999
#
# number of rings (size 3 to 8) (size 9 to 14) (size 15 to 20)
#    0.000    0.500    5.000    1.875    8.750    1.000 
#    0.000    2.500    0.000    0.000    0.000    0.000 
#    0.000    0.000    0.000    0.000    0.000    0.000 
#
# Total GULP energy -178891.320817 kJ/mol
# GULP energy per Si atom -5590.353776 kJ/mol
# Density = 0.985406 g / cm^3
# Si number density = 9.876543 Si / 1000 Ang^3
#
#
#
# Elastic Constant Matrix: (Units=GPa)
#
#
# Indices 1 2 3 4 5 6 
#
# 1 41.3293 25.4423 -1.9568 -0.0002 -2.8394 -0.0004
# 2 25.4423 120.7014 51.9674 0.0009 15.2732 -0.0023
# 3 -1.9568 51.9674 137.4275 0.0001 18.2562 -0.0001
# 4 -0.0002 0.0009 0.0001 38.1072 -0.0003 -2.2116
# 5 -2.8394 15.2732 18.2562 -0.0003 35.8112 0.0013
# 6 -0.0004 -0.0023 -0.0001 -2.2116 0.0013 28.4512
#
#
#
# Elastic Compliance Matrix: (Units=1/GPa)
#
#
# Indices 1 2 3 4 5 6 
#
# 1 0.029561 -0.008015 0.002881 0.000000 0.004293 0.000000
# 2 -0.008015 0.012279 -0.004266 0.000000 -0.003698 0.000001
# 3 0.002881 -0.004266 0.009288 0.000000 -0.002687 0.000000
# 4 0.000000 0.000000 0.000000 0.026361 0.000000 0.002049
# 5 0.004293 -0.003698 -0.002687 0.000000 0.031211 -0.000002
# 6 0.000000 0.000001 0.000000 0.002049 -0.000002 0.035307
#
#
# Mechanical properties :
#
#
# Convention : Reuss Voigt Hill
#
# Bulk Modulus (GPa) = 30.93236 50.04045 40.48640
# Shear Modulus (GPa) = 28.80464 35.40760 32.10612
#
# Velocity S-wave (km/s) = 3.82283 4.23840 4.03596
# Velocity P-wave (km/s) = 5.93118 7.02424 6.50072
#
# Compressibility (1/GPa) = 0.03232861
#
# Stress axis : x y z
#
# Youngs Moduli (GPa) = 33.82793 81.43957 107.66869
#
# Poissons Ratio (x) = 0.65274 -0.31024
# Poissons Ratio (y) = 0.27113 0.45933
# Poissons Ratio (z) = -0.09747 0.34744
#
# Static dielectric constant tensor:
#      x y z
#    x 1.715120 0.000000 -0.007270 
#    y 0.000000 1.700570 0.000000 
#    z -0.007270 0.000000 1.682400 
# 
# From -- ./inp_files/318599.got.cif
#   From: 2010.05.17/outbox.ucp.g08.bks.cvg/sg15_160_cif.got.tgz:318599.got - 2010.06.11 12:40:34.
