data_PCOD9309846
_publ_section_title
;
Structure prediction by ZEFSAII (Michael W. Deem and Ramdas Pophale) SiO2 
 PCOD9309846
Probable space group: C 2/C
;
_chemical_formula_sum "Si O2"
_cell_formula_units_Z 26
_cell_length_a 12.000000
_cell_length_b 27.000000
_cell_length_c 9.000000
_cell_angle_alpha 90.000000
_cell_angle_beta 120.000000
_cell_angle_gamma 90.000000
_cell_volume 2525.330077
_symmetry_space_group_name_H-M "C 2/C"
_symmetry_group_IT_number 15
_symmetry_cell_setting 'monoclinic'
loop_
_space_group_symop_operation_xyz
x,y,z
-x,y,1/2-z
-x,-y,-z
x,-y,1/2+z
1/2+x,1/2+y,z
1/2-x,1/2+y,1/2-z
1/2-x,1/2-y,-z
1/2+x,1/2-y,1/2+z
loop_
_atom_site_type_symbol
_atom_site_label
_atom_site_fract_x
_atom_site_fract_y
_atom_site_fract_z
Si Si1 0.481478 0.755670 0.039319
Si Si2 0.712295 0.407169 0.731670
Si Si3 0.723815 0.725194 0.825025
Si Si4 0.500000 0.335878 0.750000
Si Si5 0.530292 0.129310 0.937642
Si Si6 0.396725 0.515697 0.806843
Si Si7 0.255653 0.889666 0.402681
O O1 0.403297 0.748138 0.833969
O O2 0.637884 0.760248 0.157527
O O3 0.440010 0.705111 0.096910
O O4 0.443484 0.811475 0.059392
O O5 0.599481 0.371409 0.725640
O O6 0.684083 0.464637 0.755796
O O7 0.728972 0.400106 0.562167
O O8 0.843871 0.392651 0.901377
O O9 0.705431 0.665806 0.829395
O O10 0.750000 0.750000 0.000000
O O11 0.500000 0.111144 0.750000
O O12 0.406556 0.116398 0.958554
O O13 0.500000 0.526058 0.750000
O O14 0.307669 0.565388 0.737776
O O15 0.500000 0.500000 0.000000
#
# Coordination Sequence:
#
# PCOD9309846 Si02
#       7
#     8   8   8   4   8   8   8
#     4  11  24  42  66 104 148 191 246 301 368 449
#     4  12  27  46  74 108 145 191 248 307 372 443
#     4  11  24  42  71 105 147 194 243 305 373 445
#     4  12  26  40  76 108 148 202 246 308 372 442
#     4  11  26  46  74 105 147 195 244 307 368 452
#     4  12  27  49  75 106 146 185 245 312 370 438
#     4  11  27  49  74 105 147 196 249 309 374 440
#
# _framework density 10.295684
#
# number of rings (size 3 to 8) (size 9 to 14) (size 15 to 20)
#    0.000    0.615    3.077    3.692    8.615    5.538 
#    0.000    0.000    0.000    0.000    0.000    0.000 
#    0.000    0.000    0.000    0.000    0.000    0.000 
#
# Total GULP energy -144930.445235 kJ/mol
# GULP energy per Si atom -5574.247894 kJ/mol
# Density = 1.027225 g / cm^3
# Si number density = 10.295684 Si / 1000 Ang^3
#
#
#
# Elastic Constant Matrix: (Units=GPa)
#
#
# Indices 1 2 3 4 5 6 
#
# 1 99.7747 43.3057 35.2573 0.0000 7.8182 0.0000
# 2 43.3057 181.9106 48.4403 0.0000 15.7982 0.0000
# 3 35.2573 48.4403 128.9686 0.0000 13.1390 0.0000
# 4 0.0000 0.0000 0.0000 41.2831 0.0000 7.4740
# 5 7.8182 15.7982 13.1390 0.0000 25.3145 0.0000
# 6 0.0000 0.0000 0.0000 7.4740 0.0000 38.9278
#
#
#
# Elastic Compliance Matrix: (Units=1/GPa)
#
#
# Indices 1 2 3 4 5 6 
#
# 1 0.011848 -0.002100 -0.002334 0.000000 -0.001137 0.000000
# 2 -0.002100 0.006670 -0.001661 0.000000 -0.002652 0.000000
# 3 -0.002334 -0.001661 0.009330 0.000000 -0.003085 0.000000
# 4 0.000000 0.000000 0.000000 0.025095 0.000000 -0.004818
# 5 -0.001137 -0.002652 -0.003085 0.000000 0.043110 0.000000
# 6 0.000000 0.000000 0.000000 -0.004818 0.000000 0.026614
#
#
# Mechanical properties :
#
#
# Convention : Reuss Voigt Hill
#
# Bulk Modulus (GPa) = 63.86863 73.85116 68.85989
# Shear Modulus (GPa) = 35.69462 40.01512 37.85487
#
# Velocity S-wave (km/s) = 4.16802 4.41307 4.29229
# Velocity P-wave (km/s) = 7.36530 7.86828 7.62094
#
# Compressibility (1/GPa) = 0.01565714
#
# Stress axis : x y z
#
# Youngs Moduli (GPa) = 84.40147 149.93098 107.17992
#
# Poissons Ratio (x) = 0.31489 0.25020
# Poissons Ratio (y) = 0.17726 0.17801
# Poissons Ratio (z) = 0.19702 0.24901
#
# Static dielectric constant tensor:
#      x y z
#    x 1.814090 0.000000 -0.024920 
#    y 0.000000 1.720750 0.000000 
#    z -0.024920 0.000000 1.836360 
# 
# From -- ./inp_files/34434.got.cif
#   From: 2010.05.17/outbox.ucp.g08.bks.cvg/sg15_18_cif.got.tgz:34434.got - 2010.06.11 12:40:34.
