data_PCOD9309648
_publ_section_title
;
Structure prediction by ZEFSAII (Michael W. Deem and Ramdas Pophale) SiO2 
 PCOD9309648
Probable space group: C 2/C
;
_chemical_formula_sum "Si O2"
_cell_formula_units_Z 24
_cell_length_a 24.000000
_cell_length_b 6.000000
_cell_length_c 21.000000
_cell_angle_alpha 90.000000
_cell_angle_beta 50.000000
_cell_angle_gamma 90.000000
_cell_volume 2316.518396
_symmetry_space_group_name_H-M "C 2/C"
_symmetry_group_IT_number 15
_symmetry_cell_setting 'monoclinic'
loop_
_space_group_symop_operation_xyz
x,y,z
-x,y,1/2-z
-x,-y,-z
x,-y,1/2+z
1/2+x,1/2+y,z
1/2-x,1/2+y,1/2-z
1/2-x,1/2-y,-z
1/2+x,1/2-y,1/2+z
loop_
_atom_site_type_symbol
_atom_site_label
_atom_site_fract_x
_atom_site_fract_y
_atom_site_fract_z
Si Si1 0.672675 0.675672 0.027562
Si Si2 0.107731 0.670879 0.114766
Si Si3 0.576903 0.045581 0.909418
Si Si4 0.795788 0.752855 0.139148
Si Si5 0.437052 0.789076 0.712770
Si Si6 0.647065 0.431894 0.793404
O O1 0.646115 0.420779 0.071278
O O2 0.629540 0.920094 0.070452
O O3 0.750000 0.750000 0.000000
O O4 0.684764 0.642264 0.943040
O O5 0.105838 0.636727 0.192650
O O6 0.023325 0.711081 0.159255
O O7 0.595337 0.298023 0.879691
O O8 0.646228 0.948756 0.896202
O O9 0.577046 0.934397 0.839510
O O10 0.500000 0.000000 0.000000
O O11 0.711194 0.690018 0.207786
O O12 0.810976 0.901968 0.190019
O O13 0.405547 0.548946 0.717950
#
# Coordination Sequence:
#
# PCOD9309648 Si02
#       6
#     8   8   8   8   8   8
#     4  12  28  46  75 104 146 188 245 293 360 431
#     4  11  27  48  71 108 141 194 239 301 354 429
#     4  11  25  43  72 104 142 184 241 298 363 426
#     4  11  25  42  71 105 144 186 237 300 359 434
#     4  10  26  43  73 100 143 188 240 296 362 430
#     4  11  24  44  70 103 142 189 238 298 370 429
#
# _framework density 10.360374999999999
#
# number of rings (size 3 to 8) (size 9 to 14) (size 15 to 20)
#    0.000    1.000    1.667    2.500   14.000    2.667 
#    0.000    0.000    0.000    0.000    0.000    0.000 
#    0.000    0.000    0.000    0.000    0.000    0.000 
#
# Total GULP energy -133642.630118 kJ/mol
# GULP energy per Si atom -5568.442922 kJ/mol
# Density = 1.033679 g / cm^3
# Si number density = 10.360375 Si / 1000 Ang^3
#
#
#
# Elastic Constant Matrix: (Units=GPa)
#
#
# Indices 1 2 3 4 5 6 
#
# 1 60.9107 1.2473 23.0660 -0.0271 -6.0527 -0.0049
# 2 1.2473 80.4738 33.8235 -0.0444 -17.5419 0.0715
# 3 23.0660 33.8235 125.4858 -0.0115 -2.3567 0.0057
# 4 -0.0271 -0.0444 -0.0115 44.7769 0.0142 -2.3669
# 5 -6.0527 -17.5419 -2.3567 0.0142 44.6951 -0.0147
# 6 -0.0049 0.0715 0.0057 -2.3669 -0.0147 31.5238
#
#
#
# Elastic Compliance Matrix: (Units=1/GPa)
#
#
# Indices 1 2 3 4 5 6 
#
# 1 0.018120 0.001980 -0.003807 0.000011 0.003030 0.000001
# 2 0.001980 0.015612 -0.004456 0.000012 0.006160 -0.000031
# 3 -0.003807 -0.004456 0.009837 -0.000003 -0.001746 0.000007
# 4 0.000011 0.000012 -0.000003 0.022422 -0.000001 0.001683
# 5 0.003030 0.006160 -0.001746 -0.000001 0.025110 -0.000002
# 6 0.000001 -0.000031 0.000007 0.001683 -0.000002 0.031848
#
#
# Mechanical properties :
#
#
# Convention : Reuss Voigt Hill
#
# Bulk Modulus (GPa) = 32.25673 42.57155 37.41414
# Shear Modulus (GPa) = 34.28176 38.11473 36.19824
#
# Velocity S-wave (km/s) = 4.07192 4.29353 4.18419
# Velocity P-wave (km/s) = 6.14073 6.72080 6.43730
#
# Compressibility (1/GPa) = 0.03100129
#
# Stress axis : x y z
#
# Youngs Moduli (GPa) = 55.18807 64.05514 101.65468
#
# Poissons Ratio (x) = -0.12683 0.38705
# Poissons Ratio (y) = -0.10927 0.45299
# Poissons Ratio (z) = 0.21013 0.28544
#
# Static dielectric constant tensor:
#      x y z
#    x 1.764150 -0.000020 0.023350 
#    y -0.000020 1.868030 0.000030 
#    z 0.023350 0.000030 1.727710 
# 
# From -- ./inp_files/254236.got.cif
#   From: 2010.05.17/outbox.ucp.g08.bks.cvg/sg15_128_cif.got.tgz:254236.got - 2010.06.11 12:40:34.
