data_PCOD9309978
_publ_section_title
;
Structure prediction by ZEFSAII (Michael W. Deem and Ramdas Pophale) SiO2 
 PCOD9309978
Probable space group: P 2 2 2
;
_chemical_formula_sum "Si O2"
_cell_formula_units_Z 29
_cell_length_a 9.347406
_cell_length_b 9.663016
_cell_length_c 17.197796
_cell_angle_alpha 90.000000
_cell_angle_beta 90.000000
_cell_angle_gamma 90.000000
_cell_volume 1553.376026
_symmetry_space_group_name_H-M "P 2 2 2"
_symmetry_group_IT_number 16
_symmetry_cell_setting 'orthorhombic'
loop_
_space_group_symop_operation_xyz
x,y,z
-x,-y,z
x,-y,-z
-x,y,-z
loop_
_atom_site_type_symbol
_atom_site_label
_atom_site_fract_x
_atom_site_fract_y
_atom_site_fract_z
Si Si1 0.328504 0.520706 0.586278
Si Si2 0.884366 0.393322 0.825866
Si Si3 0.330813 0.295907 0.716466
Si Si4 0.500000 0.500000 0.000000
Si Si5 0.836525 0.973418 0.720939
Si Si6 0.327625 0.258071 0.295453
Si Si7 0.733968 0.368090 0.102516
Si Si8 0.929133 0.134986 0.113800
O O1 0.500000 0.500000 0.580736
O O2 0.268309 0.500000 0.500000
O O3 0.289884 0.413156 0.654329
O O4 0.297122 0.670588 0.621747
O O5 0.756125 0.346336 0.770177
O O6 0.825263 0.489552 0.895414
O O7 0.000000 0.500000 0.787559
O O8 0.961425 0.252295 0.853408
O O9 0.242628 0.161714 0.689892
O O10 0.501462 0.267073 0.715940
O O11 0.293818 0.337573 0.805569
O O12 0.594349 0.597042 0.944977
O O13 0.851954 0.936088 0.812235
O O14 0.738190 0.106100 0.708543
O O15 0.000000 0.000000 0.693727
O O16 0.817347 0.234155 0.069863
O O17 0.000000 0.000000 0.076984
#
# Coordination Sequence:
#
# PCOD9309978 Si02
#       8
#     4   4   4   1   4   4   4   4
#     4   9  19  34  54  82 117 152 193 247 295 343
#     4  10  18  31  56  89 114 149 197 238 288 353
#     4  10  20  34  57  86 111 145 201 235 293 354
#     4  12  24  40  58  90 130 144 196 252 312 356
#     4  10  19  32  52  85 115 150 190 241 289 342
#     4  11  18  30  54  84 114 146 192 247 286 337
#     4  10  21  35  59  86 115 156 184 242 296 355
#     4   9  17  34  57  90 113 149 199 241 282 354
#
# _framework density 18.669013
#
# number of rings (size 3 to 8) (size 9 to 14) (size 15 to 20)
#    0.000    2.069    4.138    1.241    0.966    0.000 
#    0.000    3.793    0.000   10.345    0.000    0.000 
#    0.000    0.000    0.000    0.000    0.000    0.000 
#
# Total GULP energy -161513.871514 kJ/mol
# GULP energy per Si atom -5569.443845 kJ/mol
# Density = 1.862652 g / cm^3
# Si number density = 18.669013 Si / 1000 Ang^3
#
#
#
# Elastic Constant Matrix: (Units=GPa)
#
#
# Indices 1 2 3 4 5 6 
#
# 1 90.1327 48.5977 24.7358 0.0000 0.0000 0.0000
# 2 48.5977 163.1583 48.9623 0.0000 0.0000 0.0000
# 3 24.7358 48.9623 66.3780 0.0000 0.0000 0.0000
# 4 0.0000 0.0000 0.0000 -26.2855 0.0000 0.0000
# 5 0.0000 0.0000 0.0000 0.0000 -93.8326 0.0000
# 6 0.0000 0.0000 0.0000 0.0000 0.0000 42.1931
#
#
#
# Elastic Compliance Matrix: (Units=1/GPa)
#
#
# Indices 1 2 3 4 5 6 
#
# 1 0.013575 -0.003243 -0.002666 0.000000 0.000000 0.000000
# 2 -0.003243 0.008646 -0.005169 0.000000 0.000000 0.000000
# 3 -0.002666 -0.005169 0.019872 0.000000 0.000000 0.000000
# 4 0.000000 0.000000 0.000000 -0.038044 0.000000 0.000000
# 5 0.000000 0.000000 0.000000 0.000000 -0.010657 0.000000
# 6 0.000000 0.000000 0.000000 0.000000 0.000000 0.023701
#
#
# Mechanical properties :
#
#
# Convention : Reuss Voigt Hill
#
# Bulk Modulus (GPa) = 50.16173 62.69563 56.42868
# Shear Modulus (GPa) = 108.94284 -2.42677 53.25803
#
# Velocity S-wave (km/s) = 7.64733 -1.14137 5.34691
# Velocity P-wave (km/s) = 10.24220 5.64966 8.27108
#
# Compressibility (1/GPa) = 0.01993551
#
# Stress axis : x y z
#
# Youngs Moduli (GPa) = 73.66344 115.65714 50.32264
#
# Poissons Ratio (x) = 0.37511 0.13419
# Poissons Ratio (y) = 0.23891 0.26012
# Poissons Ratio (z) = 0.19642 0.59784
#
# Static dielectric constant tensor:
#      x y z
#    x 1.712590 0.000000 0.000000 
#    y 0.000000 1.674570 0.000000 
#    z 0.000000 0.000000 1.653420 
# 
# From -- ./inp_files/9297.got.cif
#   From: 2010.05.17/outbox.cif.g08.bks.cpg/sg16_5_cif.got.tgz:9297.got - 2010.06.03 22:28:35.
