data_PCOD9309265
_publ_section_title
;
Structure prediction by ZEFSAII (Michael W. Deem and Ramdas Pophale) SiO2 
 PCOD9309265
Probable space group: C 2/C
;
_chemical_formula_sum "Si O2"
_cell_formula_units_Z 32
_cell_length_a 15.000000
_cell_length_b 24.000000
_cell_length_c 18.000000
_cell_angle_alpha 90.000000
_cell_angle_beta 30.000000
_cell_angle_gamma 90.000000
_cell_volume 3240.000000
_symmetry_space_group_name_H-M "C 2/C"
_symmetry_group_IT_number 15
_symmetry_cell_setting 'monoclinic'
loop_
_space_group_symop_operation_xyz
x,y,z
-x,y,1/2-z
-x,-y,-z
x,-y,1/2+z
1/2+x,1/2+y,z
1/2-x,1/2+y,1/2-z
1/2-x,1/2-y,-z
1/2+x,1/2-y,1/2+z
loop_
_atom_site_type_symbol
_atom_site_label
_atom_site_fract_x
_atom_site_fract_y
_atom_site_fract_z
Si Si1 0.199289 0.475593 0.373309
Si Si2 0.844673 0.118702 0.650498
Si Si3 0.518913 0.072363 0.148119
Si Si4 0.347088 0.679296 0.305130
Si Si5 0.508807 0.200655 0.159970
Si Si6 0.965288 0.708828 0.633530
Si Si7 0.390160 0.278638 0.540922
Si Si8 0.348525 0.420143 0.683708
O O1 0.270192 0.423788 0.268966
O O2 0.329960 0.526557 0.253393
O O3 0.000000 0.500000 0.500000
O O4 0.160935 0.456854 0.487791
O O5 0.670986 0.157034 0.754852
O O6 0.984781 0.168623 0.569009
O O7 0.965533 0.086803 0.498991
O O8 0.500000 0.053952 0.250000
O O9 0.576152 0.137376 0.110555
O O10 0.321691 0.071902 0.250334
O O11 0.500000 0.658324 0.250000
O O12 0.411930 0.739717 0.226058
O O13 0.326074 0.634744 0.252740
O O14 0.168354 0.687176 0.483546
O O15 0.500000 0.221969 0.250000
O O16 0.612164 0.240426 0.030156
O O17 0.298964 0.200319 0.292736
O O18 0.953805 0.737153 0.559924
#
# Coordination Sequence:
#
# PCOD9309265 Si02
#       8
#     8   8   8   8   8   8   8   8
#     4  10  23  43  68  95 127 176 236 287 344 404
#     4  12  22  38  70  97 130 185 224 275 347 407
#     4  10  21  41  70  97 131 177 225 281 340 402
#     4  12  24  41  66  97 135 175 226 282 345 410
#     4  11  22  35  56  91 142 173 221 267 325 402
#     4  12  21  39  65  95 135 168 222 281 342 419
#     4  12  20  36  59  93 129 182 214 264 334 405
#     4  11  22  45  65  97 136 176 230 284 335 406
#
# _framework density 9.8765429999999999
#
# number of rings (size 3 to 8) (size 9 to 14) (size 15 to 20)
#    0.000    0.750    5.000    4.125    0.000    0.000 
#    0.000    4.375    0.000    3.750    0.000    0.000 
#    0.000    0.000    0.000    0.000    0.000    0.000 
#
# Total GULP energy -178306.285571 kJ/mol
# GULP energy per Si atom -5572.071424 kJ/mol
# Density = 0.985406 g / cm^3
# Si number density = 9.876543 Si / 1000 Ang^3
#
#
#
# Elastic Constant Matrix: (Units=GPa)
#
#
# Indices 1 2 3 4 5 6 
#
# 1 82.2480 22.6883 30.7162 -0.0167 12.2613 0.0198
# 2 22.6883 101.9648 55.5147 0.0074 16.2417 0.0095
# 3 30.7162 55.5147 157.7163 -0.0405 16.2845 0.0251
# 4 -0.0167 0.0074 -0.0405 60.9465 0.0179 14.4433
# 5 12.2613 16.2417 16.2845 0.0179 41.5290 -0.0129
# 6 0.0198 0.0095 0.0251 14.4433 -0.0129 22.1068
#
#
#
# Elastic Compliance Matrix: (Units=1/GPa)
#
#
# Indices 1 2 3 4 5 6 
#
# 1 0.013687 -0.001629 -0.001814 0.000007 -0.002693 -0.000016
# 2 -0.001629 0.012748 -0.003861 -0.000004 -0.002991 0.000001
# 3 -0.001814 -0.003861 0.008173 0.000009 -0.001159 -0.000012
# 4 0.000007 -0.000004 0.000009 0.019414 -0.000016 -0.012684
# 5 -0.002693 -0.002991 -0.001159 -0.000016 0.026499 0.000031
# 6 -0.000016 0.000001 -0.000012 -0.012684 0.000031 0.053522
#
#
# Mechanical properties :
#
#
# Convention : Reuss Voigt Hill
#
# Bulk Modulus (GPa) = 50.00238 62.19637 56.09938
# Shear Modulus (GPa) = 32.19224 40.45044 36.32134
#
# Velocity S-wave (km/s) = 4.04137 4.53018 4.29274
# Velocity P-wave (km/s) = 6.86626 7.67584 7.28231
#
# Compressibility (1/GPa) = 0.01999905
#
# Stress axis : x y z
#
# Youngs Moduli (GPa) = 73.06425 78.44109 122.35945
#
# Poissons Ratio (x) = 0.12776 0.22199
# Poissons Ratio (y) = 0.11901 0.47247
# Poissons Ratio (z) = 0.13255 0.30289
#
# Static dielectric constant tensor:
#      x y z
#    x 1.776670 -0.000010 -0.031760 
#    y -0.000010 1.723020 0.000030 
#    z -0.031760 0.000030 1.702120 
# 
# From -- ./inp_files/207321.got.cif
#   From: 2010.05.17/outbox.ucp.g08.bks.cvg/sg15_104_cif.got.tgz:207321.got - 2010.06.11 12:40:34.
