data_PCOD9309396
_publ_section_title
;
Structure prediction by ZEFSAII (Michael W. Deem and Ramdas Pophale) SiO2 
 PCOD9309396
Probable space group: C 2/C
;
_chemical_formula_sum "Si O2"
_cell_formula_units_Z 22
_cell_length_a 12.000000
_cell_length_b 18.000000
_cell_length_c 12.000000
_cell_angle_alpha 90.000000
_cell_angle_beta 120.000000
_cell_angle_gamma 90.000000
_cell_volume 2244.737847
_symmetry_space_group_name_H-M "C 2/C"
_symmetry_group_IT_number 15
_symmetry_cell_setting 'monoclinic'
loop_
_space_group_symop_operation_xyz
x,y,z
-x,y,1/2-z
-x,-y,-z
x,-y,1/2+z
1/2+x,1/2+y,z
1/2-x,1/2+y,1/2-z
1/2-x,1/2-y,-z
1/2+x,1/2-y,1/2+z
loop_
_atom_site_type_symbol
_atom_site_label
_atom_site_fract_x
_atom_site_fract_y
_atom_site_fract_z
Si Si1 0.500000 0.680634 0.750000
Si Si2 0.735829 0.620069 0.013115
Si Si3 0.657122 0.031822 0.832351
Si Si4 0.790479 0.279752 0.750412
Si Si5 0.618995 0.144350 0.633487
Si Si6 0.818179 0.328832 0.000556
O O1 0.395719 0.633035 0.625386
O O2 0.423691 0.736597 0.793773
O O3 0.768653 0.541675 0.089662
O O4 0.744642 0.680527 0.115126
O O5 0.848181 0.636479 0.979700
O O6 0.500000 0.018579 0.750000
O O7 0.669480 0.068439 0.716112
O O8 0.710102 0.098133 0.939750
O O9 0.696222 0.211684 0.725845
O O10 0.790653 0.334768 0.854701
O O11 0.473067 0.166991 0.584239
O O12 0.750000 0.250000 0.000000
#
# Coordination Sequence:
#
# PCOD9309396 Si02
#       6
#     4   8   8   8   8   8
#     4  10  22  44  62  96 126 160 226 268 308 392
#     4  11  24  40  68  94 127 170 211 270 328 375
#     4  10  24  40  60  94 130 164 211 264 322 378
#     4  11  21  39  68  92 123 168 215 261 320 384
#     4  10  22  41  62  93 127 164 217 267 307 388
#     4  11  22  39  64  91 128 166 210 261 318 382
#
# _framework density 9.8006989999999998
#
# number of rings (size 3 to 8) (size 9 to 14) (size 15 to 20)
#    0.000    1.455    1.818    4.364    6.364    1.455 
#    0.000    5.455    0.000    0.000    0.000    0.000 
#    0.000    0.000    0.000    0.000    0.000    0.000 
#
# Total GULP energy -122525.842678 kJ/mol
# GULP energy per Si atom -5569.356485 kJ/mol
# Density = 0.977839 g / cm^3
# Si number density = 9.800699 Si / 1000 Ang^3
#
#
#
# Elastic Constant Matrix: (Units=GPa)
#
#
# Indices 1 2 3 4 5 6 
#
# 1 47.1487 18.4611 30.2137 0.0000 9.5553 0.0000
# 2 18.4611 103.4261 47.7365 0.0000 17.0681 0.0000
# 3 30.2137 47.7365 114.5313 0.0000 -7.0511 0.0000
# 4 0.0000 0.0000 0.0000 43.6860 0.0000 -0.6585
# 5 9.5553 17.0681 -7.0511 0.0000 23.5480 0.0000
# 6 0.0000 0.0000 0.0000 -0.6585 0.0000 17.6845
#
#
#
# Elastic Compliance Matrix: (Units=1/GPa)
#
#
# Indices 1 2 3 4 5 6 
#
# 1 0.030033 0.001820 -0.009692 0.000000 -0.016408 0.000000
# 2 0.001820 0.015213 -0.007687 0.000000 -0.014067 0.000000
# 3 -0.009692 -0.007687 0.015360 0.000000 0.014104 0.000000
# 4 0.000000 0.000000 0.000000 0.022903 0.000000 0.000853
# 5 -0.016408 -0.014067 0.014104 0.000000 0.063544 0.000000
# 6 0.000000 0.000000 0.000000 0.000853 0.000000 0.056578
#
#
# Mechanical properties :
#
#
# Convention : Reuss Voigt Hill
#
# Bulk Modulus (GPa) = 33.91067 50.88097 42.39582
# Shear Modulus (GPa) = 20.44333 28.23003 24.33668
#
# Velocity S-wave (km/s) = 3.23298 3.79912 3.52743
# Velocity P-wave (km/s) = 5.59231 6.72745 6.18597
#
# Compressibility (1/GPa) = 0.02948925
#
# Stress axis : x y z
#
# Youngs Moduli (GPa) = 33.29714 65.73186 65.10347
#
# Poissons Ratio (x) = -0.11965 0.63095
# Poissons Ratio (y) = -0.06061 0.50046
# Poissons Ratio (z) = 0.32270 0.50529
#
# Static dielectric constant tensor:
#      x y z
#    x 1.781850 0.000000 -0.006180 
#    y 0.000000 1.682410 0.000000 
#    z -0.006180 0.000000 1.713230 
# 
# From -- ./inp_files/87950.got.cif
#   From: 2010.05.17/outbox.ucp.g08.bks.cvg/sg15_44_cif.got.tgz:87950.got - 2010.06.11 12:40:34.
