data_PCOD9309031
_publ_section_title
;
Structure prediction by ZEFSAII (Michael W. Deem and Ramdas Pophale) SiO2 
 PCOD9309031
Probable space group: C 2/C
;
_chemical_formula_sum "Si O2"
_cell_formula_units_Z 26
_cell_length_a 21.000000
_cell_length_b 9.000000
_cell_length_c 15.000000
_cell_angle_alpha 90.000000
_cell_angle_beta 80.000000
_cell_angle_gamma 90.000000
_cell_volume 2791.929980
_symmetry_space_group_name_H-M "C 2/C"
_symmetry_group_IT_number 15
_symmetry_cell_setting 'monoclinic'
loop_
_space_group_symop_operation_xyz
x,y,z
-x,y,1/2-z
-x,-y,-z
x,-y,1/2+z
1/2+x,1/2+y,z
1/2-x,1/2+y,1/2-z
1/2-x,1/2-y,-z
1/2+x,1/2-y,1/2+z
loop_
_atom_site_type_symbol
_atom_site_label
_atom_site_fract_x
_atom_site_fract_y
_atom_site_fract_z
Si Si1 0.879865 0.177015 0.338346
Si Si2 0.751368 0.476261 0.661926
Si Si3 0.178252 0.461464 0.043395
Si Si4 0.000000 0.370041 0.250000
Si Si5 0.441472 0.361453 0.334540
Si Si6 0.463501 0.073945 0.427474
Si Si7 0.692104 0.800604 0.691801
O O1 0.817734 0.105110 0.304875
O O2 0.846469 0.302191 0.410792
O O3 0.935408 0.265513 0.268943
O O4 0.915389 0.026593 0.367788
O O5 0.776081 0.450590 0.554334
O O6 0.738380 0.653714 0.678433
O O7 0.799912 0.394483 0.718828
O O8 0.111478 0.541823 0.034749
O O9 0.206546 0.574499 0.111914
O O10 0.011109 0.480436 0.164087
O O11 0.500000 0.380070 0.250000
O O12 0.468007 0.249684 0.404742
O O13 0.380010 0.268519 0.307885
O O14 0.500000 0.000000 0.500000
#
# Coordination Sequence:
#
# PCOD9309031 Si02
#       7
#     8   8   8   4   8   8   8
#     4  10  21  38  62  89 120 169 202 259 317 364
#     4  11  22  39  62  90 126 160 210 256 313 375
#     4  10  22  39  60  89 126 160 209 257 309 376
#     4  10  20  40  58  84 122 156 212 256 312 372
#     4  10  20  39  62  87 127 164 206 262 306 365
#     4  10  22  36  60  90 114 166 210 252 313 370
#     4  10  23  39  62  94 120 170 210 252 318 365
#
# _framework density 9.3125540000000004
#
# number of rings (size 3 to 8) (size 9 to 14) (size 15 to 20)
#    0.000    1.846    1.538    1.846    2.154    1.231 
#    0.000    6.154    0.000    0.000    0.000    0.000 
#    0.000    0.000    0.000    0.000    0.000    0.000 
#
# Total GULP energy -144848.645786 kJ/mol
# GULP energy per Si atom -5571.101761 kJ/mol
# Density = 0.929136 g / cm^3
# Si number density = 9.312554 Si / 1000 Ang^3
#
#
#
# Elastic Constant Matrix: (Units=GPa)
#
#
# Indices 1 2 3 4 5 6 
#
# 1 51.0424 25.2132 27.7866 0.0000 -13.5309 0.0000
# 2 25.2132 154.7149 35.0081 0.0000 -2.2695 0.0000
# 3 27.7866 35.0081 80.1030 0.0000 -9.7177 0.0000
# 4 0.0000 0.0000 0.0000 21.9699 0.0000 -4.0551
# 5 -13.5309 -2.2695 -9.7177 0.0000 26.1195 0.0000
# 6 0.0000 0.0000 0.0000 -4.0551 0.0000 35.2583
#
#
#
# Elastic Compliance Matrix: (Units=1/GPa)
#
#
# Indices 1 2 3 4 5 6 
#
# 1 0.027869 -0.002777 -0.007050 0.000000 0.011573 0.000000
# 2 -0.002777 0.007458 -0.002505 0.000000 -0.001722 0.000000
# 3 -0.007050 -0.002505 0.016290 0.000000 0.002191 0.000000
# 4 0.000000 0.000000 0.000000 0.046504 0.000000 0.005348
# 5 0.011573 -0.001722 0.002191 0.000000 0.044946 0.000000
# 6 0.000000 0.000000 0.000000 0.005348 0.000000 0.028977
#
#
# Mechanical properties :
#
#
# Convention : Reuss Voigt Hill
#
# Bulk Modulus (GPa) = 37.10113 51.31958 44.21036
# Shear Modulus (GPa) = 24.30825 29.85969 27.08397
#
# Velocity S-wave (km/s) = 3.61658 4.00834 3.81749
# Velocity P-wave (km/s) = 6.11578 7.00258 6.57415
#
# Compressibility (1/GPa) = 0.02695335
#
# Stress axis : x y z
#
# Youngs Moduli (GPa) = 35.88235 134.09216 61.38739
#
# Poissons Ratio (x) = 0.37233 0.43277
# Poissons Ratio (y) = 0.09963 0.15378
# Poissons Ratio (z) = 0.25296 0.33590
#
# Static dielectric constant tensor:
#      x y z
#    x 1.683480 0.000000 0.024400 
#    y 0.000000 1.666660 0.000000 
#    z 0.024400 0.000000 1.653420 
# 
# From -- ./inp_files/166227.got.cif
#   From: 2010.05.17/outbox.ucp.g08.bks.cvg/sg15_84_cif.got.tgz:166227.got - 2010.06.11 12:40:34.
