data_PCOD9309638
_publ_section_title
;
Structure prediction by ZEFSAII (Michael W. Deem and Ramdas Pophale) SiO2 
 PCOD9309638
Probable space group: C 2/C
;
_chemical_formula_sum "Si O2"
_cell_formula_units_Z 16
_cell_length_a 12.000000
_cell_length_b 15.000000
_cell_length_c 9.000000
_cell_angle_alpha 90.000000
_cell_angle_beta 70.000000
_cell_angle_gamma 90.000000
_cell_volume 1522.302046
_symmetry_space_group_name_H-M "C 2/C"
_symmetry_group_IT_number 15
_symmetry_cell_setting 'monoclinic'
loop_
_space_group_symop_operation_xyz
x,y,z
-x,y,1/2-z
-x,-y,-z
x,-y,1/2+z
1/2+x,1/2+y,z
1/2-x,1/2+y,1/2-z
1/2-x,1/2-y,-z
1/2+x,1/2-y,1/2+z
loop_
_atom_site_type_symbol
_atom_site_label
_atom_site_fract_x
_atom_site_fract_y
_atom_site_fract_z
Si Si1 0.617006 0.077482 0.116242
Si Si2 0.000000 0.253981 0.750000
Si Si3 0.164246 0.819472 0.444818
Si Si4 0.000000 0.074266 0.250000
Si Si5 0.239508 0.984400 0.233832
O O1 0.500000 0.034451 0.250000
O O2 0.578025 0.179026 0.111977
O O3 0.714100 0.070687 0.200475
O O4 0.675101 0.035717 0.944153
O O5 0.908966 0.210631 0.671894
O O6 0.250000 0.750000 0.500000
O O7 0.243166 0.901274 0.345461
O O8 0.065375 0.862799 0.599376
O O9 0.104912 0.008332 0.255242
#
# Coordination Sequence:
#
# PCOD9309638 Si02
#       5
#     8   4   8   4   8
#     4  10  25  44  73 100 144 190 247 289 363 429
#     4  10  27  46  69 108 146 190 234 304 367 426
#     4  12  28  46  73 109 150 190 239 308 367 429
#     4  12  27  48  73 110 142 196 248 294 373 432
#     4  12  24  47  74 102 144 191 250 298 356 446
#
# _framework density 10.510398
#
# number of rings (size 3 to 8) (size 9 to 14) (size 15 to 20)
#    0.750    0.000    2.500    3.750    7.000    1.000 
#    0.000    0.000    0.000    0.000    0.000    0.000 
#    0.000    0.000    0.000    0.000    0.000    0.000 
#
# Total GULP energy -89130.479526 kJ/mol
# GULP energy per Si atom -5570.654970 kJ/mol
# Density = 1.048648 g / cm^3
# Si number density = 10.510398 Si / 1000 Ang^3
#
#
#
# Elastic Constant Matrix: (Units=GPa)
#
#
# Indices 1 2 3 4 5 6 
#
# 1 113.8245 30.2175 22.8965 0.0000 4.2067 0.0000
# 2 30.2175 75.1908 27.6396 0.0000 2.6957 0.0000
# 3 22.8965 27.6396 147.5372 0.0000 -22.5232 0.0000
# 4 0.0000 0.0000 0.0000 29.0669 0.0000 12.5906
# 5 4.2067 2.6957 -22.5232 0.0000 40.2262 0.0000
# 6 0.0000 0.0000 0.0000 12.5906 0.0000 37.3428
#
#
#
# Elastic Compliance Matrix: (Units=1/GPa)
#
#
# Indices 1 2 3 4 5 6 
#
# 1 0.010006 -0.003565 -0.001103 0.000000 -0.001425 0.000000
# 2 -0.003565 0.015823 -0.002751 0.000000 -0.002228 0.000000
# 3 -0.001103 -0.002751 0.008212 0.000000 0.004898 0.000000
# 4 0.000000 0.000000 0.000000 0.040287 0.000000 -0.013583
# 5 -0.001425 -0.002228 0.004898 0.000000 0.027900 0.000000
# 6 0.000000 0.000000 0.000000 -0.013583 0.000000 0.031359
#
#
# Mechanical properties :
#
#
# Convention : Reuss Voigt Hill
#
# Bulk Modulus (GPa) = 52.07140 55.33997 53.70568
# Shear Modulus (GPa) = 32.29419 38.38045 35.33732
#
# Velocity S-wave (km/s) = 3.92382 4.27761 4.10453
# Velocity P-wave (km/s) = 6.73451 7.12606 6.93305
#
# Compressibility (1/GPa) = 0.01920440
#
# Stress axis : x y z
#
# Youngs Moduli (GPa) = 99.93699 63.19762 121.77046
#
# Poissons Ratio (x) = 0.22530 0.13426
# Poissons Ratio (y) = 0.35627 0.33502
# Poissons Ratio (z) = 0.11019 0.17387
#
# Static dielectric constant tensor:
#      x y z
#    x 1.850140 0.000000 0.021940 
#    y 0.000000 1.777780 0.000000 
#    z 0.021940 0.000000 1.746120 
# 
# From -- ./inp_files/27922.got.cif
#   From: 2010.05.17/outbox.ucp.g08.bks.cvg/sg15_14_cif.got.tgz:27922.got - 2010.06.11 12:40:34.
