data_PCOD9309545
_publ_section_title
;
Structure prediction by ZEFSAII (Michael W. Deem and Ramdas Pophale) SiO2 
 PCOD9309545
Probable space group: C 2/C
;
_chemical_formula_sum "Si O2"
_cell_formula_units_Z 32
_cell_length_a 24.000000
_cell_length_b 9.000000
_cell_length_c 30.000000
_cell_angle_alpha 90.000000
_cell_angle_beta 30.000000
_cell_angle_gamma 90.000000
_cell_volume 3240.000000
_symmetry_space_group_name_H-M "C 2/C"
_symmetry_group_IT_number 15
_symmetry_cell_setting 'monoclinic'
loop_
_space_group_symop_operation_xyz
x,y,z
-x,y,1/2-z
-x,-y,-z
x,-y,1/2+z
1/2+x,1/2+y,z
1/2-x,1/2+y,1/2-z
1/2-x,1/2-y,-z
1/2+x,1/2-y,1/2+z
loop_
_atom_site_type_symbol
_atom_site_label
_atom_site_fract_x
_atom_site_fract_y
_atom_site_fract_z
Si Si1 0.491014 0.332278 0.646736
Si Si2 0.420755 0.832062 0.911405
Si Si3 0.805522 0.105780 0.560837
Si Si4 0.758588 0.244206 0.107258
Si Si5 0.093343 0.390009 0.146765
Si Si6 0.739388 0.162906 0.707725
Si Si7 0.525331 0.399171 0.279910
Si Si8 0.685811 0.818843 0.753964
O O1 0.577358 0.363189 0.546039
O O2 0.555052 0.244389 0.641618
O O3 0.384450 0.233854 0.707409
O O4 0.445549 0.481959 0.701970
O O5 0.425025 0.692661 0.873523
O O6 0.552489 0.831550 0.834980
O O7 0.395116 0.972366 0.896559
O O8 0.339457 0.818800 0.012093
O O9 0.705499 0.149587 0.596301
O O10 0.790663 0.174838 0.621358
O O11 0.784252 0.929293 0.581836
O O12 0.628948 0.293883 0.192465
O O13 0.757714 0.258506 0.163214
O O14 0.000000 0.422714 0.250000
O O15 0.800621 0.240216 0.707373
O O16 0.729779 0.987791 0.724689
O O17 0.500000 0.475822 0.250000
#
# Coordination Sequence:
#
# PCOD9309545 Si02
#       8
#     8   8   8   8   8   8   8   8
#     4  12  25  43  64 104 137 175 231 281 345 417
#     4  11  22  43  68  99 135 179 231 275 341 421
#     4  11  24  44  70 100 139 187 224 282 354 410
#     4  10  23  43  68  98 135 177 229 280 339 408
#     4  12  22  43  68  96 146 183 220 283 349 416
#     4  11  25  47  69  96 137 179 232 286 350 402
#     4  11  24  38  64 100 136 176 222 274 332 408
#     4  10  24  46  69  96 131 183 227 288 345 405
#
# _framework density 9.8765429999999999
#
# number of rings (size 3 to 8) (size 9 to 14) (size 15 to 20)
#    0.000    1.000    3.750    3.375    5.250    3.000 
#    0.000    3.750    0.000    0.000    0.000    0.000 
#    0.000    0.000    0.000    0.000    0.000    0.000 
#
# Total GULP energy -178385.026821 kJ/mol
# GULP energy per Si atom -5574.532088 kJ/mol
# Density = 0.985406 g / cm^3
# Si number density = 9.876543 Si / 1000 Ang^3
#
#
#
# Elastic Constant Matrix: (Units=GPa)
#
#
# Indices 1 2 3 4 5 6 
#
# 1 110.3479 3.0675 34.0498 -0.0042 34.1356 0.0164
# 2 3.0675 51.9382 16.1504 0.0005 22.3366 0.0115
# 3 34.0498 16.1504 171.1643 0.0029 43.6749 -0.0004
# 4 -0.0042 0.0005 0.0029 35.9789 -0.0023 10.8997
# 5 34.1356 22.3366 43.6749 -0.0023 38.0332 -0.0004
# 6 0.0164 0.0115 -0.0004 10.8997 -0.0004 42.2155
#
#
#
# Elastic Compliance Matrix: (Units=1/GPa)
#
#
# Indices 1 2 3 4 5 6 
#
# 1 0.013975 0.006381 0.001096 0.000003 -0.017549 -0.000008
# 2 0.006381 0.029178 0.002562 0.000002 -0.025805 -0.000011
# 3 0.001096 0.002562 0.008511 -0.000001 -0.012262 -0.000001
# 4 0.000003 0.000002 -0.000001 0.030153 -0.000001 -0.007785
# 5 -0.017549 -0.025805 -0.012262 -0.000001 0.071279 0.000015
# 6 -0.000008 -0.000011 -0.000001 -0.007785 0.000015 0.025698
#
#
# Mechanical properties :
#
#
# Convention : Reuss Voigt Hill
#
# Bulk Modulus (GPa) = 13.93880 48.88732 31.41306
# Shear Modulus (GPa) = 27.37753 41.92438 34.65095
#
# Velocity S-wave (km/s) = 3.72692 4.61197 4.19287
# Velocity P-wave (km/s) = 5.05883 7.29132 6.27515
#
# Compressibility (1/GPa) = 0.07174217
#
# Stress axis : x y z
#
# Youngs Moduli (GPa) = 71.55388 34.27255 117.48853
#
# Poissons Ratio (x) = -0.21869 -0.12872
# Poissons Ratio (y) = -0.45659 -0.30101
# Poissons Ratio (z) = -0.07840 -0.08781
#
# Static dielectric constant tensor:
#      x y z
#    x 1.741250 0.000000 -0.011260 
#    y 0.000000 1.749800 0.000000 
#    z -0.011260 0.000000 1.680880 
# 
# From -- ./inp_files/318605.got.cif
#   From: 2010.05.17/outbox.ucp.g08.bks.cvg/sg15_160_cif.got.tgz:318605.got - 2010.06.11 12:40:34.
