data_PCOD9309526
_publ_section_title
;
Structure prediction by ZEFSAII (Michael W. Deem and Ramdas Pophale) SiO2 
 PCOD9309526
Probable space group: C 2/C
;
_chemical_formula_sum "Si O2"
_cell_formula_units_Z 20
_cell_length_a 15.000000
_cell_length_b 30.000000
_cell_length_c 9.000000
_cell_angle_alpha 90.000000
_cell_angle_beta 30.000000
_cell_angle_gamma 90.000000
_cell_volume 2025.000000
_symmetry_space_group_name_H-M "C 2/C"
_symmetry_group_IT_number 15
_symmetry_cell_setting 'monoclinic'
loop_
_space_group_symop_operation_xyz
x,y,z
-x,y,1/2-z
-x,-y,-z
x,-y,1/2+z
1/2+x,1/2+y,z
1/2-x,1/2+y,1/2-z
1/2-x,1/2-y,-z
1/2+x,1/2-y,1/2+z
loop_
_atom_site_type_symbol
_atom_site_label
_atom_site_fract_x
_atom_site_fract_y
_atom_site_fract_z
Si Si1 0.500000 0.617320 0.250000
Si Si2 0.818727 0.736467 0.064370
Si Si3 0.701527 0.952459 0.151090
Si Si4 0.982514 0.185218 0.531714
Si Si5 0.000000 0.119356 0.750000
Si Si6 0.213140 0.548322 0.278294
O O1 0.332328 0.585515 0.524050
O O2 0.549299 0.650665 0.310985
O O3 0.869653 0.776904 0.104240
O O4 0.653537 0.708433 0.361248
O O5 0.750000 0.750000 0.000000
O O6 0.000000 0.712001 0.750000
O O7 0.491570 0.942091 0.475620
O O8 0.751009 0.999861 0.152478
O O9 0.724195 0.955543 0.940490
O O10 0.905690 0.151960 0.765836
O O11 0.150115 0.086628 0.466875
#
# Coordination Sequence:
#
# PCOD9309526 Si02
#       6
#     4   8   8   8   4   8
#     4  12  21  38  66  98 118 168 216 254 297 384
#     4   9  18  39  64  87 115 161 208 257 313 376
#     4  10  23  41  66  91 129 170 209 250 312 370
#     4  11  23  39  64  91 124 163 212 258 317 376
#     4  12  25  40  62 100 132 158 212 266 309 372
#     4  10  23  43  62  93 130 170 204 255 311 369
#
# _framework density 9.8765429999999999
#
# number of rings (size 3 to 8) (size 9 to 14) (size 15 to 20)
#    0.000    1.600    5.000    0.600    2.800    4.000 
#    0.000    0.000    0.000    0.000    0.000    0.000 
#    0.000    0.000    0.000    0.000    0.000    0.000 
#
# Total GULP energy -111416.110389 kJ/mol
# GULP energy per Si atom -5570.805519 kJ/mol
# Density = 0.985406 g / cm^3
# Si number density = 9.876543 Si / 1000 Ang^3
#
#
#
# Elastic Constant Matrix: (Units=GPa)
#
#
# Indices 1 2 3 4 5 6 
#
# 1 61.9113 47.1630 31.6460 0.0000 -12.3952 0.0000
# 2 47.1630 133.0216 59.7863 0.0000 -9.6769 0.0000
# 3 31.6460 59.7863 73.3469 0.0000 -5.0584 0.0000
# 4 0.0000 0.0000 0.0000 22.1474 0.0000 -0.1575
# 5 -12.3952 -9.6769 -5.0584 0.0000 29.5630 0.0000
# 6 0.0000 0.0000 0.0000 -0.1575 0.0000 36.1760
#
#
#
# Elastic Compliance Matrix: (Units=1/GPa)
#
#
# Indices 1 2 3 4 5 6 
#
# 1 0.024905 -0.005813 -0.005483 0.000000 0.007601 0.000000
# 2 -0.005813 0.013371 -0.008356 0.000000 0.000510 0.000000
# 3 -0.005483 -0.008356 0.022732 0.000000 -0.001145 0.000000
# 4 0.000000 0.000000 0.000000 0.045153 0.000000 0.000197
# 5 0.007601 0.000510 -0.001145 0.000000 0.036984 0.000000
# 6 0.000000 0.000000 0.000000 0.000197 0.000000 0.027644
#
#
# Mechanical properties :
#
#
# Convention : Reuss Voigt Hill
#
# Bulk Modulus (GPa) = 46.07426 60.60783 53.34105
# Shear Modulus (GPa) = 23.00686 26.22291 24.61489
#
# Velocity S-wave (km/s) = 3.41651 3.64749 3.53388
# Velocity P-wave (km/s) = 6.24012 6.96335 6.61163
#
# Compressibility (1/GPa) = 0.02170409
#
# Stress axis : x y z
#
# Youngs Moduli (GPa) = 40.15322 74.78805 43.99150
#
# Poissons Ratio (x) = 0.43472 0.24121
# Poissons Ratio (y) = 0.23340 0.36759
# Poissons Ratio (z) = 0.22016 0.62492
#
# Static dielectric constant tensor:
#      x y z
#    x 1.734260 0.000000 -0.003460 
#    y 0.000000 1.687110 0.000000 
#    z -0.003460 0.000000 1.767990 
# 
# From -- ./inp_files/44739.got.cif
#   From: 2010.05.17/outbox.ucp.g08.bks.cvg/sg15_23_cif.got.tgz:44739.got - 2010.06.11 12:40:34.
