data_PCOD9309666
_publ_section_title
;
Structure prediction by ZEFSAII (Michael W. Deem and Ramdas Pophale) SiO2 
 PCOD9309666
Probable space group: C 2/C
;
_chemical_formula_sum "Si O2"
_cell_formula_units_Z 32
_cell_length_a 24.000000
_cell_length_b 24.000000
_cell_length_c 18.000000
_cell_angle_alpha 90.000000
_cell_angle_beta 20.000000
_cell_angle_gamma 90.000000
_cell_volume 3546.064846
_symmetry_space_group_name_H-M "C 2/C"
_symmetry_group_IT_number 15
_symmetry_cell_setting 'monoclinic'
loop_
_space_group_symop_operation_xyz
x,y,z
-x,y,1/2-z
-x,-y,-z
x,-y,1/2+z
1/2+x,1/2+y,z
1/2-x,1/2+y,1/2-z
1/2-x,1/2-y,-z
1/2+x,1/2-y,1/2+z
loop_
_atom_site_type_symbol
_atom_site_label
_atom_site_fract_x
_atom_site_fract_y
_atom_site_fract_z
Si Si1 0.570216 0.815952 0.077513
Si Si2 0.139119 0.088774 0.866749
Si Si3 0.825353 0.980526 0.931572
Si Si4 0.227778 0.853432 0.493674
Si Si5 0.268544 0.576217 0.285864
Si Si6 0.446776 0.688800 0.430488
Si Si7 0.691188 0.993400 0.750321
Si Si8 0.330779 0.031042 0.504626
O O1 0.500000 0.816848 0.250000
O O2 0.403807 0.834173 0.246588
O O3 0.608833 0.752581 0.006300
O O4 0.699959 0.863560 0.895090
O O5 0.209730 0.047069 0.841586
O O6 0.265265 0.078288 0.641828
O O7 0.111983 0.152431 0.926585
O O8 0.956621 0.069758 0.073689
O O9 0.000000 0.976641 0.750000
O O10 0.769916 0.917363 0.983164
O O11 0.716992 0.007939 0.130721
O O12 0.809407 0.018218 0.879801
O O13 0.125550 0.845972 0.547318
O O14 0.140342 0.816034 0.667425
O O15 0.250810 0.560284 0.221581
O O16 0.163365 0.527281 0.457107
O O17 0.500000 0.000000 0.000000
O O18 0.500000 0.040944 0.250000
#
# Coordination Sequence:
#
# PCOD9309666 Si02
#       8
#     8   8   8   8   8   8   8   8
#     4  12  23  34  55  82 118 152 191 226 276 350
#     4  11  22  40  56  79 118 155 191 231 283 341
#     4  12  19  33  56  80 108 145 182 227 279 330
#     4  11  20  35  52  83 115 151 193 225 277 336
#     4  11  23  37  55  84 118 155 184 231 285 342
#     4  11  22  35  55  79 115 158 188 229 278 334
#     4  11  21  35  55  81 110 144 185 234 277 331
#     4  11  22  37  57  82 111 148 188 233 285 335
#
# _framework density 9.0240880000000008
#
# number of rings (size 3 to 8) (size 9 to 14) (size 15 to 20)
#    0.000    0.750    3.750    9.000    1.750    0.000 
#    0.000    0.000    0.000    0.000    0.000    4.375 
#    0.000    0.000    0.000    0.000    0.000    0.000 
#
# Total GULP energy -178529.267221 kJ/mol
# GULP energy per Si atom -5579.039601 kJ/mol
# Density = 0.900355 g / cm^3
# Si number density = 9.024088 Si / 1000 Ang^3
#
#
#
# Elastic Constant Matrix: (Units=GPa)
#
#
# Indices 1 2 3 4 5 6 
#
# 1 48.4092 18.1604 14.8028 0.0062 2.5222 0.0024
# 2 18.1604 97.0658 39.4125 0.0040 11.9581 0.0117
# 3 14.8028 39.4125 91.6477 -0.0149 8.9993 -0.0003
# 4 0.0062 0.0040 -0.0149 22.2454 0.0029 5.6012
# 5 2.5222 11.9581 8.9993 0.0029 31.3813 0.0108
# 6 0.0024 0.0117 -0.0003 5.6012 0.0108 19.2640
#
#
#
# Elastic Compliance Matrix: (Units=1/GPa)
#
#
# Indices 1 2 3 4 5 6 
#
# 1 0.022583 -0.003334 -0.002223 -0.000008 0.000093 0.000001
# 2 -0.003334 0.013317 -0.004853 -0.000003 -0.003415 -0.000005
# 3 -0.002223 -0.004853 0.013540 0.000010 -0.001855 0.000001
# 4 -0.000008 -0.000003 0.000010 0.048504 -0.000001 -0.014103
# 5 0.000093 -0.003415 -0.001855 -0.000001 0.033692 -0.000017
# 6 0.000001 -0.000005 0.000001 -0.014103 -0.000017 0.056011
#
#
# Mechanical properties :
#
#
# Convention : Reuss Voigt Hill
#
# Bulk Modulus (GPa) = 34.94106 42.43046 38.68576
# Shear Modulus (GPa) = 22.93508 25.56128 24.24818
#
# Velocity S-wave (km/s) = 3.56865 3.76743 3.66939
# Velocity P-wave (km/s) = 6.03177 6.51808 6.27963
#
# Compressibility (1/GPa) = 0.02861963
#
# Stress axis : x y z
#
# Youngs Moduli (GPa) = 44.28139 75.09002 73.85732
#
# Poissons Ratio (x) = 0.25035 0.16418
# Poissons Ratio (y) = 0.14763 0.35845
# Poissons Ratio (z) = 0.09843 0.36443
#
# Static dielectric constant tensor:
#      x y z
#    x 1.760770 0.000030 -0.082840 
#    y 0.000030 1.617160 -0.000010 
#    z -0.082840 -0.000010 1.746010 
# 
# From -- ./inp_files/220399.got.cif
#   From: 2010.05.17/outbox.ucp.g08.bks.cvg/sg15_111_cif.got.tgz:220399.got - 2010.06.11 12:40:34.
