data_PCOD9309118
_publ_section_title
;
Structure prediction by ZEFSAII (Michael W. Deem and Ramdas Pophale) SiO2 
 PCOD9309118
Probable space group: C 2/C
;
_chemical_formula_sum "Si O2"
_cell_formula_units_Z 28
_cell_length_a 21.000000
_cell_length_b 30.000000
_cell_length_c 9.000000
_cell_angle_alpha 90.000000
_cell_angle_beta 150.000000
_cell_angle_gamma 90.000000
_cell_volume 2835.000000
_symmetry_space_group_name_H-M "C 2/C"
_symmetry_group_IT_number 15
_symmetry_cell_setting 'monoclinic'
loop_
_space_group_symop_operation_xyz
x,y,z
-x,y,1/2-z
-x,-y,-z
x,-y,1/2+z
1/2+x,1/2+y,z
1/2-x,1/2+y,1/2-z
1/2-x,1/2-y,-z
1/2+x,1/2-y,1/2+z
loop_
_atom_site_type_symbol
_atom_site_label
_atom_site_fract_x
_atom_site_fract_y
_atom_site_fract_z
Si Si1 0.181293 0.441693 0.494136
Si Si2 0.500000 0.126489 0.750000
Si Si3 0.360393 0.631131 0.297146
Si Si4 0.000000 0.768103 0.750000
Si Si5 0.605189 0.669906 0.703388
Si Si6 0.143316 0.471236 0.086846
Si Si7 0.706931 0.195452 0.186736
Si Si8 0.151609 0.900372 0.059261
O O1 0.310724 0.413898 0.773672
O O2 0.167290 0.465717 0.309427
O O3 0.161275 0.477688 0.579517
O O4 0.071441 0.404667 0.279107
O O5 0.395018 0.158349 0.467067
O O6 0.509514 0.640458 0.607252
O O7 0.282965 0.672728 0.206017
O O8 0.325725 0.622261 0.054928
O O9 0.982403 0.799100 0.573650
O O10 0.875177 0.738130 0.516423
O O11 0.673840 0.635829 0.731930
O O12 0.694358 0.700383 0.981775
O O13 0.252168 0.441216 0.230269
O O14 0.000000 0.457953 0.750000
O O15 0.000000 0.912458 0.750000
#
# Coordination Sequence:
#
# PCOD9309118 Si02
#       8
#     8   4   8   4   8   8   8   8
#     4  10  21  36  56  82 120 154 189 246 299 337
#     4   9  20  38  54  82 124 148 188 244 294 343
#     4   9  19  40  58  82 116 156 189 242 291 347
#     4  11  22  40  60  88 122 148 188 254 294 349
#     4  11  20  40  63  81 115 160 195 232 300 359
#     4  11  22  34  58  86 117 154 205 248 296 347
#     4  10  22  35  63  88 113 150 198 238 293 352
#     4   9  20  40  60  81 119 161 195 246 298 347
#
# _framework density 9.8765429999999999
#
# number of rings (size 3 to 8) (size 9 to 14) (size 15 to 20)
#    0.000    2.000    2.857    1.286    2.000    1.714 
#    0.000    9.286    0.000    0.000    0.000    0.000 
#    0.000    0.000    0.000    0.000    0.000    0.000 
#
# Total GULP energy -156051.577222 kJ/mol
# GULP energy per Si atom -5573.270615 kJ/mol
# Density = 0.985406 g / cm^3
# Si number density = 9.876543 Si / 1000 Ang^3
#
#
#
# Elastic Constant Matrix: (Units=GPa)
#
#
# Indices 1 2 3 4 5 6 
#
# 1 45.5653 24.6087 23.5115 0.0000 -1.0882 0.0000
# 2 24.6087 63.5631 26.9090 0.0000 0.4489 0.0000
# 3 23.5115 26.9090 83.2479 0.0000 1.6632 0.0000
# 4 0.0000 0.0000 0.0000 111.1599 0.0000 -98.7764
# 5 -1.0882 0.4489 1.6632 0.0000 15.3468 0.0000
# 6 0.0000 0.0000 0.0000 -98.7764 0.0000 129.2791
#
#
#
# Elastic Compliance Matrix: (Units=1/GPa)
#
#
# Indices 1 2 3 4 5 6 
#
# 1 0.029852 -0.009250 -0.005501 0.000000 0.002983 0.000000
# 2 -0.009250 0.021093 -0.004189 0.000000 -0.000819 0.000000
# 3 -0.005501 -0.004189 0.014958 0.000000 -0.001889 0.000000
# 4 0.000000 0.000000 0.000000 0.028020 0.000000 0.021409
# 5 0.002983 -0.000819 -0.001889 0.000000 0.065600 0.000000
# 6 0.000000 0.000000 0.000000 0.021409 0.000000 0.024092
#
#
# Mechanical properties :
#
#
# Convention : Reuss Voigt Hill
#
# Bulk Modulus (GPa) = 35.68509 38.04833 36.86671
# Shear Modulus (GPa) = 21.66054 58.98031 40.32042
#
# Velocity S-wave (km/s) = 3.31503 5.47025 4.52289
# Velocity P-wave (km/s) = 5.72341 7.69428 6.78083
#
# Compressibility (1/GPa) = 0.02802291
#
# Stress axis : x y z
#
# Youngs Moduli (GPa) = 33.49903 47.40978 66.85502
#
# Poissons Ratio (x) = 0.43852 0.36775
# Poissons Ratio (y) = 0.30985 0.28008
# Poissons Ratio (z) = 0.18427 0.19861
#
# Static dielectric constant tensor:
#      x y z
#    x 1.839720 0.000000 0.151930 
#    y 0.000000 1.682950 0.000000 
#    z 0.151930 0.000000 1.858680 
# 
# From -- ./inp_files/59385.got.cif
#   From: 2010.05.17/outbox.ucp.g08.bks.cvg/sg15_30_cif.got.tgz:59385.got - 2010.06.11 12:40:34.
