data_PCOD9309084
_publ_section_title
;
Structure prediction by ZEFSAII (Michael W. Deem and Ramdas Pophale) SiO2 
 PCOD9309084
Probable space group: C 2/C
;
_chemical_formula_sum "Si O2"
_cell_formula_units_Z 30
_cell_length_a 24.000000
_cell_length_b 15.000000
_cell_length_c 9.000000
_cell_angle_alpha 90.000000
_cell_angle_beta 70.000000
_cell_angle_gamma 90.000000
_cell_volume 3044.604091
_symmetry_space_group_name_H-M "C 2/C"
_symmetry_group_IT_number 15
_symmetry_cell_setting 'monoclinic'
loop_
_space_group_symop_operation_xyz
x,y,z
-x,y,1/2-z
-x,-y,-z
x,-y,1/2+z
1/2+x,1/2+y,z
1/2-x,1/2+y,1/2-z
1/2-x,1/2-y,-z
1/2+x,1/2-y,1/2+z
loop_
_atom_site_type_symbol
_atom_site_label
_atom_site_fract_x
_atom_site_fract_y
_atom_site_fract_z
Si Si1 0.302465 0.895594 0.709658
Si Si2 0.241218 0.946545 0.076892
Si Si3 0.466373 0.292141 0.133015
Si Si4 0.828610 0.812063 0.174373
Si Si5 0.440864 0.094971 0.086080
Si Si6 0.000000 0.454946 0.250000
Si Si7 0.546559 0.426086 0.908901
Si Si8 0.876187 0.970520 0.934615
O O1 0.305924 0.789305 0.662610
O O2 0.371406 0.913794 0.670390
O O3 0.277043 0.971092 0.619739
O O4 0.269271 0.913104 0.896484
O O5 0.225933 0.861072 0.192732
O O6 0.175840 0.984134 0.108790
O O7 0.500000 0.325039 0.250000
O O8 0.394872 0.309977 0.193847
O O9 0.468192 0.186161 0.121526
O O10 0.508657 0.336313 0.969194
O O11 0.846786 0.880892 0.027991
O O12 0.467252 0.015766 0.159650
O O13 0.454826 0.096583 0.897195
O O14 0.571106 0.440923 0.722254
O O15 0.500000 0.500000 0.000000
O O16 0.600915 0.455193 0.968455
#
# Coordination Sequence:
#
# PCOD9309084 Si02
#       8
#     8   8   8   8   8   4   8   8
#     4  11  25  41  70  93 130 171 225 273 326 388
#     4  12  22  46  65  91 131 175 221 279 328 376
#     4  11  22  38  62  97 132 166 209 264 328 401
#     4  11  24  42  66  96 132 171 227 268 330 395
#     4  10  22  40  66  96 125 167 215 263 324 390
#     4  10  20  42  68  88 132 164 208 270 324 376
#     4  12  22  37  64  93 132 169 205 253 329 400
#     4  12  23  41  64  96 132 175 214 264 325 399
#
# _framework density 9.8534980000000001
#
# number of rings (size 3 to 8) (size 9 to 14) (size 15 to 20)
#    0.000    0.800    4.667    3.200    0.000    2.667 
#    0.000    0.000    0.000    0.000    0.000    0.000 
#    0.000    0.000    0.000    0.000    0.000    0.000 
#
# Total GULP energy -167067.315775 kJ/mol
# GULP energy per Si atom -5568.910526 kJ/mol
# Density = 0.983107 g / cm^3
# Si number density = 9.853498 Si / 1000 Ang^3
#
#
#
# Elastic Constant Matrix: (Units=GPa)
#
#
# Indices 1 2 3 4 5 6 
#
# 1 37.7344 10.1117 -15.8319 0.0000 -4.2635 0.0000
# 2 10.1117 72.2269 -8.5925 0.0000 0.6365 0.0000
# 3 -15.8319 -8.5925 79.1493 0.0000 -20.2210 0.0000
# 4 0.0000 0.0000 0.0000 50.6354 0.0000 0.6986
# 5 -4.2635 0.6365 -20.2210 0.0000 33.1069 0.0000
# 6 0.0000 0.0000 0.0000 0.6986 0.0000 30.7907
#
#
#
# Elastic Compliance Matrix: (Units=1/GPa)
#
#
# Indices 1 2 3 4 5 6 
#
# 1 0.032037 -0.003568 0.008404 0.000000 0.009327 0.000000
# 2 -0.003568 0.014441 0.000789 0.000000 -0.000255 0.000000
# 3 0.008404 0.000789 0.017387 0.000000 0.011686 0.000000
# 4 0.000000 0.000000 0.000000 0.019755 0.000000 -0.000448
# 5 0.009327 -0.000255 0.011686 0.000000 0.038549 0.000000
# 6 0.000000 0.000000 0.000000 -0.000448 0.000000 0.032488
#
#
# Mechanical properties :
#
#
# Convention : Reuss Voigt Hill
#
# Bulk Modulus (GPa) = 13.31304 17.83169 15.57237
# Shear Modulus (GPa) = 29.68349 36.46816 33.07583
#
# Velocity S-wave (km/s) = 3.88524 4.30643 4.10125
# Velocity P-wave (km/s) = 5.18623 5.81336 5.50873
#
# Compressibility (1/GPa) = 0.07511432
#
# Stress axis : x y z
#
# Youngs Moduli (GPa) = 31.21421 69.24820 57.51552
#
# Poissons Ratio (x) = 0.24705 -0.48335
# Poissons Ratio (y) = 0.11136 -0.04537
# Poissons Ratio (z) = -0.26232 -0.05463
#
# Static dielectric constant tensor:
#      x y z
#    x 1.677190 0.000000 0.052570 
#    y 0.000000 1.899450 0.000000 
#    z 0.052570 0.000000 1.811220 
# 
# From -- ./inp_files/61898.got.cif
#   From: 2010.05.17/outbox.ucp.g08.bks.cvg/sg15_31_cif.got.tgz:61898.got - 2010.06.11 12:40:34.
