data_PCOD9309699
_publ_section_title
;
Structure prediction by ZEFSAII (Michael W. Deem and Ramdas Pophale) SiO2 
 PCOD9309699
Probable space group: C 2/C
;
_chemical_formula_sum "Si O2"
_cell_formula_units_Z 32
_cell_length_a 24.000000
_cell_length_b 9.000000
_cell_length_c 30.000000
_cell_angle_alpha 90.000000
_cell_angle_beta 150.000000
_cell_angle_gamma 90.000000
_cell_volume 3240.000000
_symmetry_space_group_name_H-M "C 2/C"
_symmetry_group_IT_number 15
_symmetry_cell_setting 'monoclinic'
loop_
_space_group_symop_operation_xyz
x,y,z
-x,y,1/2-z
-x,-y,-z
x,-y,1/2+z
1/2+x,1/2+y,z
1/2-x,1/2+y,1/2-z
1/2-x,1/2-y,-z
1/2+x,1/2-y,1/2+z
loop_
_atom_site_type_symbol
_atom_site_label
_atom_site_fract_x
_atom_site_fract_y
_atom_site_fract_z
Si Si1 0.924526 0.213282 0.030135
Si Si2 0.381481 0.382671 0.963202
Si Si3 0.689469 0.370151 0.867693
Si Si4 0.336399 0.350724 0.828218
Si Si5 0.395597 0.683872 0.842654
Si Si6 0.987920 0.213784 0.671232
Si Si7 0.470331 0.357507 0.663035
Si Si8 0.317979 0.272479 0.124763
O O1 0.937941 0.201432 0.092633
O O2 0.051566 0.248212 0.102409
O O3 0.813835 0.311085 0.944984
O O4 0.898590 0.052037 0.990810
O O5 0.335431 0.376482 0.881042
O O6 0.294901 0.307024 0.937742
O O7 0.505136 0.308823 0.051907
O O8 0.597847 0.324997 0.766599
O O9 0.624203 0.311781 0.866674
O O10 0.696491 0.549007 0.879327
O O11 0.358177 0.508932 0.818149
O O12 0.218810 0.277203 0.732359
O O13 0.462108 0.733305 0.843689
O O14 0.871775 0.269631 0.613627
O O15 0.085580 0.264657 0.772376
O O16 0.971729 0.036433 0.663334
#
# Coordination Sequence:
#
# PCOD9309699 Si02
#       8
#     8   8   8   8   8   8   8   8
#     4  11  21  37  60  85 121 158 192 243 305 346
#     4  11  23  41  59  89 121 154 195 248 300 354
#     4   9  20  35  61  90 115 154 199 243 288 356
#     4  11  25  42  61  87 118 159 203 244 291 354
#     4  11  22  42  64  84 119 161 200 243 298 350
#     4   9  16  37  63  85 113 161 192 238 295 355
#     4   9  17  36  60  84 118 156 194 234 299 355
#     4   9  19  36  64  87 118 151 199 243 293 356
#
# _framework density 9.8765429999999999
#
# number of rings (size 3 to 8) (size 9 to 14) (size 15 to 20)
#    0.000    2.000    3.750    3.375    0.000    3.500 
#    0.000    3.750    2.750    0.000    0.000    0.000 
#    0.000    0.000    0.000    0.000    0.000    0.000 
#
# Total GULP energy -178338.428587 kJ/mol
# GULP energy per Si atom -5573.075893 kJ/mol
# Density = 0.985406 g / cm^3
# Si number density = 9.876543 Si / 1000 Ang^3
#
#
#
# Elastic Constant Matrix: (Units=GPa)
#
#
# Indices 1 2 3 4 5 6 
#
# 1 77.6586 5.8277 12.4856 0.0000 21.2707 0.0000
# 2 5.8277 19.3490 10.9408 -0.0001 14.7818 0.0000
# 3 12.4856 10.9408 78.3606 -0.0001 30.5763 -0.0001
# 4 0.0000 -0.0001 -0.0001 29.6164 0.0000 12.4739
# 5 21.2707 14.7818 30.5763 0.0000 46.5244 0.0000
# 6 0.0000 0.0000 -0.0001 12.4739 0.0000 24.5492
#
#
#
# Elastic Compliance Matrix: (Units=1/GPa)
#
#
# Indices 1 2 3 4 5 6 
#
# 1 0.014741 0.000906 0.000359 0.000000 -0.007263 0.000000
# 2 0.000906 0.068424 -0.001417 0.000000 -0.021223 0.000000
# 3 0.000359 -0.001417 0.017202 0.000000 -0.011019 0.000000
# 4 0.000000 0.000000 0.000000 0.042959 0.000000 -0.021828
# 5 -0.007263 -0.021223 -0.011019 0.000000 0.038800 0.000000
# 6 0.000000 0.000000 0.000000 -0.021828 0.000000 0.051826
#
#
# Mechanical properties :
#
#
# Convention : Reuss Voigt Hill
#
# Bulk Modulus (GPa) = 9.99372 25.98626 17.98999
# Shear Modulus (GPa) = 18.68404 29.87894 24.28149
#
# Velocity S-wave (km/s) = 3.07885 3.89346 3.50987
# Velocity P-wave (km/s) = 4.20826 5.77894 5.05498
#
# Compressibility (1/GPa) = 0.10006287
#
# Stress axis : x y z
#
# Youngs Moduli (GPa) = 67.84020 14.61479 58.13334
#
# Poissons Ratio (x) = -0.01324 -0.02086
# Poissons Ratio (y) = -0.06147 0.08235
# Poissons Ratio (z) = -0.02434 0.02070
#
# Static dielectric constant tensor:
#      x y z
#    x 1.744720 0.000000 -0.015550 
#    y 0.000000 1.683850 0.000000 
#    z -0.015550 0.000000 1.715710 
# 
# From -- ./inp_files/318645.got.cif
#   From: 2010.05.17/outbox.ucp.g08.bks.cvg/sg15_160_cif.got.tgz:318645.got - 2010.06.11 12:40:34.
