data_PCOD9309003
_publ_section_title
;
Structure prediction by ZEFSAII (Michael W. Deem and Ramdas Pophale) SiO2 
 PCOD9309003
Probable space group: C 2/C
;
_chemical_formula_sum "Si O2"
_cell_formula_units_Z 30
_cell_length_a 18.000000
_cell_length_b 18.000000
_cell_length_c 18.000000
_cell_angle_alpha 90.000000
_cell_angle_beta 150.000000
_cell_angle_gamma 90.000000
_cell_volume 2916.000000
_symmetry_space_group_name_H-M "C 2/C"
_symmetry_group_IT_number 15
_symmetry_cell_setting 'monoclinic'
loop_
_space_group_symop_operation_xyz
x,y,z
-x,y,1/2-z
-x,-y,-z
x,-y,1/2+z
1/2+x,1/2+y,z
1/2-x,1/2+y,1/2-z
1/2-x,1/2-y,-z
1/2+x,1/2-y,1/2+z
loop_
_atom_site_type_symbol
_atom_site_label
_atom_site_fract_x
_atom_site_fract_y
_atom_site_fract_z
Si Si1 0.656551 0.156807 0.583757
Si Si2 0.086608 0.782536 0.115909
Si Si3 0.233115 0.175389 0.334953
Si Si4 0.731019 0.415570 0.031151
Si Si5 0.540369 0.105241 0.645038
Si Si6 0.586953 0.963231 0.899960
Si Si7 0.012500 0.927747 0.562377
Si Si8 0.000000 0.189693 0.250000
O O1 0.823654 0.185849 0.736799
O O2 0.545589 0.226502 0.479537
O O3 0.614533 0.120935 0.628840
O O4 0.640151 0.101099 0.500684
O O5 0.204794 0.733868 0.170861
O O6 0.033480 0.853092 0.021990
O O7 0.382629 0.149067 0.507906
O O8 0.098536 0.215219 0.264025
O O9 0.161666 0.101496 0.233973
O O10 0.858811 0.380381 0.194369
O O11 0.793449 0.479421 0.031670
O O12 0.609610 0.447030 0.981997
O O13 0.634812 0.355747 0.903884
O O14 0.510910 0.017558 0.632307
O O15 0.500000 0.937040 0.750000
O O16 0.000000 0.000000 0.500000
#
# Coordination Sequence:
#
# PCOD9309003 Si02
#       8
#     8   8   8   8   8   8   8   4
#     4  11  23  41  69  92 135 177 229 277 338 396
#     4  11  23  44  64  97 130 178 230 281 332 411
#     4  10  22  39  64  95 135 173 220 276 340 414
#     4  10  21  39  64  99 137 166 219 272 341 401
#     4  10  20  38  67  98 128 171 226 275 332 403
#     4  10  22  40  65 101 132 174 222 278 334 411
#     4  11  24  41  67  99 132 171 227 289 338 399
#     4  10  20  38  60  94 140 176 200 272 344 412
#
# _framework density 10.288066000000001
#
# number of rings (size 3 to 8) (size 9 to 14) (size 15 to 20)
#    0.000    1.600    4.000    0.400    1.867    4.267 
#    0.000    4.667    0.000    0.000    0.000    0.000 
#    0.000    0.000    0.000    0.000    0.000    0.000 
#
# Total GULP energy -167329.233651 kJ/mol
# GULP energy per Si atom -5577.641122 kJ/mol
# Density = 1.026465 g / cm^3
# Si number density = 10.288066 Si / 1000 Ang^3
#
#
#
# Elastic Constant Matrix: (Units=GPa)
#
#
# Indices 1 2 3 4 5 6 
#
# 1 56.7514 33.3536 23.8985 -0.0124 -10.3481 0.0042
# 2 33.3536 87.6779 43.9439 -0.0247 -20.8084 0.0052
# 3 23.8985 43.9439 153.6550 -0.0234 -13.4928 0.0050
# 4 -0.0124 -0.0247 -0.0234 -23.5985 -0.0092 24.7904
# 5 -10.3481 -20.8084 -13.4928 -0.0092 23.5707 0.0026
# 6 0.0042 0.0052 0.0050 24.7904 0.0026 -10.6025
#
#
#
# Elastic Compliance Matrix: (Units=1/GPa)
#
#
# Indices 1 2 3 4 5 6 
#
# 1 0.023044 -0.007501 -0.001192 -0.000001 0.002812 0.000003
# 2 -0.007501 0.018499 -0.003137 0.000006 0.011242 0.000022
# 3 -0.001192 -0.003137 0.007688 0.000002 0.001109 0.000005
# 4 -0.000001 0.000006 0.000002 0.029099 0.000010 0.068038
# 5 0.002812 0.011242 0.001109 0.000010 0.054220 0.000043
# 6 0.000003 0.000022 0.000005 0.068038 0.000043 0.064767
#
#
# Mechanical properties :
#
#
# Convention : Reuss Voigt Hill
#
# Bulk Modulus (GPa) = 39.10631 55.60845 47.35738
# Shear Modulus (GPa) = 21.78641 10.99982 16.39312
#
# Velocity S-wave (km/s) = 3.25748 2.31463 2.82566
# Velocity P-wave (km/s) = 5.76152 5.85045 5.80616
#
# Compressibility (1/GPa) = 0.02557132
#
# Stress axis : x y z
#
# Youngs Moduli (GPa) = 43.39505 54.05634 130.07528
#
# Poissons Ratio (x) = 0.40550 0.15503
# Poissons Ratio (y) = 0.32553 0.40800
# Poissons Ratio (z) = 0.05172 0.16956
#
# Static dielectric constant tensor:
#      x y z
#    x 1.820860 0.000000 -0.032080 
#    y 0.000000 1.741880 0.000000 
#    z -0.032080 0.000000 1.805570 
# 
# From -- ./inp_files/211764.got.cif
#   From: 2010.05.17/outbox.ucp.g08.bks.cvg/sg15_106_cif.got.tgz:211764.got - 2010.06.11 12:40:34.
