data_PCOD9309116
_publ_section_title
;
Structure prediction by ZEFSAII (Michael W. Deem and Ramdas Pophale) SiO2 
 PCOD9309116
Probable space group: C 2/C
;
_chemical_formula_sum "Si O2"
_cell_formula_units_Z 28
_cell_length_a 24.000000
_cell_length_b 15.000000
_cell_length_c 24.000000
_cell_angle_alpha 90.000000
_cell_angle_beta 20.000000
_cell_angle_gamma 90.000000
_cell_volume 2955.054038
_symmetry_space_group_name_H-M "C 2/C"
_symmetry_group_IT_number 15
_symmetry_cell_setting 'monoclinic'
loop_
_space_group_symop_operation_xyz
x,y,z
-x,y,1/2-z
-x,-y,-z
x,-y,1/2+z
1/2+x,1/2+y,z
1/2-x,1/2+y,1/2-z
1/2-x,1/2-y,-z
1/2+x,1/2-y,1/2+z
loop_
_atom_site_type_symbol
_atom_site_label
_atom_site_fract_x
_atom_site_fract_y
_atom_site_fract_z
Si Si1 0.219633 0.539068 0.215639
Si Si2 0.828814 0.401269 0.939174
Si Si3 0.266106 0.834871 0.262286
Si Si4 0.359576 0.849977 0.598829
Si Si5 0.150252 0.510047 0.971992
Si Si6 0.442142 0.622287 0.644066
Si Si7 0.414546 0.712201 0.890213
O O1 0.248208 0.432607 0.196389
O O2 0.208300 0.591315 0.285576
O O3 0.036489 0.547578 0.360812
O O4 0.382218 0.577146 0.033293
O O5 0.837836 0.309820 0.967229
O O6 0.000000 0.419320 0.750000
O O7 0.796172 0.477954 0.014203
O O8 0.705901 0.371372 0.006161
O O9 0.233945 0.742287 0.324031
O O10 0.129241 0.832346 0.343417
O O11 0.450268 0.832713 0.066821
O O12 0.355854 0.911644 0.547639
O O13 0.293997 0.558727 0.802562
O O14 0.472715 0.692654 0.664178
O O15 0.500000 0.717371 0.750000
#
# Coordination Sequence:
#
# PCOD9309116 Si02
#       7
#     8   8   8   8   8   8   8
#     4  11  23  40  56  89 122 157 208 241 298 368
#     4  10  21  38  57  81 122 155 194 256 291 356
#     4  11  23  39  59  85 127 161 201 251 292 355
#     4  11  23  40  58  89 120 162 207 246 296 366
#     4  11  22  39  59  83 122 157 202 249 300 351
#     4  12  22  36  63  86 122 170 194 241 304 357
#     4  10  21  36  54  86 117 152 204 236 290 363
#
# _framework density 9.4752919999999996
#
# number of rings (size 3 to 8) (size 9 to 14) (size 15 to 20)
#    0.000    1.143    4.286    3.000    4.000    1.143 
#    0.000    0.000    0.000    0.000    0.000   10.000 
#    0.000    0.143    0.000    0.000    0.000    0.000 
#
# Total GULP energy -156084.983408 kJ/mol
# GULP energy per Si atom -5574.463693 kJ/mol
# Density = 0.945373 g / cm^3
# Si number density = 9.475292 Si / 1000 Ang^3
#
#
#
# Elastic Constant Matrix: (Units=GPa)
#
#
# Indices 1 2 3 4 5 6 
#
# 1 62.1437 24.8581 11.1184 0.0012 -7.3573 -0.0004
# 2 24.8581 78.3044 27.7611 0.0056 4.9057 -0.0043
# 3 11.1184 27.7611 100.9643 0.0055 5.3026 -0.0054
# 4 0.0012 0.0056 0.0055 30.4195 -0.0022 -1.7909
# 5 -7.3573 4.9057 5.3026 -0.0022 25.1611 0.0012
# 6 -0.0004 -0.0043 -0.0054 -1.7909 0.0012 16.6077
#
#
#
# Elastic Compliance Matrix: (Units=1/GPa)
#
#
# Indices 1 2 3 4 5 6 
#
# 1 0.019641 -0.006408 -0.000777 0.000001 0.007156 -0.000002
# 2 -0.006408 0.016337 -0.003560 -0.000002 -0.004309 0.000003
# 3 -0.000777 -0.003560 0.011067 -0.000001 -0.001865 0.000003
# 4 0.000001 -0.000002 -0.000001 0.033084 0.000004 0.003568
# 5 0.007156 -0.004309 -0.001865 0.000004 0.043070 -0.000004
# 6 -0.000002 0.000003 0.000003 0.003568 -0.000004 0.060598
#
#
# Mechanical properties :
#
#
# Convention : Reuss Voigt Hill
#
# Bulk Modulus (GPa) = 39.13100 40.98751 40.05926
# Shear Modulus (GPa) = 23.38583 26.28265 24.83424
#
# Velocity S-wave (km/s) = 3.51671 3.72816 3.62397
# Velocity P-wave (km/s) = 6.09782 6.34096 6.22058
#
# Compressibility (1/GPa) = 0.02555519
#
# Stress axis : x y z
#
# Youngs Moduli (GPa) = 50.91311 61.21054 90.35980
#
# Poissons Ratio (x) = 0.39225 0.07019
# Poissons Ratio (y) = 0.32626 0.32169
# Poissons Ratio (z) = 0.03955 0.21791
#
# Static dielectric constant tensor:
#      x y z
#    x 1.694610 0.000000 -0.008050 
#    y 0.000000 1.683720 0.000000 
#    z -0.008050 0.000000 1.725860 
# 
# From -- ./inp_files/282083.got.cif
#   From: 2010.05.17/outbox.ucp.g08.bks.cvg/sg15_142_cif.got.tgz:282083.got - 2010.06.11 12:40:34.
