data_PCOD9309141
_publ_section_title
;
Structure prediction by ZEFSAII (Michael W. Deem and Ramdas Pophale) SiO2 
 PCOD9309141
Probable space group: C 2/C
;
_chemical_formula_sum "Si O2"
_cell_formula_units_Z 28
_cell_length_a 24.000000
_cell_length_b 12.000000
_cell_length_c 30.000000
_cell_angle_alpha 90.000000
_cell_angle_beta 160.000000
_cell_angle_gamma 90.000000
_cell_volume 2955.054038
_symmetry_space_group_name_H-M "C 2/C"
_symmetry_group_IT_number 15
_symmetry_cell_setting 'monoclinic'
loop_
_space_group_symop_operation_xyz
x,y,z
-x,y,1/2-z
-x,-y,-z
x,-y,1/2+z
1/2+x,1/2+y,z
1/2-x,1/2+y,1/2-z
1/2-x,1/2-y,-z
1/2+x,1/2-y,1/2+z
loop_
_atom_site_type_symbol
_atom_site_label
_atom_site_fract_x
_atom_site_fract_y
_atom_site_fract_z
Si Si1 0.178319 0.992680 0.576462
Si Si2 0.747978 0.713782 0.181765
Si Si3 0.102121 0.159050 0.165677
Si Si4 0.688921 0.842907 0.900087
Si Si5 0.180116 0.534933 0.648667
Si Si6 0.431971 0.086547 0.836965
Si Si7 0.387960 0.127099 0.056728
O O1 0.135182 0.878285 0.571505
O O2 0.248146 0.943068 0.583125
O O3 0.314409 0.056868 0.707448
O O4 0.039222 0.081414 0.461075
O O5 0.720137 0.691850 0.213285
O O6 0.721965 0.846503 0.156984
O O7 0.929317 0.678478 0.303641
O O8 0.040854 0.278685 0.139423
O O9 0.201480 0.070503 0.270904
O O10 0.500000 0.821721 0.750000
O O11 0.694419 0.878778 0.956197
O O12 0.784224 0.729495 0.958222
O O13 0.165561 0.556029 0.691027
O O14 0.000000 0.500000 0.500000
O O15 0.580264 0.995028 0.942020
#
# Coordination Sequence:
#
# PCOD9309141 Si02
#       7
#     8   8   8   8   8   8   8
#     4  11  22  41  65  89 123 167 218 264 319 392
#     4  10  21  37  61  89 121 166 207 261 318 374
#     4  11  23  39  61  90 129 175 204 256 332 394
#     4  11  21  38  70  94 119 165 216 269 319 362
#     4  11  24  35  54  92 129 165 210 258 315 384
#     4  10  23  39  59  88 127 167 210 265 315 390
#     4  10  21  41  62  95 125 152 215 275 309 372
#
# _framework density 9.4752919999999996
#
# number of rings (size 3 to 8) (size 9 to 14) (size 15 to 20)
#    0.000    1.429    5.714    1.286    6.000    1.143 
#    0.000    0.714    0.000    0.000    0.000    0.000 
#    0.000    0.000    0.000    0.000    0.000    0.000 
#
# Total GULP energy -156017.631245 kJ/mol
# GULP energy per Si atom -5572.058259 kJ/mol
# Density = 0.945373 g / cm^3
# Si number density = 9.475292 Si / 1000 Ang^3
#
#
#
# Elastic Constant Matrix: (Units=GPa)
#
#
# Indices 1 2 3 4 5 6 
#
# 1 81.0843 36.5131 0.1140 0.0011 1.8509 -0.0005
# 2 36.5131 189.6420 23.1807 0.0159 9.6259 -0.0031
# 3 0.1140 23.1807 35.5802 0.0320 8.6605 -0.0068
# 4 0.0011 0.0159 0.0320 30.3552 -0.0033 -2.1257
# 5 1.8509 9.6259 8.6605 -0.0033 17.4526 0.0010
# 6 -0.0005 -0.0031 -0.0068 -2.1257 0.0010 40.5833
#
#
#
# Elastic Compliance Matrix: (Units=1/GPa)
#
#
# Indices 1 2 3 4 5 6 
#
# 1 0.013622 -0.002824 0.002011 -0.000001 -0.000885 0.000000
# 2 -0.002824 0.006349 -0.003808 0.000001 -0.001313 0.000000
# 3 0.002011 -0.003808 0.034258 -0.000036 -0.015113 0.000004
# 4 -0.000001 0.000001 -0.000036 0.033065 0.000024 0.001732
# 5 -0.000885 -0.001313 -0.015113 0.000024 0.065615 -0.000003
# 6 0.000000 0.000000 0.000004 0.001732 -0.000003 0.024731
#
#
# Mechanical properties :
#
#
# Convention : Reuss Voigt Hill
#
# Bulk Modulus (GPa) = 22.22751 47.32470 34.77611
# Shear Modulus (GPa) = 24.76761 34.11147 29.43954
#
# Velocity S-wave (km/s) = 3.61911 4.24727 3.94571
# Velocity P-wave (km/s) = 5.40542 7.00566 6.25691
#
# Compressibility (1/GPa) = 0.04498929
#
# Stress axis : x y z
#
# Youngs Moduli (GPa) = 73.41214 157.50989 29.18985
#
# Poissons Ratio (x) = 0.44475 -0.05871
# Poissons Ratio (y) = 0.20729 0.11115
# Poissons Ratio (z) = -0.14767 0.59975
#
# Static dielectric constant tensor:
#      x y z
#    x 1.699590 0.000010 -0.051860 
#    y 0.000010 1.676470 -0.000020 
#    z -0.051860 -0.000020 1.713150 
# 
# From -- ./inp_files/117487.got.cif
#   From: 2010.05.17/outbox.ucp.g08.bks.cvg/sg15_59_cif.got.tgz:117487.got - 2010.06.11 12:40:34.
