data_PCOD9309079
_publ_section_title
;
Structure prediction by ZEFSAII (Michael W. Deem and Ramdas Pophale) SiO2 
 PCOD9309079
Probable space group: C 2/C
;
_chemical_formula_sum "Si O2"
_cell_formula_units_Z 24
_cell_length_a 12.000000
_cell_length_b 15.000000
_cell_length_c 21.000000
_cell_angle_alpha 90.000000
_cell_angle_beta 40.000000
_cell_angle_gamma 90.000000
_cell_volume 2429.737165
_symmetry_space_group_name_H-M "C 2/C"
_symmetry_group_IT_number 15
_symmetry_cell_setting 'monoclinic'
loop_
_space_group_symop_operation_xyz
x,y,z
-x,y,1/2-z
-x,-y,-z
x,-y,1/2+z
1/2+x,1/2+y,z
1/2-x,1/2+y,1/2-z
1/2-x,1/2-y,-z
1/2+x,1/2-y,1/2+z
loop_
_atom_site_type_symbol
_atom_site_label
_atom_site_fract_x
_atom_site_fract_y
_atom_site_fract_z
Si Si1 0.970266 0.308172 0.527743
Si Si2 0.771471 0.099603 0.968690
Si Si3 0.368567 0.630953 0.631741
Si Si4 0.160804 0.498862 0.136623
Si Si5 0.289961 0.531297 0.343450
Si Si6 0.080785 0.389728 0.348801
O O1 0.916775 0.207452 0.561539
O O2 0.814359 0.376101 0.613488
O O3 0.137585 0.328831 0.499092
O O4 0.020341 0.330653 0.433768
O O5 0.974221 0.120311 0.887118
O O6 0.748972 0.018116 0.928524
O O7 0.725298 0.074400 0.061117
O O8 0.305109 0.544373 0.619655
O O9 0.204331 0.659987 0.745375
O O10 0.000000 0.529585 0.250000
O O11 0.076568 0.427101 0.124719
O O12 0.500000 0.538704 0.250000
O O13 0.199051 0.469188 0.328798
#
# Coordination Sequence:
#
# PCOD9309079 Si02
#       6
#     8   8   8   8   8   8
#     4  11  23  40  63  90 118 155 198 257 289 337
#     4  11  20  42  62  87 120 158 205 238 289 364
#     4  11  24  38  60  92 126 154 191 249 306 344
#     4  10  21  39  63  83 124 163 193 239 298 358
#     4  11  20  38  71  86 110 156 211 243 278 362
#     4  10  20  42  61  86 120 161 195 241 300 351
#
# _framework density 9.8776119999999992
#
# number of rings (size 3 to 8) (size 9 to 14) (size 15 to 20)
#    0.000    1.333    5.000    2.000    0.000    2.667 
#    6.000    0.000    0.000    0.000    0.000    0.000 
#    0.000    0.000    0.000    0.000    0.000    0.000 
#
# Total GULP energy -133908.556478 kJ/mol
# GULP energy per Si atom -5579.523187 kJ/mol
# Density = 0.985513 g / cm^3
# Si number density = 9.877612 Si / 1000 Ang^3
#
#
#
# Elastic Constant Matrix: (Units=GPa)
#
#
# Indices 1 2 3 4 5 6 
#
# 1 72.4129 -16.1013 -1.6937 0.0000 -7.0600 0.0000
# 2 -16.1013 -0.2218 -0.0784 0.0000 0.7642 0.0000
# 3 -1.6937 -0.0784 67.2659 -0.0002 11.0013 0.0000
# 4 0.0000 0.0000 -0.0002 22.2611 0.0001 0.9581
# 5 -7.0600 0.7642 11.0013 0.0001 34.7127 0.0000
# 6 0.0000 0.0000 0.0000 0.9581 0.0000 17.1011
#
#
#
# Elastic Compliance Matrix: (Units=1/GPa)
#
#
# Indices 1 2 3 4 5 6 
#
# 1 0.000886 -0.058780 -0.000303 0.000000 0.001570 0.000000
# 2 -0.058780 -0.261664 -0.000814 -0.000001 -0.005936 0.000000
# 3 -0.000303 -0.000814 0.015678 0.000000 -0.005012 0.000000
# 4 0.000000 -0.000001 0.000000 0.045030 0.000000 -0.002523
# 5 0.001570 -0.005936 -0.005012 0.000000 0.030846 0.000000
# 6 0.000000 0.000000 0.000000 -0.002523 0.000000 0.058617
#
#
# Mechanical properties :
#
#
# Convention : Reuss Voigt Hill
#
# Bulk Modulus (GPa) = -2.74051 11.52336 4.39142
# Shear Modulus (GPa) = -44.46612 25.30368 -9.58122
#
# Velocity S-wave (km/s) = -4.74946 3.58279 -2.20465
# Velocity P-wave (km/s) = 5.60953 4.79176 2.06226
#
# Compressibility (1/GPa) = -0.36489494
#
# Stress axis : x y z
#
# Youngs Moduli (GPa) = 1129.04982 -3.82169 63.78549
#
# Poissons Ratio (x) = -0.22464 0.01933
# Poissons Ratio (y) = 66.36559 0.05192
# Poissons Ratio (z) = 0.34208 -0.00311
#
# Static dielectric constant tensor:
#      x y z
#    x 1.673830 0.000000 -0.022770 
#    y 0.000000 1.683640 0.000000 
#    z -0.022770 0.000000 1.739330 
# 
# From -- ./inp_files/143427.got.cif
#   From: 2010.05.17/outbox.ucp.g08.bks.cvg/sg15_72_cif.got.tgz:143427.got - 2010.06.11 12:40:34.
