data_PCOD9309728
_publ_section_title
;
Structure prediction by ZEFSAII (Michael W. Deem and Ramdas Pophale) SiO2 
 PCOD9309728
Probable space group: C 2/C
;
_chemical_formula_sum "Si O2"
_cell_formula_units_Z 30
_cell_length_a 12.000000
_cell_length_b 27.000000
_cell_length_c 18.000000
_cell_angle_alpha 90.000000
_cell_angle_beta 30.000000
_cell_angle_gamma 90.000000
_cell_volume 2916.000000
_symmetry_space_group_name_H-M "C 2/C"
_symmetry_group_IT_number 15
_symmetry_cell_setting 'monoclinic'
loop_
_space_group_symop_operation_xyz
x,y,z
-x,y,1/2-z
-x,-y,-z
x,-y,1/2+z
1/2+x,1/2+y,z
1/2-x,1/2+y,1/2-z
1/2-x,1/2-y,-z
1/2+x,1/2-y,1/2+z
loop_
_atom_site_type_symbol
_atom_site_label
_atom_site_fract_x
_atom_site_fract_y
_atom_site_fract_z
Si Si1 0.230240 0.301850 0.165757
Si Si2 0.010177 0.362281 0.406413
Si Si3 0.227228 0.424958 0.071207
Si Si4 0.115253 0.139753 0.376891
Si Si5 0.813342 0.542050 0.619962
Si Si6 0.715739 0.306788 0.676849
Si Si7 0.157318 0.033358 0.545590
Si Si8 0.500000 0.901192 0.750000
O O1 0.207830 0.343734 0.240642
O O2 0.239082 0.247832 0.195905
O O3 0.000000 0.304407 0.250000
O O4 0.451383 0.314927 0.992852
O O5 0.074082 0.407913 0.419276
O O6 0.817161 0.382734 0.464167
O O7 0.922263 0.317184 0.504632
O O8 0.000000 0.426937 0.250000
O O9 0.453614 0.407808 0.980043
O O10 0.266884 0.477270 0.011289
O O11 0.189195 0.149648 0.250447
O O12 0.340689 0.132357 0.291526
O O13 0.714931 0.549363 0.595392
O O14 0.614692 0.532513 0.795010
O O15 0.000000 0.500000 0.500000
O O16 0.500000 0.306156 0.750000
O O17 0.317549 0.065626 0.399889
#
# Coordination Sequence:
#
# PCOD9309728 Si02
#       8
#     8   8   8   8   8   8   8   4
#     4  11  21  41  66 100 132 164 215 277 347 400
#     4  12  21  39  63  94 135 167 204 272 339 395
#     4  12  23  39  67  97 128 171 222 276 337 388
#     4  12  24  42  64  95 131 171 225 268 333 401
#     4  11  25  41  65  95 132 176 225 271 331 399
#     4  11  23  37  68 102 128 161 213 286 346 394
#     4  11  26  43  61  93 133 177 230 272 319 391
#     4  12  28  44  64  90 134 188 226 268 318 398
#
# _framework density 10.288066000000001
#
# number of rings (size 3 to 8) (size 9 to 14) (size 15 to 20)
#    0.000    0.533    6.000    2.400    3.733    2.667 
#    0.000    0.667    0.000    3.200    0.000    0.000 
#    0.000    0.000    0.000    0.000    0.000    0.000 
#
# Total GULP energy -167261.937426 kJ/mol
# GULP energy per Si atom -5575.397914 kJ/mol
# Density = 1.026465 g / cm^3
# Si number density = 10.288066 Si / 1000 Ang^3
#
#
#
# Elastic Constant Matrix: (Units=GPa)
#
#
# Indices 1 2 3 4 5 6 
#
# 1 66.2396 30.1539 27.8982 -0.0056 -13.2825 -0.0012
# 2 30.1539 80.4111 27.0452 0.0037 2.5965 -0.0051
# 3 27.8982 27.0452 104.9799 -0.0429 1.2020 -0.0129
# 4 -0.0056 0.0037 -0.0429 28.9515 0.0163 11.3177
# 5 -13.2825 2.5965 1.2020 0.0163 26.9713 -0.0061
# 6 -0.0012 -0.0051 -0.0129 11.3177 -0.0061 15.0384
#
#
#
# Elastic Compliance Matrix: (Units=1/GPa)
#
#
# Indices 1 2 3 4 5 6 
#
# 1 0.022717 -0.007481 -0.004248 -0.000011 0.012097 0.000009
# 2 -0.007481 0.016115 -0.002105 -0.000006 -0.005142 0.000005
# 3 -0.004248 -0.002105 0.011224 0.000020 -0.002390 -0.000008
# 4 -0.000011 -0.000006 0.000020 0.048938 -0.000044 -0.036831
# 5 0.012097 -0.005142 -0.002390 -0.000044 0.043635 0.000048
# 6 0.000009 0.000005 -0.000008 -0.036831 0.000048 0.094215
#
#
# Mechanical properties :
#
#
# Convention : Reuss Voigt Hill
#
# Bulk Modulus (GPa) = 44.66474 46.86945 45.76709
# Shear Modulus (GPa) = 18.38401 25.29447 21.83924
#
# Velocity S-wave (km/s) = 2.99233 3.50996 3.26143
# Velocity P-wave (km/s) = 5.80456 6.26533 6.03934
#
# Compressibility (1/GPa) = 0.02238903
#
# Stress axis : x y z
#
# Youngs Moduli (GPa) = 44.01990 62.05311 89.09284
#
# Poissons Ratio (x) = 0.46419 0.37850
# Poissons Ratio (y) = 0.32929 0.18753
# Poissons Ratio (z) = 0.18701 0.13061
#
# Static dielectric constant tensor:
#      x y z
#    x 1.815040 -0.000010 0.076650 
#    y -0.000010 1.722650 -0.000090 
#    z 0.076650 -0.000090 1.903570 
# 
# From -- ./inp_files/201244.got.cif
#   From: 2010.05.17/outbox.ucp.g08.bks.cvg/sg15_101_cif.got.tgz:201244.got - 2010.06.11 12:40:34.
