data_PCOD9309837
_publ_section_title
;
Structure prediction by ZEFSAII (Michael W. Deem and Ramdas Pophale) SiO2 
 PCOD9309837
Probable space group: C 2/C
;
_chemical_formula_sum "Si O2"
_cell_formula_units_Z 30
_cell_length_a 9.000000
_cell_length_b 24.000000
_cell_length_c 27.000000
_cell_angle_alpha 90.000000
_cell_angle_beta 30.000000
_cell_angle_gamma 90.000000
_cell_volume 2916.000000
_symmetry_space_group_name_H-M "C 2/C"
_symmetry_group_IT_number 15
_symmetry_cell_setting 'monoclinic'
loop_
_space_group_symop_operation_xyz
x,y,z
-x,y,1/2-z
-x,-y,-z
x,-y,1/2+z
1/2+x,1/2+y,z
1/2-x,1/2+y,1/2-z
1/2-x,1/2-y,-z
1/2+x,1/2-y,1/2+z
loop_
_atom_site_type_symbol
_atom_site_label
_atom_site_fract_x
_atom_site_fract_y
_atom_site_fract_z
Si Si1 0.020473 0.562532 0.392713
Si Si2 0.703152 0.654921 0.112320
Si Si3 0.507199 0.443978 0.391565
Si Si4 0.158049 0.311148 0.397431
Si Si5 0.256846 0.564412 0.210590
Si Si6 0.726996 0.059919 0.866621
Si Si7 0.348075 0.767268 0.207664
Si Si8 0.500000 0.150590 0.750000
O O1 0.166377 0.616599 0.379348
O O2 0.137788 0.560488 0.302060
O O3 0.081783 0.500641 0.398057
O O4 0.668982 0.564524 0.506188
O O5 0.534598 0.606175 0.130504
O O6 0.457703 0.704626 0.192097
O O7 0.959681 0.684818 0.004900
O O8 0.658586 0.504220 0.337680
O O9 0.291147 0.439644 0.406653
O O10 0.728174 0.392241 0.323590
O O11 0.131523 0.375693 0.385758
O O12 0.494494 0.286835 0.311775
O O13 0.064298 0.275898 0.375621
O O14 0.000000 0.588359 0.250000
O O15 0.000000 0.055908 0.750000
O O16 0.506706 0.809920 0.199800
#
# Coordination Sequence:
#
# PCOD9309837 Si02
#       8
#     8   8   8   8   8   8   8   4
#     4  12  25  43  75 103 135 192 230 283 358 427
#     4  12  25  47  71  99 144 184 235 286 349 423
#     4  12  23  44  69 104 140 173 237 286 350 419
#     4  11  23  46  72 103 130 190 238 285 346 412
#     4  12  28  44  68 110 148 178 222 302 364 411
#     4  12  18  39  73  99 132 175 235 283 330 421
#     4  11  26  43  71  99 137 186 241 285 335 416
#     4  12  24  46  64 100 136 182 232 294 340 408
#
# _framework density 10.288066000000001
#
# number of rings (size 3 to 8) (size 9 to 14) (size 15 to 20)
#    0.000    0.267    7.333    2.000    3.733    1.600 
#    2.400    1.333    0.000    0.000    0.000    0.000 
#    0.000    0.000    0.000    0.000    0.000    0.000 
#
# Total GULP energy -167210.776214 kJ/mol
# GULP energy per Si atom -5573.692540 kJ/mol
# Density = 1.026465 g / cm^3
# Si number density = 10.288066 Si / 1000 Ang^3
#
#
#
# Elastic Constant Matrix: (Units=GPa)
#
#
# Indices 1 2 3 4 5 6 
#
# 1 77.8189 20.1850 16.4989 0.0260 3.9665 0.0006
# 2 20.1850 141.0142 21.1093 0.0946 -11.1340 0.0940
# 3 16.4989 21.1093 96.2234 0.3459 13.2682 0.2814
# 4 0.0260 0.0946 0.3459 36.1031 0.1894 -0.3303
# 5 3.9665 -11.1340 13.2682 0.1894 17.4505 0.0501
# 6 0.0006 0.0940 0.2814 -0.3303 0.0501 34.3215
#
#
#
# Elastic Compliance Matrix: (Units=1/GPa)
#
#
# Indices 1 2 3 4 5 6 
#
# 1 0.013857 -0.002025 -0.001474 0.000027 -0.003322 0.000022
# 2 -0.002025 0.008376 -0.002559 -0.000037 0.007751 -0.000014
# 3 -0.001474 -0.002559 0.012719 -0.000057 -0.010968 -0.000082
# 4 0.000027 -0.000037 -0.000057 0.027703 -0.000287 0.000268
# 5 -0.003322 0.007751 -0.010968 -0.000287 0.071348 -0.000038
# 6 0.000022 -0.000014 -0.000082 0.000268 -0.000038 0.029140
#
#
# Mechanical properties :
#
#
# Convention : Reuss Voigt Hill
#
# Bulk Modulus (GPa) = 43.78841 47.84922 45.81881
# Shear Modulus (GPa) = 27.34152 34.72592 31.03372
#
# Velocity S-wave (km/s) = 3.64922 4.11259 3.88782
# Velocity P-wave (km/s) = 6.25165 6.77174 6.51689
#
# Compressibility (1/GPa) = 0.02283709
#
# Stress axis : x y z
#
# Youngs Moduli (GPa) = 72.16333 119.38211 78.62026
#
# Poissons Ratio (x) = 0.24178 0.11588
# Poissons Ratio (y) = 0.14615 0.20119
# Poissons Ratio (z) = 0.10636 0.30549
#
# Static dielectric constant tensor:
#      x y z
#    x 1.757040 -0.000110 -0.038010 
#    y -0.000110 1.770420 0.000140 
#    z -0.038010 0.000140 1.836440 
# 
# From -- ./inp_files/290253.got.cif
#   From: 2010.05.17/outbox.ucp.g08.bks.cvg/sg15_146_cif.got.tgz:290253.got - 2010.06.11 12:40:34.
