data_PCOD9309287
_publ_section_title
;
Structure prediction by ZEFSAII (Michael W. Deem and Ramdas Pophale) SiO2 
 PCOD9309287
Probable space group: C 2/C
;
_chemical_formula_sum "Si O2"
_cell_formula_units_Z 30
_cell_length_a 9.000000
_cell_length_b 27.000000
_cell_length_c 24.000000
_cell_angle_alpha 90.000000
_cell_angle_beta 150.000000
_cell_angle_gamma 90.000000
_cell_volume 2916.000000
_symmetry_space_group_name_H-M "C 2/C"
_symmetry_group_IT_number 15
_symmetry_cell_setting 'monoclinic'
loop_
_space_group_symop_operation_xyz
x,y,z
-x,y,1/2-z
-x,-y,-z
x,-y,1/2+z
1/2+x,1/2+y,z
1/2-x,1/2+y,1/2-z
1/2-x,1/2-y,-z
1/2+x,1/2-y,1/2+z
loop_
_atom_site_type_symbol
_atom_site_label
_atom_site_fract_x
_atom_site_fract_y
_atom_site_fract_z
Si Si1 0.109551 0.089163 0.920507
Si Si2 0.924341 0.006300 0.290467
Si Si3 0.179796 0.627726 0.620845
Si Si4 0.651308 0.698001 0.148807
Si Si5 0.000000 0.355628 0.250000
Si Si6 0.758857 0.540654 0.084183
Si Si7 0.897437 0.293105 0.105789
Si Si8 0.056553 0.910061 0.915568
O O1 0.789374 0.112114 0.830356
O O2 0.286538 0.124863 0.935102
O O3 0.055255 0.040067 0.866296
O O4 0.252500 0.073405 0.025728
O O5 0.573447 0.013055 0.187898
O O6 0.000000 0.004029 0.250000
O O7 0.062327 0.054042 0.365124
O O8 0.500000 0.613612 0.750000
O O9 0.088745 0.679698 0.619093
O O10 0.898063 0.594148 0.547378
O O11 0.535501 0.738920 0.154188
O O12 0.559516 0.643692 0.139081
O O13 0.000000 0.701626 0.250000
O O14 0.441621 0.706845 0.026189
O O15 0.068525 0.323070 0.326623
O O16 0.667928 0.572086 0.109035
O O17 0.500000 0.500000 0.000000
#
# Coordination Sequence:
#
# PCOD9309287 Si02
#       8
#     8   8   8   8   4   8   8   8
#     4  12  25  38  68  94 132 171 221 272 336 386
#     4  12  27  42  63  94 136 178 224 271 325 401
#     4  11  22  40  67  96 129 167 214 272 334 389
#     4  10  21  42  75  93 127 180 218 267 338 402
#     4  12  24  42  64 106 128 168 218 290 328 402
#     4  12  25  42  64  94 134 176 222 274 324 391
#     4  10  23  43  69 102 131 165 223 277 339 402
#     4  11  25  45  66  95 132 178 224 267 332 402
#
# _framework density 10.288066000000001
#
# number of rings (size 3 to 8) (size 9 to 14) (size 15 to 20)
#    0.000    0.800    2.667    5.200    3.733    1.067 
#    1.200    0.667    5.867    0.000    0.000    0.000 
#    0.000    0.000    0.000    0.000    0.000    0.000 
#
# Total GULP energy -167730.669942 kJ/mol
# GULP energy per Si atom -5591.022331 kJ/mol
# Density = 1.026465 g / cm^3
# Si number density = 10.288066 Si / 1000 Ang^3
#
#
#
# Elastic Constant Matrix: (Units=GPa)
#
#
# Indices 1 2 3 4 5 6 
#
# 1 100.8196 35.5914 -1.2246 0.0041 -4.7184 -0.0020
# 2 35.5914 119.9085 9.1514 0.0027 -5.7045 -0.0021
# 3 -1.2246 9.1514 75.3154 0.0108 22.3131 -0.0041
# 4 0.0041 0.0027 0.0108 12.9784 0.0049 1.8065
# 5 -4.7184 -5.7045 22.3131 0.0049 43.9646 -0.0031
# 6 -0.0020 -0.0021 -0.0041 1.8065 -0.0031 10.4867
#
#
#
# Elastic Compliance Matrix: (Units=1/GPa)
#
#
# Indices 1 2 3 4 5 6 
#
# 1 0.011116 -0.003305 0.000419 -0.000004 0.000552 0.000002
# 2 -0.003305 0.009537 -0.001735 0.000000 0.001763 0.000001
# 3 0.000419 -0.001735 0.015946 -0.000011 -0.008273 0.000005
# 4 -0.000004 0.000000 -0.000011 0.078944 -0.000005 -0.013600
# 5 0.000552 0.001763 -0.008273 -0.000005 0.027232 0.000006
# 6 0.000002 0.000001 0.000005 -0.013600 0.000006 0.097701
#
#
# Mechanical properties :
#
#
# Convention : Reuss Voigt Hill
#
# Bulk Modulus (GPa) = 36.55367 42.56447 39.55907
# Shear Modulus (GPa) = 19.31703 30.32098 24.81900
#
# Velocity S-wave (km/s) = 3.06732 3.84291 3.47681
# Velocity P-wave (km/s) = 5.50893 6.35782 5.94854
#
# Compressibility (1/GPa) = 0.02735703
#
# Stress axis : x y z
#
# Youngs Moduli (GPa) = 89.95669 104.85389 62.71107
#
# Poissons Ratio (x) = 0.34658 -0.02627
# Poissons Ratio (y) = 0.29734 0.10880
# Poissons Ratio (z) = -0.03769 0.18192
#
# Static dielectric constant tensor:
#      x y z
#    x 1.709330 0.000000 -0.019790 
#    y 0.000000 1.776990 0.000000 
#    z -0.019790 0.000000 1.786850 
# 
# From -- ./inp_files/266666.got.cif
#   From: 2010.05.17/outbox.ucp.g08.bks.cvg/sg15_134_cif.got.tgz:266666.got - 2010.06.11 12:40:34.
