data_PCOD9309795
_publ_section_title
;
Structure prediction by ZEFSAII (Michael W. Deem and Ramdas Pophale) SiO2 
 PCOD9309795
Probable space group: C 2/C
;
_chemical_formula_sum "Si O2"
_cell_formula_units_Z 24
_cell_length_a 18.000000
_cell_length_b 15.000000
_cell_length_c 18.000000
_cell_angle_alpha 90.000000
_cell_angle_beta 150.000000
_cell_angle_gamma 90.000000
_cell_volume 2430.000000
_symmetry_space_group_name_H-M "C 2/C"
_symmetry_group_IT_number 15
_symmetry_cell_setting 'monoclinic'
loop_
_space_group_symop_operation_xyz
x,y,z
-x,y,1/2-z
-x,-y,-z
x,-y,1/2+z
1/2+x,1/2+y,z
1/2-x,1/2+y,1/2-z
1/2-x,1/2-y,-z
1/2+x,1/2-y,1/2+z
loop_
_atom_site_type_symbol
_atom_site_label
_atom_site_fract_x
_atom_site_fract_y
_atom_site_fract_z
Si Si1 0.810200 0.507937 0.965848
Si Si2 0.473776 0.825320 0.872657
Si Si3 0.300089 0.316785 0.978324
Si Si4 0.500000 0.446393 0.250000
Si Si5 0.023725 0.752048 0.688618
Si Si6 0.814601 0.671734 0.390654
Si Si7 0.500000 0.918462 0.250000
O O1 0.631490 0.510184 0.815585
O O2 0.846754 0.429308 0.941131
O O3 0.877551 0.476213 0.103005
O O4 0.903547 0.595791 0.026038
O O5 0.572567 0.736768 0.953982
O O6 0.347072 0.836084 0.698426
O O7 0.386752 0.817220 0.873861
O O8 0.392116 0.393424 0.099665
O O9 0.250000 0.250000 0.000000
O O10 0.142108 0.804875 0.743822
O O11 0.072977 0.651332 0.755019
O O12 0.000000 0.795009 0.750000
O O13 0.881644 0.733587 0.514670
#
# Coordination Sequence:
#
# PCOD9309795 Si02
#       7
#     8   8   8   4   8   8   4
#     4  11  23  38  58  91 126 157 198 250 310 359
#     4  12  23  40  62  89 128 154 200 253 312 365
#     4  12  22  41  65  90 114 163 211 253 298 357
#     4  12  24  36  64  92 114 158 210 260 290 360
#     4   9  20  38  62  87 115 158 212 238 284 357
#     4  11  23  39  62  92 123 163 194 251 311 357
#     4   8  20  36  62  84 116 162 200 250 288 348
#
# _framework density 9.8765429999999999
#
# number of rings (size 3 to 8) (size 9 to 14) (size 15 to 20)
#    0.500    0.667    3.333    3.000    1.167    0.000 
#    0.000    0.833    0.000    0.000    0.000    0.000 
#    0.000    0.000    0.000    0.000    0.000    0.000 
#
# Total GULP energy -133629.425882 kJ/mol
# GULP energy per Si atom -5567.892745 kJ/mol
# Density = 0.985406 g / cm^3
# Si number density = 9.876543 Si / 1000 Ang^3
#
#
#
# Elastic Constant Matrix: (Units=GPa)
#
#
# Indices 1 2 3 4 5 6 
#
# 1 111.4727 18.1839 17.8359 0.0046 11.2026 0.0065
# 2 18.1839 36.7687 2.0008 0.0017 4.3065 0.0022
# 3 17.8359 2.0008 67.8565 0.0106 8.4493 0.0152
# 4 0.0046 0.0017 0.0106 -289.8824 0.0047 -462.0527
# 5 11.2026 4.3065 8.4493 0.0047 21.9659 0.0066
# 6 0.0065 0.0022 0.0152 -462.0527 0.0066 -681.1703
#
#
#
# Elastic Compliance Matrix: (Units=1/GPa)
#
#
# Indices 1 2 3 4 5 6 
#
# 1 0.010430 -0.004621 -0.002159 0.000000 -0.003583 0.000000
# 2 -0.004621 0.029885 0.000808 0.000000 -0.003813 0.000000
# 3 -0.002159 0.000808 0.015926 0.000000 -0.005183 0.000000
# 4 0.000000 0.000000 0.000000 0.042484 0.000000 -0.028818
# 5 -0.003583 -0.003813 -0.005183 0.000000 0.050094 0.000001
# 6 0.000000 0.000000 0.000000 -0.028818 0.000001 0.018080
#
#
# Mechanical properties :
#
#
# Convention : Reuss Voigt Hill
#
# Bulk Modulus (GPa) = 22.57471 32.45989 27.51730
# Shear Modulus (GPa) = 25.82525 -177.94553 -76.06014
#
# Velocity S-wave (km/s) = 3.61973 -9.50160 -6.21201
# Velocity P-wave (km/s) = 5.37802 10.19340 6.12300
#
# Compressibility (1/GPa) = 0.04429735
#
# Stress axis : x y z
#
# Youngs Moduli (GPa) = 95.87594 33.46157 62.78998
#
# Poissons Ratio (x) = 0.15463 0.13557
# Poissons Ratio (y) = 0.44305 -0.05075
# Poissons Ratio (z) = 0.20701 -0.02705
#
# Static dielectric constant tensor:
#      x y z
#    x 1.818270 0.000000 -0.017770 
#    y 0.000000 1.768590 0.000000 
#    z -0.017770 0.000000 1.669130 
# 
# From -- ./inp_files/66442.got.cif
#   From: 2010.05.17/outbox.ucp.g08.bks.cvg/sg15_34_cif.got.tgz:66442.got - 2010.06.11 12:40:34.
