data_PCOD9309382
_publ_section_title
;
Structure prediction by ZEFSAII (Michael W. Deem and Ramdas Pophale) SiO2 
 PCOD9309382
Probable space group: C 2/C
;
_chemical_formula_sum "Si O2"
_cell_formula_units_Z 20
_cell_length_a 24.000000
_cell_length_b 9.000000
_cell_length_c 30.000000
_cell_angle_alpha 90.000000
_cell_angle_beta 160.000000
_cell_angle_gamma 90.000000
_cell_volume 2216.290529
_symmetry_space_group_name_H-M "C 2/C"
_symmetry_group_IT_number 15
_symmetry_cell_setting 'monoclinic'
loop_
_space_group_symop_operation_xyz
x,y,z
-x,y,1/2-z
-x,-y,-z
x,-y,1/2+z
1/2+x,1/2+y,z
1/2-x,1/2+y,1/2-z
1/2-x,1/2-y,-z
1/2+x,1/2-y,1/2+z
loop_
_atom_site_type_symbol
_atom_site_label
_atom_site_fract_x
_atom_site_fract_y
_atom_site_fract_z
Si Si1 0.023588 0.895911 0.450838
Si Si2 0.892631 0.444919 0.513596
Si Si3 0.133028 0.069504 0.250264
Si Si4 0.144259 0.871527 0.891954
Si Si5 0.765710 0.408670 0.194606
O O1 0.082700 0.735081 0.474885
O O2 0.882182 0.874349 0.381979
O O3 0.174916 0.987834 0.588256
O O4 0.928812 0.994668 0.342199
O O5 0.795803 0.499710 0.395821
O O6 0.769381 0.518578 0.458931
O O7 0.074643 0.510732 0.662501
O O8 0.169373 0.246889 0.273089
O O9 0.975022 0.045583 0.163142
O O10 0.000000 0.807961 0.750000
O O11 0.250000 0.750000 0.000000
#
# Coordination Sequence:
#
# PCOD9309382 Si02
#       5
#     8   8   8   8   8
#     4  11  25  40  62  98 130 167 215 266 326 375
#     4  11  23  41  63  93 131 162 214 276 314 377
#     4  11  23  41  66  90 125 170 215 261 320 390
#     4  10  22  40  66  92 120 163 218 258 317 390
#     4  11  23  41  65  93 129 173 214 260 322 394
#
# _framework density 9.0240880000000008
#
# number of rings (size 3 to 8) (size 9 to 14) (size 15 to 20)
#    0.000    1.200    2.000    3.600    2.800    7.200 
#    0.000    2.000    0.000    0.000    0.000    0.000 
#    0.000    0.000    0.000    0.000    0.000    0.000 
#
# Total GULP energy -111378.932509 kJ/mol
# GULP energy per Si atom -5568.946625 kJ/mol
# Density = 0.900355 g / cm^3
# Si number density = 9.024088 Si / 1000 Ang^3
#
#
#
# Elastic Constant Matrix: (Units=GPa)
#
#
# Indices 1 2 3 4 5 6 
#
# 1 86.7358 38.1701 37.9483 -0.0009 -0.5429 0.0001
# 2 38.1701 158.0285 69.5622 0.0042 -10.5926 0.0005
# 3 37.9483 69.5622 186.5482 0.0181 -14.6050 0.0011
# 4 -0.0009 0.0042 0.0181 50.1126 0.0008 -5.2649
# 5 -0.5429 -10.5926 -14.6050 0.0008 45.1435 0.0000
# 6 0.0001 0.0005 0.0011 -5.2649 0.0000 35.9307
#
#
#
# Elastic Compliance Matrix: (Units=1/GPa)
#
#
# Indices 1 2 3 4 5 6 
#
# 1 0.013443 -0.002485 -0.001889 0.000001 -0.001032 0.000000
# 2 -0.002485 0.008065 -0.002417 0.000000 0.001080 0.000000
# 3 -0.001889 -0.002417 0.006771 -0.000002 0.001601 -0.000001
# 4 0.000001 0.000000 -0.000002 0.020267 -0.000001 0.002970
# 5 -0.001032 0.001080 0.001601 -0.000001 0.022911 0.000000
# 6 0.000000 0.000000 -0.000001 0.002970 0.000000 0.028267
#
#
# Mechanical properties :
#
#
# Convention : Reuss Voigt Hill
#
# Bulk Modulus (GPa) = 68.04008 80.29709 74.16858
# Shear Modulus (GPa) = 42.30000 45.27948 43.78974
#
# Velocity S-wave (km/s) = 4.84646 5.01424 4.93106
# Velocity P-wave (km/s) = 8.31255 8.83801 8.57931
#
# Compressibility (1/GPa) = 0.01469722
#
# Stress axis : x y z
#
# Youngs Moduli (GPa) = 74.39013 123.99946 147.67872
#
# Poissons Ratio (x) = 0.30810 0.27894
# Poissons Ratio (y) = 0.18484 0.35697
# Poissons Ratio (z) = 0.14051 0.29973
#
# Static dielectric constant tensor:
#      x y z
#    x 1.692080 0.000000 -0.019450 
#    y 0.000000 1.617030 0.000000 
#    z -0.019450 0.000000 1.618960 
# 
# From -- ./inp_files/60066.got.cif
#   From: 2010.05.17/outbox.ucp.g08.bks.cvg/sg15_31_cif.got.tgz:60066.got - 2010.06.11 12:40:34.
