data_PCOD9309579
_publ_section_title
;
Structure prediction by ZEFSAII (Michael W. Deem and Ramdas Pophale) SiO2 
 PCOD9309579
Probable space group: C 2/C
;
_chemical_formula_sum "Si O2"
_cell_formula_units_Z 22
_cell_length_a 30.000000
_cell_length_b 9.000000
_cell_length_c 9.000000
_cell_angle_alpha 90.000000
_cell_angle_beta 60.000000
_cell_angle_gamma 90.000000
_cell_volume 2104.441731
_symmetry_space_group_name_H-M "C 2/C"
_symmetry_group_IT_number 15
_symmetry_cell_setting 'monoclinic'
loop_
_space_group_symop_operation_xyz
x,y,z
-x,y,1/2-z
-x,-y,-z
x,-y,1/2+z
1/2+x,1/2+y,z
1/2-x,1/2+y,1/2-z
1/2-x,1/2-y,-z
1/2+x,1/2-y,1/2+z
loop_
_atom_site_type_symbol
_atom_site_label
_atom_site_fract_x
_atom_site_fract_y
_atom_site_fract_z
Si Si1 0.797535 0.168775 0.995173
Si Si2 0.796573 0.152753 0.349850
Si Si3 0.500000 0.470105 0.750000
Si Si4 0.520590 0.703007 0.965359
Si Si5 0.896149 0.380097 0.835780
Si Si6 0.404013 0.184192 0.669294
O O1 0.788342 0.151516 0.186345
O O2 0.750000 0.250000 0.000000
O O3 0.848739 0.268483 0.883647
O O4 0.798291 0.008473 0.919369
O O5 0.750000 0.250000 0.500000
O O6 0.855150 0.210009 0.269644
O O7 0.524275 0.577841 0.831701
O O8 0.538489 0.368972 0.590130
O O9 0.554855 0.832501 0.844410
O O10 0.461228 0.748009 0.094072
O O11 0.889339 0.548950 0.800720
O O12 0.905770 0.368164 0.994788
#
# Coordination Sequence:
#
# PCOD9309579 Si02
#       6
#     8   8   4   8   8   8
#     4  11  25  44  68  97 128 169 214 265 320 380
#     4  11  25  44  68  97 128 169 214 265 320 380
#     4  10  24  38  66  92 136 162 212 262 316 378
#     4  11  23  42  63  96 131 167 212 259 321 376
#     4  11  25  42  65  94 131 169 214 261 317 379
#     4  11  25  42  65  94 131 169 214 261 317 379
#
# _framework density 10.454079
#
# number of rings (size 3 to 8) (size 9 to 14) (size 15 to 20)
#    0.000    1.091    1.818    2.727    7.636    5.818 
#    0.000    0.000    0.000    0.000    0.000    0.000 
#    0.000    0.000    0.000    0.000    0.000    0.000 
#
# Total GULP energy -122854.163097 kJ/mol
# GULP energy per Si atom -5584.280141 kJ/mol
# Density = 1.043028 g / cm^3
# Si number density = 10.454079 Si / 1000 Ang^3
#
#
#
# Elastic Constant Matrix: (Units=GPa)
#
#
# Indices 1 2 3 4 5 6 
#
# 1 101.8178 57.0266 62.8601 0.0000 -7.5860 0.0000
# 2 57.0266 133.0152 72.4102 0.0000 7.9428 0.0000
# 3 62.8601 72.4102 128.7411 0.0000 -4.6859 0.0000
# 4 0.0000 0.0000 0.0000 46.3457 0.0000 3.4891
# 5 -7.5860 7.9428 -4.6859 0.0000 26.5676 0.0000
# 6 0.0000 0.0000 0.0000 3.4891 0.0000 12.0342
#
#
#
# Elastic Compliance Matrix: (Units=1/GPa)
#
#
# Indices 1 2 3 4 5 6 
#
# 1 0.015715 -0.004247 -0.005108 0.000000 0.004856 0.000000
# 2 -0.004247 0.012505 -0.005173 0.000000 -0.005864 0.000000
# 3 -0.005108 -0.005173 0.013260 0.000000 0.002427 0.000000
# 4 0.000000 0.000000 0.000000 0.022058 0.000000 -0.006396
# 5 0.004856 -0.005864 0.002427 0.000000 0.041207 0.000000
# 6 0.000000 0.000000 0.000000 -0.006396 0.000000 0.084951
#
#
# Mechanical properties :
#
#
# Convention : Reuss Voigt Hill
#
# Bulk Modulus (GPa) = 80.49002 83.12977 81.80989
# Shear Modulus (GPa) = 22.43216 28.40796 25.42006
#
# Velocity S-wave (km/s) = 3.27905 3.69006 3.49061
# Velocity P-wave (km/s) = 7.27439 7.61585 7.44708
#
# Compressibility (1/GPa) = 0.01242390
#
# Stress axis : x y z
#
# Youngs Moduli (GPa) = 63.63178 79.96820 75.41735
#
# Poissons Ratio (x) = 0.33962 0.38523
# Poissons Ratio (y) = 0.27024 0.39015
# Poissons Ratio (z) = 0.32503 0.41369
#
# Static dielectric constant tensor:
#      x y z
#    x 2.633190 0.000000 -0.025420 
#    y 0.000000 1.815620 0.000000 
#    z -0.025420 0.000000 1.715420 
# 
# From -- ./inp_files/68492.got.cif
#   From: 2010.05.17/outbox.ucp.g08.bks.cvg/sg15_35_cif.got.tgz:68492.got - 2010.06.11 12:40:34.
