data_PCOD9309684
_publ_section_title
;
Structure prediction by ZEFSAII (Michael W. Deem and Ramdas Pophale) SiO2 
 PCOD9309684
Probable space group: C 2/C
;
_chemical_formula_sum "Si O2"
_cell_formula_units_Z 22
_cell_length_a 30.000000
_cell_length_b 12.000000
_cell_length_c 18.000000
_cell_angle_alpha 90.000000
_cell_angle_beta 160.000000
_cell_angle_gamma 90.000000
_cell_volume 2216.290529
_symmetry_space_group_name_H-M "C 2/C"
_symmetry_group_IT_number 15
_symmetry_cell_setting 'monoclinic'
loop_
_space_group_symop_operation_xyz
x,y,z
-x,y,1/2-z
-x,-y,-z
x,-y,1/2+z
1/2+x,1/2+y,z
1/2-x,1/2+y,1/2-z
1/2-x,1/2-y,-z
1/2+x,1/2-y,1/2+z
loop_
_atom_site_type_symbol
_atom_site_label
_atom_site_fract_x
_atom_site_fract_y
_atom_site_fract_z
Si Si1 0.526674 0.435214 0.464041
Si Si2 0.759294 0.433645 0.554472
Si Si3 0.467804 0.819501 0.504597
Si Si4 0.500000 0.271577 0.750000
Si Si5 0.369830 0.162629 0.685072
Si Si6 0.283695 0.551967 0.858227
O O1 0.500000 0.500000 0.500000
O O2 0.571345 0.308876 0.546756
O O3 0.633582 0.499049 0.580202
O O4 0.387107 0.417285 0.204628
O O5 0.808951 0.540501 0.585727
O O6 0.739855 0.465874 0.610869
O O7 0.880948 0.347420 0.739553
O O8 0.446542 0.840108 0.383327
O O9 0.360387 0.894936 0.379859
O O10 0.460027 0.198416 0.758233
O O11 0.378095 0.350979 0.538340
O O12 0.250000 0.250000 0.500000
#
# Coordination Sequence:
#
# PCOD9309684 Si02
#       6
#     8   8   8   4   8   8
#     4  12  25  43  68  98 132 176 226 274 331 403
#     4  11  23  46  63  95 137 177 212 272 348 403
#     4  11  25  42  67  97 136 170 223 277 341 399
#     4  12  20  36  72  94 128 166 230 276 326 378
#     4  11  20  40  67  97 126 170 224 282 323 395
#     4  11  22  42  68  93 127 178 218 270 335 397
#
# _framework density 9.9264960000000002
#
# number of rings (size 3 to 8) (size 9 to 14) (size 15 to 20)
#    0.000    0.727    5.455    4.909    0.000    4.364 
#    0.000    1.818    0.000    0.000    0.000    0.000 
#    0.000    0.000    0.000    0.000    0.000    0.000 
#
# Total GULP energy -122864.829650 kJ/mol
# GULP energy per Si atom -5584.764984 kJ/mol
# Density = 0.990390 g / cm^3
# Si number density = 9.926496 Si / 1000 Ang^3
#
#
#
# Elastic Constant Matrix: (Units=GPa)
#
#
# Indices 1 2 3 4 5 6 
#
# 1 141.9575 48.1330 38.2789 0.0000 34.8964 0.0000
# 2 48.1330 78.4049 5.3692 0.0000 14.2328 0.0000
# 3 38.2789 5.3692 92.7808 0.0000 20.6919 0.0000
# 4 0.0000 0.0000 0.0000 41.2595 0.0000 7.3210
# 5 34.8964 14.2328 20.6919 0.0000 27.6942 0.0000
# 6 0.0000 0.0000 0.0000 7.3210 0.0000 34.0257
#
#
#
# Elastic Compliance Matrix: (Units=1/GPa)
#
#
# Indices 1 2 3 4 5 6 
#
# 1 0.012129 -0.005321 -0.002277 0.000000 -0.010848 0.000000
# 2 -0.005321 0.016472 0.001962 0.000000 -0.003226 0.000000
# 3 -0.002277 0.001962 0.013426 0.000000 -0.008170 0.000000
# 4 0.000000 0.000000 0.000000 0.025199 0.000000 -0.005422
# 5 -0.010848 -0.003226 -0.008170 0.000000 0.057540 0.000000
# 6 0.000000 0.000000 0.000000 -0.005422 0.000000 0.030556
#
#
# Mechanical properties :
#
#
# Convention : Reuss Voigt Hill
#
# Bulk Modulus (GPa) = 32.51540 55.18950 43.85245
# Shear Modulus (GPa) = 28.27306 35.35335 31.81321
#
# Velocity S-wave (km/s) = 3.77785 4.22448 4.00739
# Velocity P-wave (km/s) = 5.95341 7.18710 6.59915
#
# Compressibility (1/GPa) = 0.03075466
#
# Stress axis : x y z
#
# Youngs Moduli (GPa) = 82.44633 60.70822 74.48143
#
# Poissons Ratio (x) = 0.32303 0.16960
# Poissons Ratio (y) = 0.43870 -0.14610
# Poissons Ratio (z) = 0.18773 -0.11909
#
# Static dielectric constant tensor:
#      x y z
#    x 1.671580 0.000000 -0.021220 
#    y 0.000000 1.719760 0.000000 
#    z -0.021220 0.000000 1.734360 
# 
# From -- ./inp_files/225219.got.cif
#   From: 2010.05.17/outbox.ucp.g08.bks.cvg/sg15_113_cif.got.tgz:225219.got - 2010.06.11 12:40:34.
