data_PCOD9309099
_publ_section_title
;
Structure prediction by ZEFSAII (Michael W. Deem and Ramdas Pophale) SiO2 
 PCOD9309099
Probable space group: C 2/C
;
_chemical_formula_sum "Si O2"
_cell_formula_units_Z 30
_cell_length_a 12.000000
_cell_length_b 30.000000
_cell_length_c 18.000000
_cell_angle_alpha 90.000000
_cell_angle_beta 30.000000
_cell_angle_gamma 90.000000
_cell_volume 3240.000000
_symmetry_space_group_name_H-M "C 2/C"
_symmetry_group_IT_number 15
_symmetry_cell_setting 'monoclinic'
loop_
_space_group_symop_operation_xyz
x,y,z
-x,y,1/2-z
-x,-y,-z
x,-y,1/2+z
1/2+x,1/2+y,z
1/2-x,1/2+y,1/2-z
1/2-x,1/2-y,-z
1/2+x,1/2-y,1/2+z
loop_
_atom_site_type_symbol
_atom_site_label
_atom_site_fract_x
_atom_site_fract_y
_atom_site_fract_z
Si Si1 0.830815 0.407870 0.628854
Si Si2 0.021840 0.771695 0.108040
Si Si3 0.978621 0.869253 0.086742
Si Si4 0.509049 0.344966 0.588012
Si Si5 0.549902 0.753844 0.425811
Si Si6 0.536961 0.851724 0.090072
Si Si7 0.684778 0.432090 0.083827
Si Si8 0.000000 0.980061 0.750000
O O1 0.672063 0.370742 0.758156
O O2 0.909750 0.384508 0.508061
O O3 0.671322 0.449554 0.698289
O O4 0.059244 0.420437 0.541804
O O5 0.050271 0.824763 0.089424
O O6 0.816491 0.758816 0.278419
O O7 0.250000 0.750000 0.000000
O O8 0.957397 0.755346 0.061740
O O9 0.709041 0.866488 0.242308
O O10 0.098816 0.910784 0.056578
O O11 0.042131 0.862064 0.965048
O O12 0.493289 0.291103 0.596024
O O13 0.760546 0.355793 0.468888
O O14 0.471582 0.800133 0.433807
O O15 0.500000 0.413384 0.250000
O O16 0.641114 0.485312 0.117060
#
# Coordination Sequence:
#
# PCOD9309099 Si02
#       8
#     8   8   8   8   8   8   8   4
#     4  12  22  40  70  97 118 162 209 267 306 367
#     4  10  21  34  53  79 122 161 214 249 302 362
#     4  10  23  39  58  89 124 171 195 253 322 370
#     4  11  23  38  59  92 131 158 211 261 315 364
#     4  10  22  35  53  86 119 170 208 260 297 356
#     4  11  20  39  63  85 125 170 220 244 307 373
#     4  10  23  40  68  90 126 154 204 256 315 387
#     4  10  22  44  68 100 116 152 216 266 318 366
#
# _framework density 9.2592590000000001
#
# number of rings (size 3 to 8) (size 9 to 14) (size 15 to 20)
#    0.400    1.067    2.667    2.400    3.733    0.533 
#    0.000    4.667    0.000    0.000    0.000    0.000 
#    0.000    0.000    0.000    0.000    0.000    0.000 
#
# Total GULP energy -167303.098161 kJ/mol
# GULP energy per Si atom -5576.769939 kJ/mol
# Density = 0.923818 g / cm^3
# Si number density = 9.259259 Si / 1000 Ang^3
#
#
#
# Elastic Constant Matrix: (Units=GPa)
#
#
# Indices 1 2 3 4 5 6 
#
# 1 54.7985 22.5597 8.6938 -0.0002 -26.7093 0.0000
# 2 22.5597 70.9255 8.6029 -0.0001 -7.1957 0.0000
# 3 8.6938 8.6029 40.6978 -0.0003 -16.2462 -0.0002
# 4 -0.0002 -0.0001 -0.0003 28.8475 0.0002 0.2638
# 5 -26.7093 -7.1957 -16.2462 0.0002 37.0562 0.0001
# 6 0.0000 0.0000 -0.0002 0.2638 0.0001 29.9748
#
#
#
# Elastic Compliance Matrix: (Units=1/GPa)
#
#
# Indices 1 2 3 4 5 6 
#
# 1 0.032650 -0.008496 0.004312 0.000000 0.023774 0.000000
# 2 -0.008496 0.016779 -0.003486 0.000000 -0.004394 0.000000
# 3 0.004312 -0.003486 0.030737 0.000000 0.015907 0.000000
# 4 0.000000 0.000000 0.000000 0.034668 0.000000 -0.000305
# 5 0.023774 -0.004394 0.015907 0.000000 0.050242 0.000000
# 6 0.000000 0.000000 0.000000 -0.000305 0.000000 0.033364
#
#
# Mechanical properties :
#
#
# Convention : Reuss Voigt Hill
#
# Bulk Modulus (GPa) = 15.42619 27.34830 21.38724
# Shear Modulus (GPa) = 21.24144 27.61339 24.42742
#
# Velocity S-wave (km/s) = 3.39047 3.86570 3.63585
# Velocity P-wave (km/s) = 4.86572 5.89279 5.40371
#
# Compressibility (1/GPa) = 0.06482484
#
# Stress axis : x y z
#
# Youngs Moduli (GPa) = 30.62790 59.59907 32.53413
#
# Poissons Ratio (x) = 0.50637 -0.14028
# Poissons Ratio (y) = 0.26022 0.11341
# Poissons Ratio (z) = -0.13206 0.20776
#
# Static dielectric constant tensor:
#      x y z
#    x 1.632330 0.000000 0.005040 
#    y 0.000000 1.639360 0.000000 
#    z 0.005040 0.000000 1.651540 
# 
# From -- ./inp_files/201406.got.cif
#   From: 2010.05.17/outbox.ucp.g08.bks.cvg/sg15_101_cif.got.tgz:201406.got - 2010.06.11 12:40:34.
