data_PCOD9309453
_publ_section_title
;
Structure prediction by ZEFSAII (Michael W. Deem and Ramdas Pophale) SiO2 
 PCOD9309453
Probable space group: C 2/C
;
_chemical_formula_sum "Si O2"
_cell_formula_units_Z 24
_cell_length_a 18.000000
_cell_length_b 9.000000
_cell_length_c 15.000000
_cell_angle_alpha 90.000000
_cell_angle_beta 90.000000
_cell_angle_gamma 90.000000
_cell_volume 2430.000000
_symmetry_space_group_name_H-M "C 2/C"
_symmetry_group_IT_number 15
_symmetry_cell_setting 'monoclinic'
loop_
_space_group_symop_operation_xyz
x,y,z
-x,y,1/2-z
-x,-y,-z
x,-y,1/2+z
1/2+x,1/2+y,z
1/2-x,1/2+y,1/2-z
1/2-x,1/2-y,-z
1/2+x,1/2-y,1/2+z
loop_
_atom_site_type_symbol
_atom_site_label
_atom_site_fract_x
_atom_site_fract_y
_atom_site_fract_z
Si Si1 0.268397 0.786590 0.137558
Si Si2 0.977865 0.280948 0.528038
Si Si3 0.686740 0.669685 0.941412
Si Si4 0.285119 0.019990 0.796958
Si Si5 0.458893 0.955508 0.347556
Si Si6 0.135233 0.149349 0.512419
O O1 0.289641 0.925597 0.196479
O O2 0.256086 0.636774 0.193375
O O3 0.187423 0.810380 0.095098
O O4 0.332664 0.758545 0.064653
O O5 0.893881 0.247932 0.561598
O O6 0.970138 0.327797 0.423267
O O7 0.008114 0.405428 0.596918
O O8 0.047237 0.164400 0.527878
O O9 0.730355 0.631601 0.850498
O O10 0.750000 0.750000 0.000000
O O11 0.662878 0.512570 0.984080
O O12 0.369780 0.023422 0.833725
O O13 0.500000 0.936440 0.250000
#
# Coordination Sequence:
#
# PCOD9309453 Si02
#       6
#     8   8   8   8   8   8
#     4  10  23  39  68  92 134 172 220 271 333 393
#     4  11  23  42  66  96 131 175 222 279 333 397
#     4  11  24  40  65  94 130 172 220 274 332 397
#     4  11  23  42  61 101 127 174 221 269 334 393
#     4  11  24  39  66  94 134 172 224 274 337 400
#     4  10  22  43  64  93 132 175 218 275 335 396
#
# _framework density 9.8765429999999999
#
# number of rings (size 3 to 8) (size 9 to 14) (size 15 to 20)
#    0.000    1.333    3.333    1.500    4.667    0.000 
#    0.000    0.000    0.000    2.000    0.000    0.000 
#    0.000    0.000    0.000    0.000    0.000    0.000 
#
# Total GULP energy -133798.478538 kJ/mol
# GULP energy per Si atom -5574.936606 kJ/mol
# Density = 0.985406 g / cm^3
# Si number density = 9.876543 Si / 1000 Ang^3
#
#
#
# Elastic Constant Matrix: (Units=GPa)
#
#
# Indices 1 2 3 4 5 6 
#
# 1 169.2364 22.2979 19.6609 0.0000 -11.3172 0.0000
# 2 22.2979 9.8895 23.2135 0.0000 17.0220 0.0000
# 3 19.6609 23.2135 79.3487 0.0000 2.4642 0.0000
# 4 0.0000 0.0000 0.0000 27.9515 0.0000 -0.6190
# 5 -11.3172 17.0220 2.4642 0.0000 13.4480 0.0000
# 6 0.0000 0.0000 0.0000 -0.6190 0.0000 30.8291
#
#
#
# Elastic Compliance Matrix: (Units=1/GPa)
#
#
# Indices 1 2 3 4 5 6 
#
# 1 0.004732 0.008769 -0.003537 0.000000 -0.006470 0.000000
# 2 0.008769 -0.043364 0.008628 0.000000 0.060687 0.000000
# 3 -0.003537 0.008628 0.011452 0.000000 -0.015997 0.000000
# 4 0.000000 0.000000 0.000000 0.035792 0.000000 0.000719
# 5 -0.006470 0.060687 -0.015997 0.000000 -0.004968 0.000000
# 6 0.000000 0.000000 0.000000 0.000719 0.000000 0.032451
#
#
# Mechanical properties :
#
#
# Convention : Reuss Voigt Hill
#
# Bulk Modulus (GPa) = 1847.38608 43.20213 945.29411
# Shear Modulus (GPa) = 584.52433 27.33256 305.92844
#
# Velocity S-wave (km/s) = 17.22086 3.72386 12.45843
# Velocity P-wave (km/s) = 36.50589 6.35674 26.20199
#
# Compressibility (1/GPa) = 0.00054131
#
# Stress axis : x y z
#
# Youngs Moduli (GPa) = 211.33814 -23.06085 87.32477
#
# Poissons Ratio (x) = 0.20223 0.30886
# Poissons Ratio (y) = -1.85328 -0.75348
# Poissons Ratio (z) = 0.74749 0.19898
#
# Static dielectric constant tensor:
#      x y z
#    x 1.657170 0.000000 -0.008110 
#    y 0.000000 1.781290 0.000000 
#    z -0.008110 0.000000 1.714360 
# 
# From -- ./inp_files/159689.got.cif
#   From: 2010.05.17/outbox.ucp.g08.bks.cvg/sg15_80_cif.got.tgz:159689.got - 2010.06.11 12:40:34.
