data_PCOD9309063
_publ_section_title
;
Structure prediction by ZEFSAII (Michael W. Deem and Ramdas Pophale) SiO2 
 PCOD9309063
Probable space group: C 2/C
;
_chemical_formula_sum "Si O2"
_cell_formula_units_Z 20
_cell_length_a 15.000000
_cell_length_b 15.000000
_cell_length_c 9.000000
_cell_angle_alpha 90.000000
_cell_angle_beta 70.000000
_cell_angle_gamma 90.000000
_cell_volume 1902.877557
_symmetry_space_group_name_H-M "C 2/C"
_symmetry_group_IT_number 15
_symmetry_cell_setting 'monoclinic'
loop_
_space_group_symop_operation_xyz
x,y,z
-x,y,1/2-z
-x,-y,-z
x,-y,1/2+z
1/2+x,1/2+y,z
1/2-x,1/2+y,1/2-z
1/2-x,1/2-y,-z
1/2+x,1/2-y,1/2+z
loop_
_atom_site_type_symbol
_atom_site_label
_atom_site_fract_x
_atom_site_fract_y
_atom_site_fract_z
Si Si1 0.916631 0.612196 0.082370
Si Si2 0.076607 0.972002 0.832833
Si Si3 0.224231 0.174814 0.311323
Si Si4 0.804902 0.141720 0.842126
Si Si5 0.000000 0.533974 0.750000
Si Si6 0.000000 0.750486 0.250000
O O1 0.808838 0.641182 0.160132
O O2 0.936043 0.527825 0.178958
O O3 0.983657 0.688214 0.116014
O O4 0.940758 0.590951 0.900210
O O5 0.128749 0.877314 0.824769
O O6 0.000000 0.962546 0.750000
O O7 0.158139 0.048992 0.753770
O O8 0.000000 0.000000 0.000000
O O9 0.242786 0.136100 0.468053
O O10 0.237693 0.282854 0.302781
O O11 0.905333 0.191651 0.815163
#
# Coordination Sequence:
#
# PCOD9309063 Si02
#       6
#     8   8   8   8   4   4
#     4   9  19  32  59  82 126 156 214 256 335 388
#     4  12  23  41  70 101 136 181 231 278 339 406
#     4  10  22  38  66  98 126 175 227 280 328 404
#     4  10  20  40  68  95 130 176 228 275 335 409
#     4   9  18  34  50  90 115 166 198 269 322 406
#     4   9  16  36  60  84 113 172 212 261 316 402
#
# _framework density 10.510398
#
# number of rings (size 3 to 8) (size 9 to 14) (size 15 to 20)
#    0.000    2.000    3.000    0.000    2.800    0.000 
#    3.600    1.000   19.800    0.000    2.600    0.000 
#    0.000    0.000    0.000    0.000    0.000    0.000 
#
# Total GULP energy -111423.309321 kJ/mol
# GULP energy per Si atom -5571.165466 kJ/mol
# Density = 1.048648 g / cm^3
# Si number density = 10.510398 Si / 1000 Ang^3
#
#
#
# Elastic Constant Matrix: (Units=GPa)
#
#
# Indices 1 2 3 4 5 6 
#
# 1 68.5823 36.2908 27.4321 0.0000 2.7994 0.0000
# 2 36.2908 90.0780 23.0778 0.0000 -0.0282 0.0000
# 3 27.4321 23.0778 118.3153 0.0000 4.9117 0.0000
# 4 0.0000 0.0000 0.0000 -1.6798 0.0000 -31.4836
# 5 2.7994 -0.0282 4.9117 0.0000 21.5263 0.0000
# 6 0.0000 0.0000 0.0000 -31.4836 0.0000 34.3056
#
#
#
# Elastic Compliance Matrix: (Units=1/GPa)
#
#
# Indices 1 2 3 4 5 6 
#
# 1 0.019668 -0.007132 -0.003092 0.000000 -0.001862 0.000000
# 2 -0.007132 0.014278 -0.001182 0.000000 0.001216 0.000000
# 3 -0.003092 -0.001182 0.009472 0.000000 -0.001761 0.000000
# 4 0.000000 0.000000 0.000000 -0.032708 0.000000 -0.030018
# 5 -0.001862 0.001216 -0.001761 0.000000 0.047100 0.000000
# 6 0.000000 0.000000 0.000000 -0.030018 0.000000 0.001602
#
#
# Mechanical properties :
#
#
# Convention : Reuss Voigt Hill
#
# Bulk Modulus (GPa) = 48.52761 50.06411 49.29586
# Shear Modulus (GPa) = 56.12158 23.50875 39.81517
#
# Velocity S-wave (km/s) = 5.17263 3.34781 4.35683
# Velocity P-wave (km/s) = 7.66880 6.22993 6.98650
#
# Compressibility (1/GPa) = 0.02060683
#
# Stress axis : x y z
#
# Youngs Moduli (GPa) = 50.84476 70.03727 105.56969
#
# Poissons Ratio (x) = 0.49953 0.32638
# Poissons Ratio (y) = 0.36264 0.12476
# Poissons Ratio (z) = 0.15719 0.08277
#
# Static dielectric constant tensor:
#      x y z
#    x 1.779330 0.000000 -0.008110 
#    y 0.000000 1.803130 0.000000 
#    z -0.008110 0.000000 1.732520 
# 
# From -- ./inp_files/37876.got.cif
#   From: 2010.05.17/outbox.ucp.g08.bks.cvg/sg15_19_cif.got.tgz:37876.got - 2010.06.11 12:40:34.
