data_PCOD9309582
_publ_section_title
;
Structure prediction by ZEFSAII (Michael W. Deem and Ramdas Pophale) SiO2 
 PCOD9309582
Probable space group: C 2/C
;
_chemical_formula_sum "Si O2"
_cell_formula_units_Z 32
_cell_length_a 12.000000
_cell_length_b 15.000000
_cell_length_c 18.000000
_cell_angle_alpha 90.000000
_cell_angle_beta 90.000000
_cell_angle_gamma 90.000000
_cell_volume 3240.000000
_symmetry_space_group_name_H-M "C 2/C"
_symmetry_group_IT_number 15
_symmetry_cell_setting 'monoclinic'
loop_
_space_group_symop_operation_xyz
x,y,z
-x,y,1/2-z
-x,-y,-z
x,-y,1/2+z
1/2+x,1/2+y,z
1/2-x,1/2+y,1/2-z
1/2-x,1/2-y,-z
1/2+x,1/2-y,1/2+z
loop_
_atom_site_type_symbol
_atom_site_label
_atom_site_fract_x
_atom_site_fract_y
_atom_site_fract_z
Si Si1 0.329228 0.165580 0.491560
Si Si2 0.516512 0.046592 0.672544
Si Si3 0.255826 0.660176 0.418557
Si Si4 0.626262 0.759861 0.782098
Si Si5 0.082672 0.684288 0.546640
Si Si6 0.769960 0.530701 0.620996
Si Si7 0.130409 0.945504 0.264427
Si Si8 0.792761 0.404893 0.826375
O O1 0.250000 0.250000 0.500000
O O2 0.460604 0.188099 0.506984
O O3 0.286929 0.096271 0.553024
O O4 0.307084 0.123279 0.411380
O O5 0.500000 0.097740 0.750000
O O6 0.566764 0.112186 0.611513
O O7 0.396874 0.011983 0.646131
O O8 0.598749 0.965520 0.689417
O O9 0.166823 0.695888 0.358395
O O10 0.182119 0.653539 0.492790
O O11 0.364239 0.723063 0.424302
O O12 0.289617 0.560887 0.398585
O O13 0.500000 0.770659 0.750000
O O14 0.639554 0.654064 0.797918
O O15 0.702046 0.814392 0.722391
O O16 0.698942 0.568790 0.688301
O O17 0.000000 0.964375 0.250000
O O18 0.190747 0.027945 0.306672
#
# Coordination Sequence:
#
# PCOD9309582 Si02
#       8
#     8   8   8   8   8   8   8   8
#     4  11  25  44  65  93 131 182 226 275 337 406
#     4  11  20  38  68  98 125 167 229 282 331 383
#     4  11  21  40  64  97 133 171 214 278 344 391
#     4  11  22  38  66  96 131 173 222 275 324 405
#     4  10  24  40  63  98 134 167 221 281 333 399
#     4  11  22  41  64  93 131 166 224 275 330 398
#     4  11  25  42  62  97 133 174 219 275 340 407
#     4  12  22  42  69  96 131 175 226 273 341 402
#
# _framework density 9.8765429999999999
#
# number of rings (size 3 to 8) (size 9 to 14) (size 15 to 20)
#    0.000    1.000    2.500    4.875    0.000    5.000 
#    0.000    1.875    0.000    0.000    0.000    0.000 
#    0.000    0.000    0.000    0.000    0.000    0.000 
#
# Total GULP energy -178553.365908 kJ/mol
# GULP energy per Si atom -5579.792685 kJ/mol
# Density = 0.985406 g / cm^3
# Si number density = 9.876543 Si / 1000 Ang^3
#
#
#
# Elastic Constant Matrix: (Units=GPa)
#
#
# Indices 1 2 3 4 5 6 
#
# 1 75.7446 26.8774 23.9182 0.0000 0.3832 0.0000
# 2 26.8774 89.6558 34.6225 0.0000 9.9363 0.0000
# 3 23.9182 34.6225 98.0072 0.0000 11.0858 0.0000
# 4 0.0000 0.0000 0.0000 24.9650 0.0000 -8.4979
# 5 0.3832 9.9363 11.0858 0.0000 17.2478 0.0000
# 6 0.0000 0.0000 0.0000 -8.4979 0.0000 -27.0445
#
#
#
# Elastic Compliance Matrix: (Units=1/GPa)
#
#
# Indices 1 2 3 4 5 6 
#
# 1 0.015477 -0.003975 -0.002796 0.000000 0.003743 0.000000
# 2 -0.003975 0.014326 -0.003416 0.000000 -0.005969 0.000000
# 3 -0.002796 -0.003416 0.012793 0.000000 -0.006193 0.000000
# 4 0.000000 0.000000 0.000000 0.036186 0.000000 -0.011370
# 5 0.003743 -0.005969 -0.006193 0.000000 0.065314 0.000000
# 6 0.000000 0.000000 0.000000 -0.011370 0.000000 -0.033403
#
#
# Mechanical properties :
#
#
# Convention : Reuss Voigt Hill
#
# Bulk Modulus (GPa) = 44.99997 48.24931 46.62464
# Shear Modulus (GPa) = 36.10823 14.89964 25.50394
#
# Velocity S-wave (km/s) = 4.28013 2.74942 3.59714
# Velocity P-wave (km/s) = 6.87435 5.87863 6.39590
#
# Compressibility (1/GPa) = 0.02222224
#
# Stress axis : x y z
#
# Youngs Moduli (GPa) = 64.61321 69.80372 78.16870
#
# Poissons Ratio (x) = 0.27745 0.21858
# Poissons Ratio (y) = 0.25682 0.26700
# Poissons Ratio (z) = 0.18068 0.23842
#
# Static dielectric constant tensor:
#      x y z
#    x 1.670060 0.000000 0.006880 
#    y 0.000000 1.724410 0.000000 
#    z 0.006880 0.000000 1.752610 
# 
# From -- ./inp_files/198336.got.cif
#   From: 2010.05.17/outbox.ucp.g08.bks.cvg/sg15_100_cif.got.tgz:198336.got - 2010.06.11 12:40:34.
