data_PCOD9309220
_publ_section_title
;
Structure prediction by ZEFSAII (Michael W. Deem and Ramdas Pophale) SiO2 
 PCOD9309220
Probable space group: C 2/C
;
_chemical_formula_sum "Si O2"
_cell_formula_units_Z 20
_cell_length_a 15.000000
_cell_length_b 9.000000
_cell_length_c 15.000000
_cell_angle_alpha 90.000000
_cell_angle_beta 90.000000
_cell_angle_gamma 90.000000
_cell_volume 2025.000000
_symmetry_space_group_name_H-M "C 2/C"
_symmetry_group_IT_number 15
_symmetry_cell_setting 'monoclinic'
loop_
_space_group_symop_operation_xyz
x,y,z
-x,y,1/2-z
-x,-y,-z
x,-y,1/2+z
1/2+x,1/2+y,z
1/2-x,1/2+y,1/2-z
1/2-x,1/2-y,-z
1/2+x,1/2-y,1/2+z
loop_
_atom_site_type_symbol
_atom_site_label
_atom_site_fract_x
_atom_site_fract_y
_atom_site_fract_z
Si Si1 0.579467 0.067800 0.624192
Si Si2 0.259601 0.712679 0.395536
Si Si3 0.101489 0.297604 0.754349
Si Si4 0.806855 0.120376 0.901059
Si Si5 0.895382 0.329704 0.036193
O O1 0.665924 0.170986 0.636900
O O2 0.484302 0.150511 0.598875
O O3 0.584842 0.959521 0.710032
O O4 0.595234 0.959060 0.538772
O O5 0.250000 0.750000 0.500000
O O6 0.162585 0.705120 0.344610
O O7 0.307328 0.554300 0.387858
O O8 0.161722 0.206445 0.685818
O O9 0.000000 0.232736 0.750000
O O10 0.701561 0.151855 0.918159
O O11 0.874244 0.178938 0.979171
#
# Coordination Sequence:
#
# PCOD9309220 Si02
#       5
#     8   8   8   8   8
#     4  10  21  40  68  92 128 166 221 256 328 395
#     4  12  24  40  65 100 129 170 215 273 326 382
#     4  11  25  44  65  89 132 179 219 264 323 395
#     4  10  21  40  64  96 135 160 218 269 322 379
#     4   9  19  39  67  97 120 174 209 264 320 398
#
# _framework density 9.8765429999999999
#
# number of rings (size 3 to 8) (size 9 to 14) (size 15 to 20)
#    0.000    1.600    2.000    2.400    5.600    0.800 
#    0.000    1.000    0.000    0.000    0.000    0.000 
#    0.000    0.000    0.000    0.000    0.000    0.000 
#
# Total GULP energy -111386.383335 kJ/mol
# GULP energy per Si atom -5569.319167 kJ/mol
# Density = 0.985406 g / cm^3
# Si number density = 9.876543 Si / 1000 Ang^3
#
#
#
# Elastic Constant Matrix: (Units=GPa)
#
#
# Indices 1 2 3 4 5 6 
#
# 1 176.5865 39.2701 59.5180 0.0000 29.0405 0.0000
# 2 39.2701 72.3906 26.9113 0.0000 5.1624 0.0000
# 3 59.5180 26.9113 102.8161 0.0000 26.1990 0.0000
# 4 0.0000 0.0000 0.0000 5.5938 0.0000 0.9474
# 5 29.0405 5.1624 26.1990 0.0000 53.0656 0.0000
# 6 0.0000 0.0000 0.0000 0.9474 0.0000 39.6512
#
#
#
# Elastic Compliance Matrix: (Units=1/GPa)
#
#
# Indices 1 2 3 4 5 6 
#
# 1 0.007751 -0.002873 -0.003117 0.000000 -0.002423 0.000000
# 2 -0.002873 0.016382 -0.002996 0.000000 0.001458 0.000000
# 3 -0.003117 -0.002996 0.013505 0.000000 -0.004670 0.000000
# 4 0.000000 0.000000 0.000000 0.179497 0.000000 -0.004289
# 5 -0.002423 0.001458 -0.004670 0.000000 0.022335 0.000000
# 6 0.000000 0.000000 0.000000 -0.004289 0.000000 0.025322
#
#
# Mechanical properties :
#
#
# Convention : Reuss Voigt Hill
#
# Bulk Modulus (GPa) = 50.85220 67.02132 58.93676
# Shear Modulus (GPa) = 17.28187 34.73505 26.00846
#
# Velocity S-wave (km/s) = 2.96107 4.19795 3.63254
# Velocity P-wave (km/s) = 6.12294 7.58289 6.89169
#
# Compressibility (1/GPa) = 0.01966483
#
# Stress axis : x y z
#
# Youngs Moduli (GPa) = 129.01366 61.04108 74.04681
#
# Poissons Ratio (x) = 0.17537 0.23084
# Poissons Ratio (y) = 0.37066 0.22187
# Poissons Ratio (z) = 0.40220 0.18290
#
# Static dielectric constant tensor:
#      x y z
#    x 1.696490 0.000000 -0.028440 
#    y 0.000000 1.712140 0.000000 
#    z -0.028440 0.000000 1.732710 
# 
# From -- ./inp_files/150667.got.cif
#   From: 2010.05.17/outbox.ucp.g08.bks.cvg/sg15_76_cif.got.tgz:150667.got - 2010.06.11 12:40:34.
