data_PCOD9309071
_publ_section_title
;
Structure prediction by ZEFSAII (Michael W. Deem and Ramdas Pophale) SiO2 
 PCOD9309071
Probable space group: C 2/C
;
_chemical_formula_sum "Si O2"
_cell_formula_units_Z 28
_cell_length_a 12.000000
_cell_length_b 9.000000
_cell_length_c 27.000000
_cell_angle_alpha 90.000000
_cell_angle_beta 110.000000
_cell_angle_gamma 90.000000
_cell_volume 2740.143682
_symmetry_space_group_name_H-M "C 2/C"
_symmetry_group_IT_number 15
_symmetry_cell_setting 'monoclinic'
loop_
_space_group_symop_operation_xyz
x,y,z
-x,y,1/2-z
-x,-y,-z
x,-y,1/2+z
1/2+x,1/2+y,z
1/2-x,1/2+y,1/2-z
1/2-x,1/2-y,-z
1/2+x,1/2-y,1/2+z
loop_
_atom_site_type_symbol
_atom_site_label
_atom_site_fract_x
_atom_site_fract_y
_atom_site_fract_z
Si Si1 0.917178 0.655627 0.419144
Si Si2 0.831043 0.619913 0.093956
Si Si3 0.735741 0.935080 0.801903
Si Si4 0.168629 0.878226 0.012978
Si Si5 0.191431 0.975170 0.415164
Si Si6 0.658701 0.733740 0.700027
Si Si7 0.007069 0.036989 0.192847
O O1 0.915407 0.788534 0.460495
O O2 0.825877 0.534989 0.428178
O O3 0.859947 0.707786 0.358200
O O4 0.045653 0.600685 0.418782
O O5 0.821170 0.591767 0.152505
O O6 0.740797 0.501010 0.055839
O O7 0.804953 0.796108 0.084070
O O8 0.679648 0.848688 0.747097
O O9 0.878231 0.894673 0.818929
O O10 0.737593 0.110222 0.788754
O O11 0.250000 0.750000 0.000000
O O12 0.130914 0.966528 0.957181
O O13 0.112108 0.041518 0.357736
O O14 0.543831 0.636891 0.697398
O O15 0.000000 0.083057 0.250000
#
# Coordination Sequence:
#
# PCOD9309071 Si02
#       7
#     8   8   8   8   8   8   8
#     4  11  24  45  71  98 145 179 224 292 345 402
#     4  12  23  47  67 104 134 183 230 284 341 410
#     4  10  23  38  68  97 135 176 229 277 344 411
#     4  10  24  47  68 102 141 179 235 285 339 411
#     4  11  24  43  72  99 134 187 227 282 346 408
#     4  10  21  41  64  98 136 173 223 284 339 405
#     4  10  20  41  67  95 134 177 222 280 345 402
#
# _framework density 10.218442
#
# number of rings (size 3 to 8) (size 9 to 14) (size 15 to 20)
#    0.857    0.571    2.857    2.143    2.000    2.857 
#    7.714    0.000    3.143    0.000    0.000    0.000 
#    0.000    0.000    0.000    0.000    0.000    0.000 
#
# Total GULP energy -156004.895658 kJ/mol
# GULP energy per Si atom -5571.603416 kJ/mol
# Density = 1.019518 g / cm^3
# Si number density = 10.218442 Si / 1000 Ang^3
#
#
#
# Elastic Constant Matrix: (Units=GPa)
#
#
# Indices 1 2 3 4 5 6 
#
# 1 103.9166 -6.2259 12.2238 0.0000 -22.8702 0.0000
# 2 -6.2259 36.1474 22.2688 0.0000 1.1919 0.0000
# 3 12.2238 22.2688 124.6527 0.0000 -36.0671 0.0000
# 4 0.0000 0.0000 0.0000 37.1627 0.0000 -5.4467
# 5 -22.8702 1.1919 -36.0671 0.0000 35.9876 0.0000
# 6 0.0000 0.0000 0.0000 -5.4467 0.0000 34.2213
#
#
#
# Elastic Compliance Matrix: (Units=1/GPa)
#
#
# Indices 1 2 3 4 5 6 
#
# 1 0.011382 0.001003 0.001110 0.000000 0.008312 0.000000
# 2 0.001003 0.033547 -0.008772 0.000000 -0.009266 0.000000
# 3 0.001110 -0.008772 0.013758 0.000000 0.014785 0.000000
# 4 0.000000 0.000000 0.000000 0.027551 0.000000 0.004385
# 5 0.008312 -0.009266 0.014785 0.000000 0.048194 0.000000
# 6 0.000000 0.000000 0.000000 0.004385 0.000000 0.029919
#
#
# Mechanical properties :
#
#
# Convention : Reuss Voigt Hill
#
# Bulk Modulus (GPa) = 22.04211 35.69445 28.86828
# Shear Modulus (GPa) = 25.93435 37.23765 31.58600
#
# Velocity S-wave (km/s) = 3.56616 4.27321 3.93560
# Velocity P-wave (km/s) = 5.26930 6.46922 5.89984
#
# Compressibility (1/GPa) = 0.04536770
#
# Stress axis : x y z
#
# Youngs Moduli (GPa) = 87.85783 29.80899 72.68300
#
# Poissons Ratio (x) = -0.02989 -0.08067
# Poissons Ratio (y) = -0.08808 0.63759
# Poissons Ratio (z) = -0.09751 0.26149
#
# Static dielectric constant tensor:
#      x y z
#    x 1.773080 0.000000 0.035750 
#    y 0.000000 1.744260 0.000000 
#    z 0.035750 0.000000 1.734580 
# 
# From -- ./inp_files/291629.got.cif
#   From: 2010.05.17/outbox.ucp.g08.bks.cvg/sg15_146_cif.got.tgz:291629.got - 2010.06.11 12:40:34.
