data_PCOD9309403
_publ_section_title
;
Structure prediction by ZEFSAII (Michael W. Deem and Ramdas Pophale) SiO2 
 PCOD9309403
Probable space group: C 2/C
;
_chemical_formula_sum "Si O2"
_cell_formula_units_Z 20
_cell_length_a 9.000000
_cell_length_b 24.000000
_cell_length_c 18.000000
_cell_angle_alpha 90.000000
_cell_angle_beta 150.000000
_cell_angle_gamma 90.000000
_cell_volume 1944.000000
_symmetry_space_group_name_H-M "C 2/C"
_symmetry_group_IT_number 15
_symmetry_cell_setting 'monoclinic'
loop_
_space_group_symop_operation_xyz
x,y,z
-x,y,1/2-z
-x,-y,-z
x,-y,1/2+z
1/2+x,1/2+y,z
1/2-x,1/2+y,1/2-z
1/2-x,1/2-y,-z
1/2+x,1/2-y,1/2+z
loop_
_atom_site_type_symbol
_atom_site_label
_atom_site_fract_x
_atom_site_fract_y
_atom_site_fract_z
Si Si1 0.817013 0.333740 0.594272
Si Si2 0.857293 0.773396 0.767124
Si Si3 0.745197 0.834329 0.443383
Si Si4 0.567789 0.057214 0.630008
Si Si5 0.762916 0.440354 0.467469
O O1 0.469404 0.326684 0.469389
O O2 0.829668 0.388343 0.548985
O O3 0.000000 0.341917 0.750000
O O4 0.011391 0.286177 0.634975
O O5 0.000000 0.787006 0.750000
O O6 0.976317 0.710473 0.832012
O O7 0.035559 0.815123 0.897218
O O8 0.612309 0.895393 0.402430
O O9 0.603014 0.071124 0.557012
O O10 0.906449 0.053007 0.805577
O O11 0.405252 0.997379 0.560359
#
# Coordination Sequence:
#
# PCOD9309403 Si02
#       5
#     8   8   8   8   8
#     4  10  23  42  64  98 129 170 219 267 326 385
#     4  10  22  41  65  89 128 179 212 265 319 388
#     4  10  23  42  61  98 131 166 218 270 324 382
#     4  10  23  43  68  97 130 172 220 267 322 390
#     4  10  23  43  68  97 130 174 218 265 324 394
#
# _framework density 10.288066000000001
#
# number of rings (size 3 to 8) (size 9 to 14) (size 15 to 20)
#    0.000    2.000    0.000    1.200    8.400    1.600 
#   18.000    0.000    0.000    0.000    0.000    0.000 
#    0.000    0.000    0.000    0.000    0.000    0.000 
#
# Total GULP energy -111575.810947 kJ/mol
# GULP energy per Si atom -5578.790547 kJ/mol
# Density = 1.026465 g / cm^3
# Si number density = 10.288066 Si / 1000 Ang^3
#
#
#
# Elastic Constant Matrix: (Units=GPa)
#
#
# Indices 1 2 3 4 5 6 
#
# 1 114.8169 58.3702 29.8926 -0.0043 26.5816 0.0000
# 2 58.3702 105.3932 37.7122 -0.0084 31.5774 -0.0013
# 3 29.8926 37.7122 85.7639 -0.0066 19.1836 0.0017
# 4 -0.0043 -0.0084 -0.0066 17.3920 0.0048 -2.0128
# 5 26.5816 31.5774 19.1836 0.0048 38.3868 0.0015
# 6 0.0000 -0.0013 0.0017 -2.0128 0.0015 38.6332
#
#
#
# Elastic Compliance Matrix: (Units=1/GPa)
#
#
# Indices 1 2 3 4 5 6 
#
# 1 0.012654 -0.005491 -0.001178 0.000001 -0.003657 0.000000
# 2 -0.005491 0.016062 -0.003427 0.000007 -0.007698 0.000001
# 3 -0.001178 -0.003427 0.014371 0.000004 -0.003547 0.000000
# 4 0.000001 0.000007 0.000004 0.057846 -0.000016 0.003014
# 5 -0.003657 -0.007698 -0.003547 -0.000016 0.036688 -0.000002
# 6 0.000000 0.000001 0.000000 0.003014 -0.000002 0.026041
#
#
# Mechanical properties :
#
#
# Convention : Reuss Voigt Hill
#
# Bulk Modulus (GPa) = 43.67832 61.99155 52.83493
# Shear Modulus (GPa) = 26.11137 30.88234 28.49686
#
# Velocity S-wave (km/s) = 3.56618 3.87832 3.72553
# Velocity P-wave (km/s) = 6.18309 7.08862 6.65128
#
# Compressibility (1/GPa) = 0.02289466
#
# Stress axis : x y z
#
# Youngs Moduli (GPa) = 79.02341 62.25813 69.58538
#
# Poissons Ratio (x) = 0.34188 0.08197
# Poissons Ratio (y) = 0.43394 0.23848
# Poissons Ratio (z) = 0.09309 0.21337
#
# Static dielectric constant tensor:
#      x y z
#    x 1.774220 0.000000 -0.022750 
#    y 0.000000 1.699500 0.000000 
#    z -0.022750 0.000000 1.767600 
# 
# From -- ./inp_files/23470.got.cif
#   From: 2010.05.17/outbox.ucp.g08.bks.cvg/sg15_12_cif.got.tgz:23470.got - 2010.06.11 12:40:34.
