data_PCOD9309803
_publ_section_title
;
Structure prediction by ZEFSAII (Michael W. Deem and Ramdas Pophale) SiO2 
 PCOD9309803
Probable space group: C 2/C
;
_chemical_formula_sum "Si O2"
_cell_formula_units_Z 20
_cell_length_a 24.000000
_cell_length_b 15.000000
_cell_length_c 6.000000
_cell_angle_alpha 90.000000
_cell_angle_beta 110.000000
_cell_angle_gamma 90.000000
_cell_volume 2029.736061
_symmetry_space_group_name_H-M "C 2/C"
_symmetry_group_IT_number 15
_symmetry_cell_setting 'monoclinic'
loop_
_space_group_symop_operation_xyz
x,y,z
-x,y,1/2-z
-x,-y,-z
x,-y,1/2+z
1/2+x,1/2+y,z
1/2-x,1/2+y,1/2-z
1/2-x,1/2-y,-z
1/2+x,1/2-y,1/2+z
loop_
_atom_site_type_symbol
_atom_site_label
_atom_site_fract_x
_atom_site_fract_y
_atom_site_fract_z
Si Si1 0.457305 0.419726 0.018512
Si Si2 0.190338 0.273872 0.269545
Si Si3 0.069207 0.232959 0.358157
Si Si4 0.250645 0.451333 0.219160
Si Si5 0.858928 0.858509 0.167755
O O1 0.500000 0.368212 0.250000
O O2 0.397701 0.430786 0.082121
O O3 0.500000 0.500000 0.000000
O O4 0.439786 0.359569 0.787715
O O5 0.250000 0.250000 0.500000
O O6 0.126872 0.278669 0.315919
O O7 0.205001 0.368714 0.176071
O O8 0.178910 0.198621 0.063971
O O9 0.096510 0.206666 0.635898
O O10 0.000000 0.270984 0.250000
O O11 0.245090 0.500236 0.460652
O O12 0.315441 0.406110 0.282106
#
# Coordination Sequence:
#
# PCOD9309803 Si02
#       5
#     8   8   8   8   8
#     4  11  24  36  55  91 145 189 224 275 333 411
#     4  11  24  47  72  98 139 192 244 295 353 436
#     4  11  23  42  66  97 132 189 238 276 348 428
#     4  12  28  44  70 108 140 181 242 311 368 410
#     4  11  25  42  69  95 144 193 239 275 355 437
#
# _framework density 9.8534980000000001
#
# number of rings (size 3 to 8) (size 9 to 14) (size 15 to 20)
#    0.000    0.800    4.000    2.400    8.400    0.000 
#    0.000    0.000    0.000    1.200    0.000    0.000 
#    0.000    0.000    0.000    0.000    0.000    0.000 
#
# Total GULP energy -111421.695462 kJ/mol
# GULP energy per Si atom -5571.084773 kJ/mol
# Density = 0.983107 g / cm^3
# Si number density = 9.853498 Si / 1000 Ang^3
#
#
#
# Elastic Constant Matrix: (Units=GPa)
#
#
# Indices 1 2 3 4 5 6 
#
# 1 194.7939 60.8781 38.2943 0.0000 -10.4927 0.0000
# 2 60.8781 74.2874 34.6880 0.0000 -5.2587 0.0000
# 3 38.2943 34.6880 141.7536 0.0000 13.3630 0.0000
# 4 0.0000 0.0000 0.0000 37.0221 0.0000 -3.2996
# 5 -10.4927 -5.2587 13.3630 0.0000 47.2655 0.0000
# 6 0.0000 0.0000 0.0000 -3.2996 0.0000 48.8747
#
#
#
# Elastic Compliance Matrix: (Units=1/GPa)
#
#
# Indices 1 2 3 4 5 6 
#
# 1 0.006998 -0.005328 -0.000696 0.000000 0.001157 0.000000
# 2 -0.005328 0.019628 -0.003553 0.000000 0.002006 0.000000
# 3 -0.000696 -0.003553 0.008387 0.000000 -0.002921 0.000000
# 4 0.000000 0.000000 0.000000 0.027174 0.000000 0.001835
# 5 0.001157 0.002006 -0.002921 0.000000 0.022463 0.000000
# 6 0.000000 0.000000 0.000000 0.001835 0.000000 0.020584
#
#
# Mechanical properties :
#
#
# Convention : Reuss Voigt Hill
#
# Bulk Modulus (GPa) = 63.05064 75.39509 69.22286
# Shear Modulus (GPa) = 38.55785 45.09741 41.82763
#
# Velocity S-wave (km/s) = 4.42810 4.78891 4.61203
# Velocity P-wave (km/s) = 7.62939 8.30176 7.97267
#
# Compressibility (1/GPa) = 0.01586027
#
# Stress axis : x y z
#
# Youngs Moduli (GPa) = 142.90078 50.94657 119.22853
#
# Poissons Ratio (x) = 0.27144 0.08296
# Poissons Ratio (y) = 0.76136 0.42361
# Poissons Ratio (z) = 0.09943 0.18101
#
# Static dielectric constant tensor:
#      x y z
#    x 1.774770 0.000000 -0.038160 
#    y 0.000000 1.723770 0.000000 
#    z -0.038160 0.000000 1.784820 
# 
# From -- ./inp_files/15158.got.cif
#   From: 2010.05.17/outbox.ucp.g08.bks.cvg/sg15_8_cif.got.tgz:15158.got - 2010.06.11 12:40:34.
