data_PCOD9309980
_publ_section_title
;
Structure prediction by ZEFSAII (Michael W. Deem and Ramdas Pophale) SiO2 
 PCOD9309980
Probable space group: P 2 2 2
;
_chemical_formula_sum "Si O2"
_cell_formula_units_Z 28
_cell_length_a 12.601235
_cell_length_b 20.695031
_cell_length_c 4.998888
_cell_angle_alpha 90.000000
_cell_angle_beta 90.000000
_cell_angle_gamma 90.000000
_cell_volume 1303.624754
_symmetry_space_group_name_H-M "P 2 2 2"
_symmetry_group_IT_number 16
_symmetry_cell_setting 'orthorhombic'
loop_
_space_group_symop_operation_xyz
x,y,z
-x,-y,z
x,-y,-z
-x,y,-z
loop_
_atom_site_type_symbol
_atom_site_label
_atom_site_fract_x
_atom_site_fract_y
_atom_site_fract_z
Si Si1 0.840388 0.794612 0.401808
Si Si2 0.108861 0.876172 0.095609
Si Si3 0.286852 0.457300 0.753951
Si Si4 0.608645 0.849110 0.403644
Si Si5 0.340818 0.929189 0.096715
Si Si6 0.619676 0.338628 0.985341
Si Si7 0.240869 0.329408 0.546859
O O1 0.891381 0.843206 0.615241
O O2 0.713429 0.806298 0.424679
O O3 0.851054 0.719367 0.463496
O O4 0.875178 0.817397 0.112213
O O5 0.213260 0.920192 0.077746
O O6 0.000000 0.908766 0.000000
O O7 0.320678 0.500000 0.500000
O O8 0.376858 0.411366 0.888374
O O9 0.209127 0.401707 0.637360
O O10 0.245493 0.500000 0.000000
O O11 0.500000 0.816909 0.500000
O O12 0.625260 0.909507 0.606309
O O13 0.609850 0.877287 0.106781
O O14 0.370459 0.000000 0.000000
O O15 0.697708 0.302241 0.191139
O O16 0.500000 0.314253 0.000000
O O17 0.674666 0.337721 0.696034
#
# Coordination Sequence:
#
# PCOD9309980 Si02
#       7
#     4   4   4   4   4   4   4
#     4  10  21  38  56  78 111 142 178 229 271 321
#     4  10  21  38  61  84 108 138 172 219 284 336
#     4  10  18  32  45  66  98 137 181 225 267 316
#     4  10  21  35  53  78 109 153 193 226 264 303
#     4  10  21  36  55  82 113 144 183 225 268 319
#     4  10  20  31  43  67  96 138 184 220 264 305
#     4  10  20  33  48  68  99 138 174 225 266 314
#
# _framework density 21.478573000000001
#
# number of rings (size 3 to 8) (size 9 to 14) (size 15 to 20)
#    0.857    1.143    1.429    2.571    0.000    3.429 
#    2.571    0.000    0.000    5.143    0.000    0.000 
#    0.000    8.571    0.000    0.000    0.000    0.000 
#
# Total GULP energy -156141.377770 kJ/mol
# GULP energy per Si atom -5576.477778 kJ/mol
# Density = 2.142969 g / cm^3
# Si number density = 21.478573 Si / 1000 Ang^3
#
#
#
# Elastic Constant Matrix: (Units=GPa)
#
#
# Indices 1 2 3 4 5 6 
#
# 1 78.0938 -5.7376 3.3416 0.0000 0.0000 0.0000
# 2 -5.7376 49.2038 10.6579 0.0000 0.0000 0.0000
# 3 3.3416 10.6579 96.4586 0.0000 0.0000 0.0000
# 4 0.0000 0.0000 0.0000 23.4381 0.0000 0.0000
# 5 0.0000 0.0000 0.0000 0.0000 23.9722 0.0000
# 6 0.0000 0.0000 0.0000 0.0000 0.0000 -5.3904
#
#
#
# Elastic Compliance Matrix: (Units=1/GPa)
#
#
# Indices 1 2 3 4 5 6 
#
# 1 0.012953 0.001647 -0.000631 0.000000 0.000000 0.000000
# 2 0.001647 0.021031 -0.002381 0.000000 0.000000 0.000000
# 3 -0.000631 -0.002381 0.010652 0.000000 0.000000 0.000000
# 4 0.000000 0.000000 0.000000 0.042666 0.000000 0.000000
# 5 0.000000 0.000000 0.000000 0.000000 0.041715 0.000000
# 6 0.000000 0.000000 0.000000 0.000000 0.000000 -0.185516
#
#
# Mechanical properties :
#
#
# Convention : Reuss Voigt Hill
#
# Bulk Modulus (GPa) = 23.86204 26.69777 25.27990
# Shear Modulus (GPa) = -125.62554 22.77026 -51.42764
#
# Velocity S-wave (km/s) = -7.65609 3.25951 -4.89854
# Velocity P-wave (km/s) = 8.18661 5.15973 4.49431
#
# Compressibility (1/GPa) = 0.04190756
#
# Stress axis : x y z
#
# Youngs Moduli (GPa) = 77.20153 47.54790 93.87854
#
# Poissons Ratio (x) = -0.07831 0.05921
# Poissons Ratio (y) = -0.12716 0.22351
# Poissons Ratio (z) = 0.04869 0.11320
#
# Static dielectric constant tensor:
#      x y z
#    x 1.833940 0.000000 0.000000 
#    y 0.000000 1.818400 0.000000 
#    z 0.000000 0.000000 1.773500 
# 
# From -- ./inp_files/1656.got.cif
#   From: 2010.05.17/outbox.cif.g08.bks.cpg/sg16_1_cif.got.tgz:1656.got - 2010.06.03 22:28:35.
