data_PCOD9309896
_publ_section_title
;
Structure prediction by ZEFSAII (Michael W. Deem and Ramdas Pophale) SiO2 
 PCOD9309896
Probable space group: C 2/C
;
_chemical_formula_sum "Si O2"
_cell_formula_units_Z 22
_cell_length_a 24.000000
_cell_length_b 6.000000
_cell_length_c 24.000000
_cell_angle_alpha 90.000000
_cell_angle_beta 40.000000
_cell_angle_gamma 90.000000
_cell_volume 2221.473979
_symmetry_space_group_name_H-M "C 2/C"
_symmetry_group_IT_number 15
_symmetry_cell_setting 'monoclinic'
loop_
_space_group_symop_operation_xyz
x,y,z
-x,y,1/2-z
-x,-y,-z
x,-y,1/2+z
1/2+x,1/2+y,z
1/2-x,1/2+y,1/2-z
1/2-x,1/2-y,-z
1/2+x,1/2-y,1/2+z
loop_
_atom_site_type_symbol
_atom_site_label
_atom_site_fract_x
_atom_site_fract_y
_atom_site_fract_z
Si Si1 0.972108 0.139233 0.372227
Si Si2 0.235950 0.248026 0.290795
Si Si3 0.628352 0.672109 0.711990
Si Si4 0.295688 0.499189 0.957226
Si Si5 0.971972 0.250341 0.045752
Si Si6 0.000000 0.482771 0.250000
O O1 0.991606 0.240265 0.418359
O O2 0.973201 0.326917 0.322666
O O3 0.879721 0.015610 0.433776
O O4 0.050585 0.967209 0.300063
O O5 0.250130 0.498015 0.249656
O O6 0.301297 0.253623 0.294760
O O7 0.132501 0.249581 0.380143
O O8 0.673246 0.516524 0.630886
O O9 0.578843 0.866024 0.714228
O O10 0.250000 0.750000 0.000000
O O11 0.250000 0.250000 0.000000
O O12 0.000000 0.500000 0.000000
O O13 0.000000 0.000000 0.000000
#
# Coordination Sequence:
#
# PCOD9309896 Si02
#       6
#     8   8   8   8   8   4
#     4  12  26  50  77 109 152 203 258 305 382 461
#     4  12  27  50  77 110 144 197 260 307 361 457
#     4  12  26  46  79 106 148 200 252 310 373 457
#     4  12  28  45  71 114 149 189 237 315 382 437
#     4  12  30  51  76 110 156 206 248 317 387 447
#     4  12  22  48  82 108 144 194 260 306 376 436
#
# _framework density 9.9033350000000002
#
# number of rings (size 3 to 8) (size 9 to 14) (size 15 to 20)
#    0.000    0.000    5.455    3.273    7.636    0.000 
#    0.000    0.000    0.000    0.000    0.000    0.000 
#    0.000    0.000    0.000    0.000    0.000    0.000 
#
# Total GULP energy -122633.033239 kJ/mol
# GULP energy per Si atom -5574.228784 kJ/mol
# Density = 0.988079 g / cm^3
# Si number density = 9.903335 Si / 1000 Ang^3
#
#
#
# Elastic Constant Matrix: (Units=GPa)
#
#
# Indices 1 2 3 4 5 6 
#
# 1 232.4080 74.1981 63.4025 -0.0079 -5.7578 0.0177
# 2 74.1981 191.6840 72.5606 -0.0025 -5.7631 0.0382
# 3 63.4025 72.5606 100.8506 -0.0031 -20.5129 0.0017
# 4 -0.0079 -0.0025 -0.0031 61.7750 0.0083 -1.4327
# 5 -5.7578 -5.7631 -20.5129 0.0083 53.0751 -0.0139
# 6 0.0177 0.0382 0.0017 -1.4327 -0.0139 58.8150
#
#
#
# Elastic Compliance Matrix: (Units=1/GPa)
#
#
# Indices 1 2 3 4 5 6 
#
# 1 0.005373 -0.001063 -0.002733 0.000001 -0.000589 -0.000001
# 2 -0.001063 0.007466 -0.004951 0.000000 -0.001218 -0.000005
# 3 -0.002733 -0.004951 0.016308 0.000000 0.005469 0.000005
# 4 0.000001 0.000000 0.000000 0.016197 -0.000003 0.000395
# 5 -0.000589 -0.001218 0.005469 -0.000003 0.020759 0.000006
# 6 -0.000001 -0.000005 0.000005 0.000395 0.000006 0.017012
#
#
# Mechanical properties :
#
#
# Convention : Reuss Voigt Hill
#
# Bulk Modulus (GPa) = 85.81186 105.02944 95.42065
# Shear Modulus (GPa) = 47.84968 55.71843 51.78406
#
# Velocity S-wave (km/s) = 4.92045 5.30963 5.11874
# Velocity P-wave (km/s) = 8.70057 9.52534 9.12228
#
# Compressibility (1/GPa) = 0.01165340
#
# Stress axis : x y z
#
# Youngs Moduli (GPa) = 186.11145 133.94037 61.31813
#
# Poissons Ratio (x) = 0.14239 0.16757
# Poissons Ratio (y) = 0.19785 0.30360
# Poissons Ratio (z) = 0.50862 0.66316
#
# Static dielectric constant tensor:
#      x y z
#    x 1.672000 -0.000010 0.003630 
#    y -0.000010 1.749480 0.000000 
#    z 0.003630 0.000000 1.777460 
# 
# From -- ./inp_files/212877.got.cif
#   From: 2010.05.17/outbox.ucp.g08.bks.cvg/sg15_107_cif.got.tgz:212877.got - 2010.06.11 12:40:34.
