data_PCOD9309767
_publ_section_title
;
Structure prediction by ZEFSAII (Michael W. Deem and Ramdas Pophale) SiO2 
 PCOD9309767
Probable space group: C 2/C
;
_chemical_formula_sum "Si O2"
_cell_formula_units_Z 24
_cell_length_a 15.000000
_cell_length_b 27.000000
_cell_length_c 12.000000
_cell_angle_alpha 90.000000
_cell_angle_beta 30.000000
_cell_angle_gamma 90.000000
_cell_volume 2430.000000
_symmetry_space_group_name_H-M "C 2/C"
_symmetry_group_IT_number 15
_symmetry_cell_setting 'monoclinic'
loop_
_space_group_symop_operation_xyz
x,y,z
-x,y,1/2-z
-x,-y,-z
x,-y,1/2+z
1/2+x,1/2+y,z
1/2-x,1/2+y,1/2-z
1/2-x,1/2-y,-z
1/2+x,1/2-y,1/2+z
loop_
_atom_site_type_symbol
_atom_site_label
_atom_site_fract_x
_atom_site_fract_y
_atom_site_fract_z
Si Si1 0.089002 0.535595 0.994538
Si Si2 0.197763 0.383754 0.215639
Si Si3 0.993940 0.801033 0.628875
Si Si4 0.873435 0.304795 0.593330
Si Si5 0.000000 0.547017 0.750000
Si Si6 0.710833 0.692752 0.513094
Si Si7 0.000000 0.382754 0.750000
O O1 0.220139 0.573381 0.786830
O O2 0.126639 0.492759 0.045992
O O3 0.000000 0.500000 0.000000
O O4 0.967714 0.578174 0.184747
O O5 0.125091 0.417139 0.189975
O O6 0.036996 0.343332 0.405423
O O7 0.373990 0.348750 0.020815
O O8 0.059082 0.752487 0.489144
O O9 0.000000 0.784064 0.750000
O O10 0.789408 0.812502 0.817129
O O11 0.782156 0.313218 0.811046
O O12 0.500000 0.683477 0.750000
O O13 0.750000 0.750000 0.500000
O O14 0.832069 0.653765 0.450963
#
# Coordination Sequence:
#
# PCOD9309767 Si02
#       7
#     8   8   8   8   4   8   4
#     4   9  20  40  69  97 116 166 224 269 321 378
#     4  11  22  41  69  93 130 171 209 265 328 375
#     4  12  26  40  63  96 139 175 214 257 317 392
#     4  12  25  40  63  96 135 176 214 256 317 393
#     4   9  20  40  70  94 118 164 226 271 318 378
#     4  12  26  39  63  96 137 174 213 257 317 395
#     4  11  22  42  68  94 132 170 210 261 332 374
#
# _framework density 9.8765429999999999
#
# number of rings (size 3 to 8) (size 9 to 14) (size 15 to 20)
#    0.000    1.000    4.167    2.500    5.833    0.000 
#    0.000    0.000    0.000   46.000    0.000    0.000 
#    0.000    0.000    0.000    0.000    0.000    0.000 
#
# Total GULP energy -133727.395274 kJ/mol
# GULP energy per Si atom -5571.974803 kJ/mol
# Density = 0.985406 g / cm^3
# Si number density = 9.876543 Si / 1000 Ang^3
#
#
#
# Elastic Constant Matrix: (Units=GPa)
#
#
# Indices 1 2 3 4 5 6 
#
# 1 47.9966 18.8264 5.7214 0.0007 -5.4994 0.0000
# 2 18.8264 165.2227 31.9587 0.0003 -5.4756 0.0000
# 3 5.7214 31.9587 66.0001 0.0017 -16.8274 -0.0005
# 4 0.0007 0.0003 0.0017 30.8600 -0.0007 16.3722
# 5 -5.4994 -5.4756 -16.8274 -0.0007 39.0446 0.0001
# 6 0.0000 0.0000 -0.0005 16.3722 0.0001 39.9452
#
#
#
# Elastic Compliance Matrix: (Units=1/GPa)
#
#
# Indices 1 2 3 4 5 6 
#
# 1 0.022105 -0.002419 -0.000042 -0.000001 0.002756 0.000000
# 2 -0.002419 0.006952 -0.003365 0.000000 -0.000816 0.000000
# 3 -0.000042 -0.003365 0.018719 -0.000001 0.007590 0.000001
# 4 -0.000001 0.000000 -0.000001 0.041409 0.000000 -0.016972
# 5 0.002756 -0.000816 0.007590 0.000000 0.029157 0.000000
# 6 0.000000 0.000000 0.000001 -0.016972 0.000000 0.031991
#
#
# Mechanical properties :
#
#
# Convention : Reuss Voigt Hill
#
# Bulk Modulus (GPa) = 27.68230 43.58137 35.63183
# Shear Modulus (GPa) = 28.73154 36.81748 32.77451
#
# Velocity S-wave (km/s) = 3.81797 4.32196 4.07776
# Velocity P-wave (km/s) = 5.78623 6.85687 6.34418
#
# Compressibility (1/GPa) = 0.03612417
#
# Stress axis : x y z
#
# Youngs Moduli (GPa) = 45.23956 143.84650 53.42032
#
# Poissons Ratio (x) = 0.34800 0.00225
# Poissons Ratio (y) = 0.10945 0.17973
# Poissons Ratio (z) = 0.00190 0.48398
#
# Static dielectric constant tensor:
#      x y z
#    x 1.789000 0.000000 0.110590 
#    y 0.000000 1.665330 0.000000 
#    z 0.110590 0.000000 1.638180 
# 
# From -- ./inp_files/101276.got.cif
#   From: 2010.05.17/outbox.ucp.g08.bks.cvg/sg15_51_cif.got.tgz:101276.got - 2010.06.11 12:40:34.
