data_PCOD9309452
_publ_section_title
;
Structure prediction by ZEFSAII (Michael W. Deem and Ramdas Pophale) SiO2 
 PCOD9309452
Probable space group: C 2/C
;
_chemical_formula_sum "Si O2"
_cell_formula_units_Z 26
_cell_length_a 12.000000
_cell_length_b 27.000000
_cell_length_c 18.000000
_cell_angle_alpha 90.000000
_cell_angle_beta 30.000000
_cell_angle_gamma 90.000000
_cell_volume 2916.000000
_symmetry_space_group_name_H-M "C 2/C"
_symmetry_group_IT_number 15
_symmetry_cell_setting 'monoclinic'
loop_
_space_group_symop_operation_xyz
x,y,z
-x,y,1/2-z
-x,-y,-z
x,-y,1/2+z
1/2+x,1/2+y,z
1/2-x,1/2+y,1/2-z
1/2-x,1/2-y,-z
1/2+x,1/2-y,1/2+z
loop_
_atom_site_type_symbol
_atom_site_label
_atom_site_fract_x
_atom_site_fract_y
_atom_site_fract_z
Si Si1 0.242431 0.798195 0.734624
Si Si2 0.752874 0.440016 0.488082
Si Si3 0.000000 0.866551 0.750000
Si Si4 0.227603 0.913364 0.334293
Si Si5 0.399860 0.447844 0.391468
Si Si6 0.464108 0.303632 0.049287
Si Si7 0.368772 0.146667 0.401227
O O1 0.325235 0.744363 0.656941
O O2 0.459701 0.825438 0.643733
O O3 0.140003 0.830966 0.725926
O O4 0.069632 0.795423 0.905196
O O5 0.641149 0.402857 0.613116
O O6 0.665621 0.431792 0.453546
O O7 0.704732 0.497267 0.537570
O O8 0.015858 0.427184 0.330483
O O9 0.079767 0.937492 0.353716
O O10 0.183406 0.854007 0.362935
O O11 0.500000 0.444703 0.250000
O O12 0.227776 0.402473 0.504007
O O13 0.669579 0.317315 0.986800
O O14 0.500000 0.132008 0.250000
#
# Coordination Sequence:
#
# PCOD9309452 Si02
#       7
#     8   8   4   8   8   8   8
#     4  11  24  40  64  92 126 165 208 260 312 369
#     4  11  24  44  63  90 130 171 203 257 311 372
#     4  12  26  40  62  94 132 164 212 256 302 380
#     4  10  24  44  65  88 128 167 209 255 313 380
#     4  11  24  40  65 100 122 161 213 260 314 370
#     4  10  22  43  64  93 121 163 211 259 314 372
#     4   9  22  42  65  92 126 162 208 260 316 370
#
# _framework density 8.9163239999999995
#
# number of rings (size 3 to 8) (size 9 to 14) (size 15 to 20)
#    0.000    1.538    2.308    0.923    6.462    4.923 
#    0.000    0.769    0.000    0.000    0.000    0.000 
#    0.000    0.000    0.000    0.000    0.000    0.000 
#
# Total GULP energy -145144.116800 kJ/mol
# GULP energy per Si atom -5582.466031 kJ/mol
# Density = 0.889603 g / cm^3
# Si number density = 8.916324 Si / 1000 Ang^3
#
#
#
# Elastic Constant Matrix: (Units=GPa)
#
#
# Indices 1 2 3 4 5 6 
#
# 1 131.2409 66.5658 56.9862 0.0488 18.6469 -0.0246
# 2 66.5658 184.8461 89.5681 -0.0084 13.9882 0.0077
# 3 56.9862 89.5681 127.8805 -0.0628 23.1190 0.0028
# 4 0.0488 -0.0084 -0.0628 48.4254 0.0333 6.3048
# 5 18.6469 13.9882 23.1190 0.0333 32.3547 0.0010
# 6 -0.0246 0.0077 0.0028 6.3048 0.0010 29.8938
#
#
#
# Elastic Compliance Matrix: (Units=1/GPa)
#
#
# Indices 1 2 3 4 5 6 
#
# 1 0.010282 -0.002302 -0.002386 -0.000013 -0.003225 0.000012
# 2 -0.002302 0.008716 -0.005326 -0.000004 0.001364 -0.000003
# 3 -0.002386 -0.005326 0.013721 0.000024 -0.006127 -0.000007
# 4 -0.000013 -0.000004 0.000024 0.021233 -0.000030 -0.004478
# 5 -0.003225 0.001364 -0.006127 -0.000030 0.036554 0.000003
# 6 0.000012 -0.000003 -0.000007 -0.004478 0.000003 0.034396
#
#
# Mechanical properties :
#
#
# Convention : Reuss Voigt Hill
#
# Bulk Modulus (GPa) = 78.79741 96.68974 87.74357
# Shear Modulus (GPa) = 33.52087 37.52462 35.52274
#
# Velocity S-wave (km/s) = 4.34031 4.59220 4.46803
# Velocity P-wave (km/s) = 8.33071 9.08053 8.71369
#
# Compressibility (1/GPa) = 0.01269077
#
# Stress axis : x y z
#
# Youngs Moduli (GPa) = 97.26082 114.72739 72.88244
#
# Poissons Ratio (x) = 0.26414 0.17390
# Poissons Ratio (y) = 0.22392 0.38814
# Poissons Ratio (z) = 0.23207 0.61099
#
# Static dielectric constant tensor:
#      x y z
#    x 1.614940 0.000000 -0.015840 
#    y 0.000000 1.586600 0.000010 
#    z -0.015840 0.000010 1.611160 
# 
# From -- ./inp_files/33735.got.cif
#   From: 2010.05.17/outbox.ucp.g08.bks.cvg/sg15_17_cif.got.tgz:33735.got - 2010.06.11 12:40:34.
