data_PCOD9309011
_publ_section_title
;
Structure prediction by ZEFSAII (Michael W. Deem and Ramdas Pophale) SiO2 
 PCOD9309011
Probable space group: C 2/C
;
_chemical_formula_sum "Si O2"
_cell_formula_units_Z 26
_cell_length_a 30.000000
_cell_length_b 9.000000
_cell_length_c 30.000000
_cell_angle_alpha 90.000000
_cell_angle_beta 20.000000
_cell_angle_gamma 90.000000
_cell_volume 2770.363161
_symmetry_space_group_name_H-M "C 2/C"
_symmetry_group_IT_number 15
_symmetry_cell_setting 'monoclinic'
loop_
_space_group_symop_operation_xyz
x,y,z
-x,y,1/2-z
-x,-y,-z
x,-y,1/2+z
1/2+x,1/2+y,z
1/2-x,1/2+y,1/2-z
1/2-x,1/2-y,-z
1/2+x,1/2-y,1/2+z
loop_
_atom_site_type_symbol
_atom_site_label
_atom_site_fract_x
_atom_site_fract_y
_atom_site_fract_z
Si Si1 0.000000 0.774936 0.750000
Si Si2 0.425006 0.016961 0.454688
Si Si3 0.268980 0.170950 0.034426
Si Si4 0.216378 0.651692 0.337898
Si Si5 0.706779 0.897843 0.165992
Si Si6 0.143070 0.179976 0.440225
Si Si7 0.851668 0.850689 0.181400
O O1 0.881860 0.865335 0.837412
O O2 0.105418 0.687764 0.617883
O O3 0.316830 0.951095 0.523827
O O4 0.399101 0.932565 0.526377
O O5 0.565013 0.972333 0.303607
O O6 0.398838 0.190429 0.486045
O O7 0.248846 0.328818 0.078936
O O8 0.292091 0.754438 0.302371
O O9 0.170308 0.770152 0.344878
O O10 0.298619 0.518753 0.237731
O O11 0.807221 0.025207 0.086422
O O12 0.261911 0.251507 0.299659
O O13 0.006469 0.151904 0.543669
#
# Coordination Sequence:
#
# PCOD9309011 Si02
#       7
#     4   8   8   8   8   8   8
#     4  10  20  38  64 106 120 158 190 248 288 376
#     4  10  22  41  59  92 121 163 200 257 299 368
#     4  10  21  38  69  93 129 154 201 238 305 355
#     4  10  25  37  62  84 125 157 219 254 314 351
#     4  11  22  40  61  91 121 165 199 260 297 368
#     4  11  24  40  62  85 124 162 215 246 313 352
#     4  11  24  39  58  89 117 170 207 268 301 356
#
# _framework density 9.3850510000000007
#
# number of rings (size 3 to 8) (size 9 to 14) (size 15 to 20)
#    0.000    1.538    3.077    0.923    6.462    3.692 
#    0.000    0.000    0.000    5.538    0.000    0.000 
#    0.000    0.000    0.000    0.000    0.000    0.000 
#
# Total GULP energy -144781.110735 kJ/mol
# GULP energy per Si atom -5568.504259 kJ/mol
# Density = 0.936369 g / cm^3
# Si number density = 9.385051 Si / 1000 Ang^3
#
#
#
# Elastic Constant Matrix: (Units=GPa)
#
#
# Indices 1 2 3 4 5 6 
#
# 1 76.9623 34.6917 38.8305 0.0024 -11.8318 0.0012
# 2 34.6917 94.6025 15.9835 0.0151 -1.9171 -0.0091
# 3 38.8305 15.9835 114.8100 0.0189 -16.9171 -0.0073
# 4 0.0024 0.0151 0.0189 24.8510 -0.0022 -6.4135
# 5 -11.8318 -1.9171 -16.9171 -0.0022 33.8978 -0.0019
# 6 0.0012 -0.0091 -0.0073 -6.4135 -0.0019 9.5254
#
#
#
# Elastic Compliance Matrix: (Units=1/GPa)
#
#
# Indices 1 2 3 4 5 6 
#
# 1 0.018761 -0.005965 -0.004965 0.000004 0.003733 -0.000009
# 2 -0.005965 0.012723 0.000049 -0.000005 -0.001338 0.000009
# 3 -0.004965 0.000049 0.010931 -0.000006 0.003725 0.000006
# 4 0.000004 -0.000005 -0.000006 0.048703 0.000003 0.032792
# 5 0.003733 -0.001338 0.003725 0.000003 0.032587 0.000010
# 6 -0.000009 0.000009 0.000006 0.032792 0.000010 0.127061
#
#
# Mechanical properties :
#
#
# Convention : Reuss Voigt Hill
#
# Bulk Modulus (GPa) = 48.41852 51.70958 50.06405
# Shear Modulus (GPa) = 17.89472 26.77947 22.33709
#
# Velocity S-wave (km/s) = 3.09101 3.78128 3.45343
# Velocity P-wave (km/s) = 6.21214 6.83175 6.52930
#
# Compressibility (1/GPa) = 0.02065326
#
# Stress axis : x y z
#
# Youngs Moduli (GPa) = 53.30138 78.59965 91.48081
#
# Poissons Ratio (x) = 0.46888 0.45418
# Poissons Ratio (y) = 0.31797 -0.00450
# Poissons Ratio (z) = 0.26463 -0.00387
#
# Static dielectric constant tensor:
#      x y z
#    x 1.756710 0.000000 0.018530 
#    y 0.000000 1.633330 0.000010 
#    z 0.018530 0.000010 1.636830 
# 
# From -- ./inp_files/320165.got.cif
#   From: 2010.05.17/outbox.ucp.g08.bks.cvg/sg15_161_cif.got.tgz:320165.got - 2010.06.11 12:40:34.
