data_PCOD9309072
_publ_section_title
;
Structure prediction by ZEFSAII (Michael W. Deem and Ramdas Pophale) SiO2 
 PCOD9309072
Probable space group: C 2/C
;
_chemical_formula_sum "Si O2"
_cell_formula_units_Z 30
_cell_length_a 6.000000
_cell_length_b 18.000000
_cell_length_c 27.000000
_cell_angle_alpha 90.000000
_cell_angle_beta 90.000000
_cell_angle_gamma 90.000000
_cell_volume 2916.000000
_symmetry_space_group_name_H-M "C 2/C"
_symmetry_group_IT_number 15
_symmetry_cell_setting 'monoclinic'
loop_
_space_group_symop_operation_xyz
x,y,z
-x,y,1/2-z
-x,-y,-z
x,-y,1/2+z
1/2+x,1/2+y,z
1/2-x,1/2+y,1/2-z
1/2-x,1/2-y,-z
1/2+x,1/2-y,1/2+z
loop_
_atom_site_type_symbol
_atom_site_label
_atom_site_fract_x
_atom_site_fract_y
_atom_site_fract_z
Si Si1 0.315217 0.348229 0.455129
Si Si2 0.118985 0.953501 0.385956
Si Si3 0.000000 0.372003 0.750000
Si Si4 0.580120 0.814490 0.120622
Si Si5 0.893266 0.440889 0.961064
Si Si6 0.314108 0.301937 0.671620
Si Si7 0.106460 0.057041 0.195600
Si Si8 0.461678 0.794732 0.581511
O O1 0.461808 0.406195 0.422976
O O2 0.272307 0.388116 0.507244
O O3 0.436613 0.267816 0.455983
O O4 0.085031 0.335690 0.424732
O O5 0.284331 0.888902 0.365397
O O6 0.264982 0.013223 0.417922
O O7 0.968880 0.994038 0.343816
O O8 0.828886 0.319491 0.779462
O O9 0.862469 0.422526 0.710258
O O10 0.435708 0.777014 0.164432
O O11 0.746892 0.748553 0.102807
O O12 0.065929 0.378014 0.940301
O O13 0.000000 0.500000 0.000000
O O14 0.495465 0.367930 0.673452
O O15 0.144481 0.305240 0.625174
O O16 0.000000 0.041217 0.250000
#
# Coordination Sequence:
#
# PCOD9309072 Si02
#       8
#     8   8   4   8   8   8   8   8
#     4  10  23  41  62  94 142 182 225 273 326 405
#     4  11  23  44  68  99 142 175 222 284 342 400
#     4  10  22  38  70 110 122 160 234 284 338 402
#     4  10  22  42  67  98 136 185 219 271 340 395
#     4  12  23  41  65 104 132 182 230 281 335 396
#     4  10  20  41  68 102 127 173 221 283 335 401
#     4  10  22  41  73 101 130 169 225 282 341 407
#     4  10  22  41  66  90 138 181 227 269 336 394
#
# _framework density 10.288066000000001
#
# number of rings (size 3 to 8) (size 9 to 14) (size 15 to 20)
#    0.000    1.600    2.667    1.600    0.000    4.800 
#    4.800    0.000   44.000    0.000    0.000    0.000 
#    0.000    0.000    0.000    0.000    0.000    0.000 
#
# Total GULP energy -167603.813894 kJ/mol
# GULP energy per Si atom -5586.793796 kJ/mol
# Density = 1.026465 g / cm^3
# Si number density = 10.288066 Si / 1000 Ang^3
#
#
#
# Elastic Constant Matrix: (Units=GPa)
#
#
# Indices 1 2 3 4 5 6 
#
# 1 85.1482 46.0985 15.6264 0.0000 8.3914 0.0000
# 2 46.0985 159.4297 52.8803 0.0000 1.6364 0.0000
# 3 15.6264 52.8803 66.8241 0.0000 4.1653 0.0000
# 4 0.0000 0.0000 0.0000 39.4642 0.0000 3.2206
# 5 8.3914 1.6364 4.1653 0.0000 28.3676 0.0000
# 6 0.0000 0.0000 0.0000 3.2206 0.0000 33.2021
#
#
#
# Elastic Compliance Matrix: (Units=1/GPa)
#
#
# Indices 1 2 3 4 5 6 
#
# 1 0.014368 -0.004179 0.000199 0.000000 -0.004038 0.000000
# 2 -0.004179 0.009727 -0.006825 0.000000 0.001677 0.000000
# 3 0.000199 -0.006825 0.020485 0.000000 -0.002673 0.000000
# 4 0.000000 0.000000 0.000000 0.025542 0.000000 -0.002477
# 5 -0.004038 0.001677 -0.002673 0.000000 0.036742 0.000000
# 6 0.000000 0.000000 0.000000 -0.002477 0.000000 0.030359
#
#
# Mechanical properties :
#
#
# Convention : Reuss Voigt Hill
#
# Bulk Modulus (GPa) = 43.53335 60.06806 51.80070
# Shear Modulus (GPa) = 30.03183 33.32656 31.67920
#
# Velocity S-wave (km/s) = 3.82455 4.02888 3.92804
# Velocity P-wave (km/s) = 6.38013 7.13435 6.76775
#
# Compressibility (1/GPa) = 0.02297090
#
# Stress axis : x y z
#
# Youngs Moduli (GPa) = 69.59810 102.80504 48.81511
#
# Poissons Ratio (x) = 0.42962 -0.00970
# Poissons Ratio (y) = 0.29085 0.33315
# Poissons Ratio (z) = -0.01384 0.70162
#
# Static dielectric constant tensor:
#      x y z
#    x 1.787530 0.000000 -0.042630 
#    y 0.000000 1.720940 0.000000 
#    z -0.042630 0.000000 1.735190 
# 
# From -- ./inp_files/286086.got.cif
#   From: 2010.05.17/outbox.ucp.g08.bks.cvg/sg15_144_cif.got.tgz:286086.got - 2010.06.11 12:40:34.
