data_PCOD9309994
_publ_section_title
;
Structure prediction by ZEFSAII (Michael W. Deem and Ramdas Pophale) SiO2 
 PCOD9309994
Probable space group: P 2 2 2
;
_chemical_formula_sum "Si O2"
_cell_formula_units_Z 25
_cell_length_a 10.207612
_cell_length_b 10.051245
_cell_length_c 12.110450
_cell_angle_alpha 90.000000
_cell_angle_beta 90.000000
_cell_angle_gamma 90.000000
_cell_volume 1242.522592
_symmetry_space_group_name_H-M "P 2 2 2"
_symmetry_group_IT_number 16
_symmetry_cell_setting 'orthorhombic'
loop_
_space_group_symop_operation_xyz
x,y,z
-x,-y,z
x,-y,-z
-x,y,-z
loop_
_atom_site_type_symbol
_atom_site_label
_atom_site_fract_x
_atom_site_fract_y
_atom_site_fract_z
Si Si1 0.172146 0.346533 0.818089
Si Si2 0.502187 0.150351 0.689973
Si Si3 0.465350 0.344326 0.877679
Si Si4 0.152497 0.460367 0.378939
Si Si5 0.780453 0.164709 0.598548
Si Si6 0.000000 0.500000 0.000000
Si Si7 0.803901 0.870842 0.651978
O O1 0.311586 0.316864 0.869993
O O2 0.203670 0.455411 0.723400
O O3 0.128015 0.218067 0.745830
O O4 0.081781 0.407382 0.914202
O O5 0.532970 0.258291 0.782882
O O6 0.620420 0.158330 0.601640
O O7 0.351388 0.168079 0.654091
O O8 0.500000 0.000000 0.735312
O O9 0.500000 0.500000 0.864839
O O10 0.500000 0.302134 0.000000
O O11 0.208576 0.500000 0.500000
O O12 0.174137 0.305691 0.356355
O O13 0.000000 0.500000 0.382394
O O14 0.838889 0.159672 0.474810
O O15 0.820056 0.029872 0.662294
#
# Coordination Sequence:
#
# PCOD9309994 Si02
#       7
#     4   4   4   4   4   1   4
#     4  11  22  40  61  87 120 160 216 254 304 373
#     4   9  18  32  55  88 122 158 193 237 300 380
#     4  10  20  35  55  85 117 153 202 252 298 355
#     4  11  22  38  61  88 119 159 206 261 313 372
#     4  10  18  34  61  89 126 162 186 244 325 372
#     4  12  24  40  68  82 116 184 214 260 320 332
#     4   9  19  35  58  91 125 157 198 245 305 390
#
# _framework density 20.120356999999998
#
# number of rings (size 3 to 8) (size 9 to 14) (size 15 to 20)
#    0.000    1.920    2.400    2.400    0.000    2.240 
#    0.000    0.800    0.000    3.840    0.000    0.000 
#    0.000    0.000    0.000    0.000    0.000    0.000 
#
# Total GULP energy -139381.740069 kJ/mol
# GULP energy per Si atom -5575.269603 kJ/mol
# Density = 2.007456 g / cm^3
# Si number density = 20.120357 Si / 1000 Ang^3
#
#
#
# Elastic Constant Matrix: (Units=GPa)
#
#
# Indices 1 2 3 4 5 6 
#
# 1 50.8878 23.4340 27.0078 0.0000 0.0000 0.0000
# 2 23.4340 142.5653 57.9716 0.0000 0.0000 0.0000
# 3 27.0078 57.9716 135.3529 0.0000 0.0000 0.0000
# 4 0.0000 0.0000 0.0000 22.9168 0.0000 0.0000
# 5 0.0000 0.0000 0.0000 0.0000 7.1172 0.0000
# 6 0.0000 0.0000 0.0000 0.0000 0.0000 15.5690
#
#
#
# Elastic Compliance Matrix: (Units=1/GPa)
#
#
# Indices 1 2 3 4 5 6 
#
# 1 0.022572 -0.002275 -0.003530 0.000000 0.000000 0.000000
# 2 -0.002275 0.008723 -0.003282 0.000000 0.000000 0.000000
# 3 -0.003530 -0.003282 0.009498 0.000000 0.000000 0.000000
# 4 0.000000 0.000000 0.000000 0.043636 0.000000 0.000000
# 5 0.000000 0.000000 0.000000 0.000000 0.140504 0.000000
# 6 0.000000 0.000000 0.000000 0.000000 0.000000 0.064230
#
#
# Mechanical properties :
#
#
# Convention : Reuss Voigt Hill
#
# Bulk Modulus (GPa) = 44.20928 60.62586 52.41757
# Shear Modulus (GPa) = 15.87926 23.81344 19.84635
#
# Velocity S-wave (km/s) = 2.81234 3.44401 3.14408
# Velocity P-wave (km/s) = 5.70665 6.78321 6.26808
#
# Compressibility (1/GPa) = 0.02261969
#
# Stress axis : x y z
#
# Youngs Moduli (GPa) = 44.30275 114.64115 105.28450
#
# Poissons Ratio (x) = 0.26081 0.37161
# Poissons Ratio (y) = 0.10079 0.34555
# Poissons Ratio (z) = 0.15637 0.37626
#
# Static dielectric constant tensor:
#      x y z
#    x 1.903620 0.000000 0.000000 
#    y 0.000000 1.735370 0.000000 
#    z 0.000000 0.000000 1.719070 
# 
# From -- ./inp_files/6845.got.cif
#   From: 2010.05.17/outbox.cif.g08.bks.cpg/sg16_4_cif.got.tgz:6845.got - 2010.06.03 22:28:35.
