data_PCOD9309816
_publ_section_title
;
Structure prediction by ZEFSAII (Michael W. Deem and Ramdas Pophale) SiO2 
 PCOD9309816
Probable space group: C 2/C
;
_chemical_formula_sum "Si O2"
_cell_formula_units_Z 26
_cell_length_a 18.000000
_cell_length_b 18.000000
_cell_length_c 9.000000
_cell_angle_alpha 90.000000
_cell_angle_beta 60.000000
_cell_angle_gamma 90.000000
_cell_volume 2525.330077
_symmetry_space_group_name_H-M "C 2/C"
_symmetry_group_IT_number 15
_symmetry_cell_setting 'monoclinic'
loop_
_space_group_symop_operation_xyz
x,y,z
-x,y,1/2-z
-x,-y,-z
x,-y,1/2+z
1/2+x,1/2+y,z
1/2-x,1/2+y,1/2-z
1/2-x,1/2-y,-z
1/2+x,1/2-y,1/2+z
loop_
_atom_site_type_symbol
_atom_site_label
_atom_site_fract_x
_atom_site_fract_y
_atom_site_fract_z
Si Si1 0.855880 0.699141 0.511460
Si Si2 0.083466 0.448816 0.380273
Si Si3 0.500000 0.690528 0.750000
Si Si4 0.434696 0.446423 0.149502
Si Si5 0.672256 0.937207 0.990878
Si Si6 0.244325 0.663176 0.189432
Si Si7 0.174535 0.006448 0.474660
O O1 0.900651 0.631173 0.555990
O O2 0.926347 0.756327 0.381858
O O3 0.808388 0.666990 0.412536
O O4 0.790399 0.756548 0.659530
O O5 0.098595 0.437244 0.189974
O O6 0.154720 0.502835 0.380036
O O7 0.000000 0.500000 0.500000
O O8 0.532188 0.635499 0.847800
O O9 0.351578 0.449888 0.128191
O O10 0.404130 0.480629 0.334782
O O11 0.500000 0.500000 0.000000
O O12 0.752813 0.967585 0.001141
O O13 0.688277 0.860189 0.888689
O O14 0.304270 0.589591 0.107428
#
# Coordination Sequence:
#
# PCOD9309816 Si02
#       7
#     8   8   4   8   8   8   8
#     4  11  26  44  68  98 143 185 229 287 359 412
#     4  12  26  45  72 101 138 184 237 298 348 429
#     4  12  26  42  66 100 144 182 222 278 360 422
#     4  12  22  40  67 102 136 180 223 277 342 415
#     4  12  24  43  73 104 131 179 246 285 353 414
#     4  11  23  44  71 102 136 179 230 288 351 414
#     4  12  21  39  71 102 134 171 230 283 330 417
#
# _framework density 10.295684
#
# number of rings (size 3 to 8) (size 9 to 14) (size 15 to 20)
#    0.000    0.308    7.692    0.462    4.308    0.615 
#    0.000    0.000    0.000    0.000    0.000    0.000 
#    0.000    0.000    0.000    0.000    0.000    0.000 
#
# Total GULP energy -145094.495620 kJ/mol
# GULP energy per Si atom -5580.557524 kJ/mol
# Density = 1.027225 g / cm^3
# Si number density = 10.295684 Si / 1000 Ang^3
#
#
#
# Elastic Constant Matrix: (Units=GPa)
#
#
# Indices 1 2 3 4 5 6 
#
# 1 85.3144 40.8605 27.9296 0.0000 4.5588 0.0000
# 2 40.8605 143.9916 53.0692 0.0000 -1.3779 0.0000
# 3 27.9296 53.0692 142.0669 0.0000 -1.1677 0.0000
# 4 0.0000 0.0000 0.0000 12.3851 0.0000 -1.2133
# 5 4.5588 -1.3779 -1.1677 0.0000 27.7361 0.0000
# 6 0.0000 0.0000 0.0000 -1.2133 0.0000 40.6733
#
#
#
# Elastic Compliance Matrix: (Units=1/GPa)
#
#
# Indices 1 2 3 4 5 6 
#
# 1 0.013994 -0.003448 -0.001484 0.000000 -0.002534 0.000000
# 2 -0.003448 0.008905 -0.002641 0.000000 0.000898 0.000000
# 3 -0.001484 -0.002641 0.008321 0.000000 0.000463 0.000000
# 4 0.000000 0.000000 0.000000 0.080979 0.000000 0.002416
# 5 -0.002534 0.000898 0.000463 0.000000 0.036535 0.000000
# 6 0.000000 0.000000 0.000000 0.002416 0.000000 0.024658
#
#
# Mechanical properties :
#
#
# Convention : Reuss Voigt Hill
#
# Bulk Modulus (GPa) = 62.21421 68.34352 65.27887
# Shear Modulus (GPa) = 25.78683 32.79315 29.28999
#
# Velocity S-wave (km/s) = 3.54264 3.99503 3.77562
# Velocity P-wave (km/s) = 6.85661 7.38531 7.12586
#
# Compressibility (1/GPa) = 0.01607350
#
# Stress axis : x y z
#
# Youngs Moduli (GPa) = 71.45849 112.29016 120.17610
#
# Poissons Ratio (x) = 0.38723 0.17832
# Poissons Ratio (y) = 0.24642 0.31742
# Poissons Ratio (z) = 0.10603 0.29659
#
# Static dielectric constant tensor:
#      x y z
#    x 1.984800 0.000000 -0.093980 
#    y 0.000000 1.676000 0.000000 
#    z -0.093980 0.000000 1.800470 
# 
# From -- ./inp_files/48925.got.cif
#   From: 2010.05.17/outbox.ucp.g08.bks.cvg/sg15_25_cif.got.tgz:48925.got - 2010.06.11 12:40:34.
