data_PCOD9309146
_publ_section_title
;
Structure prediction by ZEFSAII (Michael W. Deem and Ramdas Pophale) SiO2 
 PCOD9309146
Probable space group: C 2/C
;
_chemical_formula_sum "Si O2"
_cell_formula_units_Z 26
_cell_length_a 15.000000
_cell_length_b 21.000000
_cell_length_c 9.000000
_cell_angle_alpha 90.000000
_cell_angle_beta 100.000000
_cell_angle_gamma 90.000000
_cell_volume 2791.929980
_symmetry_space_group_name_H-M "C 2/C"
_symmetry_group_IT_number 15
_symmetry_cell_setting 'monoclinic'
loop_
_space_group_symop_operation_xyz
x,y,z
-x,y,1/2-z
-x,-y,-z
x,-y,1/2+z
1/2+x,1/2+y,z
1/2-x,1/2+y,1/2-z
1/2-x,1/2-y,-z
1/2+x,1/2-y,1/2+z
loop_
_atom_site_type_symbol
_atom_site_label
_atom_site_fract_x
_atom_site_fract_y
_atom_site_fract_z
Si Si1 0.821060 0.423192 0.044223
Si Si2 0.353676 0.573395 0.498267
Si Si3 0.872132 0.939414 0.359340
Si Si4 0.043217 0.304686 0.429929
Si Si5 0.500000 0.853843 0.750000
Si Si6 0.499211 0.655042 0.076938
Si Si7 0.836556 0.451218 0.705194
O O1 0.724595 0.419900 0.097888
O O2 0.871952 0.354941 0.052347
O O3 0.868681 0.479622 0.154149
O O4 0.810044 0.449860 0.872412
O O5 0.392327 0.511363 0.421227
O O6 0.368201 0.564700 0.679260
O O7 0.399944 0.638835 0.454921
O O8 0.248831 0.569781 0.419553
O O9 0.941185 0.890397 0.453348
O O10 0.004499 0.319858 0.587400
O O11 0.041197 0.226935 0.436076
O O12 0.000000 0.316676 0.250000
O O13 0.413766 0.899373 0.713631
O O14 0.500000 0.634986 0.250000
#
# Coordination Sequence:
#
# PCOD9309146 Si02
#       7
#     8   8   8   8   4   8   8
#     4  10  21  38  61  94 127 159 205 259 312 376
#     4  11  22  38  63  95 124 158 206 261 315 371
#     4  11  22  37  65  92 125 160 205 261 311 375
#     4  10  25  40  63  87 128 170 211 255 309 381
#     4  10  24  40  64  92 128 160 208 264 306 384
#     4  11  23  42  61  85 124 170 209 254 306 374
#     4  10  21  37  62  94 122 162 198 263 317 359
#
# _framework density 9.3125540000000004
#
# number of rings (size 3 to 8) (size 9 to 14) (size 15 to 20)
#    0.000    1.538    0.000    6.462    7.538    1.846 
#    0.000    2.308    0.000    0.000    0.000    0.000 
#    0.000    0.000    0.000    0.000    0.000    0.000 
#
# Total GULP energy -144753.201471 kJ/mol
# GULP energy per Si atom -5567.430826 kJ/mol
# Density = 0.929136 g / cm^3
# Si number density = 9.312554 Si / 1000 Ang^3
#
#
#
# Elastic Constant Matrix: (Units=GPa)
#
#
# Indices 1 2 3 4 5 6 
#
# 1 48.0926 32.0520 39.2822 0.0000 -1.6396 0.0000
# 2 32.0520 96.9874 34.3014 0.0000 8.8265 0.0000
# 3 39.2822 34.3014 175.7078 0.0000 -8.5002 0.0000
# 4 0.0000 0.0000 0.0000 35.8734 0.0000 0.0870
# 5 -1.6396 8.8265 -8.5002 0.0000 36.8301 0.0000
# 6 0.0000 0.0000 0.0000 0.0870 0.0000 23.1137
#
#
#
# Elastic Compliance Matrix: (Units=1/GPa)
#
#
# Indices 1 2 3 4 5 6 
#
# 1 0.030733 -0.008560 -0.005091 0.000000 0.002245 0.000000
# 2 -0.008560 0.013843 -0.000978 0.000000 -0.003924 0.000000
# 3 -0.005091 -0.000978 0.007100 0.000000 0.001647 0.000000
# 4 0.000000 0.000000 0.000000 0.027876 0.000000 -0.000105
# 5 0.002245 -0.003924 0.001647 0.000000 0.028572 0.000000
# 6 0.000000 0.000000 0.000000 -0.000105 0.000000 0.043265
#
#
# Mechanical properties :
#
#
# Convention : Reuss Voigt Hill
#
# Bulk Modulus (GPa) = 44.61015 59.11768 51.86391
# Shear Modulus (GPa) = 26.57858 33.50692 30.04275
#
# Velocity S-wave (km/s) = 3.78170 4.24609 4.02060
# Velocity P-wave (km/s) = 6.56292 7.47320 7.03281
#
# Compressibility (1/GPa) = 0.02241642
#
# Stress axis : x y z
#
# Youngs Moduli (GPa) = 32.53786 72.23985 140.84217
#
# Poissons Ratio (x) = 0.61840 0.71706
# Poissons Ratio (y) = 0.27853 0.13780
# Poissons Ratio (z) = 0.16566 0.07068
#
# Static dielectric constant tensor:
#      x y z
#    x 1.711240 0.000000 0.001690 
#    y 0.000000 1.646940 0.000000 
#    z 0.001690 0.000000 1.644220 
# 
# From -- ./inp_files/40886.got.cif
#   From: 2010.05.17/outbox.ucp.g08.bks.cvg/sg15_21_cif.got.tgz:40886.got - 2010.06.11 12:40:34.
