data_PCOD9309931
_publ_section_title
;
Structure prediction by ZEFSAII (Michael W. Deem and Ramdas Pophale) SiO2 
 PCOD9309931
Probable space group: P 2 2 2
;
_chemical_formula_sum "Si O2"
_cell_formula_units_Z 24
_cell_length_a 11.882740
_cell_length_b 21.802237
_cell_length_c 5.190437
_cell_angle_alpha 90.000000
_cell_angle_beta 90.000000
_cell_angle_gamma 90.000000
_cell_volume 1344.688142
_symmetry_space_group_name_H-M "P 2 2 2"
_symmetry_group_IT_number 16
_symmetry_cell_setting 'orthorhombic'
loop_
_space_group_symop_operation_xyz
x,y,z
-x,-y,z
x,-y,-z
-x,y,-z
loop_
_atom_site_type_symbol
_atom_site_label
_atom_site_fract_x
_atom_site_fract_y
_atom_site_fract_z
Si Si1 0.731789 0.566001 0.936930
Si Si2 0.767811 0.725283 0.477429
Si Si3 0.629962 0.304175 0.023355
Si Si4 0.871190 0.595337 0.447983
Si Si5 0.076610 0.168788 0.250276
Si Si6 0.128505 0.972097 0.755676
O O1 0.647382 0.623297 0.921178
O O2 0.822929 0.580936 0.163833
O O3 0.680332 0.500000 0.000000
O O4 0.795452 0.563401 0.665048
O O5 0.680066 0.706045 0.258983
O O6 0.854390 0.668349 0.498938
O O7 0.831801 0.782579 0.348953
O O8 0.702999 0.730018 0.752198
O O9 0.500000 0.287073 0.000000
O O10 0.000000 0.578833 0.500000
O O11 0.124200 0.100515 0.209759
O O12 0.000000 0.161447 0.500000
O O13 0.000000 0.186446 0.000000
O O14 0.180458 0.000000 0.500000
O O15 0.000000 0.000000 0.754164
O O16 0.188459 0.000000 0.000000
#
# Coordination Sequence:
#
# PCOD9309931 Si02
#       6
#     4   4   4   4   4   4
#     4  10  21  34  52  78  98 124 174 216 255 328
#     4  10  22  35  51  80 101 132 188 212 254 325
#     4  10  21  40  58  71  99 132 165 234 291 312
#     4  10  20  34  49  69 108 141 164 204 248 301
#     4  12  20  30  51  76 113 154 174 208 247 301
#     4  10  16  29  43  68 107 151 181 200 234 291
#
# _framework density 17.848006000000002
#
# number of rings (size 3 to 8) (size 9 to 14) (size 15 to 20)
#    0.000    1.667    3.333    3.000    0.000    5.000 
#    0.000    0.000    0.000    6.000    0.000    0.000 
#    0.000   10.000    0.000    0.000    0.000    0.000 
#
# Total GULP energy -133721.476382 kJ/mol
# GULP energy per Si atom -5571.728183 kJ/mol
# Density = 1.780738 g / cm^3
# Si number density = 17.848006 Si / 1000 Ang^3
#
#
#
# Elastic Constant Matrix: (Units=GPa)
#
#
# Indices 1 2 3 4 5 6 
#
# 1 31.6779 9.1840 7.1569 0.0000 0.0000 0.0000
# 2 9.1840 90.8305 -3.9345 0.0000 0.0000 0.0000
# 3 7.1569 -3.9345 118.1774 0.0000 0.0000 0.0000
# 4 0.0000 0.0000 0.0000 43.9333 0.0000 0.0000
# 5 0.0000 0.0000 0.0000 0.0000 -0.5639 0.0000
# 6 0.0000 0.0000 0.0000 0.0000 0.0000 -58.0634
#
#
#
# Elastic Compliance Matrix: (Units=1/GPa)
#
#
# Indices 1 2 3 4 5 6 
#
# 1 0.033041 -0.003432 -0.002115 0.000000 0.000000 0.000000
# 2 -0.003432 0.011382 0.000587 0.000000 0.000000 0.000000
# 3 -0.002115 0.000587 0.008609 0.000000 0.000000 0.000000
# 4 0.000000 0.000000 0.000000 0.022762 0.000000 0.000000
# 5 0.000000 0.000000 0.000000 0.000000 -1.773250 0.000000
# 6 0.000000 0.000000 0.000000 0.000000 0.000000 -0.017223
#
#
# Mechanical properties :
#
#
# Convention : Reuss Voigt Hill
#
# Bulk Modulus (GPa) = 23.19619 29.49984 26.34802
# Shear Modulus (GPa) = -2.95790 12.27982 4.66096
#
# Velocity S-wave (km/s) = -1.28875 2.62586 1.61776
# Velocity P-wave (km/s) = 3.28789 5.07521 4.27598
#
# Compressibility (1/GPa) = 0.04311052
#
# Stress axis : x y z
#
# Youngs Moduli (GPa) = 30.26566 87.85806 116.15088
#
# Poissons Ratio (x) = 0.30157 0.24569
# Poissons Ratio (y) = 0.10388 -0.06816
# Poissons Ratio (z) = 0.06402 -0.05156
#
# Static dielectric constant tensor:
#      x y z
#    x 1.551150 0.000000 0.000000 
#    y 0.000000 2.413660 0.000000 
#    z 0.000000 0.000000 1.626630 
# 
# From -- ./inp_files/1545.got.cif
#   From: 2010.05.17/outbox.cif.g08.bks.cpg/sg16_1_cif.got.tgz:1545.got - 2010.06.03 22:28:35.
