data_PCOD9309616
_publ_section_title
;
Structure prediction by ZEFSAII (Michael W. Deem and Ramdas Pophale) SiO2 
 PCOD9309616
Probable space group: C 2/C
;
_chemical_formula_sum "Si O2"
_cell_formula_units_Z 30
_cell_length_a 27.000000
_cell_length_b 18.000000
_cell_length_c 12.000000
_cell_angle_alpha 90.000000
_cell_angle_beta 30.000000
_cell_angle_gamma 90.000000
_cell_volume 2916.000000
_symmetry_space_group_name_H-M "C 2/C"
_symmetry_group_IT_number 15
_symmetry_cell_setting 'monoclinic'
loop_
_space_group_symop_operation_xyz
x,y,z
-x,y,1/2-z
-x,-y,-z
x,-y,1/2+z
1/2+x,1/2+y,z
1/2-x,1/2+y,1/2-z
1/2-x,1/2-y,-z
1/2+x,1/2-y,1/2+z
loop_
_atom_site_type_symbol
_atom_site_label
_atom_site_fract_x
_atom_site_fract_y
_atom_site_fract_z
Si Si1 0.838080 0.022425 0.337858
Si Si2 0.500000 0.957649 0.250000
Si Si3 0.965738 0.119944 0.583681
Si Si4 0.180286 0.546319 0.010441
Si Si5 0.601242 0.139606 0.360977
Si Si6 0.032379 0.724364 0.058828
Si Si7 0.234821 0.356818 0.194966
Si Si8 0.398835 0.279766 0.007630
O O1 0.934443 0.073255 0.131095
O O2 0.767289 0.072883 0.555288
O O3 0.773882 0.007014 0.351288
O O4 0.884737 0.941579 0.283345
O O5 0.447537 0.908557 0.446630
O O6 0.582707 0.005066 0.155170
O O7 0.999004 0.191002 0.593730
O O8 0.924983 0.156123 0.547242
O O9 0.165598 0.585619 0.158679
O O10 0.202081 0.607716 0.875922
O O11 0.524578 0.174116 0.420967
O O12 0.647767 0.211314 0.332114
O O13 0.000000 0.709960 0.250000
O O14 0.146745 0.697270 0.825091
O O15 0.329717 0.308535 0.043638
O O16 0.500000 0.254987 0.750000
#
# Coordination Sequence:
#
# PCOD9309616 Si02
#       8
#     8   4   8   8   8   8   8   8
#     4  11  24  43  67 103 138 182 237 290 365 424
#     4  12  24  42  68 100 134 176 222 286 350 418
#     4  10  24  44  69  98 139 182 236 301 349 424
#     4  12  24  41  66  98 137 180 219 284 349 430
#     4  11  24  44  69  94 135 175 230 279 356 409
#     4  11  24  45  69 100 139 187 234 293 350 422
#     4  12  24  41  71  98 138 183 236 287 353 429
#     4  11  22  45  70  94 131 182 229 297 355 417
#
# _framework density 10.288066000000001
#
# number of rings (size 3 to 8) (size 9 to 14) (size 15 to 20)
#    0.000    0.800    4.667    2.800    0.000    4.267 
#    0.000    0.000    0.000    0.000    0.000    0.000 
#    0.000    0.000    0.000    0.000    0.000    0.000 
#
# Total GULP energy -167512.144648 kJ/mol
# GULP energy per Si atom -5583.738155 kJ/mol
# Density = 1.026465 g / cm^3
# Si number density = 10.288066 Si / 1000 Ang^3
#
#
#
# Elastic Constant Matrix: (Units=GPa)
#
#
# Indices 1 2 3 4 5 6 
#
# 1 77.0592 33.0188 15.4094 0.0000 -12.2559 0.0000
# 2 33.0188 101.1714 37.1674 0.0000 -10.0066 0.0000
# 3 15.4094 37.1674 62.9007 0.0000 -4.4299 0.0000
# 4 0.0000 0.0000 0.0000 20.7068 0.0000 10.0865
# 5 -12.2559 -10.0066 -4.4299 0.0000 41.7363 0.0000
# 6 0.0000 0.0000 0.0000 10.0865 0.0000 38.5191
#
#
#
# Elastic Compliance Matrix: (Units=1/GPa)
#
#
# Indices 1 2 3 4 5 6 
#
# 1 0.015600 -0.004390 -0.000986 0.000000 0.003424 0.000000
# 2 -0.004390 0.014074 -0.007147 0.000000 0.001327 0.000000
# 3 -0.000986 -0.007147 0.020374 0.000000 0.000159 0.000000
# 4 0.000000 0.000000 0.000000 0.055354 0.000000 -0.014495
# 5 0.003424 0.001327 0.000159 0.000000 0.025300 0.000000
# 6 0.000000 0.000000 0.000000 -0.014495 0.000000 0.029757
#
#
# Mechanical properties :
#
#
# Convention : Reuss Voigt Hill
#
# Bulk Modulus (GPa) = 39.99949 45.81359 42.90654
# Shear Modulus (GPa) = 25.79445 30.56148 28.17797
#
# Velocity S-wave (km/s) = 3.54448 3.85812 3.70462
# Velocity P-wave (km/s) = 6.01939 6.49312 6.26074
#
# Compressibility (1/GPa) = 0.02500032
#
# Stress axis : x y z
#
# Youngs Moduli (GPa) = 64.10270 71.05342 49.08184
#
# Poissons Ratio (x) = 0.31195 0.04841
# Poissons Ratio (y) = 0.28143 0.35080
# Poissons Ratio (z) = 0.06323 0.50783
#
# Static dielectric constant tensor:
#      x y z
#    x 1.709720 0.000000 -0.025930 
#    y 0.000000 1.772160 0.000000 
#    z -0.025930 0.000000 1.771270 
# 
# From -- ./inp_files/123996.got.cif
#   From: 2010.05.17/outbox.ucp.g08.bks.cvg/sg15_62_cif.got.tgz:123996.got - 2010.06.11 12:40:34.
