data_PCOD9309375
_publ_section_title
;
Structure prediction by ZEFSAII (Michael W. Deem and Ramdas Pophale) SiO2 
 PCOD9309375
Probable space group: C 2/C
;
_chemical_formula_sum "Si O2"
_cell_formula_units_Z 18
_cell_length_a 18.000000
_cell_length_b 12.000000
_cell_length_c 27.000000
_cell_angle_alpha 90.000000
_cell_angle_beta 20.000000
_cell_angle_gamma 90.000000
_cell_volume 1994.661476
_symmetry_space_group_name_H-M "C 2/C"
_symmetry_group_IT_number 15
_symmetry_cell_setting 'monoclinic'
loop_
_space_group_symop_operation_xyz
x,y,z
-x,y,1/2-z
-x,-y,-z
x,-y,1/2+z
1/2+x,1/2+y,z
1/2-x,1/2+y,1/2-z
1/2-x,1/2-y,-z
1/2+x,1/2-y,1/2+z
loop_
_atom_site_type_symbol
_atom_site_label
_atom_site_fract_x
_atom_site_fract_y
_atom_site_fract_z
Si Si1 0.050740 0.426253 0.018096
Si Si2 0.004749 0.791154 0.157387
Si Si3 0.056307 0.829327 0.938266
Si Si4 0.000000 0.962461 0.250000
Si Si5 0.136982 0.943836 0.343135
O O1 0.033590 0.293878 0.017769
O O2 0.881934 0.451908 0.168317
O O3 0.288180 0.462115 0.885936
O O4 0.000000 0.500000 0.000000
O O5 0.979344 0.880170 0.216761
O O6 0.815175 0.698273 0.283940
O O7 0.966579 0.861293 0.131757
O O8 0.250000 0.750000 0.000000
O O9 0.050627 0.929140 0.901496
O O10 0.922298 0.882562 0.068042
#
# Coordination Sequence:
#
# PCOD9309375 Si02
#       5
#     8   8   8   4   8
#     4  11  23  40  65  86 127 164 207 258 317 374
#     4  11  22  36  64  92 126 160 212 260 304 374
#     4  10  22  41  63  91 126 166 204 256 320 368
#     4  12  22  38  58  98 114 164 214 244 314 376
#     4  10  22  40  63  90 125 163 207 260 314 366
#
# _framework density 9.0240880000000008
#
# number of rings (size 3 to 8) (size 9 to 14) (size 15 to 20)
#    0.000    1.333    4.444    2.667    6.222    0.000 
#    0.000    8.889    0.000    0.000    0.000    0.000 
#    0.000    0.000    0.000    0.000    0.000    0.000 
#
# Total GULP energy -100265.297372 kJ/mol
# GULP energy per Si atom -5570.294298 kJ/mol
# Density = 0.900355 g / cm^3
# Si number density = 9.024088 Si / 1000 Ang^3
#
#
#
# Elastic Constant Matrix: (Units=GPa)
#
#
# Indices 1 2 3 4 5 6 
#
# 1 33.5510 6.4092 34.9304 -0.0015 16.5012 0.0028
# 2 6.4092 111.0196 41.7689 -0.0090 15.2062 0.0064
# 3 34.9304 41.7689 151.1811 -0.0547 4.3552 0.0316
# 4 -0.0015 -0.0090 -0.0547 46.5684 0.0015 10.1782
# 5 16.5012 15.2062 4.3552 0.0015 36.8872 -0.0083
# 6 0.0028 0.0064 0.0316 10.1782 -0.0083 28.6166
#
#
#
# Elastic Compliance Matrix: (Units=1/GPa)
#
#
# Indices 1 2 3 4 5 6 
#
# 1 0.055367 0.005377 -0.013547 -0.000014 -0.025385 0.000006
# 2 0.005377 0.011144 -0.004134 -0.000002 -0.006511 0.000001
# 3 -0.013547 -0.004134 0.010699 0.000014 0.006501 -0.000013
# 4 -0.000014 -0.000002 0.000014 0.023284 0.000003 -0.008282
# 5 -0.025385 -0.006511 0.006501 0.000003 0.040382 0.000007
# 6 0.000006 0.000001 -0.000013 -0.008282 0.000007 0.037890
#
#
# Mechanical properties :
#
#
# Convention : Reuss Voigt Hill
#
# Bulk Modulus (GPa) = 19.00999 51.32987 35.16993
# Shear Modulus (GPa) = 22.63379 36.59065 29.61222
#
# Velocity S-wave (km/s) = 3.54514 4.50754 4.05499
# Velocity P-wave (km/s) = 5.22619 7.45605 6.43839
#
# Compressibility (1/GPa) = 0.05260393
#
# Stress axis : x y z
#
# Youngs Moduli (GPa) = 18.06123 89.73359 93.46272
#
# Poissons Ratio (x) = -0.48253 1.26614
# Poissons Ratio (y) = -0.09712 0.38636
# Poissons Ratio (z) = 0.24468 0.37094
#
# Static dielectric constant tensor:
#      x y z
#    x 1.603210 0.000000 -0.045370 
#    y 0.000000 1.602880 0.000010 
#    z -0.045370 0.000010 1.619560 
# 
# From -- ./inp_files/103166.got.cif
#   From: 2010.05.17/outbox.ucp.g08.bks.cvg/sg15_52_cif.got.tgz:103166.got - 2010.06.11 12:40:34.
