data_PCOD9309386
_publ_section_title
;
Structure prediction by ZEFSAII (Michael W. Deem and Ramdas Pophale) SiO2 
 PCOD9309386
Probable space group: C 2/C
;
_chemical_formula_sum "Si O2"
_cell_formula_units_Z 30
_cell_length_a 21.000000
_cell_length_b 27.000000
_cell_length_c 15.000000
_cell_angle_alpha 90.000000
_cell_angle_beta 20.000000
_cell_angle_gamma 90.000000
_cell_volume 2908.881319
_symmetry_space_group_name_H-M "C 2/C"
_symmetry_group_IT_number 15
_symmetry_cell_setting 'monoclinic'
loop_
_space_group_symop_operation_xyz
x,y,z
-x,y,1/2-z
-x,-y,-z
x,-y,1/2+z
1/2+x,1/2+y,z
1/2-x,1/2+y,1/2-z
1/2-x,1/2-y,-z
1/2+x,1/2-y,1/2+z
loop_
_atom_site_type_symbol
_atom_site_label
_atom_site_fract_x
_atom_site_fract_y
_atom_site_fract_z
Si Si1 0.000000 0.113626 0.250000
Si Si2 0.659144 0.584419 0.608803
Si Si3 0.954129 0.828988 0.490490
Si Si4 0.052841 0.398487 0.575230
Si Si5 0.366439 0.763903 0.644667
Si Si6 0.222360 0.603014 0.442611
Si Si7 0.719845 0.819355 0.226050
Si Si8 0.787099 0.992271 0.309549
O O1 0.141197 0.094469 0.147747
O O2 0.852461 0.145678 0.497459
O O3 0.500000 0.571927 0.750000
O O4 0.845142 0.598195 0.309950
O O5 0.705969 0.535784 0.604759
O O6 0.579809 0.628967 0.776473
O O7 0.810656 0.800523 0.612447
O O8 0.835641 0.858216 0.726143
O O9 0.077657 0.781476 0.361834
O O10 0.000000 0.391704 0.750000
O O11 0.155075 0.351874 0.396908
O O12 0.169968 0.449719 0.409781
O O13 0.538919 0.800753 0.412665
O O14 0.324257 0.731254 0.613602
O O15 0.206956 0.547747 0.419370
O O16 0.000000 0.618057 0.750000
O O17 0.000000 0.000000 0.000000
#
# Coordination Sequence:
#
# PCOD9309386 Si02
#       8
#     4   8   8   8   8   8   8   8
#     4  12  26  42  70  96 142 182 224 296 340 416
#     4  11  23  41  68  99 135 179 225 282 343 419
#     4  11  22  45  64  94 137 175 227 284 349 406
#     4  10  22  42  70  92 132 178 220 275 346 409
#     4  10  22  40  67  91 133 174 230 283 338 419
#     4  12  25  44  68 101 136 181 230 282 346 416
#     4  11  22  43  60  99 130 172 229 279 342 406
#     4  11  22  44  69  94 132 179 220 277 348 411
#
# _framework density 10.313243
#
# number of rings (size 3 to 8) (size 9 to 14) (size 15 to 20)
#    0.000    1.067    2.667    5.200    0.933    0.533 
#    4.800   14.000    0.000    0.000    0.000    0.000 
#    0.000    0.000    0.000    0.000    0.000    0.000 
#
# Total GULP energy -167020.028836 kJ/mol
# GULP energy per Si atom -5567.334295 kJ/mol
# Density = 1.028977 g / cm^3
# Si number density = 10.313243 Si / 1000 Ang^3
#
#
#
# Elastic Constant Matrix: (Units=GPa)
#
#
# Indices 1 2 3 4 5 6 
#
# 1 43.3709 11.5946 19.3777 0.2824 -23.0620 0.0358
# 2 11.5946 118.9751 41.6721 -0.0001 -0.2744 -0.0191
# 3 19.3777 41.6721 117.9278 -1.0579 -9.9584 -0.3020
# 4 0.2824 -0.0001 -1.0579 -31.7915 0.0009 -31.5894
# 5 -23.0620 -0.2744 -9.9584 0.0009 41.9087 0.0347
# 6 0.0358 -0.0191 -0.3020 -31.5894 0.0347 22.1981
#
#
#
# Elastic Compliance Matrix: (Units=1/GPa)
#
#
# Indices 1 2 3 4 5 6 
#
# 1 0.034949 -0.002165 -0.003421 0.000231 0.018405 0.000195
# 2 -0.002165 0.009750 -0.003249 0.000049 -0.001900 0.000040
# 3 -0.003421 -0.003249 0.010232 -0.000212 0.000528 -0.000160
# 4 0.000231 0.000049 -0.000212 -0.013025 0.000093 -0.018539
# 5 0.018405 -0.001900 0.000528 0.000093 0.034102 0.000055
# 6 0.000195 0.000040 -0.000160 -0.018539 0.000055 0.018664
#
#
# Mechanical properties :
#
#
# Convention : Reuss Voigt Hill
#
# Bulk Modulus (GPa) = 26.83817 47.28473 37.06145
# Shear Modulus (GPa) = 40.07545 20.30502 30.19024
#
# Velocity S-wave (km/s) = 4.41263 3.14094 3.82994
# Velocity P-wave (km/s) = 6.24512 6.01066 6.12901
#
# Compressibility (1/GPa) = 0.03726036
#
# Stress axis : x y z
#
# Youngs Moduli (GPa) = 28.61296 102.56517 97.72896
#
# Poissons Ratio (x) = 0.22208 0.33432
# Poissons Ratio (y) = 0.06196 0.31756
# Poissons Ratio (z) = 0.09788 0.33328
#
# Static dielectric constant tensor:
#      x y z
#    x 1.857090 -0.000040 -0.059720 
#    y -0.000040 1.712890 0.000050 
#    z -0.059720 0.000050 1.811050 
# 
# From -- ./inp_files/169923.got.cif
#   From: 2010.05.17/outbox.ucp.g08.bks.cvg/sg15_85_cif.got.tgz:169923.got - 2010.06.11 12:40:34.
