data_PCOD9309709
_publ_section_title
;
Structure prediction by ZEFSAII (Michael W. Deem and Ramdas Pophale) SiO2 
 PCOD9309709
Probable space group: C 2/C
;
_chemical_formula_sum "Si O2"
_cell_formula_units_Z 32
_cell_length_a 30.000000
_cell_length_b 12.000000
_cell_length_c 18.000000
_cell_angle_alpha 90.000000
_cell_angle_beta 30.000000
_cell_angle_gamma 90.000000
_cell_volume 3240.000000
_symmetry_space_group_name_H-M "C 2/C"
_symmetry_group_IT_number 15
_symmetry_cell_setting 'monoclinic'
loop_
_space_group_symop_operation_xyz
x,y,z
-x,y,1/2-z
-x,-y,-z
x,-y,1/2+z
1/2+x,1/2+y,z
1/2-x,1/2+y,1/2-z
1/2-x,1/2-y,-z
1/2+x,1/2-y,1/2+z
loop_
_atom_site_type_symbol
_atom_site_label
_atom_site_fract_x
_atom_site_fract_y
_atom_site_fract_z
Si Si1 0.133344 0.324873 0.356484
Si Si2 0.406481 0.440351 0.116074
Si Si3 0.168048 0.751451 0.173432
Si Si4 0.086988 0.387030 0.176586
Si Si5 0.146684 0.429051 0.824119
Si Si6 0.248449 0.618749 0.326373
Si Si7 0.985102 0.626070 0.185651
Si Si8 0.005570 0.737508 0.920639
O O1 0.148933 0.443663 0.294187
O O2 0.218637 0.245311 0.238000
O O3 0.065274 0.250429 0.407184
O O4 0.079818 0.363353 0.507265
O O5 0.358320 0.366405 0.249104
O O6 0.333165 0.535384 0.206583
O O7 0.500000 0.500000 0.000000
O O8 0.438366 0.342450 0.011626
O O9 0.187349 0.657434 0.207379
O O10 0.080399 0.713322 0.256621
O O11 0.250000 0.750000 0.000000
O O12 0.066709 0.507447 0.243049
O O13 0.072837 0.289008 0.256758
O O14 0.000000 0.373273 0.250000
O O15 0.178817 0.385240 0.996693
O O16 0.195468 0.423055 0.831637
O O17 0.050584 0.374593 0.980390
O O18 0.000000 0.648408 0.250000
#
# Coordination Sequence:
#
# PCOD9309709 Si02
#       8
#     8   8   8   8   8   8   8   8
#     4  12  23  42  68  98 127 175 227 270 334 411
#     4  11  23  46  65  93 135 180 212 270 341 410
#     4  11  24  41  65  95 131 170 218 273 331 387
#     4  11  22  40  63 101 131 167 221 280 330 390
#     4  11  23  40  69  96 132 174 224 277 326 397
#     4  12  26  41  68 102 132 178 224 271 344 401
#     4  11  21  38  67  94 128 170 223 274 322 401
#     4  11  21  43  71  90 134 172 220 274 338 395
#
# _framework density 9.8765429999999999
#
# number of rings (size 3 to 8) (size 9 to 14) (size 15 to 20)
#    0.000    0.750    6.250    2.625    5.250    0.500 
#    2.250    0.000    0.000    0.000    0.000    0.000 
#    0.000    0.000    0.000    0.000    0.000    0.000 
#
# Total GULP energy -178373.811380 kJ/mol
# GULP energy per Si atom -5574.181606 kJ/mol
# Density = 0.985406 g / cm^3
# Si number density = 9.876543 Si / 1000 Ang^3
#
#
#
# Elastic Constant Matrix: (Units=GPa)
#
#
# Indices 1 2 3 4 5 6 
#
# 1 41.7074 12.1315 13.4460 0.0000 10.9639 0.0000
# 2 12.1315 109.1942 25.9938 0.0000 6.0056 0.0000
# 3 13.4460 25.9938 108.4019 0.0000 16.3285 0.0000
# 4 0.0000 0.0000 0.0000 32.4791 0.0000 -2.5408
# 5 10.9639 6.0056 16.3285 0.0000 26.6194 0.0000
# 6 0.0000 0.0000 0.0000 -2.5408 0.0000 -3.3947
#
#
#
# Elastic Compliance Matrix: (Units=1/GPa)
#
#
# Indices 1 2 3 4 5 6 
#
# 1 0.027709 -0.002193 -0.001396 0.000000 -0.010062 0.000000
# 2 -0.002193 0.009903 -0.002096 0.000000 -0.000045 0.000000
# 3 -0.001396 -0.002096 0.010735 0.000000 -0.005537 0.000000
# 4 0.000000 0.000000 0.000000 0.029086 0.000000 -0.021770
# 5 -0.010062 -0.000045 -0.005537 0.000000 0.045118 0.000000
# 6 0.000000 0.000000 0.000000 -0.021770 0.000000 -0.278285
#
#
# Mechanical properties :
#
#
# Convention : Reuss Voigt Hill
#
# Bulk Modulus (GPa) = 27.04272 40.27180 33.65726
# Shear Modulus (GPa) = -37.86738 24.98958 -6.43890
#
# Velocity S-wave (km/s) = -4.38315 3.56068 -1.80742
# Velocity P-wave (km/s) = 3.44904 6.11036 3.56655
#
# Compressibility (1/GPa) = 0.03697853
#
# Stress axis : x y z
#
# Youngs Moduli (GPa) = 36.08883 100.97911 93.15640
#
# Poissons Ratio (x) = 0.22144 0.13000
# Poissons Ratio (y) = 0.07914 0.19524
# Poissons Ratio (z) = 0.05036 0.21163
#
# Static dielectric constant tensor:
#      x y z
#    x 1.770310 0.000000 0.000690 
#    y 0.000000 1.792890 0.000000 
#    z 0.000690 0.000000 1.552810 
# 
# From -- ./inp_files/225178.got.cif
#   From: 2010.05.17/outbox.ucp.g08.bks.cvg/sg15_113_cif.got.tgz:225178.got - 2010.06.11 12:40:34.
