data_PCOD9309105
_publ_section_title
;
Structure prediction by ZEFSAII (Michael W. Deem and Ramdas Pophale) SiO2 
 PCOD9309105
Probable space group: C 2/C
;
_chemical_formula_sum "Si O2"
_cell_formula_units_Z 24
_cell_length_a 6.000000
_cell_length_b 18.000000
_cell_length_c 24.000000
_cell_angle_alpha 90.000000
_cell_angle_beta 110.000000
_cell_angle_gamma 90.000000
_cell_volume 2435.683273
_symmetry_space_group_name_H-M "C 2/C"
_symmetry_group_IT_number 15
_symmetry_cell_setting 'monoclinic'
loop_
_space_group_symop_operation_xyz
x,y,z
-x,y,1/2-z
-x,-y,-z
x,-y,1/2+z
1/2+x,1/2+y,z
1/2-x,1/2+y,1/2-z
1/2-x,1/2-y,-z
1/2+x,1/2-y,1/2+z
loop_
_atom_site_type_symbol
_atom_site_label
_atom_site_fract_x
_atom_site_fract_y
_atom_site_fract_z
Si Si1 0.620310 0.451313 0.595574
Si Si2 0.721032 0.474120 0.730950
Si Si3 0.991463 0.295190 0.026348
Si Si4 0.597271 0.193977 0.404538
Si Si5 0.720322 0.801439 0.726471
Si Si6 0.818375 0.553013 0.516193
O O1 0.617511 0.474610 0.659279
O O2 0.805905 0.384769 0.607359
O O3 0.699617 0.514210 0.558892
O O4 0.374127 0.424479 0.547234
O O5 0.500000 0.505702 0.750000
O O6 0.755174 0.389330 0.756303
O O7 0.000000 0.503184 0.750000
O O8 0.946585 0.374466 0.048921
O O9 0.188730 0.252773 0.078544
O O10 0.750000 0.250000 0.000000
O O11 0.057941 0.310212 0.967494
O O12 0.381745 0.211597 0.344711
O O13 0.500000 0.775860 0.750000
O O14 0.000000 0.774129 0.750000
O O15 0.000000 0.500000 0.500000
#
# Coordination Sequence:
#
# PCOD9309105 Si02
#       6
#     8   8   8   8   8   8
#     4  11  22  38  60  98 134 165 224 276 332 399
#     4  10  21  34  60  97 127 163 214 280 330 372
#     4  11  24  38  63  92 133 178 212 274 332 398
#     4  11  22  38  60  98 134 165 224 276 332 399
#     4  10  21  34  60  97 127 163 214 280 330 372
#     4  11  24  38  63  92 133 178 212 274 332 398
#
# _framework density 9.8534980000000001
#
# number of rings (size 3 to 8) (size 9 to 14) (size 15 to 20)
#    0.000    1.333    6.667    0.000    9.333    0.000 
#    0.000    0.000    0.000    0.000    8.667    0.000 
#    0.000    0.000    0.000    0.000    0.000    0.000 
#
# Total GULP energy -133656.451798 kJ/mol
# GULP energy per Si atom -5569.018825 kJ/mol
# Density = 0.983107 g / cm^3
# Si number density = 9.853498 Si / 1000 Ang^3
#
#
#
# Elastic Constant Matrix: (Units=GPa)
#
#
# Indices 1 2 3 4 5 6 
#
# 1 108.6036 8.1239 28.2294 0.0000 13.4352 0.0000
# 2 8.1239 49.4381 5.8399 0.0000 5.9589 0.0000
# 3 28.2294 5.8399 134.3568 0.0000 21.3419 0.0000
# 4 0.0000 0.0000 0.0000 16.9336 0.0000 3.3786
# 5 13.4352 5.9589 21.3419 0.0000 33.5116 0.0000
# 6 0.0000 0.0000 0.0000 3.3786 0.0000 16.5480
#
#
#
# Elastic Compliance Matrix: (Units=1/GPa)
#
#
# Indices 1 2 3 4 5 6 
#
# 1 0.010059 -0.001124 -0.001620 0.000000 -0.002802 0.000000
# 2 -0.001124 0.020811 -0.000169 0.000000 -0.003142 0.000000
# 3 -0.001620 -0.000169 0.008547 0.000000 -0.004764 0.000000
# 4 0.000000 0.000000 0.000000 0.061562 0.000000 -0.012569
# 5 -0.002802 -0.003142 -0.004764 0.000000 0.034556 0.000000
# 6 0.000000 0.000000 0.000000 -0.012569 0.000000 0.062996
#
#
# Mechanical properties :
#
#
# Convention : Reuss Voigt Hill
#
# Bulk Modulus (GPa) = 29.76948 41.86499 35.81724
# Shear Modulus (GPa) = 23.19594 30.07900 26.63747
#
# Velocity S-wave (km/s) = 3.43453 3.91104 3.68050
# Velocity P-wave (km/s) = 5.55579 6.45638 6.02294
#
# Compressibility (1/GPa) = 0.03359145
#
# Stress axis : x y z
#
# Youngs Moduli (GPa) = 99.40889 48.05215 116.99659
#
# Poissons Ratio (x) = 0.05401 0.18950
# Poissons Ratio (y) = 0.11174 0.01981
# Poissons Ratio (z) = 0.16101 0.00814
#
# Static dielectric constant tensor:
#      x y z
#    x 1.752790 0.000000 0.061190 
#    y 0.000000 1.688110 0.000000 
#    z 0.061190 0.000000 1.803640 
# 
# From -- ./inp_files/260895.got.cif
#   From: 2010.05.17/outbox.ucp.g08.bks.cvg/sg15_131_cif.got.tgz:260895.got - 2010.06.11 12:40:34.
