data_PCOD9309851
_publ_section_title
;
Structure prediction by ZEFSAII (Michael W. Deem and Ramdas Pophale) SiO2 
 PCOD9309851
Probable space group: C 2/C
;
_chemical_formula_sum "Si O2"
_cell_formula_units_Z 18
_cell_length_a 12.000000
_cell_length_b 15.000000
_cell_length_c 15.000000
_cell_angle_alpha 90.000000
_cell_angle_beta 140.000000
_cell_angle_gamma 90.000000
_cell_volume 1735.526546
_symmetry_space_group_name_H-M "C 2/C"
_symmetry_group_IT_number 15
_symmetry_cell_setting 'monoclinic'
loop_
_space_group_symop_operation_xyz
x,y,z
-x,y,1/2-z
-x,-y,-z
x,-y,1/2+z
1/2+x,1/2+y,z
1/2-x,1/2+y,1/2-z
1/2-x,1/2-y,-z
1/2+x,1/2-y,1/2+z
loop_
_atom_site_type_symbol
_atom_site_label
_atom_site_fract_x
_atom_site_fract_y
_atom_site_fract_z
Si Si1 0.243560 0.697881 0.158990
Si Si2 0.113588 0.537541 0.987007
Si Si3 0.846948 0.877907 0.095373
Si Si4 0.636947 0.272775 0.567880
Si Si5 0.000000 0.346648 0.250000
O O1 0.303816 0.694676 0.298745
O O2 0.340871 0.778850 0.169521
O O3 0.257226 0.604438 0.116408
O O4 0.039540 0.718245 0.030611
O O5 0.020736 0.592864 0.851024
O O6 0.198609 0.450713 0.996395
O O7 0.000000 0.500000 0.000000
O O8 0.778540 0.792552 0.109875
O O9 0.000000 0.915298 0.250000
O O10 0.898493 0.847575 0.028203
#
# Coordination Sequence:
#
# PCOD9309851 Si02
#       5
#     8   8   8   8   4
#     4  12  24  48  69 102 140 191 227 286 349 421
#     4  12  27  45  69 104 143 179 237 290 341 409
#     4  11  24  43  70 108 136 182 237 293 342 414
#     4  11  24  44  74  98 144 184 235 282 356 414
#     4  12  28  46  72 102 144 192 230 280 360 422
#
# _framework density 10.371492
#
# number of rings (size 3 to 8) (size 9 to 14) (size 15 to 20)
#    0.000    0.444    6.667    0.667    4.667    0.000 
#    0.000    2.222    0.000    0.000    0.000    0.000 
#    0.000    0.000    0.000    0.000    0.000    0.000 
#
# Total GULP energy -100596.930599 kJ/mol
# GULP energy per Si atom -5588.718367 kJ/mol
# Density = 1.034789 g / cm^3
# Si number density = 10.371492 Si / 1000 Ang^3
#
#
#
# Elastic Constant Matrix: (Units=GPa)
#
#
# Indices 1 2 3 4 5 6 
#
# 1 67.5928 16.8044 17.6376 0.0001 -20.9684 0.0000
# 2 16.8044 85.5898 14.2531 0.0001 -23.5928 0.0000
# 3 17.6376 14.2531 95.5069 0.0004 -30.4082 0.0001
# 4 0.0001 0.0001 0.0004 23.6684 0.0002 16.1182
# 5 -20.9684 -23.5928 -30.4082 0.0002 38.1082 0.0000
# 6 0.0000 0.0000 0.0001 16.1182 0.0000 28.1834
#
#
#
# Elastic Compliance Matrix: (Units=1/GPa)
#
#
# Indices 1 2 3 4 5 6 
#
# 1 0.017911 -0.000983 -0.000291 0.000000 0.009014 0.000000
# 2 -0.000983 0.014200 0.000924 0.000000 0.008988 0.000000
# 3 -0.000291 0.000924 0.014099 0.000000 0.011663 0.000000
# 4 0.000000 0.000000 0.000000 0.069203 -0.000001 -0.039577
# 5 0.009014 0.008988 0.011663 -0.000001 0.046071 0.000000
# 6 0.000000 0.000000 0.000000 -0.039577 0.000000 0.058116
#
#
# Mechanical properties :
#
#
# Convention : Reuss Voigt Hill
#
# Bulk Modulus (GPa) = 21.97304 38.45331 30.21317
# Shear Modulus (GPa) = 21.23395 31.32498 26.27947
#
# Velocity S-wave (km/s) = 3.20295 3.89028 3.56323
# Velocity P-wave (km/s) = 4.92895 6.22553 5.61479
#
# Compressibility (1/GPa) = 0.04551032
#
# Stress axis : x y z
#
# Youngs Moduli (GPa) = 55.83066 70.42133 70.92459
#
# Poissons Ratio (x) = 0.06925 0.02063
# Poissons Ratio (y) = 0.05490 -0.06553
# Poissons Ratio (z) = 0.01624 -0.06506
#
# Static dielectric constant tensor:
#      x y z
#    x 1.729760 0.000000 0.021460 
#    y 0.000000 1.724370 0.000000 
#    z 0.021460 0.000000 1.734800 
# 
# From -- ./inp_files/37619.got.cif
#   From: 2010.05.17/outbox.ucp.g08.bks.cvg/sg15_19_cif.got.tgz:37619.got - 2010.06.11 12:40:34.
