data_PCOD9309576
_publ_section_title
;
Structure prediction by ZEFSAII (Michael W. Deem and Ramdas Pophale) SiO2 
 PCOD9309576
Probable space group: C 2/C
;
_chemical_formula_sum "Si O2"
_cell_formula_units_Z 20
_cell_length_a 9.000000
_cell_length_b 30.000000
_cell_length_c 15.000000
_cell_angle_alpha 90.000000
_cell_angle_beta 150.000000
_cell_angle_gamma 90.000000
_cell_volume 2025.000000
_symmetry_space_group_name_H-M "C 2/C"
_symmetry_group_IT_number 15
_symmetry_cell_setting 'monoclinic'
loop_
_space_group_symop_operation_xyz
x,y,z
-x,y,1/2-z
-x,-y,-z
x,-y,1/2+z
1/2+x,1/2+y,z
1/2-x,1/2+y,1/2-z
1/2-x,1/2-y,-z
1/2+x,1/2-y,1/2+z
loop_
_atom_site_type_symbol
_atom_site_label
_atom_site_fract_x
_atom_site_fract_y
_atom_site_fract_z
Si Si1 0.605870 0.117535 0.706338
Si Si2 0.274970 0.205084 0.456446
Si Si3 0.722585 0.792793 0.045781
Si Si4 0.324098 0.882837 0.568918
Si Si5 0.145042 0.451611 0.070393
O O1 0.500000 0.105421 0.750000
O O2 0.429404 0.162782 0.585993
O O3 0.550684 0.078852 0.605300
O O4 0.966135 0.121566 0.894569
O O5 0.250000 0.250000 0.500000
O O6 0.501818 0.223456 0.503731
O O7 0.000000 0.191036 0.250000
O O8 0.000000 0.808514 0.250000
O O9 0.750000 0.750000 0.000000
O O10 0.591903 0.834822 0.926672
O O11 0.500000 0.890672 0.750000
O O12 0.414488 0.921420 0.547250
O O13 0.500000 0.457519 0.250000
O O14 0.000000 0.500000 0.000000
#
# Coordination Sequence:
#
# PCOD9309576 Si02
#       5
#     8   8   8   8   8
#     4  11  25  44  68  99 138 174 221 277 330 396
#     4  12  26  42  63  97 139 177 226 276 329 390
#     4  12  23  42  65  92 135 179 224 273 327 390
#     4  11  24  45  69  99 134 177 225 272 331 399
#     4  10  23  47  72  99 133 172 219 276 336 398
#
# _framework density 9.8765429999999999
#
# number of rings (size 3 to 8) (size 9 to 14) (size 15 to 20)
#    0.000    0.800    4.000    3.000    5.600    3.200 
#    0.000    4.000    0.000    0.000    0.000    0.000 
#    0.000    0.000    0.000    0.000    0.000    0.000 
#
# Total GULP energy -111430.061630 kJ/mol
# GULP energy per Si atom -5571.503082 kJ/mol
# Density = 0.985406 g / cm^3
# Si number density = 9.876543 Si / 1000 Ang^3
#
#
#
# Elastic Constant Matrix: (Units=GPa)
#
#
# Indices 1 2 3 4 5 6 
#
# 1 187.2271 99.5341 58.6481 0.0000 -24.8987 0.0000
# 2 99.5341 202.1311 65.7716 0.0000 -30.5473 0.0000
# 3 58.6481 65.7716 107.3427 0.0000 -36.4419 0.0000
# 4 0.0000 0.0000 0.0000 29.3027 0.0000 8.3326
# 5 -24.8987 -30.5473 -36.4419 0.0000 30.3555 0.0000
# 6 0.0000 0.0000 0.0000 8.3326 0.0000 30.2598
#
#
#
# Elastic Compliance Matrix: (Units=1/GPa)
#
#
# Indices 1 2 3 4 5 6 
#
# 1 0.007691 -0.002984 -0.002113 0.000000 0.000770 0.000000
# 2 -0.002984 0.007483 -0.002075 0.000000 0.002592 0.000000
# 3 -0.002113 -0.002075 0.017630 0.000000 0.017343 0.000000
# 4 0.000000 0.000000 0.000000 0.037026 0.000000 -0.010196
# 5 0.000770 0.002592 0.017343 0.000000 0.057004 0.000000
# 6 0.000000 0.000000 0.000000 -0.010196 0.000000 0.035855
#
#
# Mechanical properties :
#
#
# Convention : Reuss Voigt Hill
#
# Bulk Modulus (GPa) = 54.16666 104.95652 79.56159
# Shear Modulus (GPa) = 27.29466 36.16675 31.73070
#
# Velocity S-wave (km/s) = 3.72128 4.28359 4.01230
# Velocity P-wave (km/s) = 6.77830 8.81562 7.86322
#
# Compressibility (1/GPa) = 0.01846154
#
# Stress axis : x y z
#
# Youngs Moduli (GPa) = 130.01383 133.62777 56.72248
#
# Poissons Ratio (x) = 0.39869 0.11984
# Poissons Ratio (y) = 0.38791 0.11771
# Poissons Ratio (z) = 0.27470 0.27729
#
# Static dielectric constant tensor:
#      x y z
#    x 1.557440 0.000000 0.002390 
#    y 0.000000 1.465650 0.000000 
#    z 0.002390 0.000000 1.684130 
# 
# From -- ./inp_files/25352.got.cif
#   From: 2010.05.17/outbox.ucp.g08.bks.cvg/sg15_13_cif.got.tgz:25352.got - 2010.06.11 12:40:34.
