data_PCOD9309401
_publ_section_title
;
Structure prediction by ZEFSAII (Michael W. Deem and Ramdas Pophale) SiO2 
 PCOD9309401
Probable space group: C 2/C
;
_chemical_formula_sum "Si O2"
_cell_formula_units_Z 26
_cell_length_a 30.000000
_cell_length_b 6.000000
_cell_length_c 15.000000
_cell_angle_alpha 90.000000
_cell_angle_beta 110.000000
_cell_angle_gamma 90.000000
_cell_volume 2537.170076
_symmetry_space_group_name_H-M "C 2/C"
_symmetry_group_IT_number 15
_symmetry_cell_setting 'monoclinic'
loop_
_space_group_symop_operation_xyz
x,y,z
-x,y,1/2-z
-x,-y,-z
x,-y,1/2+z
1/2+x,1/2+y,z
1/2-x,1/2+y,1/2-z
1/2-x,1/2-y,-z
1/2+x,1/2-y,1/2+z
loop_
_atom_site_type_symbol
_atom_site_label
_atom_site_fract_x
_atom_site_fract_y
_atom_site_fract_z
Si Si1 0.000000 0.790067 0.250000
Si Si2 0.744788 0.744970 0.865460
Si Si3 0.077614 0.134357 0.352367
Si Si4 0.922147 0.504626 0.291791
Si Si5 0.852971 0.250056 0.604780
Si Si6 0.787647 0.756127 0.363957
Si Si7 0.888393 0.566486 0.471147
O O1 0.030400 0.641514 0.201884
O O2 0.036961 0.948175 0.326710
O O3 0.702158 0.758370 0.907943
O O4 0.766719 0.487478 0.886373
O O5 0.724791 0.745185 0.749905
O O6 0.771636 0.992857 0.887981
O O7 0.072821 0.269554 0.256382
O O8 0.077422 0.297734 0.437492
O O9 0.127116 0.000548 0.384085
O O10 0.880404 0.626200 0.205644
O O11 0.910506 0.497313 0.389748
O O12 0.868249 0.369361 0.522275
O O13 0.843691 0.723837 0.417056
#
# Coordination Sequence:
#
# PCOD9309401 Si02
#       7
#     4   8   8   8   8   8   8
#     4  10  22  46  70  98 126 178 214 274 360 426
#     4  10  22  41  64  97 139 195 237 290 333 413
#     4  10  24  43  69  99 133 171 222 283 348 425
#     4  10  22  44  69  94 137 172 220 284 347 419
#     4  10  23  40  64  99 135 181 231 275 347 395
#     4  10  23  39  66  97 140 188 243 283 348 397
#     4  11  24  41  66 104 133 177 228 285 341 408
#
# _framework density 10.247638
#
# number of rings (size 3 to 8) (size 9 to 14) (size 15 to 20)
#    0.000    1.846    1.538    0.462    6.462    5.538 
#    0.000   10.769    0.000    0.000    0.000    0.000 
#    0.000    0.000    0.000    0.000    0.000    0.000 
#
# Total GULP energy -145063.727082 kJ/mol
# GULP energy per Si atom -5579.374119 kJ/mol
# Density = 1.022431 g / cm^3
# Si number density = 10.247638 Si / 1000 Ang^3
#
#
#
# Elastic Constant Matrix: (Units=GPa)
#
#
# Indices 1 2 3 4 5 6 
#
# 1 129.6680 54.4606 51.6718 0.0000 -22.2206 0.0000
# 2 54.4606 136.6250 40.3611 0.0000 -14.7571 0.0000
# 3 51.6718 40.3611 112.7644 0.0000 -36.5928 0.0000
# 4 0.0000 0.0000 0.0000 32.6968 0.0000 8.3748
# 5 -22.2206 -14.7571 -36.5928 0.0000 41.5270 0.0000
# 6 0.0000 0.0000 0.0000 8.3748 0.0000 33.6840
#
#
#
# Elastic Compliance Matrix: (Units=1/GPa)
#
#
# Indices 1 2 3 4 5 6 
#
# 1 0.010574 -0.003089 -0.003165 0.000000 0.001772 0.000000
# 2 -0.003089 0.009093 -0.001859 0.000000 -0.000059 0.000000
# 3 -0.003165 -0.001859 0.014312 0.000000 0.010258 0.000000
# 4 0.000000 0.000000 0.000000 0.032664 0.000000 -0.008121
# 5 0.001772 -0.000059 0.010258 0.000000 0.034047 0.000000
# 6 0.000000 0.000000 0.000000 -0.008121 0.000000 0.031707
#
#
# Mechanical properties :
#
#
# Convention : Reuss Voigt Hill
#
# Bulk Modulus (GPa) = 56.32146 74.67160 65.49653
# Shear Modulus (GPa) = 32.35419 37.08582 34.72000
#
# Velocity S-wave (km/s) = 3.97749 4.25841 4.12035
# Velocity P-wave (km/s) = 6.97379 7.79047 7.39342
#
# Compressibility (1/GPa) = 0.01775522
#
# Stress axis : x y z
#
# Youngs Moduli (GPa) = 94.57137 109.97307 69.87049
#
# Poissons Ratio (x) = 0.33967 0.22113
# Poissons Ratio (y) = 0.29210 0.12985
# Poissons Ratio (z) = 0.29931 0.20439
#
# Static dielectric constant tensor:
#      x y z
#    x 1.744260 0.000000 0.049120 
#    y 0.000000 1.763150 0.000000 
#    z 0.049120 0.000000 1.737920 
# 
# From -- ./inp_files/180162.got.cif
#   From: 2010.05.17/outbox.ucp.g08.bks.cvg/sg15_91_cif.got.tgz:180162.got - 2010.06.11 12:40:34.
