data_PCOD9309747
_publ_section_title
;
Structure prediction by ZEFSAII (Michael W. Deem and Ramdas Pophale) SiO2 
 PCOD9309747
Probable space group: C 2/C
;
_chemical_formula_sum "Si O2"
_cell_formula_units_Z 20
_cell_length_a 18.000000
_cell_length_b 15.000000
_cell_length_c 21.000000
_cell_angle_alpha 90.000000
_cell_angle_beta 20.000000
_cell_angle_gamma 90.000000
_cell_volume 1939.254213
_symmetry_space_group_name_H-M "C 2/C"
_symmetry_group_IT_number 15
_symmetry_cell_setting 'monoclinic'
loop_
_space_group_symop_operation_xyz
x,y,z
-x,y,1/2-z
-x,-y,-z
x,-y,1/2+z
1/2+x,1/2+y,z
1/2-x,1/2+y,1/2-z
1/2-x,1/2-y,-z
1/2+x,1/2-y,1/2+z
loop_
_atom_site_type_symbol
_atom_site_label
_atom_site_fract_x
_atom_site_fract_y
_atom_site_fract_z
Si Si1 0.535376 0.897965 0.944097
Si Si2 0.277805 0.462793 0.969529
Si Si3 0.741874 0.155791 0.964188
Si Si4 0.958937 0.668049 0.646031
Si Si5 0.465276 0.365654 0.939262
O O1 0.797119 0.890252 0.724606
O O2 0.394417 0.860011 0.995224
O O3 0.485527 0.842827 0.048617
O O4 0.500000 0.000000 0.000000
O O5 0.500000 0.460639 0.750000
O O6 0.180589 0.563076 0.048977
O O7 0.356106 0.432217 0.976162
O O8 0.113546 0.396119 0.064163
O O9 0.000000 0.145183 0.750000
O O10 0.750000 0.250000 0.000000
O O11 0.008987 0.771578 0.618780
O O12 0.712370 0.646368 0.862922
#
# Coordination Sequence:
#
# PCOD9309747 Si02
#       5
#     8   8   8   8   8
#     4  12  25  51  72 103 150 192 247 306 363 443
#     4  11  21  47  70 103 148 191 234 303 371 433
#     4  11  27  47  72 100 145 197 242 302 371 444
#     4  12  24  43  75 111 140 188 241 300 376 434
#     4  12  25  42  76 109 144 184 241 306 363 441
#
# _framework density 10.313243
#
# number of rings (size 3 to 8) (size 9 to 14) (size 15 to 20)
#    0.000    0.400    6.000    2.400    2.800    2.400 
#    0.000    0.000    0.000    0.000    0.000    0.000 
#    0.000    0.000    0.000    0.000    0.000    0.000 
#
# Total GULP energy -111388.852958 kJ/mol
# GULP energy per Si atom -5569.442648 kJ/mol
# Density = 1.028977 g / cm^3
# Si number density = 10.313243 Si / 1000 Ang^3
#
#
#
# Elastic Constant Matrix: (Units=GPa)
#
#
# Indices 1 2 3 4 5 6 
#
# 1 167.4373 42.5484 43.0777 -0.0051 -33.2816 0.0029
# 2 42.5484 142.6901 14.3783 -0.0452 -24.6776 -0.0006
# 3 43.0777 14.3783 157.7413 -0.0679 -22.1345 0.0009
# 4 -0.0051 -0.0452 -0.0679 31.0978 0.0078 -4.4487
# 5 -33.2816 -24.6776 -22.1345 0.0078 41.2166 0.0112
# 6 0.0029 -0.0006 0.0009 -4.4487 0.0112 39.6806
#
#
#
# Elastic Compliance Matrix: (Units=1/GPa)
#
#
# Indices 1 2 3 4 5 6 
#
# 1 0.007560 -0.001326 -0.001296 -0.000005 0.004615 -0.000002
# 2 -0.001326 0.008051 0.000167 0.000011 0.003839 0.000000
# 3 -0.001296 0.000167 0.007079 0.000015 0.002855 0.000001
# 4 -0.000005 0.000011 0.000015 0.032681 0.000003 0.003664
# 5 0.004615 0.003839 0.002855 0.000003 0.031820 -0.000009
# 6 -0.000002 0.000000 0.000001 0.003664 -0.000009 0.025612
#
#
# Mechanical properties :
#
#
# Convention : Reuss Voigt Hill
#
# Bulk Modulus (GPa) = 56.24338 74.20860 65.22599
# Shear Modulus (GPa) = 40.44032 46.92330 43.68181
#
# Velocity S-wave (km/s) = 4.43267 4.77477 4.60690
# Velocity P-wave (km/s) = 7.31607 8.15189 7.74526
#
# Compressibility (1/GPa) = 0.01777987
#
# Stress axis : x y z
#
# Youngs Moduli (GPa) = 132.27518 124.21339 141.26582
#
# Poissons Ratio (x) = 0.16465 0.18311
# Poissons Ratio (y) = 0.17534 -0.02358
# Poissons Ratio (z) = 0.17145 -0.02074
#
# Static dielectric constant tensor:
#      x y z
#    x 1.753430 -0.000010 0.033790 
#    y -0.000010 1.866390 0.000010 
#    z 0.033790 0.000010 1.779970 
# 
# From -- ./inp_files/215824.got.cif
#   From: 2010.05.17/outbox.ucp.g08.bks.cvg/sg15_108_cif.got.tgz:215824.got - 2010.06.11 12:40:34.
