data_PCOD9309051
_publ_section_title
;
Structure prediction by ZEFSAII (Michael W. Deem and Ramdas Pophale) SiO2 
 PCOD9309051
Probable space group: C 2/C
;
_chemical_formula_sum "Si O2"
_cell_formula_units_Z 32
_cell_length_a 9.000000
_cell_length_b 24.000000
_cell_length_c 30.000000
_cell_angle_alpha 90.000000
_cell_angle_beta 150.000000
_cell_angle_gamma 90.000000
_cell_volume 3240.000000
_symmetry_space_group_name_H-M "C 2/C"
_symmetry_group_IT_number 15
_symmetry_cell_setting 'monoclinic'
loop_
_space_group_symop_operation_xyz
x,y,z
-x,y,1/2-z
-x,-y,-z
x,-y,1/2+z
1/2+x,1/2+y,z
1/2-x,1/2+y,1/2-z
1/2-x,1/2-y,-z
1/2+x,1/2-y,1/2+z
loop_
_atom_site_type_symbol
_atom_site_label
_atom_site_fract_x
_atom_site_fract_y
_atom_site_fract_z
Si Si1 0.791858 0.140203 0.570469
Si Si2 0.657965 0.953032 0.572227
Si Si3 0.172861 0.894410 0.250444
Si Si4 0.220629 0.725812 0.042386
Si Si5 0.791240 0.834220 0.399793
Si Si6 0.487524 0.002037 0.874507
Si Si7 0.459827 0.419835 0.965695
Si Si8 0.858270 0.125739 0.344853
O O1 0.581536 0.097191 0.489445
O O2 0.573405 0.187583 0.532146
O O3 0.945360 0.107000 0.650689
O O4 0.046962 0.165981 0.605632
O O5 0.963444 0.924432 0.634003
O O6 0.500000 0.000000 0.500000
O O7 0.691518 0.977989 0.630276
O O8 0.451503 0.855258 0.310936
O O9 0.306628 0.954957 0.297213
O O10 0.000000 0.875182 0.250000
O O11 0.192344 0.776418 0.069663
O O12 0.493923 0.685428 0.128183
O O13 0.250000 0.750000 0.000000
O O14 0.966991 0.881198 0.473572
O O15 0.652616 0.953074 0.890884
O O16 0.766656 0.037086 0.967097
O O17 0.450139 0.382561 0.919875
O O18 0.500000 0.123878 0.250000
#
# Coordination Sequence:
#
# PCOD9309051 Si02
#       8
#     8   8   8   8   8   8   8   8
#     4  11  24  41  65 101 130 171 228 281 329 402
#     4  11  21  39  66  90 133 178 217 263 333 405
#     4  11  24  39  63 101 134 165 223 278 326 394
#     4  11  23  42  72  91 126 180 224 278 341 398
#     4  11  22  43  67  92 132 173 223 277 340 390
#     4  10  21  39  63  93 132 177 210 260 330 393
#     4  10  20  40  63  93 129 172 215 262 323 402
#     4  11  25  41  62  96 132 170 225 276 329 398
#
# _framework density 9.8765429999999999
#
# number of rings (size 3 to 8) (size 9 to 14) (size 15 to 20)
#    0.000    1.250    3.750    2.250    3.500    3.500 
#    0.000    0.000    0.000    0.000    0.000    0.000 
#    0.000    0.000    0.000    0.000    0.000    0.000 
#
# Total GULP energy -178801.615917 kJ/mol
# GULP energy per Si atom -5587.550497 kJ/mol
# Density = 0.985406 g / cm^3
# Si number density = 9.876543 Si / 1000 Ang^3
#
#
#
# Elastic Constant Matrix: (Units=GPa)
#
#
# Indices 1 2 3 4 5 6 
#
# 1 119.4386 40.9211 40.7243 -0.0013 19.6495 0.0036
# 2 40.9211 96.6618 31.4839 -0.0012 14.8750 -0.0008
# 3 40.7243 31.4839 85.5284 -0.0126 19.8564 -0.0051
# 4 -0.0013 -0.0012 -0.0126 23.3959 -0.0023 -6.5898
# 5 19.6495 14.8750 19.8564 -0.0023 37.8485 0.0041
# 6 0.0036 -0.0008 -0.0051 -6.5898 0.0041 28.7544
#
#
#
# Elastic Compliance Matrix: (Units=1/GPa)
#
#
# Indices 1 2 3 4 5 6 
#
# 1 0.011082 -0.003139 -0.003498 -0.000002 -0.002685 -0.000002
# 2 -0.003139 0.012887 -0.002792 -0.000001 -0.001970 0.000000
# 3 -0.003498 -0.002792 0.015610 0.000009 -0.005276 0.000006
# 4 -0.000002 -0.000001 0.000009 0.045692 -0.000002 0.010471
# 5 -0.002685 -0.001970 -0.005276 -0.000002 0.031357 -0.000005
# 6 -0.000002 0.000000 0.000006 0.010471 -0.000005 0.037177
#
#
# Mechanical properties :
#
#
# Convention : Reuss Voigt Hill
#
# Bulk Modulus (GPa) = 48.25847 58.65416 53.45632
# Shear Modulus (GPa) = 27.84421 30.56641 29.20531
#
# Velocity S-wave (km/s) = 3.75855 3.93800 3.84932
# Velocity P-wave (km/s) = 6.58176 7.10178 6.84671
#
# Compressibility (1/GPa) = 0.02072175
#
# Stress axis : x y z
#
# Youngs Moduli (GPa) = 90.23317 77.59902 64.06073
#
# Poissons Ratio (x) = 0.24360 0.22409
# Poissons Ratio (y) = 0.28326 0.17883
# Poissons Ratio (z) = 0.31564 0.21662
#
# Static dielectric constant tensor:
#      x y z
#    x 1.701470 -0.000010 0.015890 
#    y -0.000010 1.709890 -0.000010 
#    z 0.015890 -0.000010 1.675580 
# 
# From -- ./inp_files/309134.got.cif
#   From: 2010.05.17/outbox.ucp.g08.bks.cvg/sg15_155_cif.got.tgz:309134.got - 2010.06.11 12:40:34.
