data_PCOD9309179
_publ_section_title
;
Structure prediction by ZEFSAII (Michael W. Deem and Ramdas Pophale) SiO2 
 PCOD9309179
Probable space group: C 2/C
;
_chemical_formula_sum "Si O2"
_cell_formula_units_Z 24
_cell_length_a 27.000000
_cell_length_b 9.000000
_cell_length_c 15.000000
_cell_angle_alpha 90.000000
_cell_angle_beta 140.000000
_cell_angle_gamma 90.000000
_cell_volume 2342.960837
_symmetry_space_group_name_H-M "C 2/C"
_symmetry_group_IT_number 15
_symmetry_cell_setting 'monoclinic'
loop_
_space_group_symop_operation_xyz
x,y,z
-x,y,1/2-z
-x,-y,-z
x,-y,1/2+z
1/2+x,1/2+y,z
1/2-x,1/2+y,1/2-z
1/2-x,1/2-y,-z
1/2+x,1/2-y,1/2+z
loop_
_atom_site_type_symbol
_atom_site_label
_atom_site_fract_x
_atom_site_fract_y
_atom_site_fract_z
Si Si1 0.808532 0.079727 0.370498
Si Si2 0.682379 0.914960 0.089992
Si Si3 0.424037 0.578844 0.365485
Si Si4 0.422303 0.091088 0.891279
Si Si5 0.321957 0.868873 0.083322
Si Si6 0.410992 0.591258 0.153065
O O1 0.792318 0.244292 0.383415
O O2 0.859158 0.080745 0.350266
O O3 0.733761 0.998421 0.233512
O O4 0.856530 0.989066 0.508353
O O5 0.604306 0.905349 0.041462
O O6 0.689311 0.003259 0.006564
O O7 0.500000 0.500000 0.500000
O O8 0.447782 0.748650 0.391659
O O9 0.397374 0.524175 0.232635
O O10 0.355082 0.063939 0.722565
O O11 0.500000 0.000000 0.000000
O O12 0.385701 0.762000 0.125909
O O13 0.250000 0.750000 0.000000
O O14 0.500000 0.574844 0.250000
#
# Coordination Sequence:
#
# PCOD9309179 Si02
#       6
#     8   8   8   8   8   8
#     4  11  23  42  63  97 127 175 226 270 337 398
#     4  11  24  42  69  92 134 179 217 280 334 402
#     4  10  21  39  60  88 130 168 209 276 327 393
#     4  10  24  40  62  97 130 166 223 274 333 395
#     4  11  24  46  68  94 137 177 224 278 342 409
#     4  11  22  38  66  94 127 173 222 269 338 403
#
# _framework density 10.243449
#
# number of rings (size 3 to 8) (size 9 to 14) (size 15 to 20)
#    0.000    1.333    1.667    5.000    4.667    2.667 
#    0.000    5.833    0.000    0.000    0.000    0.000 
#    0.000    0.000    0.000    0.000    0.000    0.000 
#
# Total GULP energy -133629.165663 kJ/mol
# GULP energy per Si atom -5567.881903 kJ/mol
# Density = 1.022013 g / cm^3
# Si number density = 10.243449 Si / 1000 Ang^3
#
#
#
# Elastic Constant Matrix: (Units=GPa)
#
#
# Indices 1 2 3 4 5 6 
#
# 1 44.4462 46.0786 23.6501 0.0000 -24.3897 0.0000
# 2 46.0786 63.0392 28.8110 0.0000 -9.4434 0.0000
# 3 23.6501 28.8110 70.9447 0.0000 -27.9309 0.0000
# 4 0.0000 0.0000 0.0000 59.8512 0.0000 -12.1202
# 5 -24.3897 -9.4434 -27.9309 0.0000 34.8628 0.0000
# 6 0.0000 0.0000 0.0000 -12.1202 0.0000 37.5365
#
#
#
# Elastic Compliance Matrix: (Units=1/GPa)
#
#
# Indices 1 2 3 4 5 6 
#
# 1 -1.443389 1.062340 -0.342566 0.000000 -0.996477 0.000000
# 2 1.062340 -0.762350 0.243584 0.000000 0.731855 0.000000
# 3 -0.342566 0.243584 -0.056975 0.000000 -0.219322 0.000000
# 4 0.000000 0.000000 0.000000 0.017877 0.000000 0.005772
# 5 -0.996477 0.731855 -0.219322 0.000000 -0.645917 0.000000
# 6 0.000000 0.000000 0.000000 0.005772 0.000000 0.028505
#
#
# Mechanical properties :
#
#
# Convention : Reuss Voigt Hill
#
# Bulk Modulus (GPa) = -2.97620 41.72328 19.37354
# Shear Modulus (GPa) = -1.02021 31.77613 15.37796
#
# Velocity S-wave (km/s) = -0.70644 3.94261 2.74272
# Velocity P-wave (km/s) = 1.45647 6.41370 4.41669
#
# Compressibility (1/GPa) = -0.33599883
#
# Stress axis : x y z
#
# Youngs Moduli (GPa) = -0.69281 -1.31173 -17.55163
#
# Poissons Ratio (x) = 1.39351 -6.01260
# Poissons Ratio (y) = 0.73600 4.27530
# Poissons Ratio (z) = -0.23733 0.31952
#
# Static dielectric constant tensor:
#      x y z
#    x 1.672600 0.000000 -0.029410 
#    y 0.000000 1.728900 0.000000 
#    z -0.029410 0.000000 1.797520 
# 
# From -- ./inp_files/176991.got.cif
#   From: 2010.05.17/outbox.ucp.g08.bks.cvg/sg15_89_cif.got.tgz:176991.got - 2010.06.11 12:40:34.
