data_PCOD9309481
_publ_section_title
;
Structure prediction by ZEFSAII (Michael W. Deem and Ramdas Pophale) SiO2 
 PCOD9309481
Probable space group: C 2/C
;
_chemical_formula_sum "Si O2"
_cell_formula_units_Z 30
_cell_length_a 12.000000
_cell_length_b 21.000000
_cell_length_c 18.000000
_cell_angle_alpha 90.000000
_cell_angle_beta 40.000000
_cell_angle_gamma 90.000000
_cell_volume 2915.684598
_symmetry_space_group_name_H-M "C 2/C"
_symmetry_group_IT_number 15
_symmetry_cell_setting 'monoclinic'
loop_
_space_group_symop_operation_xyz
x,y,z
-x,y,1/2-z
-x,-y,-z
x,-y,1/2+z
1/2+x,1/2+y,z
1/2-x,1/2+y,1/2-z
1/2-x,1/2-y,-z
1/2+x,1/2-y,1/2+z
loop_
_atom_site_type_symbol
_atom_site_label
_atom_site_fract_x
_atom_site_fract_y
_atom_site_fract_z
Si Si1 0.500000 0.312264 0.750000
Si Si2 0.077607 0.631341 0.898546
Si Si3 0.287653 0.584173 0.452925
Si Si4 0.551816 0.430620 0.947639
Si Si5 0.570300 0.106228 0.292108
Si Si6 0.760687 0.437884 0.048473
Si Si7 0.963886 0.150371 0.635599
Si Si8 0.370823 0.783820 0.618553
O O1 0.620296 0.361920 0.643465
O O2 0.662928 0.273311 0.705015
O O3 0.131254 0.580536 0.934075
O O4 0.261912 0.640640 0.762848
O O5 0.914999 0.602593 0.936172
O O6 0.990991 0.692215 0.987117
O O7 0.404372 0.587990 0.465419
O O8 0.302980 0.510943 0.416521
O O9 0.748350 0.429638 0.816529
O O10 0.500000 0.500000 0.000000
O O11 0.524838 0.383805 0.029581
O O12 0.500000 0.133817 0.250000
O O13 0.404839 0.067840 0.409181
O O14 0.620579 0.158397 0.327457
O O15 0.605409 0.384854 0.118025
O O16 0.962107 0.224901 0.614304
#
# Coordination Sequence:
#
# PCOD9309481 Si02
#       8
#     4   8   8   8   8   8   8   8
#     4  10  22  44  70  98 134 186 224 284 336 408
#     4  10  26  43  66 105 133 178 230 278 338 407
#     4  11  23  42  70  98 136 176 225 278 347 407
#     4  12  25  43  67 101 136 181 222 279 349 406
#     4  11  22  43  67  97 136 177 221 277 343 407
#     4  11  24  42  67 102 135 178 224 286 339 408
#     4  12  26  43  69 100 136 179 224 286 336 404
#     4  10  25  44  70  96 135 182 231 277 342 407
#
# _framework density 10.289179000000001
#
# number of rings (size 3 to 8) (size 9 to 14) (size 15 to 20)
#    0.000    1.067    4.000    0.800    5.600    4.800 
#    0.000    2.667    0.000    0.000    0.000    0.000 
#    0.000    0.000    0.000    0.000    0.000    0.000 
#
# Total GULP energy -167171.684491 kJ/mol
# GULP energy per Si atom -5572.389483 kJ/mol
# Density = 1.026576 g / cm^3
# Si number density = 10.289179 Si / 1000 Ang^3
#
#
#
# Elastic Constant Matrix: (Units=GPa)
#
#
# Indices 1 2 3 4 5 6 
#
# 1 100.6295 -10.7757 19.2607 -0.0011 -30.9333 0.0019
# 2 -10.7757 68.5738 21.3385 0.0001 -5.9682 0.0008
# 3 19.2607 21.3385 131.6232 0.0011 -34.7914 -0.0001
# 4 -0.0011 0.0001 0.0011 24.7656 -0.0003 -7.0103
# 5 -30.9333 -5.9682 -34.7914 -0.0003 38.1348 -0.0004
# 6 0.0019 0.0008 -0.0001 -7.0103 -0.0004 27.5160
#
#
#
# Elastic Compliance Matrix: (Units=1/GPa)
#
#
# Indices 1 2 3 4 5 6 
#
# 1 0.013959 0.003042 0.000768 0.000000 0.012499 -0.000001
# 2 0.003042 0.016022 -0.002276 0.000000 0.002898 -0.000001
# 3 0.000768 -0.002276 0.010443 0.000000 0.009794 0.000000
# 4 0.000000 0.000000 0.000000 0.043517 0.000001 0.011087
# 5 0.012499 0.002898 0.009794 0.000001 0.045751 0.000000
# 6 -0.000001 -0.000001 0.000000 0.011087 0.000000 0.039167
#
#
# Mechanical properties :
#
#
# Convention : Reuss Voigt Hill
#
# Bulk Modulus (GPa) = 22.99332 40.05261 31.52297
# Shear Modulus (GPa) = 27.73357 36.15015 31.94186
#
# Velocity S-wave (km/s) = 3.67509 4.19586 3.94408
# Velocity P-wave (km/s) = 5.40428 6.55586 6.00773
#
# Compressibility (1/GPa) = 0.04349090
#
# Stress axis : x y z
#
# Youngs Moduli (GPa) = 71.64092 62.41606 95.75827
#
# Poissons Ratio (x) = -0.18989 -0.07356
# Poissons Ratio (y) = -0.21795 0.21799
# Poissons Ratio (z) = -0.05503 0.14209
#
# Static dielectric constant tensor:
#      x y z
#    x 1.643540 0.000010 0.014300 
#    y 0.000010 1.913230 0.000000 
#    z 0.014300 0.000000 1.744980 
# 
# From -- ./inp_files/200502.got.cif
#   From: 2010.05.17/outbox.ucp.g08.bks.cvg/sg15_101_cif.got.tgz:200502.got - 2010.06.11 12:40:34.
