data_PCOD9309434
_publ_section_title
;
Structure prediction by ZEFSAII (Michael W. Deem and Ramdas Pophale) SiO2 
 PCOD9309434
Probable space group: C 2/C
;
_chemical_formula_sum "Si O2"
_cell_formula_units_Z 30
_cell_length_a 15.000000
_cell_length_b 9.000000
_cell_length_c 24.000000
_cell_angle_alpha 90.000000
_cell_angle_beta 110.000000
_cell_angle_gamma 90.000000
_cell_volume 3044.604091
_symmetry_space_group_name_H-M "C 2/C"
_symmetry_group_IT_number 15
_symmetry_cell_setting 'monoclinic'
loop_
_space_group_symop_operation_xyz
x,y,z
-x,y,1/2-z
-x,-y,-z
x,-y,1/2+z
1/2+x,1/2+y,z
1/2-x,1/2+y,1/2-z
1/2-x,1/2-y,-z
1/2+x,1/2-y,1/2+z
loop_
_atom_site_type_symbol
_atom_site_label
_atom_site_fract_x
_atom_site_fract_y
_atom_site_fract_z
Si Si1 0.954371 0.947179 0.152924
Si Si2 0.344969 0.076017 0.756577
Si Si3 0.239690 0.598866 0.637166
Si Si4 0.934797 0.922293 0.440855
Si Si5 0.937489 0.580317 0.441455
Si Si6 0.478977 0.893212 0.663243
Si Si7 0.737731 0.946160 0.864737
Si Si8 0.000000 0.807894 0.750000
O O1 0.841041 0.962302 0.138105
O O2 0.973412 0.779531 0.178282
O O3 0.006196 0.945693 0.104107
O O4 0.994685 0.083399 0.196300
O O5 0.291460 0.095748 0.804152
O O6 0.403542 0.212839 0.741066
O O7 0.433290 0.964187 0.784960
O O8 0.266304 0.008878 0.698822
O O9 0.159264 0.508011 0.588238
O O10 0.242408 0.772598 0.624676
O O11 0.924274 0.750575 0.453778
O O12 0.826886 0.979243 0.413490
O O13 0.000000 0.000000 0.500000
O O14 0.000000 0.500000 0.500000
O O15 0.991034 0.586178 0.394068
O O16 0.374030 0.964760 0.644077
#
# Coordination Sequence:
#
# PCOD9309434 Si02
#       8
#     8   8   8   8   8   8   8   4
#     4  10  25  41  63  93 128 171 207 255 311 385
#     4  11  23  38  61  96 131 164 202 263 313 374
#     4  10  24  39  64  91 126 166 212 252 313 380
#     4  11  25  45  65  90 127 165 213 263 317 372
#     4  10  22  42  66  90 120 160 214 263 308 373
#     4   9  21  43  62  91 126 168 206 247 319 382
#     4  11  22  40  63  88 122 171 204 250 320 368
#     4  12  24  36  62  96 138 154 212 260 312 376
#
# _framework density 9.8534980000000001
#
# number of rings (size 3 to 8) (size 9 to 14) (size 15 to 20)
#    0.000    1.600    1.333    1.600    9.333    3.200 
#    0.000    5.333    0.000    0.000    0.000    0.000 
#    0.000    0.000    0.000    0.000    0.000    0.000 
#
# Total GULP energy -167206.848448 kJ/mol
# GULP energy per Si atom -5573.561615 kJ/mol
# Density = 0.983107 g / cm^3
# Si number density = 9.853498 Si / 1000 Ang^3
#
#
#
# Elastic Constant Matrix: (Units=GPa)
#
#
# Indices 1 2 3 4 5 6 
#
# 1 75.3848 40.3712 12.5770 0.0000 23.3523 0.0000
# 2 40.3712 116.3241 65.3532 0.0000 28.3325 0.0000
# 3 12.5770 65.3532 81.6977 0.0000 32.6425 0.0000
# 4 0.0000 0.0000 0.0000 30.4825 0.0000 4.5125
# 5 23.3523 28.3325 32.6425 0.0000 24.9247 0.0000
# 6 0.0000 0.0000 0.0000 4.5125 0.0000 -6.1099
#
#
#
# Elastic Compliance Matrix: (Units=1/GPa)
#
#
# Indices 1 2 3 4 5 6 
#
# 1 0.029567 -0.012493 0.022730 0.000000 -0.043270 0.000000
# 2 -0.012493 0.020994 -0.021002 0.000000 0.015346 0.000000
# 3 0.022730 -0.021002 0.051417 0.000000 -0.064760 0.000000
# 4 0.000000 0.000000 0.000000 0.029572 0.000000 0.021841
# 5 -0.043270 0.015346 -0.064760 0.000000 0.148029 0.000000
# 6 0.000000 0.000000 0.000000 0.021841 0.000000 -0.147539
#
#
# Mechanical properties :
#
#
# Convention : Reuss Voigt Hill
#
# Bulk Modulus (GPa) = 12.43035 56.66769 34.54902
# Shear Modulus (GPa) = 27.71818 20.19982 23.95900
#
# Velocity S-wave (km/s) = 3.75442 3.20505 3.49056
# Velocity P-wave (km/s) = 5.01154 6.52027 5.81504
#
# Compressibility (1/GPa) = 0.08044825
#
# Stress axis : x y z
#
# Youngs Moduli (GPa) = 33.82124 47.63204 19.44900
#
# Poissons Ratio (x) = 0.59506 -0.44208
# Poissons Ratio (y) = 0.42252 0.40847
# Poissons Ratio (z) = -0.76877 1.00038
#
# Static dielectric constant tensor:
#      x y z
#    x 1.676040 0.000000 -0.034520 
#    y 0.000000 1.744390 0.000000 
#    z -0.034520 0.000000 1.703710 
# 
# From -- ./inp_files/273218.got.cif
#   From: 2010.05.17/outbox.ucp.g08.bks.cvg/sg15_137_cif.got.tgz:273218.got - 2010.06.11 12:40:34.
