data_PCOD9309707
_publ_section_title
;
Structure prediction by ZEFSAII (Michael W. Deem and Ramdas Pophale) SiO2 
 PCOD9309707
Probable space group: C 2/C
;
_chemical_formula_sum "Si O2"
_cell_formula_units_Z 28
_cell_length_a 18.000000
_cell_length_b 18.000000
_cell_length_c 9.000000
_cell_angle_alpha 90.000000
_cell_angle_beta 70.000000
_cell_angle_gamma 90.000000
_cell_volume 2740.143682
_symmetry_space_group_name_H-M "C 2/C"
_symmetry_group_IT_number 15
_symmetry_cell_setting 'monoclinic'
loop_
_space_group_symop_operation_xyz
x,y,z
-x,y,1/2-z
-x,-y,-z
x,-y,1/2+z
1/2+x,1/2+y,z
1/2-x,1/2+y,1/2-z
1/2-x,1/2-y,-z
1/2+x,1/2-y,1/2+z
loop_
_atom_site_type_symbol
_atom_site_label
_atom_site_fract_x
_atom_site_fract_y
_atom_site_fract_z
Si Si1 0.143404 0.397946 0.958972
Si Si2 0.012983 0.657072 0.063161
Si Si3 0.537478 0.571651 0.887979
Si Si4 0.299857 0.555862 0.875348
Si Si5 0.040920 0.800246 0.876586
Si Si6 0.696799 0.603413 0.272467
Si Si7 0.359440 0.941690 0.184857
O O1 0.222232 0.359977 0.839963
O O2 0.135492 0.470657 0.856562
O O3 0.069466 0.347564 0.968513
O O4 0.144139 0.422052 0.134911
O O5 0.000000 0.650476 0.250000
O O6 0.052603 0.733773 0.984744
O O7 0.066937 0.594133 0.951056
O O8 0.500000 0.571281 0.750000
O O9 0.628655 0.580306 0.780029
O O10 0.500000 0.500000 0.000000
O O11 0.514445 0.640107 0.005265
O O12 0.306234 0.467122 0.838831
O O13 0.219064 0.582410 0.852507
O O14 0.303244 0.576753 0.050651
O O15 0.123031 0.843436 0.797427
O O16 0.000000 0.776967 0.750000
#
# Coordination Sequence:
#
# PCOD9309707 Si02
#       7
#     8   8   8   8   8   8   8
#     4  11  23  43  72 102 132 166 216 271 329 389
#     4  12  26  49  67  95 131 172 220 271 330 398
#     4  12  22  38  62  92 129 181 220 273 317 378
#     4  11  21  38  64  98 133 163 224 264 328 374
#     4  12  27  42  64  91 135 175 225 263 330 384
#     4  11  23  40  65 101 133 172 216 274 327 385
#     4  11  23  42  74 103 130 167 211 275 331 388
#
# _framework density 10.218442
#
# number of rings (size 3 to 8) (size 9 to 14) (size 15 to 20)
#    0.000    0.571    2.857    7.714    4.000    0.000 
#    2.571    2.857    0.000    0.000    0.000    0.000 
#    0.000    0.000    0.000    0.000    0.000    0.000 
#
# Total GULP energy -156227.983643 kJ/mol
# GULP energy per Si atom -5579.570844 kJ/mol
# Density = 1.019518 g / cm^3
# Si number density = 10.218442 Si / 1000 Ang^3
#
#
#
# Elastic Constant Matrix: (Units=GPa)
#
#
# Indices 1 2 3 4 5 6 
#
# 1 105.5569 3.8853 42.0763 0.0000 -18.7632 0.0000
# 2 3.8853 12.9693 6.0500 0.0000 -0.7162 0.0000
# 3 42.0763 6.0500 163.8305 0.0000 5.9193 0.0000
# 4 0.0000 0.0000 0.0000 25.9937 0.0000 12.4551
# 5 -18.7632 -0.7162 5.9193 0.0000 51.4084 0.0000
# 6 0.0000 0.0000 0.0000 12.4551 0.0000 1.3750
#
#
#
# Elastic Compliance Matrix: (Units=1/GPa)
#
#
# Indices 1 2 3 4 5 6 
#
# 1 0.011572 -0.001783 -0.003071 0.000000 0.004552 0.000000
# 2 -0.001783 0.078837 -0.002480 0.000000 0.000733 0.000000
# 3 -0.003071 -0.002480 0.007055 0.000000 -0.001968 0.000000
# 4 0.000000 0.000000 0.000000 -0.011517 0.000000 0.104325
# 5 0.004552 0.000733 -0.001968 0.000000 0.021350 0.000000
# 6 0.000000 0.000000 0.000000 0.104325 0.000000 -0.217726
#
#
# Mechanical properties :
#
#
# Convention : Reuss Voigt Hill
#
# Bulk Modulus (GPa) = 12.07771 42.93111 27.50441
# Shear Modulus (GPa) = -73.35526 31.11177 -21.12175
#
# Velocity S-wave (km/s) = -5.99762 3.90594 -3.21831
# Velocity P-wave (km/s) = 6.48378 6.43383 0.56800
#
# Compressibility (1/GPa) = 0.08279717
#
# Stress axis : x y z
#
# Youngs Moduli (GPa) = 86.41196 12.68444 141.73937
#
# Poissons Ratio (x) = 0.02262 0.43525
# Poissons Ratio (y) = 0.15407 0.35150
# Poissons Ratio (z) = 0.26535 0.03146
#
# Static dielectric constant tensor:
#      x y z
#    x 1.882060 0.000000 -0.066230 
#    y 0.000000 1.744750 0.000000 
#    z -0.066230 0.000000 1.693860 
# 
# From -- ./inp_files/49022.got.cif
#   From: 2010.05.17/outbox.ucp.g08.bks.cvg/sg15_25_cif.got.tgz:49022.got - 2010.06.11 12:40:34.
