data_PCOD9309393
_publ_section_title
;
Structure prediction by ZEFSAII (Michael W. Deem and Ramdas Pophale) SiO2 
 PCOD9309393
Probable space group: C 2/C
;
_chemical_formula_sum "Si O2"
_cell_formula_units_Z 32
_cell_length_a 24.000000
_cell_length_b 18.000000
_cell_length_c 15.000000
_cell_angle_alpha 90.000000
_cell_angle_beta 150.000000
_cell_angle_gamma 90.000000
_cell_volume 3240.000000
_symmetry_space_group_name_H-M "C 2/C"
_symmetry_group_IT_number 15
_symmetry_cell_setting 'monoclinic'
loop_
_space_group_symop_operation_xyz
x,y,z
-x,y,1/2-z
-x,-y,-z
x,-y,1/2+z
1/2+x,1/2+y,z
1/2-x,1/2+y,1/2-z
1/2-x,1/2-y,-z
1/2+x,1/2-y,1/2+z
loop_
_atom_site_type_symbol
_atom_site_label
_atom_site_fract_x
_atom_site_fract_y
_atom_site_fract_z
Si Si1 0.761676 0.139070 0.465758
Si Si2 0.618167 0.961652 0.634891
Si Si3 0.246741 0.608314 0.746734
Si Si4 0.871031 0.810974 0.582162
Si Si5 0.864525 0.905147 0.755711
Si Si6 0.925777 0.923458 0.338036
Si Si7 0.131660 0.715009 0.448214
Si Si8 0.117038 0.365084 0.460837
O O1 0.694621 0.075009 0.319361
O O2 0.869457 0.113970 0.673421
O O3 0.804266 0.205788 0.461111
O O4 0.679445 0.173135 0.426707
O O5 0.598431 0.893419 0.537248
O O6 0.500000 0.000000 0.500000
O O7 0.686820 0.030537 0.686889
O O8 0.346885 0.592991 0.814894
O O9 0.164700 0.665184 0.580090
O O10 0.294945 0.645048 0.904772
O O11 0.858330 0.843296 0.666618
O O12 0.863065 0.722294 0.542424
O O13 0.000000 0.829613 0.750000
O O14 0.733367 0.907212 0.599120
O O15 0.912459 0.987848 0.797869
O O16 0.951924 0.892482 0.960546
O O17 0.000000 0.724181 0.250000
O O18 0.000000 0.386065 0.250000
#
# Coordination Sequence:
#
# PCOD9309393 Si02
#       8
#     8   8   8   8   8   8   8   8
#     4  10  23  42  65  99 132 169 229 279 328 412
#     4  12  26  43  68 101 136 181 232 281 340 411
#     4  11  22  42  67  94 134 174 226 283 336 408
#     4  11  23  42  67 100 133 178 227 276 340 417
#     4  11  22  45  66  98 135 180 224 276 355 407
#     4  10  22  40  69  97 135 173 218 290 342 406
#     4  10  22  43  65  95 131 180 214 278 346 393
#     4  11  27  44  65  98 138 182 223 287 336 412
#
# _framework density 9.8765429999999999
#
# number of rings (size 3 to 8) (size 9 to 14) (size 15 to 20)
#    0.000    1.250    2.500    2.625    3.500    2.500 
#    0.000    0.000    0.000    0.000    0.000    0.000 
#    0.000    0.000    0.000    0.000    0.000    0.000 
#
# Total GULP energy -178349.001034 kJ/mol
# GULP energy per Si atom -5573.406282 kJ/mol
# Density = 0.985406 g / cm^3
# Si number density = 9.876543 Si / 1000 Ang^3
#
#
#
# Elastic Constant Matrix: (Units=GPa)
#
#
# Indices 1 2 3 4 5 6 
#
# 1 62.1818 27.5562 47.7278 0.0000 -3.6826 0.0000
# 2 27.5562 112.7136 55.3560 0.0000 -14.0036 0.0000
# 3 47.7278 55.3560 180.2468 0.0000 -8.4880 0.0000
# 4 0.0000 0.0000 0.0000 46.7669 0.0000 -10.6456
# 5 -3.6826 -14.0036 -8.4880 0.0000 42.2831 0.0000
# 6 0.0000 0.0000 0.0000 -10.6456 0.0000 38.9686
#
#
#
# Elastic Compliance Matrix: (Units=1/GPa)
#
#
# Indices 1 2 3 4 5 6 
#
# 1 0.020918 -0.002825 -0.004674 0.000000 -0.000052 0.000000
# 2 -0.002825 0.011179 -0.002547 0.000000 0.002945 0.000000
# 3 -0.004674 -0.002547 0.007580 0.000000 0.000271 0.000000
# 4 0.000000 0.000000 0.000000 0.022800 0.000000 0.006229
# 5 -0.000052 0.002945 0.000271 0.000000 0.024675 0.000000
# 6 0.000000 0.000000 0.000000 0.006229 0.000000 0.027363
#
#
# Mechanical properties :
#
#
# Convention : Reuss Voigt Hill
#
# Bulk Modulus (GPa) = 51.05444 68.49136 59.77290
# Shear Modulus (GPa) = 35.42661 40.57052 37.99856
#
# Velocity S-wave (km/s) = 4.23953 4.53689 4.39073
# Velocity P-wave (km/s) = 7.06168 7.88629 7.48535
#
# Compressibility (1/GPa) = 0.01958693
#
# Stress axis : x y z
#
# Youngs Moduli (GPa) = 47.80541 89.45100 131.91978
#
# Poissons Ratio (x) = 0.25271 0.61656
# Poissons Ratio (y) = 0.13506 0.33594
# Poissons Ratio (z) = 0.22343 0.22779
#
# Static dielectric constant tensor:
#      x y z
#    x 1.744580 0.000000 0.000090 
#    y 0.000000 1.722170 0.000000 
#    z 0.000090 0.000000 1.687480 
# 
# From -- ./inp_files/174270.got.cif
#   From: 2010.05.17/outbox.ucp.g08.bks.cvg/sg15_88_cif.got.tgz:174270.got - 2010.06.11 12:40:34.
