data_PCOD9309804
_publ_section_title
;
Structure prediction by ZEFSAII (Michael W. Deem and Ramdas Pophale) SiO2 
 PCOD9309804
Probable space group: C 2/C
;
_chemical_formula_sum "Si O2"
_cell_formula_units_Z 22
_cell_length_a 12.000000
_cell_length_b 27.000000
_cell_length_c 9.000000
_cell_angle_alpha 90.000000
_cell_angle_beta 130.000000
_cell_angle_gamma 90.000000
_cell_volume 2233.785596
_symmetry_space_group_name_H-M "C 2/C"
_symmetry_group_IT_number 15
_symmetry_cell_setting 'monoclinic'
loop_
_space_group_symop_operation_xyz
x,y,z
-x,y,1/2-z
-x,-y,-z
x,-y,1/2+z
1/2+x,1/2+y,z
1/2-x,1/2+y,1/2-z
1/2-x,1/2-y,-z
1/2+x,1/2-y,1/2+z
loop_
_atom_site_type_symbol
_atom_site_label
_atom_site_fract_x
_atom_site_fract_y
_atom_site_fract_z
Si Si1 0.236981 0.936637 0.315510
Si Si2 0.327443 0.275201 0.923681
Si Si3 0.546149 0.087781 0.958529
Si Si4 0.500000 0.359554 0.250000
Si Si5 0.828395 0.039450 0.087017
Si Si6 0.059460 0.294175 0.471383
O O1 0.414522 0.928823 0.456874
O O2 0.127476 0.892591 0.277856
O O3 0.199922 0.982505 0.391390
O O4 0.201610 0.949525 0.112714
O O5 0.216526 0.282760 0.687191
O O6 0.447697 0.236233 0.974821
O O7 0.250000 0.250000 0.000000
O O8 0.412264 0.324285 0.057219
O O9 0.500000 0.074073 0.750000
O O10 0.547393 0.146816 0.972766
O O11 0.713541 0.068029 0.098706
O O12 0.000000 0.051233 0.250000
O O13 0.000000 0.282890 0.250000
#
# Coordination Sequence:
#
# PCOD9309804 Si02
#       6
#     8   8   8   4   8   8
#     4  11  24  43  68  97 144 180 236 287 350 428
#     4  12  24  45  70  99 142 190 238 290 356 425
#     4   9  22  42  66  99 136 178 228 289 356 418
#     4  12  26  42  70 106 144 194 240 288 358 424
#     4  11  23  42  67  97 134 179 230 291 351 417
#     4  11  24  45  70 104 141 183 239 299 353 416
#
# _framework density 9.8487519999999993
#
# number of rings (size 3 to 8) (size 9 to 14) (size 15 to 20)
#    0.000    1.091    2.727    2.727    2.545    0.000 
#    3.273    1.818    0.000    0.000    0.000    0.000 
#    0.000    0.000    0.000    0.000    0.000    0.000 
#
# Total GULP energy -122564.911755 kJ/mol
# GULP energy per Si atom -5571.132352 kJ/mol
# Density = 0.982634 g / cm^3
# Si number density = 9.848752 Si / 1000 Ang^3
#
#
#
# Elastic Constant Matrix: (Units=GPa)
#
#
# Indices 1 2 3 4 5 6 
#
# 1 170.9326 82.4276 42.4465 0.0000 27.3138 0.0000
# 2 82.4276 109.1192 30.8031 0.0000 4.4513 0.0000
# 3 42.4465 30.8031 100.9464 0.0000 18.9856 0.0000
# 4 0.0000 0.0000 0.0000 34.1489 0.0000 1.1740
# 5 27.3138 4.4513 18.9856 0.0000 42.8291 0.0000
# 6 0.0000 0.0000 0.0000 1.1740 0.0000 46.3528
#
#
#
# Elastic Compliance Matrix: (Units=1/GPa)
#
#
# Indices 1 2 3 4 5 6 
#
# 1 0.010614 -0.007469 -0.001153 0.000000 -0.005482 0.000000
# 2 -0.007469 0.015288 -0.002315 0.000000 0.004200 0.000000
# 3 -0.001153 -0.002315 0.011906 0.000000 -0.004302 0.000000
# 4 0.000000 0.000000 0.000000 0.029309 0.000000 -0.000742
# 5 -0.005482 0.004200 -0.004302 0.000000 0.028315 0.000000
# 6 0.000000 0.000000 0.000000 -0.000742 0.000000 0.021592
#
#
# Mechanical properties :
#
#
# Convention : Reuss Voigt Hill
#
# Bulk Modulus (GPa) = 62.75076 76.92808 69.83942
# Shear Modulus (GPa) = 34.67171 39.68754 37.17963
#
# Velocity S-wave (km/s) = 4.20004 4.49358 4.34928
# Velocity P-wave (km/s) = 7.44626 8.12789 7.79453
#
# Compressibility (1/GPa) = 0.01593606
#
# Stress axis : x y z
#
# Youngs Moduli (GPa) = 94.21445 65.41045 83.98780
#
# Poissons Ratio (x) = 0.48853 0.09685
# Poissons Ratio (y) = 0.70366 0.19439
# Poissons Ratio (z) = 0.10864 0.15140
#
# Static dielectric constant tensor:
#      x y z
#    x 1.701190 0.000000 0.032250 
#    y 0.000000 1.693320 0.000000 
#    z 0.032250 0.000000 1.744710 
# 
# From -- ./inp_files/34484.got.cif
#   From: 2010.05.17/outbox.ucp.g08.bks.cvg/sg15_18_cif.got.tgz:34484.got - 2010.06.11 12:40:34.
