data_PCOD9309989
_publ_section_title
;
Structure prediction by ZEFSAII (Michael W. Deem and Ramdas Pophale) SiO2 
 PCOD9309989
Probable space group: P 2 2 2
;
_chemical_formula_sum "Si O2"
_cell_formula_units_Z 32
_cell_length_a 15.429479
_cell_length_b 11.152679
_cell_length_c 8.970603
_cell_angle_alpha 90.000000
_cell_angle_beta 90.000000
_cell_angle_gamma 90.000000
_cell_volume 1543.661601
_symmetry_space_group_name_H-M "P 2 2 2"
_symmetry_group_IT_number 16
_symmetry_cell_setting 'orthorhombic'
loop_
_space_group_symop_operation_xyz
x,y,z
-x,-y,z
x,-y,-z
-x,y,-z
loop_
_atom_site_type_symbol
_atom_site_label
_atom_site_fract_x
_atom_site_fract_y
_atom_site_fract_z
Si Si1 0.244909 0.187348 0.924925
Si Si2 0.733867 0.240030 0.531647
Si Si3 0.302501 0.529467 0.676240
Si Si4 0.732785 0.065816 0.779707
Si Si5 0.608989 0.702922 0.744465
Si Si6 0.086395 0.365487 0.563856
Si Si7 0.532381 0.124226 0.828199
Si Si8 0.859596 0.422416 0.140570
O O1 0.338002 0.250279 0.889466
O O2 0.179391 0.294044 0.898192
O O3 0.246772 0.072898 0.813692
O O4 0.221759 0.138165 0.087465
O O5 0.696621 0.327599 0.663595
O O6 0.748765 0.114912 0.614853
O O7 0.664033 0.246948 0.397838
O O8 0.825486 0.292921 0.471410
O O9 0.293587 0.500000 0.500000
O O10 0.379272 0.441505 0.732783
O O11 0.219012 0.491250 0.772453
O O12 0.633743 0.100472 0.818827
O O13 0.514242 0.761796 0.751749
O O14 0.096247 0.500000 0.500000
O O15 0.070212 0.390556 0.737064
O O16 0.000000 0.307065 0.500000
O O17 0.500000 0.000000 0.755562
O O18 0.500000 0.126325 0.000000
O O19 0.885416 0.500000 0.000000
#
# Coordination Sequence:
#
# PCOD9309989 Si02
#       8
#     4   4   4   4   4   4   4   4
#     4  10  19  36  55  90 116 159 211 252 294 361
#     4  11  20  38  59  86 121 162 202 245 319 376
#     4   9  16  34  57  79 112 159 192 243 312 362
#     4  11  22  34  59  84 121 169 204 254 307 367
#     4  10  18  33  58  81 116 151 204 260 297 367
#     4  11  21  39  64  91 127 156 191 253 320 383
#     4  11  19  35  55  81 120 158 201 258 315 346
#     4  11  19  34  64  94 121 153 205 253 303 371
#
# _framework density 20.729932000000002
#
# number of rings (size 3 to 8) (size 9 to 14) (size 15 to 20)
#    0.000    1.500    7.500    1.500    0.000    1.000 
#    0.000    2.500    0.000    6.750    0.000    1.750 
#    0.000    0.000    0.000    0.000    0.000    0.000 
#
# Total GULP energy -178235.475559 kJ/mol
# GULP energy per Si atom -5569.858611 kJ/mol
# Density = 2.068275 g / cm^3
# Si number density = 20.729932 Si / 1000 Ang^3
#
#
#
# Elastic Constant Matrix: (Units=GPa)
#
#
# Indices 1 2 3 4 5 6 
#
# 1 56.3776 15.3770 19.6607 0.0000 0.0000 0.0000
# 2 15.3770 82.2551 37.9100 0.0000 0.0000 0.0000
# 3 19.6607 37.9100 75.0735 0.0000 0.0000 0.0000
# 4 0.0000 0.0000 0.0000 33.9254 0.0000 0.0000
# 5 0.0000 0.0000 0.0000 0.0000 9.9807 0.0000
# 6 0.0000 0.0000 0.0000 0.0000 0.0000 5.9099
#
#
#
# Elastic Compliance Matrix: (Units=1/GPa)
#
#
# Indices 1 2 3 4 5 6 
#
# 1 0.019701 -0.001701 -0.004301 0.000000 0.000000 0.000000
# 2 -0.001701 0.015992 -0.007630 0.000000 0.000000 0.000000
# 3 -0.004301 -0.007630 0.018299 0.000000 0.000000 0.000000
# 4 0.000000 0.000000 0.000000 0.029476 0.000000 0.000000
# 5 0.000000 0.000000 0.000000 0.000000 0.100194 0.000000
# 6 0.000000 0.000000 0.000000 0.000000 0.000000 0.169207
#
#
# Mechanical properties :
#
#
# Convention : Reuss Voigt Hill
#
# Bulk Modulus (GPa) = 37.41176 39.95574 38.68375
# Shear Modulus (GPa) = 12.85206 19.34709 16.09958
#
# Velocity S-wave (km/s) = 2.49263 3.05830 2.78984
# Velocity P-wave (km/s) = 5.13524 5.63801 5.39249
#
# Compressibility (1/GPa) = 0.02672956
#
# Stress axis : x y z
#
# Youngs Moduli (GPa) = 50.75827 62.53206 54.64641
#
# Poissons Ratio (x) = 0.10636 0.23501
# Poissons Ratio (y) = 0.08634 0.41695
# Poissons Ratio (z) = 0.21829 0.47712
#
# Static dielectric constant tensor:
#      x y z
#    x 1.791850 0.000000 0.000000 
#    y 0.000000 1.811980 0.000000 
#    z 0.000000 0.000000 1.806260 
# 
# From -- ./inp_files/5231.got.cif
#   From: 2010.05.17/outbox.cif.g08.bks.cpg/sg16_3_cif.got.tgz:5231.got - 2010.06.03 22:28:35.
