data_PCOD9309325
_publ_section_title
;
Structure prediction by ZEFSAII (Michael W. Deem and Ramdas Pophale) SiO2 
 PCOD9309325
Probable space group: C 2/C
;
_chemical_formula_sum "Si O2"
_cell_formula_units_Z 24
_cell_length_a 15.000000
_cell_length_b 30.000000
_cell_length_c 15.000000
_cell_angle_alpha 90.000000
_cell_angle_beta 160.000000
_cell_angle_gamma 90.000000
_cell_volume 2308.635967
_symmetry_space_group_name_H-M "C 2/C"
_symmetry_group_IT_number 15
_symmetry_cell_setting 'monoclinic'
loop_
_space_group_symop_operation_xyz
x,y,z
-x,y,1/2-z
-x,-y,-z
x,-y,1/2+z
1/2+x,1/2+y,z
1/2-x,1/2+y,1/2-z
1/2-x,1/2-y,-z
1/2+x,1/2-y,1/2+z
loop_
_atom_site_type_symbol
_atom_site_label
_atom_site_fract_x
_atom_site_fract_y
_atom_site_fract_z
Si Si1 0.707454 0.413681 0.721775
Si Si2 0.682571 0.183953 0.229739
Si Si3 0.500000 0.836400 0.750000
Si Si4 0.931707 0.262497 0.362592
Si Si5 0.000000 0.102298 0.750000
Si Si6 0.276667 0.958131 0.962403
Si Si7 0.235440 0.047330 0.810922
O O1 0.679965 0.363374 0.658232
O O2 0.747819 0.416690 0.866678
O O3 0.460237 0.444205 0.457187
O O4 0.984051 0.430302 0.941876
O O5 0.557748 0.187893 0.210310
O O6 0.867243 0.225836 0.380319
O O7 0.471289 0.191302 0.951304
O O8 0.248114 0.867057 0.500390
O O9 0.200711 0.244165 0.578363
O O10 0.073738 0.071848 0.736254
O O11 0.000000 0.964257 0.750000
O O12 0.304465 0.999013 0.917499
O O13 0.500000 0.956829 0.250000
#
# Coordination Sequence:
#
# PCOD9309325 Si02
#       7
#     8   8   4   8   4   8   8
#     4  12  25  40  67  94 116 164 212 251 295 366
#     4  10  22  37  56  85 121 156 206 245 292 363
#     4  12  24  32  57  84 124 160 214 240 293 338
#     4   8  20  35  52  79 114 160 193 242 301 346
#     4  12  22  36  53  88 120 170 198 242 297 332
#     4  12  26  45  64  91 127 159 198 259 319 358
#     4  12  23  41  63  89 125 165 205 249 290 365
#
# _framework density 10.395749
#
# number of rings (size 3 to 8) (size 9 to 14) (size 15 to 20)
#    1.000    0.000    4.167    3.000    5.833    0.667 
#    0.000    0.000    0.000    0.000    0.000    3.500 
#    0.000    0.000    0.000    0.000    0.000    0.000 
#
# Total GULP energy -133655.685437 kJ/mol
# GULP energy per Si atom -5568.986893 kJ/mol
# Density = 1.037209 g / cm^3
# Si number density = 10.395749 Si / 1000 Ang^3
#
#
#
# Elastic Constant Matrix: (Units=GPa)
#
#
# Indices 1 2 3 4 5 6 
#
# 1 26.8184 7.3291 -1.8237 0.0015 -18.5187 -0.0002
# 2 7.3291 57.2509 -2.8869 -0.0005 -2.0784 -0.0003
# 3 -1.8237 -2.8869 131.1387 0.0051 -6.5850 0.0006
# 4 0.0015 -0.0005 0.0051 17.3874 0.0016 12.8701
# 5 -18.5187 -2.0784 -6.5850 0.0016 26.2158 0.0000
# 6 -0.0002 -0.0003 0.0006 12.8701 0.0000 4.5864
#
#
#
# Elastic Compliance Matrix: (Units=1/GPa)
#
#
# Indices 1 2 3 4 5 6 
#
# 1 0.077852 -0.007773 0.003689 0.000013 0.055304 -0.000035
# 2 -0.007773 0.018321 0.000094 -0.000001 -0.004015 0.000003
# 3 0.003689 0.000094 0.007910 0.000002 0.004600 -0.000007
# 4 0.000013 -0.000001 0.000002 -0.053394 0.000013 0.149834
# 5 0.055304 -0.004015 0.004600 0.000013 0.078049 -0.000036
# 6 -0.000035 0.000003 -0.000007 0.149834 -0.000036 -0.202424
#
#
# Mechanical properties :
#
#
# Convention : Reuss Voigt Hill
#
# Bulk Modulus (GPa) = 10.40564 24.49387 17.44976
# Shear Modulus (GPa) = -148.48827 23.81055 -62.33886
#
# Velocity S-wave (km/s) = -8.46007 3.38776 -5.48160
# Velocity P-wave (km/s) = 9.50867 5.20662 5.62610
#
# Compressibility (1/GPa) = 0.09610172
#
# Stress axis : x y z
#
# Youngs Moduli (GPa) = 12.84494 54.58223 126.42470
#
# Poissons Ratio (x) = 0.42425 -0.46633
# Poissons Ratio (y) = 0.09984 -0.01184
# Poissons Ratio (z) = -0.04738 -0.00511
#
# Static dielectric constant tensor:
#      x y z
#    x 1.736960 0.000000 -0.001770 
#    y 0.000000 1.759660 0.000000 
#    z -0.001770 0.000000 1.846570 
# 
# From -- ./inp_files/157752.got.cif
#   From: 2010.05.17/outbox.ucp.g08.bks.cvg/sg15_79_cif.got.tgz:157752.got - 2010.06.11 12:40:34.
