data_PCOD9309047
_publ_section_title
;
Structure prediction by ZEFSAII (Michael W. Deem and Ramdas Pophale) SiO2 
 PCOD9309047
Probable space group: C 2/C
;
_chemical_formula_sum "Si O2"
_cell_formula_units_Z 30
_cell_length_a 12.000000
_cell_length_b 21.000000
_cell_length_c 24.000000
_cell_angle_alpha 90.000000
_cell_angle_beta 150.000000
_cell_angle_gamma 90.000000
_cell_volume 3024.000000
_symmetry_space_group_name_H-M "C 2/C"
_symmetry_group_IT_number 15
_symmetry_cell_setting 'monoclinic'
loop_
_space_group_symop_operation_xyz
x,y,z
-x,y,1/2-z
-x,-y,-z
x,-y,1/2+z
1/2+x,1/2+y,z
1/2-x,1/2+y,1/2-z
1/2-x,1/2-y,-z
1/2+x,1/2-y,1/2+z
loop_
_atom_site_type_symbol
_atom_site_label
_atom_site_fract_x
_atom_site_fract_y
_atom_site_fract_z
Si Si1 0.451288 0.605328 0.016801
Si Si2 0.000000 0.203921 0.750000
Si Si3 0.079193 0.383737 0.064636
Si Si4 0.096904 0.304441 0.409015
Si Si5 0.749476 0.204243 0.274638
Si Si6 0.354908 0.516920 0.743429
Si Si7 0.436329 0.903887 0.878244
Si Si8 0.596230 0.458074 0.461675
O O1 0.618055 0.653042 0.125870
O O2 0.421146 0.533967 0.030387
O O3 0.222570 0.647229 0.921744
O O4 0.521332 0.585422 0.983110
O O5 0.198848 0.156796 0.853982
O O6 0.092901 0.251127 0.743881
O O7 0.142899 0.445949 0.127362
O O8 0.955539 0.343273 0.057570
O O9 0.961150 0.398372 0.955630
O O10 0.250000 0.250000 0.500000
O O11 0.892280 0.258594 0.303216
O O12 0.609795 0.162742 0.171074
O O13 0.500000 0.514131 0.750000
O O14 0.277662 0.447200 0.726695
O O15 0.458496 0.549413 0.843555
O O16 0.653718 0.937067 0.945916
#
# Coordination Sequence:
#
# PCOD9309047 Si02
#       8
#     8   4   8   8   8   8   8   8
#     4  10  21  43  62  95 134 172 223 260 329 393
#     4  10  20  40  62  88 130 172 216 270 322 394
#     4  11  22  40  63  92 127 167 217 272 325 384
#     4   9  21  41  65  86 126 174 214 266 318 383
#     4  10  21  39  64  95 132 174 217 270 324 394
#     4  12  24  41  64  97 132 167 221 273 332 389
#     4  12  24  39  66  98 129 170 221 275 334 383
#     4  11  23  40  66  96 133 175 214 276 328 392
#
# _framework density 9.9206350000000008
#
# number of rings (size 3 to 8) (size 9 to 14) (size 15 to 20)
#    0.000    1.333    3.333    2.000    1.867    0.533 
#    0.000   11.333    0.000    0.000    0.000    0.000 
#    0.000    0.000    0.000    0.000    0.000    0.000 
#
# Total GULP energy -167055.785049 kJ/mol
# GULP energy per Si atom -5568.526168 kJ/mol
# Density = 0.989806 g / cm^3
# Si number density = 9.920635 Si / 1000 Ang^3
#
#
#
# Elastic Constant Matrix: (Units=GPa)
#
#
# Indices 1 2 3 4 5 6 
#
# 1 48.7194 36.8370 45.4802 -0.0006 -8.5979 -0.0041
# 2 36.8370 94.4248 2.9075 0.0000 0.4234 0.0003
# 3 45.4802 2.9075 37.5385 0.0058 -18.7468 0.0058
# 4 -0.0006 0.0000 0.0058 35.8269 -0.0019 42.9991
# 5 -8.5979 0.4234 -18.7468 -0.0019 28.5778 -0.0065
# 6 -0.0041 0.0003 0.0058 42.9991 -0.0065 224.0881
#
#
#
# Elastic Compliance Matrix: (Units=1/GPa)
#
#
# Indices 1 2 3 4 5 6 
#
# 1 -0.036232 0.012308 0.055636 -0.000009 0.025414 0.000000
# 2 0.012308 0.006456 -0.020241 0.000003 -0.009671 0.000000
# 3 0.055636 -0.020241 -0.045643 0.000007 -0.012903 0.000001
# 4 -0.000009 0.000003 0.000007 0.036263 0.000003 -0.006958
# 5 0.025414 -0.009671 -0.012903 0.000003 0.034317 0.000001
# 6 0.000000 0.000000 0.000001 -0.006958 0.000001 0.005798
#
#
# Mechanical properties :
#
#
# Convention : Reuss Voigt Hill
#
# Bulk Modulus (GPa) = 50.03762 39.01467 44.52614
# Shear Modulus (GPa) = -56.95794 64.06243 3.55225
#
# Velocity S-wave (km/s) = -5.36369 5.68837 1.33948
# Velocity P-wave (km/s) = 3.61734 7.92777 4.98820
#
# Compressibility (1/GPa) = 0.01998496
#
# Stress axis : x y z
#
# Youngs Moduli (GPa) = -27.59981 154.90579 -21.90922
#
# Poissons Ratio (x) = -1.90655 1.21894
# Poissons Ratio (y) = 0.33969 -0.44347
# Poissons Ratio (z) = 1.53554 3.13551
#
# Static dielectric constant tensor:
#      x y z
#    x 1.759690 0.000000 0.123530 
#    y 0.000000 1.631120 0.000000 
#    z 0.123530 0.000000 1.832190 
# 
# From -- ./inp_files/271028.got.cif
#   From: 2010.05.17/outbox.ucp.g08.bks.cvg/sg15_136_cif.got.tgz:271028.got - 2010.06.11 12:40:34.
