data_PCOD9309671
_publ_section_title
;
Structure prediction by ZEFSAII (Michael W. Deem and Ramdas Pophale) SiO2 
 PCOD9309671
Probable space group: C 2/C
;
_chemical_formula_sum "Si O2"
_cell_formula_units_Z 24
_cell_length_a 21.000000
_cell_length_b 18.000000
_cell_length_c 18.000000
_cell_angle_alpha 90.000000
_cell_angle_beta 20.000000
_cell_angle_gamma 90.000000
_cell_volume 2327.105055
_symmetry_space_group_name_H-M "C 2/C"
_symmetry_group_IT_number 15
_symmetry_cell_setting 'monoclinic'
loop_
_space_group_symop_operation_xyz
x,y,z
-x,y,1/2-z
-x,-y,-z
x,-y,1/2+z
1/2+x,1/2+y,z
1/2-x,1/2+y,1/2-z
1/2-x,1/2-y,-z
1/2+x,1/2-y,1/2+z
loop_
_atom_site_type_symbol
_atom_site_label
_atom_site_fract_x
_atom_site_fract_y
_atom_site_fract_z
Si Si1 0.083163 0.667682 0.350104
Si Si2 0.911667 0.989897 0.175728
Si Si3 0.715475 0.612169 0.515857
Si Si4 0.543409 0.059177 0.520231
Si Si5 0.716945 0.668568 0.667472
Si Si6 0.330099 0.551498 0.480096
O O1 0.114054 0.631530 0.396697
O O2 0.123747 0.754257 0.290753
O O3 0.869926 0.654682 0.562207
O O4 0.194694 0.628399 0.161644
O O5 0.913245 0.902492 0.189264
O O6 0.704529 0.023816 0.395208
O O7 0.000000 0.000000 0.000000
O O8 0.052215 0.026260 0.078229
O O9 0.500000 0.635315 0.750000
O O10 0.797575 0.659066 0.495133
O O11 0.720006 0.521864 0.515403
O O12 0.365077 0.077235 0.768654
O O13 0.500000 0.000000 0.500000
O O14 0.500000 0.594311 0.250000
#
# Coordination Sequence:
#
# PCOD9309671 Si02
#       6
#     8   8   8   8   8   8
#     4  12  25  39  57  88 133 173 218 254 315 391
#     4  12  22  39  66  91 128 171 213 270 328 381
#     4  11  20  37  57  87 130 170 209 247 310 399
#     4  12  23  40  62  90 127 171 224 273 311 381
#     4  12  24  37  58  88 129 175 206 259 323 384
#     4  11  22  40  66  93 130 166 220 275 319 386
#
# _framework density 10.313243
#
# number of rings (size 3 to 8) (size 9 to 14) (size 15 to 20)
#    0.000    0.333    8.333    2.000    2.333    0.667 
#    0.000    0.000    0.000    0.000    0.000    4.667 
#    0.000    0.000    0.000    0.000    0.000    0.000 
#
# Total GULP energy -133794.786763 kJ/mol
# GULP energy per Si atom -5574.782782 kJ/mol
# Density = 1.028977 g / cm^3
# Si number density = 10.313243 Si / 1000 Ang^3
#
#
#
# Elastic Constant Matrix: (Units=GPa)
#
#
# Indices 1 2 3 4 5 6 
#
# 1 60.2902 43.6276 -2.9033 0.0188 1.8509 0.0055
# 2 43.6276 48.3096 25.8001 -0.0340 9.3176 0.2363
# 3 -2.9033 25.8001 101.1864 -0.0362 24.9464 0.2192
# 4 0.0188 -0.0340 -0.0362 11.3129 0.0072 16.3787
# 5 1.8509 9.3176 24.9464 0.0072 41.5368 -0.0816
# 6 0.0055 0.2363 0.2192 16.3787 -0.0816 6.5071
#
#
#
# Elastic Compliance Matrix: (Units=1/GPa)
#
#
# Indices 1 2 3 4 5 6 
#
# 1 0.076747 -0.081679 0.022722 0.001292 0.001254 -0.001101
# 2 -0.081679 0.111032 -0.029833 -0.001785 -0.003347 0.001493
# 3 0.022722 -0.029833 0.019651 0.000201 -0.006123 -0.000181
# 4 0.001292 -0.001785 0.000201 -0.033393 0.000393 0.084115
# 5 0.001254 -0.003347 -0.006123 0.000393 0.028447 -0.000306
# 6 -0.001101 0.001493 -0.000181 0.084115 -0.000306 -0.058095
#
#
# Mechanical properties :
#
#
# Convention : Reuss Voigt Hill
#
# Bulk Modulus (GPa) = 33.50011 38.09277 35.79644
# Shear Modulus (GPa) = 15.06390 21.42215 18.24302
#
# Velocity S-wave (km/s) = 2.70537 3.22619 2.97719
# Velocity P-wave (km/s) = 5.10248 5.69084 5.40467
#
# Compressibility (1/GPa) = 0.02985064
#
# Stress axis : x y z
#
# Youngs Moduli (GPa) = 13.02982 9.00640 50.88697
#
# Poissons Ratio (x) = 0.73564 -1.15626
# Poissons Ratio (y) = 1.06427 1.51810
# Poissons Ratio (z) = -0.29606 0.26869
#
# Static dielectric constant tensor:
#      x y z
#    x 1.843070 0.000030 0.034540 
#    y 0.000030 1.790950 0.000040 
#    z 0.034540 0.000040 1.827150 
# 
# From -- ./inp_files/216239.got.cif
#   From: 2010.05.17/outbox.ucp.g08.bks.cvg/sg15_109_cif.got.tgz:216239.got - 2010.06.11 12:40:34.
