data_PCOD9309509
_publ_section_title
;
Structure prediction by ZEFSAII (Michael W. Deem and Ramdas Pophale) SiO2 
 PCOD9309509
Probable space group: C 2/C
;
_chemical_formula_sum "Si O2"
_cell_formula_units_Z 28
_cell_length_a 24.000000
_cell_length_b 12.000000
_cell_length_c 30.000000
_cell_angle_alpha 90.000000
_cell_angle_beta 20.000000
_cell_angle_gamma 90.000000
_cell_volume 2955.054038
_symmetry_space_group_name_H-M "C 2/C"
_symmetry_group_IT_number 15
_symmetry_cell_setting 'monoclinic'
loop_
_space_group_symop_operation_xyz
x,y,z
-x,y,1/2-z
-x,-y,-z
x,-y,1/2+z
1/2+x,1/2+y,z
1/2-x,1/2+y,1/2-z
1/2-x,1/2-y,-z
1/2+x,1/2-y,1/2+z
loop_
_atom_site_type_symbol
_atom_site_label
_atom_site_fract_x
_atom_site_fract_y
_atom_site_fract_z
Si Si1 0.981710 0.603010 0.404673
Si Si2 0.079953 0.297574 0.739174
Si Si3 0.779094 0.538072 0.724155
Si Si4 0.502423 0.748169 0.044637
Si Si5 0.448748 0.672989 0.986655
Si Si6 0.119166 0.035236 0.702374
Si Si7 0.325230 0.641137 0.264818
O O1 0.998459 0.709761 0.425323
O O2 0.810730 0.541662 0.544406
O O3 0.982169 0.647118 0.353576
O O4 0.134040 0.521365 0.299172
O O5 0.266295 0.343655 0.603862
O O6 0.085229 0.163227 0.743613
O O7 0.000000 0.314389 0.750000
O O8 0.594929 0.585375 0.867515
O O9 0.779041 0.446476 0.685578
O O10 0.897387 0.639094 0.622827
O O11 0.447317 0.694365 0.134575
O O12 0.442419 0.682762 0.045331
O O13 0.693879 0.776455 0.888592
O O14 0.000000 0.015710 0.750000
O O15 0.094594 0.938530 0.757671
#
# Coordination Sequence:
#
# PCOD9309509 Si02
#       7
#     8   8   8   8   8   8   8
#     4  11  21  39  64  90 133 169 209 262 318 383
#     4  10  23  40  62  95 133 167 207 262 316 380
#     4  12  21  38  65  92 130 165 210 251 327 380
#     4  12  23  41  61  95 128 166 205 271 324 372
#     4  11  22  38  62 100 128 166 210 259 319 380
#     4  10  23  42  66  90 119 172 219 255 316 384
#     4  12  24  41  65  90 127 166 212 266 320 381
#
# _framework density 9.4752919999999996
#
# number of rings (size 3 to 8) (size 9 to 14) (size 15 to 20)
#    0.000    0.857    4.286    4.714    0.000    8.571 
#    0.000    0.714    0.000    0.000    0.000    0.000 
#    0.000    0.000    0.000    0.000    0.000    0.000 
#
# Total GULP energy -156284.774507 kJ/mol
# GULP energy per Si atom -5581.599090 kJ/mol
# Density = 0.945373 g / cm^3
# Si number density = 9.475292 Si / 1000 Ang^3
#
#
#
# Elastic Constant Matrix: (Units=GPa)
#
#
# Indices 1 2 3 4 5 6 
#
# 1 133.1649 41.8287 54.2238 0.0031 3.4031 -0.0005
# 2 41.8287 58.4504 41.2070 0.0115 4.6085 -0.0014
# 3 54.2238 41.2070 110.5262 0.0130 12.3715 -0.0036
# 4 0.0031 0.0115 0.0130 38.7113 -0.0041 1.1374
# 5 3.4031 4.6085 12.3715 -0.0041 39.1213 0.0005
# 6 -0.0005 -0.0014 -0.0036 1.1374 0.0005 40.8343
#
#
#
# Elastic Compliance Matrix: (Units=1/GPa)
#
#
# Indices 1 2 3 4 5 6 
#
# 1 0.010468 -0.005250 -0.003261 0.000002 0.000739 0.000000
# 2 -0.005250 0.025842 -0.007018 -0.000005 -0.000368 0.000000
# 3 -0.003261 -0.007018 0.013621 -0.000003 -0.003197 0.000001
# 4 0.000002 -0.000005 -0.000003 0.025853 0.000004 -0.000720
# 5 0.000739 -0.000368 -0.003197 0.000004 0.026552 -0.000001
# 6 0.000000 0.000000 0.000001 -0.000720 -0.000001 0.024509
#
#
# Mechanical properties :
#
#
# Convention : Reuss Voigt Hill
#
# Bulk Modulus (GPa) = 52.98273 64.07340 58.52806
# Shear Modulus (GPa) = 30.45175 34.72551 32.58863
#
# Velocity S-wave (km/s) = 4.01297 4.28533 4.15138
# Velocity P-wave (km/s) = 7.03498 7.64000 7.34372
#
# Compressibility (1/GPa) = 0.01887407
#
# Stress axis : x y z
#
# Youngs Moduli (GPa) = 95.53376 38.69628 73.41352
#
# Poissons Ratio (x) = 0.20317 0.23937
# Poissons Ratio (y) = 0.50159 0.51519
# Poissons Ratio (z) = 0.31149 0.27155
#
# Static dielectric constant tensor:
#      x y z
#    x 1.660930 0.000000 0.010950 
#    y 0.000000 1.692970 0.000000 
#    z 0.010950 0.000000 1.700390 
# 
# From -- ./inp_files/318782.got.cif
#   From: 2010.05.17/outbox.ucp.g08.bks.cvg/sg15_160_cif.got.tgz:318782.got - 2010.06.11 12:40:34.
