data_PCOD9309766
_publ_section_title
;
Structure prediction by ZEFSAII (Michael W. Deem and Ramdas Pophale) SiO2 
 PCOD9309766
Probable space group: C 2/C
;
_chemical_formula_sum "Si O2"
_cell_formula_units_Z 28
_cell_length_a 18.000000
_cell_length_b 9.000000
_cell_length_c 30.000000
_cell_angle_alpha 90.000000
_cell_angle_beta 140.000000
_cell_angle_gamma 90.000000
_cell_volume 3123.947783
_symmetry_space_group_name_H-M "C 2/C"
_symmetry_group_IT_number 15
_symmetry_cell_setting 'monoclinic'
loop_
_space_group_symop_operation_xyz
x,y,z
-x,y,1/2-z
-x,-y,-z
x,-y,1/2+z
1/2+x,1/2+y,z
1/2-x,1/2+y,1/2-z
1/2-x,1/2-y,-z
1/2+x,1/2-y,1/2+z
loop_
_atom_site_type_symbol
_atom_site_label
_atom_site_fract_x
_atom_site_fract_y
_atom_site_fract_z
Si Si1 0.209223 0.360426 0.044923
Si Si2 0.457893 0.667553 0.469743
Si Si3 0.287634 0.445352 0.820060
Si Si4 0.897679 0.637464 0.100715
Si Si5 0.129071 0.423446 0.325922
Si Si6 0.651110 0.216110 0.179361
Si Si7 0.688768 0.843408 0.593574
O O1 0.124672 0.238972 0.029992
O O2 0.330471 0.279081 0.090722
O O3 0.213220 0.501789 0.079722
O O4 0.162773 0.403918 0.974299
O O5 0.500000 0.500000 0.500000
O O6 0.386526 0.647181 0.391357
O O7 0.570523 0.771640 0.519916
O O8 0.193207 0.481024 0.816025
O O9 0.330708 0.607422 0.822184
O O10 0.239440 0.351790 0.756254
O O11 0.884775 0.512887 0.133627
O O12 0.026917 0.680120 0.144495
O O13 0.208994 0.276842 0.367157
O O14 0.000000 0.387202 0.250000
O O15 0.668172 0.143225 0.137818
#
# Coordination Sequence:
#
# PCOD9309766 Si02
#       7
#     8   8   8   8   8   8   8
#     4  11  24  40  66 100 129 167 217 274 321 383
#     4  12  20  42  69  92 127 172 214 261 327 384
#     4  11  24  40  66  97 128 172 214 269 325 386
#     4  11  22  41  68  92 129 170 219 263 323 387
#     4  11  22  44  66  89 132 175 208 263 329 383
#     4  11  24  42  65  97 128 170 222 264 320 392
#     4  11  25  44  66  97 131 170 217 269 321 388
#
# _framework density 8.9630179999999999
#
# number of rings (size 3 to 8) (size 9 to 14) (size 15 to 20)
#    0.000    0.857    7.143    0.429    2.000    1.714 
#    5.143    0.000    0.000    0.000    0.000    0.000 
#    0.000    0.000    0.000    0.000    0.000    0.000 
#
# Total GULP energy -156340.142099 kJ/mol
# GULP energy per Si atom -5583.576504 kJ/mol
# Density = 0.894262 g / cm^3
# Si number density = 8.963018 Si / 1000 Ang^3
#
#
#
# Elastic Constant Matrix: (Units=GPa)
#
#
# Indices 1 2 3 4 5 6 
#
# 1 156.9093 75.9039 75.3396 0.0000 -9.9983 0.0000
# 2 75.9039 97.3468 59.4608 0.0000 -17.0131 0.0000
# 3 75.3396 59.4608 142.6253 0.0000 -9.4508 0.0000
# 4 0.0000 0.0000 0.0000 32.6136 0.0000 -8.7694
# 5 -9.9983 -17.0131 -9.4508 0.0000 37.8467 0.0000
# 6 0.0000 0.0000 0.0000 -8.7694 0.0000 42.8700
#
#
#
# Elastic Compliance Matrix: (Units=1/GPa)
#
#
# Indices 1 2 3 4 5 6 
#
# 1 0.011165 -0.007020 -0.003035 0.000000 -0.000964 0.000000
# 2 -0.007020 0.019128 -0.003883 0.000000 0.005774 0.000000
# 3 -0.003035 -0.003883 0.010234 0.000000 0.000008 0.000000
# 4 0.000000 0.000000 0.000000 0.032447 0.000000 0.006637
# 5 -0.000964 0.005774 0.000008 0.000000 0.028765 0.000000
# 6 0.000000 0.000000 0.000000 0.006637 0.000000 0.024684
#
#
# Mechanical properties :
#
#
# Convention : Reuss Voigt Hill
#
# Bulk Modulus (GPa) = 79.05432 90.92112 84.98772
# Shear Modulus (GPa) = 31.54255 35.07786 33.31021
#
# Velocity S-wave (km/s) = 4.19930 4.42838 4.31536
# Velocity P-wave (km/s) = 8.22850 8.77369 8.50547
#
# Compressibility (1/GPa) = 0.01264953
#
# Stress axis : x y z
#
# Youngs Moduli (GPa) = 89.56671 52.28028 97.71401
#
# Poissons Ratio (x) = 0.36703 0.29654
# Poissons Ratio (y) = 0.62879 0.37946
# Poissons Ratio (z) = 0.27181 0.20302
#
# Static dielectric constant tensor:
#      x y z
#    x 1.593660 0.000000 0.017760 
#    y 0.000000 1.599150 0.000000 
#    z 0.017760 0.000000 1.644990 
# 
# From -- ./inp_files/242790.got.cif
#   From: 2010.05.17/outbox.ucp.g08.bks.cvg/sg15_122_cif.got.tgz:242790.got - 2010.06.11 12:40:34.
