data_PCOD9309479
_publ_section_title
;
Structure prediction by ZEFSAII (Michael W. Deem and Ramdas Pophale) SiO2 
 PCOD9309479
Probable space group: C 2/C
;
_chemical_formula_sum "Si O2"
_cell_formula_units_Z 32
_cell_length_a 12.000000
_cell_length_b 27.000000
_cell_length_c 21.000000
_cell_angle_alpha 90.000000
_cell_angle_beta 150.000000
_cell_angle_gamma 90.000000
_cell_volume 3402.000000
_symmetry_space_group_name_H-M "C 2/C"
_symmetry_group_IT_number 15
_symmetry_cell_setting 'monoclinic'
loop_
_space_group_symop_operation_xyz
x,y,z
-x,y,1/2-z
-x,-y,-z
x,-y,1/2+z
1/2+x,1/2+y,z
1/2-x,1/2+y,1/2-z
1/2-x,1/2-y,-z
1/2+x,1/2-y,1/2+z
loop_
_atom_site_type_symbol
_atom_site_label
_atom_site_fract_x
_atom_site_fract_y
_atom_site_fract_z
Si Si1 0.170915 0.299461 0.741525
Si Si2 0.631723 0.878151 0.984414
Si Si3 0.045249 0.861403 0.517337
Si Si4 0.178671 0.544832 0.397086
Si Si5 0.894379 0.780921 0.627075
Si Si6 0.929201 0.815864 0.324491
Si Si7 0.167578 0.425782 0.394678
Si Si8 0.024407 0.634076 0.949076
O O1 0.272062 0.327059 0.854961
O O2 0.384016 0.293916 0.801602
O O3 0.064076 0.243280 0.690792
O O4 0.005406 0.337817 0.625225
O O5 0.617492 0.929212 0.935245
O O6 0.537541 0.884447 0.009784
O O7 0.875831 0.851173 0.108520
O O8 0.143640 0.913289 0.537979
O O9 0.953104 0.828083 0.412602
O O10 0.856672 0.884447 0.470780
O O11 0.234382 0.485306 0.432063
O O12 0.000000 0.546058 0.250000
O O13 0.750000 0.750000 0.500000
O O14 0.733366 0.828046 0.560079
O O15 0.000000 0.762710 0.750000
O O16 0.689802 0.835175 0.182116
O O17 0.000000 0.423358 0.250000
O O18 0.072513 0.406609 0.416464
#
# Coordination Sequence:
#
# PCOD9309479 Si02
#       8
#     8   8   8   8   8   8   8   8
#     4  12  24  40  67  99 131 183 229 277 339 412
#     4  11  25  46  63  95 143 175 232 274 344 411
#     4  11  23  42  69 101 137 172 233 287 344 412
#     4  10  22  44  69  98 131 178 228 293 348 406
#     4  12  26  42  67  98 140 184 230 290 342 411
#     4  11  26  42  65  96 139 190 221 280 332 419
#     4  11  23  42  72  99 131 177 234 294 353 407
#     4  12  24  43  67  97 138 178 225 281 346 407
#
# _framework density 9.4062319999999993
#
# number of rings (size 3 to 8) (size 9 to 14) (size 15 to 20)
#    0.000    0.750    6.250    1.125    3.500    1.000 
#    4.500    0.000    0.000    1.500    0.000    0.000 
#    0.000    0.000    0.000    0.000    0.000    0.000 
#
# Total GULP energy -178286.376880 kJ/mol
# GULP energy per Si atom -5571.449277 kJ/mol
# Density = 0.938482 g / cm^3
# Si number density = 9.406232 Si / 1000 Ang^3
#
#
#
# Elastic Constant Matrix: (Units=GPa)
#
#
# Indices 1 2 3 4 5 6 
#
# 1 121.9453 31.2988 16.7521 0.0029 -24.6542 0.0007
# 2 31.2988 135.1525 27.9581 0.0030 -15.5692 0.0014
# 3 16.7521 27.9581 95.0294 0.0091 -18.8387 0.0090
# 4 0.0029 0.0030 0.0091 37.8625 0.0068 -4.0474
# 5 -24.6542 -15.5692 -18.8387 0.0068 43.9358 0.0009
# 6 0.0007 0.0014 0.0090 -4.0474 0.0009 33.7635
#
#
#
# Elastic Compliance Matrix: (Units=1/GPa)
#
#
# Indices 1 2 3 4 5 6 
#
# 1 0.009605 -0.001625 -0.000285 -0.000001 0.004692 0.000000
# 2 -0.001625 0.008312 -0.001919 0.000000 0.001211 0.000000
# 3 -0.000285 -0.001919 0.011991 -0.000004 0.004301 -0.000004
# 4 -0.000001 0.000000 -0.000004 0.026754 -0.000007 0.003207
# 5 0.004692 0.001211 0.004301 -0.000007 0.027667 -0.000003
# 6 0.000000 0.000000 -0.000004 0.003207 -0.000003 0.030002
#
#
# Mechanical properties :
#
#
# Convention : Reuss Voigt Hill
#
# Bulk Modulus (GPa) = 44.94431 56.01615 50.48023
# Shear Modulus (GPa) = 38.63840 41.52024 40.07932
#
# Velocity S-wave (km/s) = 4.53688 4.70303 4.62071
# Velocity P-wave (km/s) = 7.16847 7.70273 7.44040
#
# Compressibility (1/GPa) = 0.02224976
#
# Stress axis : x y z
#
# Youngs Moduli (GPa) = 104.11049 120.31117 83.39894
#
# Poissons Ratio (x) = 0.19550 0.02377
# Poissons Ratio (y) = 0.16917 0.16003
# Poissons Ratio (z) = 0.02968 0.23086
#
# Static dielectric constant tensor:
#      x y z
#    x 1.720560 0.000000 0.011690 
#    y 0.000000 1.652050 -0.000010 
#    z 0.011690 -0.000010 1.689390 
# 
# From -- ./inp_files/241028.got.cif
#   From: 2010.05.17/outbox.ucp.g08.bks.cvg/sg15_121_cif.got.tgz:241028.got - 2010.06.11 12:40:34.
