data_PCOD9309689
_publ_section_title
;
Structure prediction by ZEFSAII (Michael W. Deem and Ramdas Pophale) SiO2 
 PCOD9309689
Probable space group: C 2/C
;
_chemical_formula_sum "Si O2"
_cell_formula_units_Z 24
_cell_length_a 12.000000
_cell_length_b 15.000000
_cell_length_c 27.000000
_cell_angle_alpha 90.000000
_cell_angle_beta 30.000000
_cell_angle_gamma 90.000000
_cell_volume 2430.000000
_symmetry_space_group_name_H-M "C 2/C"
_symmetry_group_IT_number 15
_symmetry_cell_setting 'monoclinic'
loop_
_space_group_symop_operation_xyz
x,y,z
-x,y,1/2-z
-x,-y,-z
x,-y,1/2+z
1/2+x,1/2+y,z
1/2-x,1/2+y,1/2-z
1/2-x,1/2-y,-z
1/2+x,1/2-y,1/2+z
loop_
_atom_site_type_symbol
_atom_site_label
_atom_site_fract_x
_atom_site_fract_y
_atom_site_fract_z
Si Si1 0.239605 0.766809 0.351663
Si Si2 0.062818 0.756389 0.528258
Si Si3 0.163173 0.168689 0.639994
Si Si4 0.989840 0.079606 0.896620
Si Si5 0.948390 0.661845 0.388894
Si Si6 0.725739 0.907498 0.695453
O O1 0.500000 0.742368 0.250000
O O2 0.177183 0.786449 0.432725
O O3 0.072159 0.695218 0.390975
O O4 0.183878 0.850851 0.337846
O O5 0.250000 0.750000 0.500000
O O6 0.912508 0.671505 0.567566
O O7 0.868340 0.823752 0.620836
O O8 0.087323 0.091292 0.630876
O O9 0.000000 0.172215 0.750000
O O10 0.127296 0.255408 0.617514
O O11 0.771671 0.107078 0.012300
O O12 0.095866 0.986269 0.870358
O O13 0.128400 0.609839 0.287360
O O14 0.500000 0.922756 0.750000
#
# Coordination Sequence:
#
# PCOD9309689 Si02
#       6
#     8   8   8   8   8   8
#     4  11  22  38  66  97 127 169 224 270 320 401
#     4  12  23  41  67  96 125 175 223 262 324 397
#     4  11  20  44  68  92 127 178 223 264 323 406
#     4  11  24  40  67  97 132 170 216 279 341 384
#     4  11  20  43  67  88 132 177 214 273 339 382
#     4  12  24  43  67 101 135 169 217 287 338 382
#
# _framework density 9.8765429999999999
#
# number of rings (size 3 to 8) (size 9 to 14) (size 15 to 20)
#    0.000    0.667    6.667    2.500    2.333    4.000 
#    0.000    3.333    0.000    0.000    0.000    0.000 
#    0.000    0.000    0.000    0.000    0.000    0.000 
#
# Total GULP energy -133921.320132 kJ/mol
# GULP energy per Si atom -5580.055005 kJ/mol
# Density = 0.985406 g / cm^3
# Si number density = 9.876543 Si / 1000 Ang^3
#
#
#
# Elastic Constant Matrix: (Units=GPa)
#
#
# Indices 1 2 3 4 5 6 
#
# 1 174.1689 21.5954 42.7396 0.0002 -6.0859 0.0007
# 2 21.5954 44.8075 17.0187 0.0019 -3.5577 0.0002
# 3 42.7396 17.0187 125.5786 0.0029 3.2471 0.0037
# 4 0.0002 0.0019 0.0029 26.5223 0.0010 -9.4271
# 5 -6.0859 -3.5577 3.2471 0.0010 45.8560 -0.0019
# 6 0.0007 0.0002 0.0037 -9.4271 -0.0019 23.9542
#
#
#
# Elastic Compliance Matrix: (Units=1/GPa)
#
#
# Indices 1 2 3 4 5 6 
#
# 1 0.006535 -0.002353 -0.001926 0.000000 0.000821 0.000000
# 2 -0.002353 0.024571 -0.002575 -0.000002 0.001776 0.000000
# 3 -0.001926 -0.002575 0.008996 -0.000001 -0.001092 -0.000002
# 4 0.000000 -0.000002 -0.000001 0.043836 0.000000 0.017252
# 5 0.000821 0.001776 -0.001092 0.000000 0.022132 0.000002
# 6 0.000000 0.000000 -0.000002 0.017252 0.000002 0.048536
#
#
# Mechanical properties :
#
#
# Convention : Reuss Voigt Hill
#
# Bulk Modulus (GPa) = 37.88870 56.36250 47.12560
# Shear Modulus (GPa) = 28.23096 36.81326 32.52211
#
# Velocity S-wave (km/s) = 3.78457 4.32171 4.06203
# Velocity P-wave (km/s) = 6.19032 7.31426 6.77563
#
# Compressibility (1/GPa) = 0.02639310
#
# Stress axis : x y z
#
# Youngs Moduli (GPa) = 153.02986 40.69900 111.16030
#
# Poissons Ratio (x) = 0.09575 0.21414
# Poissons Ratio (y) = 0.36001 0.28625
# Poissons Ratio (z) = 0.29480 0.10481
#
# Static dielectric constant tensor:
#      x y z
#    x 1.695600 0.000000 0.016740 
#    y 0.000000 1.776280 0.000000 
#    z 0.016740 0.000000 1.701670 
# 
# From -- ./inp_files/292975.got.cif
#   From: 2010.05.17/outbox.ucp.g08.bks.cvg/sg15_147_cif.got.tgz:292975.got - 2010.06.11 12:40:34.
