data_PCOD9309559
_publ_section_title
;
Structure prediction by ZEFSAII (Michael W. Deem and Ramdas Pophale) SiO2 
 PCOD9309559
Probable space group: C 2/C
;
_chemical_formula_sum "Si O2"
_cell_formula_units_Z 22
_cell_length_a 18.000000
_cell_length_b 12.000000
_cell_length_c 30.000000
_cell_angle_alpha 90.000000
_cell_angle_beta 160.000000
_cell_angle_gamma 90.000000
_cell_volume 2216.290529
_symmetry_space_group_name_H-M "C 2/C"
_symmetry_group_IT_number 15
_symmetry_cell_setting 'monoclinic'
loop_
_space_group_symop_operation_xyz
x,y,z
-x,y,1/2-z
-x,-y,-z
x,-y,1/2+z
1/2+x,1/2+y,z
1/2-x,1/2+y,1/2-z
1/2-x,1/2-y,-z
1/2+x,1/2-y,1/2+z
loop_
_atom_site_type_symbol
_atom_site_label
_atom_site_fract_x
_atom_site_fract_y
_atom_site_fract_z
Si Si1 0.257793 0.626222 0.985589
Si Si2 0.000000 0.127248 0.750000
Si Si3 0.271735 0.074840 0.736482
Si Si4 0.483944 0.399584 0.955175
Si Si5 0.971361 0.271663 0.523834
Si Si6 0.181141 0.023804 0.273447
O O1 0.012042 0.587852 0.853454
O O2 0.250000 0.750000 0.000000
O O3 0.318315 0.615669 0.967571
O O4 0.452677 0.567410 0.123145
O O5 0.783837 0.195618 0.609210
O O6 0.113080 0.045105 0.778281
O O7 0.100895 0.173042 0.625219
O O8 0.201577 0.950890 0.680680
O O9 0.276760 0.065005 0.792292
O O10 0.500000 0.500000 0.000000
O O11 0.451638 0.287071 0.964271
O O12 0.138996 0.377287 0.618706
#
# Coordination Sequence:
#
# PCOD9309559 Si02
#       6
#     8   4   8   8   8   8
#     4  11  22  40  70  95 124 179 212 268 334 382
#     4  12  28  40  64  94 132 178 206 272 338 388
#     4  10  23  44  67  97 129 168 225 269 321 400
#     4   9  23  41  65  98 129 167 221 272 320 399
#     4  11  24  43  65  94 131 171 214 274 326 387
#     4  11  25  42  64  97 131 167 222 268 325 400
#
# _framework density 9.9264960000000002
#
# number of rings (size 3 to 8) (size 9 to 14) (size 15 to 20)
#    0.000    1.455    1.818    1.636    5.091    8.000 
#    0.000    0.000    0.000    0.000    0.000    0.000 
#    0.000    0.000    0.000    0.000    0.000    0.000 
#
# Total GULP energy -122493.642898 kJ/mol
# GULP energy per Si atom -5567.892859 kJ/mol
# Density = 0.990390 g / cm^3
# Si number density = 9.926496 Si / 1000 Ang^3
#
#
#
# Elastic Constant Matrix: (Units=GPa)
#
#
# Indices 1 2 3 4 5 6 
#
# 1 137.0309 52.9834 28.1765 -0.0028 18.5830 0.0004
# 2 52.9834 95.0559 46.2940 0.0038 10.2823 -0.0008
# 3 28.1765 46.2940 117.7286 0.0190 29.3401 -0.0065
# 4 -0.0028 0.0038 0.0190 44.7147 -0.0036 -4.9571
# 5 18.5830 10.2823 29.3401 -0.0036 35.1169 0.0000
# 6 0.0004 -0.0008 -0.0065 -4.9571 0.0000 32.6203
#
#
#
# Elastic Compliance Matrix: (Units=1/GPa)
#
#
# Indices 1 2 3 4 5 6 
#
# 1 0.009800 -0.005414 0.000860 0.000000 -0.004319 0.000000
# 2 -0.005414 0.016013 -0.005742 0.000001 0.002974 -0.000001
# 3 0.000860 -0.005742 0.012934 -0.000006 -0.009580 0.000002
# 4 0.000000 0.000001 -0.000006 0.022747 0.000007 0.003457
# 5 -0.004319 0.002974 -0.009580 0.000007 0.037895 -0.000001
# 6 0.000000 -0.000001 0.000002 0.003457 -0.000001 0.031181
#
#
# Mechanical properties :
#
#
# Convention : Reuss Voigt Hill
#
# Bulk Modulus (GPa) = 55.08422 67.19146 61.13784
# Shear Modulus (GPa) = 31.80403 37.31448 34.55926
#
# Velocity S-wave (km/s) = 4.00681 4.34007 4.17677
# Velocity P-wave (km/s) = 7.01515 7.68329 7.35681
#
# Compressibility (1/GPa) = 0.01815402
#
# Stress axis : x y z
#
# Youngs Moduli (GPa) = 102.04251 62.45101 77.31761
#
# Poissons Ratio (x) = 0.33810 -0.06648
# Poissons Ratio (y) = 0.55245 0.44395
# Poissons Ratio (z) = -0.08774 0.35859
#
# Static dielectric constant tensor:
#      x y z
#    x 1.785480 0.000010 -0.034080 
#    y 0.000010 1.739000 -0.000020 
#    z -0.034080 -0.000020 1.800170 
# 
# From -- ./inp_files/104365.got.cif
#   From: 2010.05.17/outbox.ucp.g08.bks.cvg/sg15_53_cif.got.tgz:104365.got - 2010.06.11 12:40:34.
