data_PCOD9309208
_publ_section_title
;
Structure prediction by ZEFSAII (Michael W. Deem and Ramdas Pophale) SiO2 
 PCOD9309208
Probable space group: C 2/C
;
_chemical_formula_sum "Si O2"
_cell_formula_units_Z 32
_cell_length_a 24.000000
_cell_length_b 15.000000
_cell_length_c 9.000000
_cell_angle_alpha 90.000000
_cell_angle_beta 90.000000
_cell_angle_gamma 90.000000
_cell_volume 3240.000000
_symmetry_space_group_name_H-M "C 2/C"
_symmetry_group_IT_number 15
_symmetry_cell_setting 'monoclinic'
loop_
_space_group_symop_operation_xyz
x,y,z
-x,y,1/2-z
-x,-y,-z
x,-y,1/2+z
1/2+x,1/2+y,z
1/2-x,1/2+y,1/2-z
1/2-x,1/2-y,-z
1/2+x,1/2-y,1/2+z
loop_
_atom_site_type_symbol
_atom_site_label
_atom_site_fract_x
_atom_site_fract_y
_atom_site_fract_z
Si Si1 0.037756 0.737699 0.023575
Si Si2 0.234205 0.159517 0.086244
Si Si3 0.381576 0.577917 0.461519
Si Si4 0.422603 0.746415 0.640315
Si Si5 0.152966 0.412809 0.814879
Si Si6 0.802898 0.243127 0.105093
Si Si7 0.127958 0.592939 0.965785
Si Si8 0.901355 0.111114 0.110622
O O1 0.060644 0.764025 0.187531
O O2 0.974163 0.713552 0.049557
O O3 0.071997 0.651986 0.969943
O O4 0.046285 0.824512 0.921361
O O5 0.183994 0.101237 0.019985
O O6 0.285122 0.094034 0.121009
O O7 0.214720 0.200438 0.241599
O O8 0.250000 0.250000 0.000000
O O9 0.409737 0.653287 0.563070
O O10 0.395316 0.590878 0.286375
O O11 0.398656 0.480793 0.520346
O O12 0.373923 0.818663 0.638098
O O13 0.123556 0.498446 0.886294
O O14 0.148652 0.418016 0.636182
O O15 0.828863 0.341483 0.117520
O O16 0.851118 0.175332 0.051986
O O17 0.750000 0.250000 0.000000
#
# Coordination Sequence:
#
# PCOD9309208 Si02
#       8
#     8   8   8   8   8   8   8   8
#     4   9  21  43  64  85 115 158 196 253 299 349
#     4  11  23  37  59  88 123 157 195 241 290 346
#     4  11  23  38  60  91 121 157 195 245 292 362
#     4  10  21  41  65  85 117 155 202 246 302 347
#     4  11  23  38  59  91 120 159 197 241 292 354
#     4  10  21  40  57  82 119 165 196 236 290 349
#     4  10  23  39  60  87 122 154 201 243 292 351
#     4  10  23  38  59  90 120 152 202 238 300 353
#
# _framework density 9.8765429999999999
#
# number of rings (size 3 to 8) (size 9 to 14) (size 15 to 20)
#    0.000    1.750    2.500    0.750    3.500    3.500 
#    0.000    0.000    0.000    0.000    0.000    0.000 
#    0.000    0.000    0.000    0.000    0.000    0.000 
#
# Total GULP energy -178559.386796 kJ/mol
# GULP energy per Si atom -5579.980837 kJ/mol
# Density = 0.985406 g / cm^3
# Si number density = 9.876543 Si / 1000 Ang^3
#
#
#
# Elastic Constant Matrix: (Units=GPa)
#
#
# Indices 1 2 3 4 5 6 
#
# 1 26.6359 -21.6158 -1.9722 0.0000 -11.3008 0.0000
# 2 -21.6158 85.8873 19.3920 0.0000 -10.5654 0.0000
# 3 -1.9722 19.3920 26.4332 0.0000 -12.1722 0.0000
# 4 0.0000 0.0000 0.0000 29.6266 0.0000 -11.9923
# 5 -11.3008 -10.5654 -12.1722 0.0000 18.3337 0.0000
# 6 0.0000 0.0000 0.0000 -11.9923 0.0000 6.0546
#
#
#
# Elastic Compliance Matrix: (Units=1/GPa)
#
#
# Indices 1 2 3 4 5 6 
#
# 1 0.122479 0.037262 0.038105 0.000000 0.122268 0.000000
# 2 0.037262 0.025332 0.002153 0.000000 0.038997 0.000000
# 3 0.038105 0.002153 0.072712 0.000000 0.073003 0.000000
# 4 0.000000 0.000000 0.000000 0.170263 0.000000 0.337240
# 5 0.122268 0.038997 0.073003 0.000000 0.200851 0.000000
# 6 0.000000 0.000000 0.000000 0.337240 0.000000 0.833138
#
#
# Mechanical properties :
#
#
# Convention : Reuss Voigt Hill
#
# Bulk Modulus (GPa) = 2.66267 14.50714 8.58490
# Shear Modulus (GPa) = 3.58443 20.34646 11.96545
#
# Velocity S-wave (km/s) = 1.34854 3.21290 2.46387
# Velocity P-wave (km/s) = 1.94310 4.59607 3.52842
#
# Compressibility (1/GPa) = 0.37556308
#
# Stress axis : x y z
#
# Youngs Moduli (GPa) = 8.16469 39.47553 13.75295
#
# Poissons Ratio (x) = -1.47095 -0.52405
# Poissons Ratio (y) = -0.30423 -0.02962
# Poissons Ratio (z) = -0.31111 -0.08501
#
# Static dielectric constant tensor:
#      x y z
#    x 1.779680 0.000000 -0.031060 
#    y 0.000000 1.635080 0.000000 
#    z -0.031060 0.000000 1.679670 
# 
# From -- ./inp_files/61943.got.cif
#   From: 2010.05.17/outbox.ucp.g08.bks.cvg/sg15_31_cif.got.tgz:61943.got - 2010.06.11 12:40:34.
