data_PCOD9309622
_publ_section_title
;
Structure prediction by ZEFSAII (Michael W. Deem and Ramdas Pophale) SiO2 
 PCOD9309622
Probable space group: C 2/C
;
_chemical_formula_sum "Si O2"
_cell_formula_units_Z 28
_cell_length_a 18.000000
_cell_length_b 21.000000
_cell_length_c 21.000000
_cell_angle_alpha 90.000000
_cell_angle_beta 20.000000
_cell_angle_gamma 90.000000
_cell_volume 2714.955898
_symmetry_space_group_name_H-M "C 2/C"
_symmetry_group_IT_number 15
_symmetry_cell_setting 'monoclinic'
loop_
_space_group_symop_operation_xyz
x,y,z
-x,y,1/2-z
-x,-y,-z
x,-y,1/2+z
1/2+x,1/2+y,z
1/2-x,1/2+y,1/2-z
1/2-x,1/2-y,-z
1/2+x,1/2-y,1/2+z
loop_
_atom_site_type_symbol
_atom_site_label
_atom_site_fract_x
_atom_site_fract_y
_atom_site_fract_z
Si Si1 0.500000 0.500000 0.000000
Si Si2 0.125382 0.203976 0.546680
Si Si3 0.500000 0.985806 0.250000
Si Si4 0.159136 0.405337 0.710106
Si Si5 0.170692 0.332933 0.924465
Si Si6 0.924525 0.912998 0.938356
Si Si7 0.623075 0.177077 0.964571
Si Si8 0.384501 0.802016 0.274168
O O1 0.633608 0.435757 0.920955
O O2 0.481078 0.464996 0.945963
O O3 0.250000 0.250000 0.500000
O O4 0.268195 0.146135 0.402659
O O5 0.075070 0.251820 0.528798
O O6 0.887724 0.175275 0.756213
O O7 0.281401 0.943550 0.433947
O O8 0.462810 0.033767 0.221462
O O9 0.998106 0.369871 0.888724
O O10 0.352960 0.388352 0.773183
O O11 0.298918 0.265796 0.818378
O O12 0.990588 0.335069 0.012595
O O13 0.048006 0.331614 0.090824
O O14 0.815376 0.850234 0.056998
O O15 0.500000 0.793444 0.250000
#
# Coordination Sequence:
#
# PCOD9309622 Si02
#       8
#     4   8   4   8   8   8   8   8
#     4  10  24  46  72  96 148 206 236 300 360 436
#     4  12  26  42  71 112 153 189 239 308 379 447
#     4  10  24  48  74  96 144 206 238 296 354 444
#     4  11  24  47  73 103 151 191 250 303 369 444
#     4  12  26  42  74 109 146 185 242 307 380 438
#     4  11  24  48  71 104 144 189 247 298 365 441
#     4  12  25  42  72 114 142 190 240 305 382 439
#     4  12  26  44  71 107 148 184 237 310 379 438
#
# _framework density 10.313243
#
# number of rings (size 3 to 8) (size 9 to 14) (size 15 to 20)
#    0.000    0.571    5.000    2.571    4.000    0.000 
#    0.000    8.571    0.000    0.000    0.000    0.000 
#    0.000    0.000    0.000    0.000    0.000    0.000 
#
# Total GULP energy -155957.616663 kJ/mol
# GULP energy per Si atom -5569.914881 kJ/mol
# Density = 1.028977 g / cm^3
# Si number density = 10.313243 Si / 1000 Ang^3
#
#
#
# Elastic Constant Matrix: (Units=GPa)
#
#
# Indices 1 2 3 4 5 6 
#
# 1 121.5468 29.7546 62.6275 -0.0172 -8.5424 0.0148
# 2 29.7546 92.3260 43.6823 0.0737 -2.6993 -0.0134
# 3 62.6275 43.6823 147.6393 0.0707 1.9864 -0.0214
# 4 -0.0172 0.0737 0.0707 22.7034 -0.0123 -6.8735
# 5 -8.5424 -2.6993 1.9864 -0.0123 27.7372 0.0019
# 6 0.0148 -0.0134 -0.0214 -6.8735 0.0019 37.1785
#
#
#
# Elastic Compliance Matrix: (Units=1/GPa)
#
#
# Indices 1 2 3 4 5 6 
#
# 1 0.011049 -0.001414 -0.004317 0.000028 0.003574 -0.000002
# 2 -0.001414 0.012837 -0.003212 -0.000033 0.001044 -0.000003
# 3 -0.004317 -0.003212 0.009586 -0.000023 -0.002329 0.000002
# 4 0.000028 -0.000033 -0.000023 0.046658 0.000027 0.008626
# 5 0.003574 0.001044 -0.002329 0.000027 0.037422 0.000001
# 6 -0.000002 -0.000003 0.000002 0.008626 0.000001 0.028492
#
#
# Mechanical properties :
#
#
# Convention : Reuss Voigt Hill
#
# Bulk Modulus (GPa) = 64.15902 70.40453 67.28178
# Shear Modulus (GPa) = 29.56386 32.55367 31.05877
#
# Velocity S-wave (km/s) = 3.79000 3.97702 3.88464
# Velocity P-wave (km/s) = 7.09400 7.43614 7.26708
#
# Compressibility (1/GPa) = 0.01558627
#
# Stress axis : x y z
#
# Youngs Moduli (GPa) = 90.50789 77.89785 104.31753
#
# Poissons Ratio (x) = 0.11015 0.45029
# Poissons Ratio (y) = 0.12798 0.33511
# Poissons Ratio (z) = 0.39068 0.25024
#
# Static dielectric constant tensor:
#      x y z
#    x 1.762710 0.000000 -0.012340 
#    y 0.000000 1.730670 0.000010 
#    z -0.012340 0.000010 1.779960 
# 
# From -- ./inp_files/250031.got.cif
#   From: 2010.05.17/outbox.ucp.g08.bks.cvg/sg15_126_cif.got.tgz:250031.got - 2010.06.11 12:40:34.
