data_PCOD9309869
_publ_section_title
;
Structure prediction by ZEFSAII (Michael W. Deem and Ramdas Pophale) SiO2 
 PCOD9309869
Probable space group: C 2/C
;
_chemical_formula_sum "Si O2"
_cell_formula_units_Z 22
_cell_length_a 15.000000
_cell_length_b 9.000000
_cell_length_c 18.000000
_cell_angle_alpha 90.000000
_cell_angle_beta 120.000000
_cell_angle_gamma 90.000000
_cell_volume 2104.441731
_symmetry_space_group_name_H-M "C 2/C"
_symmetry_group_IT_number 15
_symmetry_cell_setting 'monoclinic'
loop_
_space_group_symop_operation_xyz
x,y,z
-x,y,1/2-z
-x,-y,-z
x,-y,1/2+z
1/2+x,1/2+y,z
1/2-x,1/2+y,1/2-z
1/2-x,1/2-y,-z
1/2+x,1/2-y,1/2+z
loop_
_atom_site_type_symbol
_atom_site_label
_atom_site_fract_x
_atom_site_fract_y
_atom_site_fract_z
Si Si1 0.248858 0.792127 0.832190
Si Si2 0.838153 0.909914 0.258305
Si Si3 0.899235 0.088085 0.429719
Si Si4 0.554919 0.858699 0.489090
Si Si5 0.000000 0.699958 0.250000
Si Si6 0.174583 0.483168 0.393353
O O1 0.260292 0.717789 0.755172
O O2 0.183816 0.668330 0.848996
O O3 0.207042 0.961822 0.814777
O O4 0.361664 0.794530 0.917530
O O5 0.935395 0.813974 0.273519
O O6 0.867097 0.010006 0.340446
O O7 0.957406 0.245842 0.437549
O O8 0.791301 0.062539 0.434832
O O9 0.000000 0.000000 0.500000
O O10 0.626853 0.918834 0.450770
O O11 0.500000 0.000000 0.500000
O O12 0.912746 0.596243 0.174694
#
# Coordination Sequence:
#
# PCOD9309869 Si02
#       6
#     8   8   8   8   4   8
#     4  11  25  47  71 106 141 196 233 307 358 445
#     4  11  25  44  72 102 148 185 247 292 373 433
#     4  11  25  48  74 106 144 194 243 312 360 448
#     4  12  27  45  75 108 147 192 244 303 377 435
#     4  12  28  46  68 114 140 202 238 306 366 446
#     4  11  27  48  74 105 154 189 257 299 374 449
#
# _framework density 10.454079
#
# number of rings (size 3 to 8) (size 9 to 14) (size 15 to 20)
#    0.000    0.727    3.636    3.818   10.182    0.727 
#    0.000    0.000    0.000    0.000    0.000    0.000 
#    0.000    0.000    0.000    0.000    0.000    0.000 
#
# Total GULP energy -122528.369805 kJ/mol
# GULP energy per Si atom -5569.471355 kJ/mol
# Density = 1.043028 g / cm^3
# Si number density = 10.454079 Si / 1000 Ang^3
#
#
#
# Elastic Constant Matrix: (Units=GPa)
#
#
# Indices 1 2 3 4 5 6 
#
# 1 186.2480 79.3618 37.2335 0.0000 -1.6128 0.0000
# 2 79.3618 166.6472 40.6441 0.0000 6.4734 0.0000
# 3 37.2335 40.6441 58.3892 0.0000 18.7684 0.0000
# 4 0.0000 0.0000 0.0000 34.1013 0.0000 24.0259
# 5 -1.6128 6.4734 18.7684 0.0000 43.4561 0.0000
# 6 0.0000 0.0000 0.0000 24.0259 0.0000 59.4628
#
#
#
# Elastic Compliance Matrix: (Units=1/GPa)
#
#
# Indices 1 2 3 4 5 6 
#
# 1 0.007216 -0.002685 -0.003422 0.000000 0.002146 0.000000
# 2 -0.002685 0.008288 -0.004213 0.000000 0.000485 0.000000
# 3 -0.003422 -0.004213 0.025640 0.000000 -0.010573 0.000000
# 4 0.000000 0.000000 0.000000 0.040994 0.000000 -0.016564
# 5 0.002146 0.000485 -0.010573 0.000000 0.027585 0.000000
# 6 0.000000 0.000000 0.000000 -0.016564 0.000000 0.023510
#
#
# Mechanical properties :
#
#
# Convention : Reuss Voigt Hill
#
# Bulk Modulus (GPa) = 48.77231 80.64036 64.70633
# Shear Modulus (GPa) = 31.11220 44.34036 37.72628
#
# Velocity S-wave (km/s) = 3.86170 4.61012 4.25241
# Velocity P-wave (km/s) = 6.57732 8.18476 7.42467
#
# Compressibility (1/GPa) = 0.02050344
#
# Stress axis : x y z
#
# Youngs Moduli (GPa) = 138.57924 120.65442 39.00185
#
# Poissons Ratio (x) = 0.32398 0.13347
# Poissons Ratio (y) = 0.37211 0.16431
# Poissons Ratio (z) = 0.47424 0.50831
#
# Static dielectric constant tensor:
#      x y z
#    x 1.805350 0.000000 -0.016740 
#    y 0.000000 1.842010 0.000000 
#    z -0.016740 0.000000 2.472640 
# 
# From -- ./inp_files/203072.got.cif
#   From: 2010.05.17/outbox.ucp.g08.bks.cvg/sg15_102_cif.got.tgz:203072.got - 2010.06.11 12:40:34.
