data_PCOD9309468
_publ_section_title
;
Structure prediction by ZEFSAII (Michael W. Deem and Ramdas Pophale) SiO2 
 PCOD9309468
Probable space group: C 2/C
;
_chemical_formula_sum "Si O2"
_cell_formula_units_Z 24
_cell_length_a 15.000000
_cell_length_b 15.000000
_cell_length_c 30.000000
_cell_angle_alpha 90.000000
_cell_angle_beta 20.000000
_cell_angle_gamma 90.000000
_cell_volume 2308.635967
_symmetry_space_group_name_H-M "C 2/C"
_symmetry_group_IT_number 15
_symmetry_cell_setting 'monoclinic'
loop_
_space_group_symop_operation_xyz
x,y,z
-x,y,1/2-z
-x,-y,-z
x,-y,1/2+z
1/2+x,1/2+y,z
1/2-x,1/2+y,1/2-z
1/2-x,1/2-y,-z
1/2+x,1/2-y,1/2+z
loop_
_atom_site_type_symbol
_atom_site_label
_atom_site_fract_x
_atom_site_fract_y
_atom_site_fract_z
Si Si1 0.499345 0.337331 0.164099
Si Si2 0.173301 0.168281 0.477939
Si Si3 0.394966 0.473658 0.904023
Si Si4 0.735826 0.851289 0.114220
Si Si5 0.892904 0.702196 0.973709
Si Si6 0.530205 0.991414 0.820968
O O1 0.704646 0.266263 0.087758
O O2 0.572302 0.438978 0.141811
O O3 0.194820 0.320591 0.319332
O O4 0.549315 0.330662 0.086475
O O5 0.422169 0.103801 0.356498
O O6 0.954481 0.126681 0.548316
O O7 0.300243 0.382017 0.925397
O O8 0.666162 0.477845 0.806457
O O9 0.146410 0.489126 0.052785
O O10 0.500000 0.802444 0.250000
O O11 0.881037 0.780129 0.015457
O O12 0.582094 0.931931 0.160437
O O13 0.750000 0.750000 0.000000
#
# Coordination Sequence:
#
# PCOD9309468 Si02
#       6
#     8   8   8   8   8   8
#     4  10  22  44  65  98 127 176 232 266 329 408
#     4  10  23  41  67  95 137 174 213 278 339 393
#     4  11  21  40  69  97 128 174 225 275 323 395
#     4  12  25  42  62  99 139 169 220 279 336 402
#     4  12  22  41  68  95 131 176 227 272 329 404
#     4  11  22  39  66  99 134 171 213 274 343 405
#
# _framework density 10.395749
#
# number of rings (size 3 to 8) (size 9 to 14) (size 15 to 20)
#    0.000    1.000    3.333    4.500    0.000    3.333 
#    0.000    0.833    0.000    0.000    0.000    0.000 
#    0.000    0.000    0.000    0.000    0.000    0.000 
#
# Total GULP energy -133725.187523 kJ/mol
# GULP energy per Si atom -5571.882813 kJ/mol
# Density = 1.037209 g / cm^3
# Si number density = 10.395749 Si / 1000 Ang^3
#
#
#
# Elastic Constant Matrix: (Units=GPa)
#
#
# Indices 1 2 3 4 5 6 
#
# 1 25.5465 2.9407 3.7817 -0.0003 -8.0111 -0.0223
# 2 2.9407 104.7585 19.6354 0.0058 -0.8947 -0.0183
# 3 3.7817 19.6354 124.9508 -0.0282 -13.8119 -0.0755
# 4 -0.0003 0.0058 -0.0282 45.5555 -0.0042 -5.5283
# 5 -8.0111 -0.8947 -13.8119 -0.0042 33.2981 0.0090
# 6 -0.0223 -0.0183 -0.0755 -5.5283 0.0090 18.0042
#
#
#
# Elastic Compliance Matrix: (Units=1/GPa)
#
#
# Indices 1 2 3 4 5 6 
#
# 1 0.042466 -0.001108 0.000016 0.000007 0.010193 0.000049
# 2 -0.001108 0.009869 -0.001590 -0.000002 -0.000661 0.000002
# 3 0.000016 -0.001590 0.008645 0.000010 0.003547 0.000036
# 4 0.000007 -0.000002 0.000010 0.022801 0.000007 0.007001
# 5 0.010193 -0.000661 0.003547 0.000007 0.033938 0.000012
# 6 0.000049 0.000002 0.000036 0.007001 0.000012 0.057693
#
#
# Mechanical properties :
#
#
# Convention : Reuss Voigt Hill
#
# Bulk Modulus (GPa) = 17.98088 34.21904 26.09996
# Shear Modulus (GPa) = 25.08594 34.63143 29.85868
#
# Velocity S-wave (km/s) = 3.47731 4.08567 3.79370
# Velocity P-wave (km/s) = 4.97887 6.22502 5.63649
#
# Compressibility (1/GPa) = 0.05561464
#
# Stress axis : x y z
#
# Youngs Moduli (GPa) = 23.54820 101.32401 115.67789
#
# Poissons Ratio (x) = 0.11226 -0.00181
# Poissons Ratio (y) = 0.02609 0.18398
# Poissons Ratio (z) = -0.00037 0.16115
#
# Static dielectric constant tensor:
#      x y z
#    x 1.940370 -0.000530 0.024350 
#    y -0.000530 1.747340 -0.000450 
#    z 0.024350 -0.000450 1.726930 
# 
# From -- ./inp_files/314034.got.cif
#   From: 2010.05.17/outbox.ucp.g08.bks.cvg/sg15_158_cif.got.tgz:314034.got - 2010.06.11 12:40:34.
