data_PCOD9309441
_publ_section_title
;
Structure prediction by ZEFSAII (Michael W. Deem and Ramdas Pophale) SiO2 
 PCOD9309441
Probable space group: C 2/C
;
_chemical_formula_sum "Si O2"
_cell_formula_units_Z 32
_cell_length_a 30.000000
_cell_length_b 15.000000
_cell_length_c 9.000000
_cell_angle_alpha 90.000000
_cell_angle_beta 130.000000
_cell_angle_gamma 90.000000
_cell_volume 3102.479995
_symmetry_space_group_name_H-M "C 2/C"
_symmetry_group_IT_number 15
_symmetry_cell_setting 'monoclinic'
loop_
_space_group_symop_operation_xyz
x,y,z
-x,y,1/2-z
-x,-y,-z
x,-y,1/2+z
1/2+x,1/2+y,z
1/2-x,1/2+y,1/2-z
1/2-x,1/2-y,-z
1/2+x,1/2-y,1/2+z
loop_
_atom_site_type_symbol
_atom_site_label
_atom_site_fract_x
_atom_site_fract_y
_atom_site_fract_z
Si Si1 0.106797 0.745331 0.266001
Si Si2 0.319971 0.010782 0.286281
Si Si3 0.586045 0.405651 0.742347
Si Si4 0.714309 0.124821 0.550030
Si Si5 0.432939 0.410914 0.133372
Si Si6 0.515365 0.776193 0.111841
Si Si7 0.369567 0.118456 0.642414
Si Si8 0.671558 0.286825 0.099119
O O1 0.152816 0.676131 0.431930
O O2 0.100868 0.835532 0.347484
O O3 0.129157 0.766594 0.147295
O O4 0.041540 0.709126 0.108206
O O5 0.368746 0.060072 0.489794
O O6 0.283128 0.955452 0.326382
O O7 0.346170 0.942184 0.224069
O O8 0.285190 0.083050 0.113918
O O9 0.595471 0.422688 0.588846
O O10 0.565842 0.496123 0.776443
O O11 0.538375 0.326030 0.652095
O O12 0.642810 0.367692 0.946530
O O13 0.766688 0.190030 0.699361
O O14 0.500000 0.383022 0.250000
O O15 0.500000 0.793234 0.250000
O O16 0.568896 0.839076 0.185485
O O17 0.328738 0.202216 0.511208
#
# Coordination Sequence:
#
# PCOD9309441 Si02
#       8
#     8   8   8   8   8   8   8   8
#     4  12  24  41  67  96 132 173 217 262 328 387
#     4  10  23  45  67  97 129 168 218 275 318 380
#     4  11  24  41  63  95 133 172 216 261 326 381
#     4  11  25  45  69  94 129 173 219 268 323 374
#     4  12  25  39  65  98 136 171 212 265 323 395
#     4  11  20  40  67  91 129 175 212 263 327 389
#     4  10  22  42  69  94 134 168 214 267 331 376
#     4  11  24  45  69  94 130 175 216 268 318 390
#
# _framework density 10.314329000000001
#
# number of rings (size 3 to 8) (size 9 to 14) (size 15 to 20)
#    0.000    1.000    5.000    1.875    3.500    2.500 
#    2.250    6.875    0.000    0.000    0.000    0.000 
#    0.000    0.000    0.000    0.000    0.000    0.000 
#
# Total GULP energy -178884.221344 kJ/mol
# GULP energy per Si atom -5590.131917 kJ/mol
# Density = 1.029085 g / cm^3
# Si number density = 10.314329 Si / 1000 Ang^3
#
#
#
# Elastic Constant Matrix: (Units=GPa)
#
#
# Indices 1 2 3 4 5 6 
#
# 1 15.7618 14.6173 34.1357 0.0000 -0.8256 0.0000
# 2 14.6173 58.6764 22.6384 0.0000 7.2156 0.0000
# 3 34.1357 22.6384 118.0386 0.0000 14.3495 0.0000
# 4 0.0000 0.0000 0.0000 23.0646 0.0000 -14.1888
# 5 -0.8256 7.2156 14.3495 0.0000 39.0432 0.0000
# 6 0.0000 0.0000 0.0000 -14.1888 0.0000 21.7546
#
#
#
# Elastic Compliance Matrix: (Units=1/GPa)
#
#
# Indices 1 2 3 4 5 6 
#
# 1 0.261059 -0.042050 -0.072276 0.000000 0.039855 0.000000
# 2 -0.042050 0.025360 0.008347 0.000000 -0.008644 0.000000
# 3 -0.072276 0.008347 0.029462 0.000000 -0.013899 0.000000
# 4 0.000000 0.000000 0.000000 0.072409 0.000000 0.047227
# 5 0.039855 -0.008644 -0.013899 0.000000 0.033161 0.000000
# 6 0.000000 0.000000 0.000000 0.047227 0.000000 0.076770
#
#
# Mechanical properties :
#
#
# Convention : Reuss Voigt Hill
#
# Bulk Modulus (GPa) = 9.62241 37.25108 23.43675
# Shear Modulus (GPa) = 6.71302 24.84485 15.77894
#
# Velocity S-wave (km/s) = 1.80590 3.47419 2.76869
# Velocity P-wave (km/s) = 3.00385 5.84726 4.64831
#
# Compressibility (1/GPa) = 0.10392406
#
# Stress axis : x y z
#
# Youngs Moduli (GPa) = 3.83055 39.43158 33.94180
#
# Poissons Ratio (x) = 1.65810 2.45319
# Poissons Ratio (y) = 0.16107 -0.28333
# Poissons Ratio (z) = 0.27686 -0.32915
#
# Static dielectric constant tensor:
#      x y z
#    x 1.714950 0.000000 0.001100 
#    y 0.000000 1.743610 0.000000 
#    z 0.001100 0.000000 1.748160 
# 
# From -- ./inp_files/70154.got.cif
#   From: 2010.05.17/outbox.ucp.g08.bks.cvg/sg15_36_cif.got.tgz:70154.got - 2010.06.11 12:40:34.
