data_PCOD9309753
_publ_section_title
;
Structure prediction by ZEFSAII (Michael W. Deem and Ramdas Pophale) SiO2 
 PCOD9309753
Probable space group: C 2/C
;
_chemical_formula_sum "Si O2"
_cell_formula_units_Z 28
_cell_length_a 24.000000
_cell_length_b 15.000000
_cell_length_c 24.000000
_cell_angle_alpha 90.000000
_cell_angle_beta 160.000000
_cell_angle_gamma 90.000000
_cell_volume 2955.054038
_symmetry_space_group_name_H-M "C 2/C"
_symmetry_group_IT_number 15
_symmetry_cell_setting 'monoclinic'
loop_
_space_group_symop_operation_xyz
x,y,z
-x,y,1/2-z
-x,-y,-z
x,-y,1/2+z
1/2+x,1/2+y,z
1/2-x,1/2+y,1/2-z
1/2-x,1/2-y,-z
1/2+x,1/2-y,1/2+z
loop_
_atom_site_type_symbol
_atom_site_label
_atom_site_fract_x
_atom_site_fract_y
_atom_site_fract_z
Si Si1 0.431221 0.080513 0.031792
Si Si2 0.605522 0.173482 0.617633
Si Si3 0.449787 0.370006 0.138909
Si Si4 0.242729 0.147192 0.290216
Si Si5 0.924642 0.987366 0.815908
Si Si6 0.769277 0.003824 0.814605
Si Si7 0.416882 0.806890 0.731998
O O1 0.432872 0.150396 0.982333
O O2 0.257517 0.031823 0.861298
O O3 0.595531 0.020734 0.179924
O O4 0.467412 0.130181 0.122963
O O5 0.430000 0.161415 0.482225
O O6 0.675886 0.269690 0.694098
O O7 0.739411 0.103599 0.765276
O O8 0.500000 0.373157 0.250000
O O9 0.482077 0.467818 0.147027
O O10 0.569196 0.291774 0.227781
O O11 0.267713 0.339059 0.951063
O O12 0.230554 0.062738 0.237460
O O13 0.120592 0.116646 0.224007
O O14 0.062935 0.006559 0.993768
O O15 0.500000 0.802696 0.750000
#
# Coordination Sequence:
#
# PCOD9309753 Si02
#       7
#     8   8   8   8   8   8   8
#     4  11  22  38  59  87 120 162 196 245 291 349
#     4  11  23  39  58  85 126 158 205 241 295 349
#     4  11  23  39  59  88 117 156 200 246 299 358
#     4  11  23  37  58  85 117 161 198 249 287 350
#     4  12  22  37  61  83 118 157 196 242 296 348
#     4  11  22  41  55  86 123 154 210 236 291 354
#     4  11  22  40  59  87 122 154 201 246 293 360
#
# _framework density 9.4752919999999996
#
# number of rings (size 3 to 8) (size 9 to 14) (size 15 to 20)
#    0.000    0.857    4.286    5.571    4.000    1.143 
#    0.000    0.000    0.000    0.000    0.000    5.000 
#    0.000    0.000    0.000    0.000    0.000    0.000 
#
# Total GULP energy -155889.536662 kJ/mol
# GULP energy per Si atom -5567.483452 kJ/mol
# Density = 0.945373 g / cm^3
# Si number density = 9.475292 Si / 1000 Ang^3
#
#
#
# Elastic Constant Matrix: (Units=GPa)
#
#
# Indices 1 2 3 4 5 6 
#
# 1 32.0775 7.6166 19.4434 -0.0046 -10.2573 -0.0012
# 2 7.6166 22.6573 20.8968 -0.0122 -5.1912 -0.0054
# 3 19.4434 20.8968 150.1737 -0.0120 -4.3734 -0.0047
# 4 -0.0046 -0.0122 -0.0120 31.9912 -0.0034 2.0384
# 5 -10.2573 -5.1912 -4.3734 -0.0034 32.8052 -0.0014
# 6 -0.0012 -0.0054 -0.0047 2.0384 -0.0014 17.7814
#
#
#
# Elastic Compliance Matrix: (Units=1/GPa)
#
#
# Indices 1 2 3 4 5 6 
#
# 1 0.038423 -0.007143 -0.003678 0.000003 0.010393 0.000000
# 2 -0.007143 0.053665 -0.006385 0.000017 0.005408 0.000013
# 3 -0.003678 -0.006385 0.007992 0.000000 -0.001095 0.000000
# 4 0.000003 0.000017 0.000000 0.031489 0.000007 -0.003610
# 5 0.010393 0.005408 -0.001095 0.000007 0.034442 0.000004
# 6 0.000000 0.000013 0.000000 -0.003610 0.000004 0.056652
#
#
# Mechanical properties :
#
#
# Convention : Reuss Voigt Hill
#
# Bulk Modulus (GPa) = 15.22817 33.42467 24.32642
# Shear Modulus (GPa) = 17.92334 26.97900 22.45117
#
# Velocity S-wave (km/s) = 3.07871 3.77722 3.44571
# Velocity P-wave (km/s) = 4.54875 6.05800 5.35679
#
# Compressibility (1/GPa) = 0.06566775
#
# Stress axis : x y z
#
# Youngs Moduli (GPa) = 26.02579 18.63404 125.12815
#
# Poissons Ratio (x) = 0.13310 0.46024
# Poissons Ratio (y) = 0.18590 0.79898
# Poissons Ratio (z) = 0.09573 0.11898
#
# Static dielectric constant tensor:
#      x y z
#    x 1.919670 0.000000 0.004270 
#    y 0.000000 1.758170 0.000000 
#    z 0.004270 0.000000 1.647020 
# 
# From -- ./inp_files/282071.got.cif
#   From: 2010.05.17/outbox.ucp.g08.bks.cvg/sg15_142_cif.got.tgz:282071.got - 2010.06.11 12:40:34.
