data_PCOD9309249
_publ_section_title
;
Structure prediction by ZEFSAII (Michael W. Deem and Ramdas Pophale) SiO2 
 PCOD9309249
Probable space group: C 2/C
;
_chemical_formula_sum "Si O2"
_cell_formula_units_Z 30
_cell_length_a 9.000000
_cell_length_b 18.000000
_cell_length_c 21.000000
_cell_angle_alpha 90.000000
_cell_angle_beta 60.000000
_cell_angle_gamma 90.000000
_cell_volume 2946.218424
_symmetry_space_group_name_H-M "C 2/C"
_symmetry_group_IT_number 15
_symmetry_cell_setting 'monoclinic'
loop_
_space_group_symop_operation_xyz
x,y,z
-x,y,1/2-z
-x,-y,-z
x,-y,1/2+z
1/2+x,1/2+y,z
1/2-x,1/2+y,1/2-z
1/2-x,1/2-y,-z
1/2+x,1/2-y,1/2+z
loop_
_atom_site_type_symbol
_atom_site_label
_atom_site_fract_x
_atom_site_fract_y
_atom_site_fract_z
Si Si1 0.308057 0.988944 0.069249
Si Si2 0.860864 0.834514 0.410683
Si Si3 0.596547 0.084743 0.331204
Si Si4 0.000000 0.477977 0.250000
Si Si5 0.884731 0.115761 0.453313
Si Si6 0.159868 0.197631 0.170795
Si Si7 0.256304 0.363962 0.126520
Si Si8 0.751685 0.669241 0.418162
O O1 0.322916 0.033452 0.131512
O O2 0.169171 0.031660 0.054387
O O3 0.250001 0.904016 0.091668
O O4 0.500000 0.000000 0.000000
O O5 0.817489 0.753782 0.388347
O O6 0.800694 0.827346 0.496716
O O7 0.061696 0.857985 0.373952
O O8 0.685251 0.164201 0.321033
O O9 0.397835 0.106878 0.380552
O O10 0.616703 0.034826 0.265053
O O11 0.874232 0.427318 0.320468
O O12 0.826012 0.162965 0.403620
O O13 0.798739 0.129729 0.541409
O O14 0.083044 0.139756 0.418132
O O15 0.167788 0.285104 0.158804
O O16 0.000000 0.176894 0.250000
#
# Coordination Sequence:
#
# PCOD9309249 Si02
#       8
#     8   8   8   4   8   8   8   8
#     4  11  22  41  65 102 135 174 220 284 341 403
#     4  10  22  39  69  98 140 165 229 282 343 399
#     4  11  25  43  67  92 137 179 220 281 347 408
#     4  12  28  42  70  98 142 178 236 282 350 408
#     4  10  25  39  75 102 136 178 234 278 348 404
#     4  11  24  46  68 100 141 179 226 283 346 414
#     4  11  23  45  67 103 136 183 228 291 331 413
#     4  10  21  41  66 102 130 177 223 283 335 411
#
# _framework density 10.182544
#
# number of rings (size 3 to 8) (size 9 to 14) (size 15 to 20)
#    0.000    1.333    3.333    1.200    3.733    4.267 
#    0.000    0.000    0.000    0.000    0.000    0.000 
#    0.000    0.000    0.000    0.000    0.000    0.000 
#
# Total GULP energy -167303.635091 kJ/mol
# GULP energy per Si atom -5576.787836 kJ/mol
# Density = 1.015937 g / cm^3
# Si number density = 10.182544 Si / 1000 Ang^3
#
#
#
# Elastic Constant Matrix: (Units=GPa)
#
#
# Indices 1 2 3 4 5 6 
#
# 1 83.7623 47.3798 32.7438 0.0000 0.3278 0.0000
# 2 47.3798 102.3083 4.3774 0.0000 11.8651 0.0000
# 3 32.7438 4.3774 63.9605 0.0000 1.7682 0.0000
# 4 0.0000 0.0000 0.0000 20.9611 0.0000 2.1192
# 5 0.3278 11.8651 1.7682 0.0000 26.9934 0.0000
# 6 0.0000 0.0000 0.0000 2.1192 0.0000 28.4769
#
#
#
# Elastic Compliance Matrix: (Units=1/GPa)
#
#
# Indices 1 2 3 4 5 6 
#
# 1 0.021871 -0.010246 -0.010632 0.000000 0.004934 0.000000
# 2 -0.010246 0.015121 0.004399 0.000000 -0.006810 0.000000
# 3 -0.010632 0.004399 0.020864 0.000000 -0.003171 0.000000
# 4 0.000000 0.000000 0.000000 0.048069 0.000000 -0.003577
# 5 0.004934 -0.006810 -0.003171 0.000000 0.040187 0.000000
# 6 0.000000 0.000000 0.000000 -0.003577 0.000000 0.035382
#
#
# Mechanical properties :
#
#
# Convention : Reuss Voigt Hill
#
# Bulk Modulus (GPa) = 40.16395 46.55921 43.36158
# Shear Modulus (GPa) = 22.44649 26.32162 24.38405
#
# Velocity S-wave (km/s) = 3.32355 3.59902 3.46402
# Velocity P-wave (km/s) = 5.87305 6.33896 6.11045
#
# Compressibility (1/GPa) = 0.02489795
#
# Stress axis : x y z
#
# Youngs Moduli (GPa) = 45.72285 66.13330 47.92930
#
# Poissons Ratio (x) = 0.67760 0.50957
# Poissons Ratio (y) = 0.46848 -0.21083
# Poissons Ratio (z) = 0.48611 -0.29090
#
# Static dielectric constant tensor:
#      x y z
#    x 1.772990 0.000000 -0.011110 
#    y 0.000000 1.736380 0.000000 
#    z -0.011110 0.000000 1.735650 
# 
# From -- ./inp_files/233052.got.cif
#   From: 2010.05.17/outbox.ucp.g08.bks.cvg/sg15_117_cif.got.tgz:233052.got - 2010.06.11 12:40:34.
