data_PCOD9309792
_publ_section_title
;
Structure prediction by ZEFSAII (Michael W. Deem and Ramdas Pophale) SiO2 
 PCOD9309792
Probable space group: C 2/C
;
_chemical_formula_sum "Si O2"
_cell_formula_units_Z 24
_cell_length_a 12.000000
_cell_length_b 27.000000
_cell_length_c 15.000000
_cell_angle_alpha 90.000000
_cell_angle_beta 30.000000
_cell_angle_gamma 90.000000
_cell_volume 2430.000000
_symmetry_space_group_name_H-M "C 2/C"
_symmetry_group_IT_number 15
_symmetry_cell_setting 'monoclinic'
loop_
_space_group_symop_operation_xyz
x,y,z
-x,y,1/2-z
-x,-y,-z
x,-y,1/2+z
1/2+x,1/2+y,z
1/2-x,1/2+y,1/2-z
1/2-x,1/2-y,-z
1/2+x,1/2-y,1/2+z
loop_
_atom_site_type_symbol
_atom_site_label
_atom_site_fract_x
_atom_site_fract_y
_atom_site_fract_z
Si Si1 0.160727 0.381196 0.565045
Si Si2 0.907525 0.181986 0.666532
Si Si3 0.520566 0.202747 0.415599
Si Si4 0.626442 0.628951 0.254907
Si Si5 0.280286 0.891248 0.337555
Si Si6 0.942930 0.441060 0.044602
O O1 0.397712 0.356936 0.435543
O O2 0.000000 0.407732 0.750000
O O3 0.010463 0.332814 0.647057
O O4 0.168545 0.416991 0.469941
O O5 0.987446 0.238434 0.594395
O O6 0.779185 0.160842 0.669028
O O7 0.705749 0.188181 0.875703
O O8 0.747372 0.179989 0.301837
O O9 0.500000 0.637953 0.250000
O O10 0.442969 0.604169 0.447812
O O11 0.827766 0.589989 0.105824
O O12 0.500000 0.891784 0.250000
O O13 0.314438 0.927412 0.227143
O O14 0.000000 0.500000 0.000000
#
# Coordination Sequence:
#
# PCOD9309792 Si02
#       6
#     8   8   8   8   8   8
#     4  11  23  44  67  99 144 180 228 294 345 416
#     4  12  22  41  66 104 140 188 229 283 347 415
#     4  11  23  39  66 103 142 183 233 277 346 424
#     4  11  22  46  68 100 141 182 231 290 342 420
#     4  12  24  45  73  96 140 184 228 292 348 412
#     4  11  26  49  71 103 134 181 240 294 359 409
#
# _framework density 9.8765429999999999
#
# number of rings (size 3 to 8) (size 9 to 14) (size 15 to 20)
#    0.000    0.667    5.000    5.000    0.000    2.000 
#    3.000    3.333    0.000    0.000    0.000    0.000 
#    0.000    0.000    0.000    0.000    0.000    0.000 
#
# Total GULP energy -133736.006361 kJ/mol
# GULP energy per Si atom -5572.333598 kJ/mol
# Density = 0.985406 g / cm^3
# Si number density = 9.876543 Si / 1000 Ang^3
#
#
#
# Elastic Constant Matrix: (Units=GPa)
#
#
# Indices 1 2 3 4 5 6 
#
# 1 135.3982 35.7461 44.1526 -0.0003 -2.8419 0.0001
# 2 35.7461 118.4177 15.0759 -0.0001 -0.2825 0.0000
# 3 44.1526 15.0759 149.8178 -0.0003 7.5696 0.0001
# 4 -0.0003 -0.0001 -0.0003 32.3909 0.0001 -0.8642
# 5 -2.8419 -0.2825 7.5696 0.0001 44.0922 0.0000
# 6 0.0001 0.0000 0.0001 -0.8642 0.0000 23.6857
#
#
#
# Elastic Compliance Matrix: (Units=1/GPa)
#
#
# Indices 1 2 3 4 5 6 
#
# 1 0.008812 -0.002351 -0.002409 0.000000 0.000967 0.000000
# 2 -0.002351 0.009183 -0.000229 0.000000 -0.000053 0.000000
# 3 -0.002409 -0.000229 0.007481 0.000000 -0.001441 0.000000
# 4 0.000000 0.000000 0.000000 0.030903 0.000000 0.001128
# 5 0.000967 -0.000053 -0.001441 0.000000 0.022989 0.000000
# 6 0.000000 0.000000 0.000000 0.001128 0.000000 0.042261
#
#
# Mechanical properties :
#
#
# Convention : Reuss Voigt Hill
#
# Bulk Modulus (GPa) = 64.52257 65.95365 65.23811
# Shear Modulus (GPa) = 36.55695 40.61105 38.58400
#
# Velocity S-wave (km/s) = 4.30664 4.53916 4.42443
# Velocity P-wave (km/s) = 7.58057 7.80599 7.69410
#
# Compressibility (1/GPa) = 0.01549845
#
# Stress axis : x y z
#
# Youngs Moduli (GPa) = 113.47816 108.89265 133.67881
#
# Poissons Ratio (x) = 0.25601 0.32207
# Poissons Ratio (y) = 0.26680 0.03055
# Poissons Ratio (z) = 0.27340 0.02488
#
# Static dielectric constant tensor:
#      x y z
#    x 1.772400 0.000000 0.084960 
#    y 0.000000 1.696390 0.000000 
#    z 0.084960 0.000000 1.831340 
# 
# From -- ./inp_files/148687.got.cif
#   From: 2010.05.17/outbox.ucp.g08.bks.cvg/sg15_75_cif.got.tgz:148687.got - 2010.06.11 12:40:34.
