data_PCOD9309920
_publ_section_title
;
Structure prediction by ZEFSAII (Michael W. Deem and Ramdas Pophale) SiO2 
 PCOD9309920
Probable space group: P 2 2 2
;
_chemical_formula_sum "Si O2"
_cell_formula_units_Z 24
_cell_length_a 7.202074
_cell_length_b 5.573659
_cell_length_c 25.459094
_cell_angle_alpha 90.000000
_cell_angle_beta 90.000000
_cell_angle_gamma 90.000000
_cell_volume 1021.976522
_symmetry_space_group_name_H-M "P 2 2 2"
_symmetry_group_IT_number 16
_symmetry_cell_setting 'orthorhombic'
loop_
_space_group_symop_operation_xyz
x,y,z
-x,-y,z
x,-y,-z
-x,y,-z
loop_
_atom_site_type_symbol
_atom_site_label
_atom_site_fract_x
_atom_site_fract_y
_atom_site_fract_z
Si Si1 0.699323 0.750000 0.813601
Si Si2 0.286145 0.750000 0.521093
Si Si3 0.275225 0.250000 0.144843
Si Si4 0.295447 0.250000 0.688586
Si Si5 0.212886 0.750000 0.978922
Si Si6 0.282631 0.250000 0.353631
O O1 0.496454 0.750000 0.841595
O O2 0.791727 0.501033 0.830861
O O3 0.679333 0.750000 0.751057
O O4 0.791727 0.998967 0.830861
O O5 0.206322 0.500000 0.500000
O O6 0.500000 0.750000 0.500000
O O7 0.275595 0.750000 0.583735
O O8 0.206322 0.000000 0.500000
O O9 0.229837 0.250000 0.083555
O O10 0.207196 0.500145 0.669656
O O11 0.500503 0.250000 0.663042
O O12 0.207196 0.999855 0.669656
O O13 0.293893 0.500000 0.000000
O O14 0.000000 0.750000 0.000000
O O15 0.293893 0.000000 0.000000
#
# Coordination Sequence:
#
# PCOD9309920 Si02
#       6
#     4   4   4   4   4   4
#     4  10  19  30  45  67  92 114 136 174 223 277
#     4  10  16  22  28  39  59  85 124 175 220 258
#     4  10  18  32  48  67  90 114 139 168 213 263
#     4  10  16  25  36  51  73  98 129 162 206 272
#     4  10  21  37  54  70  89 115 146 176 204 247
#     4  10  16  22  33  46  63  96 132 167 213 267
#
# _framework density 23.483906000000001
#
# number of rings (size 3 to 8) (size 9 to 14) (size 15 to 20)
#    0.000    2.000    0.000   11.000    0.000    0.000 
#    0.000   10.000    0.000    0.000    0.000    0.000 
#    0.000    0.000    0.000    0.000    0.000    0.000 
#
# Total GULP energy -134103.399564 kJ/mol
# GULP energy per Si atom -5587.641649 kJ/mol
# Density = 2.343046 g / cm^3
# Si number density = 23.483906 Si / 1000 Ang^3
#
#
#
# Elastic Constant Matrix: (Units=GPa)
#
#
# Indices 1 2 3 4 5 6 
#
# 1 116.6236 26.7354 27.4812 0.0000 0.0000 0.0000
# 2 26.7354 327.1076 104.6836 0.0000 0.0000 0.0000
# 3 27.4812 104.6836 262.3129 0.0000 0.0000 0.0000
# 4 0.0000 0.0000 0.0000 55.3429 0.0000 0.0000
# 5 0.0000 0.0000 0.0000 0.0000 -74.4942 0.0000
# 6 0.0000 0.0000 0.0000 0.0000 0.0000 -36.2580
#
#
#
# Elastic Compliance Matrix: (Units=1/GPa)
#
#
# Indices 1 2 3 4 5 6 
#
# 1 0.008860 -0.000490 -0.000733 0.000000 0.000000 0.000000
# 2 -0.000490 0.003532 -0.001358 0.000000 0.000000 0.000000
# 3 -0.000733 -0.001358 0.004431 0.000000 0.000000 0.000000
# 4 0.000000 0.000000 0.000000 0.018069 0.000000 0.000000
# 5 0.000000 0.000000 0.000000 0.000000 -0.013424 0.000000
# 6 0.000000 0.000000 0.000000 0.000000 0.000000 -0.027580
#
#
# Mechanical properties :
#
#
# Convention : Reuss Voigt Hill
#
# Bulk Modulus (GPa) = 85.75435 113.76049 99.75742
# Shear Modulus (GPa) = 1703.20871 25.39441 864.30156
#
# Velocity S-wave (km/s) = 26.95999 3.29196 19.20518
# Velocity P-wave (km/s) = 31.71304 7.93703 23.11615
#
# Compressibility (1/GPa) = 0.01166122
#
# Stress axis : x y z
#
# Youngs Moduli (GPa) = 112.87315 283.14472 225.68157
#
# Poissons Ratio (x) = 0.13863 0.16537
# Poissons Ratio (y) = 0.05526 0.30651
# Poissons Ratio (z) = 0.08271 0.38456
#
# Static dielectric constant tensor:
#      x y z
#    x 1.855000 0.000000 0.000000 
#    y 0.000000 2.043800 0.000000 
#    z 0.000000 0.000000 1.510580 
# 
# From -- ./inp_files/9536.got.cif
#   From: 2010.05.17/outbox.cif.g08.bks.cpg/sg16_5_cif.got.tgz:9536.got - 2010.06.03 22:28:35.
