data_PCOD9309203
_publ_section_title
;
Structure prediction by ZEFSAII (Michael W. Deem and Ramdas Pophale) SiO2 
 PCOD9309203
Probable space group: C 2/C
;
_chemical_formula_sum "Si O2"
_cell_formula_units_Z 28
_cell_length_a 12.000000
_cell_length_b 27.000000
_cell_length_c 9.000000
_cell_angle_alpha 90.000000
_cell_angle_beta 110.000000
_cell_angle_gamma 90.000000
_cell_volume 2740.143682
_symmetry_space_group_name_H-M "C 2/C"
_symmetry_group_IT_number 15
_symmetry_cell_setting 'monoclinic'
loop_
_space_group_symop_operation_xyz
x,y,z
-x,y,1/2-z
-x,-y,-z
x,-y,1/2+z
1/2+x,1/2+y,z
1/2-x,1/2+y,1/2-z
1/2-x,1/2-y,-z
1/2+x,1/2-y,1/2+z
loop_
_atom_site_type_symbol
_atom_site_label
_atom_site_fract_x
_atom_site_fract_y
_atom_site_fract_z
Si Si1 0.301149 0.164263 0.344503
Si Si2 0.128784 0.106376 0.738784
Si Si3 0.934336 0.432242 0.858888
Si Si4 0.567741 0.333363 0.920192
Si Si5 0.262672 0.190269 0.985495
Si Si6 0.616113 0.955035 0.192974
Si Si7 0.010988 0.722835 0.579959
O O1 0.345869 0.107764 0.389666
O O2 0.193596 0.179347 0.402750
O O3 0.403746 0.201917 0.435369
O O4 0.274390 0.169921 0.158000
O O5 0.089887 0.130275 0.565187
O O6 0.171538 0.153088 0.861032
O O7 0.251661 0.072337 0.760263
O O8 0.000000 0.086415 0.750000
O O9 0.872019 0.484736 0.787659
O O10 0.000000 0.407077 0.750000
O O11 0.048057 0.445371 0.009439
O O12 0.500000 0.357427 0.750000
O O13 0.497352 0.283042 0.934579
O O14 0.377840 0.192505 0.932346
O O15 0.250000 0.250000 0.000000
O O16 0.500000 0.941650 0.250000
O O17 0.000000 0.712168 0.750000
#
# Coordination Sequence:
#
# PCOD9309203 Si02
#       7
#     8   8   8   8   8   8   8
#     4  12  22  38  63  91 121 161 214 270 327 385
#     4  12  24  41  66  96 132 173 219 269 332 400
#     4  10  21  39  66  96 125 158 210 271 327 388
#     4  11  24  41  58  86 129 173 213 262 321 388
#     4  12  24  39  60  88 125 167 215 267 322 385
#     4  10  22  42  67  96 128 165 211 269 330 390
#     4  11  22  38  59  88 125 167 216 266 321 384
#
# _framework density 10.218442
#
# number of rings (size 3 to 8) (size 9 to 14) (size 15 to 20)
#    0.000    0.857    0.000    9.429    0.000    1.143 
#    0.000    0.714    0.000   13.714    0.000    0.000 
#    0.000    0.000    0.000    0.000    0.000    0.000 
#
# Total GULP energy -155975.403622 kJ/mol
# GULP energy per Si atom -5570.550129 kJ/mol
# Density = 1.019518 g / cm^3
# Si number density = 10.218442 Si / 1000 Ang^3
#
#
#
# Elastic Constant Matrix: (Units=GPa)
#
#
# Indices 1 2 3 4 5 6 
#
# 1 117.4599 20.1317 8.5179 0.0000 1.9434 0.0000
# 2 20.1317 86.0817 19.2298 0.0000 10.9978 0.0000
# 3 8.5179 19.2298 110.5901 0.0000 4.9256 0.0000
# 4 0.0000 0.0000 0.0000 20.2078 0.0000 2.4032
# 5 1.9434 10.9978 4.9256 0.0000 32.6713 0.0000
# 6 0.0000 0.0000 0.0000 2.4032 0.0000 43.2767
#
#
#
# Elastic Compliance Matrix: (Units=1/GPa)
#
#
# Indices 1 2 3 4 5 6 
#
# 1 0.008882 -0.002027 -0.000341 0.000000 0.000206 0.000000
# 2 -0.002027 0.013031 -0.001933 0.000000 -0.003974 0.000000
# 3 -0.000341 -0.001933 0.009438 0.000000 -0.000752 0.000000
# 4 0.000000 0.000000 0.000000 0.049815 0.000000 -0.002766
# 5 0.000206 -0.003974 -0.000752 0.000000 0.032047 0.000000
# 6 0.000000 0.000000 0.000000 -0.002766 0.000000 0.023261
#
#
# Mechanical properties :
#
#
# Convention : Reuss Voigt Hill
#
# Bulk Modulus (GPa) = 43.95712 45.54340 44.75026
# Shear Modulus (GPa) = 32.75291 36.98133 34.86712
#
# Velocity S-wave (km/s) = 4.00764 4.25848 4.13496
# Velocity P-wave (km/s) = 6.55517 6.82003 6.68891
#
# Compressibility (1/GPa) = 0.02274944
#
# Stress axis : x y z
#
# Youngs Moduli (GPa) = 112.58295 76.74298 105.95249
#
# Poissons Ratio (x) = 0.15559 0.03610
# Poissons Ratio (y) = 0.22825 0.20477
# Poissons Ratio (z) = 0.03836 0.14831
#
# Static dielectric constant tensor:
#      x y z
#    x 1.905850 0.000000 -0.016100 
#    y 0.000000 1.749620 0.000000 
#    z -0.016100 0.000000 1.770750 
# 
# From -- ./inp_files/34319.got.cif
#   From: 2010.05.17/outbox.ucp.g08.bks.cvg/sg15_18_cif.got.tgz:34319.got - 2010.06.11 12:40:34.
