data_PCOD9309781
_publ_section_title
;
Structure prediction by ZEFSAII (Michael W. Deem and Ramdas Pophale) SiO2 
 PCOD9309781
Probable space group: C 2/C
;
_chemical_formula_sum "Si O2"
_cell_formula_units_Z 24
_cell_length_a 9.000000
_cell_length_b 18.000000
_cell_length_c 30.000000
_cell_angle_alpha 90.000000
_cell_angle_beta 30.000000
_cell_angle_gamma 90.000000
_cell_volume 2430.000000
_symmetry_space_group_name_H-M "C 2/C"
_symmetry_group_IT_number 15
_symmetry_cell_setting 'monoclinic'
loop_
_space_group_symop_operation_xyz
x,y,z
-x,y,1/2-z
-x,-y,-z
x,-y,1/2+z
1/2+x,1/2+y,z
1/2-x,1/2+y,1/2-z
1/2-x,1/2-y,-z
1/2+x,1/2-y,1/2+z
loop_
_atom_site_type_symbol
_atom_site_label
_atom_site_fract_x
_atom_site_fract_y
_atom_site_fract_z
Si Si1 0.707180 0.201239 0.396198
Si Si2 0.365291 0.374660 0.093306
Si Si3 0.452815 0.094460 0.388306
Si Si4 0.712944 0.352904 0.094243
Si Si5 0.850916 0.575545 0.654008
Si Si6 0.082215 0.291677 0.780793
O O1 0.615218 0.285900 0.411499
O O2 0.637182 0.149842 0.372137
O O3 0.495773 0.172270 0.490931
O O4 0.060355 0.202592 0.311329
O O5 0.476934 0.389813 0.117608
O O6 0.061523 0.391826 0.141016
O O7 0.624275 0.408281 0.995130
O O8 0.456248 0.135218 0.339358
O O9 0.588431 0.012389 0.356254
O O10 0.865853 0.397337 0.097301
O O11 0.545637 0.281163 0.159771
O O12 0.500000 0.591158 0.750000
O O13 0.000000 0.287814 0.750000
#
# Coordination Sequence:
#
# PCOD9309781 Si02
#       6
#     8   8   8   8   8   8
#     4  11  22  42  74  97 134 182 226 287 340 395
#     4  11  23  45  74  98 133 187 225 281 342 404
#     4  11  24  48  66  99 141 178 227 282 340 407
#     4  11  24  45  70 103 137 175 237 279 339 408
#     4  12  27  44  67 102 144 180 221 287 342 400
#     4  12  24  40  71 103 132 181 230 285 335 405
#
# _framework density 9.8765429999999999
#
# number of rings (size 3 to 8) (size 9 to 14) (size 15 to 20)
#    0.000    0.667    3.333    5.500    2.333    6.000 
#    6.000    0.000    0.000    0.000    0.000    0.000 
#    0.000    0.000    0.000    0.000    0.000    0.000 
#
# Total GULP energy -133632.128622 kJ/mol
# GULP energy per Si atom -5568.005359 kJ/mol
# Density = 0.985406 g / cm^3
# Si number density = 9.876543 Si / 1000 Ang^3
#
#
#
# Elastic Constant Matrix: (Units=GPa)
#
#
# Indices 1 2 3 4 5 6 
#
# 1 168.6175 37.7559 46.3106 -0.0513 8.4280 0.0344
# 2 37.7559 95.0984 10.8942 -0.0224 12.4125 0.0185
# 3 46.3106 10.8942 97.2924 0.0612 2.0929 -0.0264
# 4 -0.0513 -0.0224 0.0612 22.3166 -0.0154 -0.2056
# 5 8.4280 12.4125 2.0929 -0.0154 49.9457 -0.0018
# 6 0.0344 0.0185 -0.0264 -0.2056 -0.0018 39.0083
#
#
#
# Elastic Compliance Matrix: (Units=1/GPa)
#
#
# Indices 1 2 3 4 5 6 
#
# 1 0.007404 -0.002505 -0.003233 0.000023 -0.000491 -0.000007
# 2 -0.002505 0.011848 -0.000080 0.000005 -0.002518 -0.000004
# 3 -0.003233 -0.000080 0.011825 -0.000040 0.000070 0.000011
# 4 0.000023 0.000005 -0.000040 0.044812 0.000010 0.000236
# 5 -0.000491 -0.002518 0.000070 0.000010 0.020728 0.000003
# 6 -0.000007 -0.000004 0.000011 0.000236 0.000003 0.025637
#
#
# Mechanical properties :
#
#
# Convention : Reuss Voigt Hill
#
# Bulk Modulus (GPa) = 51.44043 61.21443 56.32743
# Shear Modulus (GPa) = 35.62017 39.99061 37.80539
#
# Velocity S-wave (km/s) = 4.25110 4.50435 4.37956
# Velocity P-wave (km/s) = 7.08478 7.62295 7.35878
#
# Compressibility (1/GPa) = 0.01943996
#
# Stress axis : x y z
#
# Youngs Moduli (GPa) = 135.06083 84.40351 84.56807
#
# Poissons Ratio (x) = 0.21143 0.27343
# Poissons Ratio (y) = 0.33833 0.00677
# Poissons Ratio (z) = 0.43668 0.00676
#
# Static dielectric constant tensor:
#      x y z
#    x 1.770880 0.000000 0.005350 
#    y 0.000000 1.700790 -0.000010 
#    z 0.005350 -0.000010 1.741340 
# 
# From -- ./inp_files/308696.got.cif
#   From: 2010.05.17/outbox.ucp.g08.bks.cvg/sg15_155_cif.got.tgz:308696.got - 2010.06.11 12:40:34.
