data_PCOD9309658
_publ_section_title
;
Structure prediction by ZEFSAII (Michael W. Deem and Ramdas Pophale) SiO2 
 PCOD9309658
Probable space group: C 2/C
;
_chemical_formula_sum "Si O2"
_cell_formula_units_Z 28
_cell_length_a 27.000000
_cell_length_b 9.000000
_cell_length_c 18.000000
_cell_angle_alpha 90.000000
_cell_angle_beta 40.000000
_cell_angle_gamma 90.000000
_cell_volume 2811.553005
_symmetry_space_group_name_H-M "C 2/C"
_symmetry_group_IT_number 15
_symmetry_cell_setting 'monoclinic'
loop_
_space_group_symop_operation_xyz
x,y,z
-x,y,1/2-z
-x,-y,-z
x,-y,1/2+z
1/2+x,1/2+y,z
1/2-x,1/2+y,1/2-z
1/2-x,1/2-y,-z
1/2+x,1/2-y,1/2+z
loop_
_atom_site_type_symbol
_atom_site_label
_atom_site_fract_x
_atom_site_fract_y
_atom_site_fract_z
Si Si1 0.657560 0.652005 0.556342
Si Si2 0.055843 0.596119 0.248808
Si Si3 0.029340 0.877449 0.084304
Si Si4 0.860456 0.989876 0.775510
Si Si5 0.345460 0.716336 0.173313
Si Si6 0.083502 0.505788 0.367316
Si Si7 0.713549 0.236512 0.210691
O O1 0.623012 0.803805 0.633653
O O2 0.589132 0.590290 0.582267
O O3 0.668453 0.536273 0.610246
O O4 0.732891 0.684562 0.420565
O O5 0.079283 0.478239 0.283539
O O6 0.000000 0.534418 0.250000
O O7 0.004892 0.716297 0.353708
O O8 0.952542 0.976321 0.167549
O O9 0.083696 0.867682 0.949651
O O10 0.812212 0.095940 0.775051
O O11 0.843812 0.831368 0.760396
O O12 0.366544 0.887692 0.146240
O O13 0.266693 0.700905 0.219583
O O14 0.132151 0.655913 0.313533
O O15 0.000000 0.500000 0.500000
#
# Coordination Sequence:
#
# PCOD9309658 Si02
#       7
#     8   8   8   8   8   8   8
#     4   9  19  35  62  86 105 146 208 249 274 342
#     4   9  17  34  60  87 108 146 202 244 277 336
#     4   9  17  35  59  83 107 145 198 239 279 342
#     4  11  19  35  57  84 109 150 194 244 289 336
#     4  11  23  35  53  88 123 149 184 244 300 355
#     4  12  22  39  60  89 120 156 194 240 302 361
#     4  11  22  38  59  82 115 157 202 239 288 345
#
# _framework density 9.9589090000000002
#
# number of rings (size 3 to 8) (size 9 to 14) (size 15 to 20)
#    0.000    1.714    4.286    3.000    0.000    0.000 
#    0.000    2.143    0.000    0.000    0.000    0.000 
#    0.000    0.000    0.000    0.000    0.000    0.000 
#
# Total GULP energy -155972.944073 kJ/mol
# GULP energy per Si atom -5570.462288 kJ/mol
# Density = 0.993624 g / cm^3
# Si number density = 9.958909 Si / 1000 Ang^3
#
#
#
# Elastic Constant Matrix: (Units=GPa)
#
#
# Indices 1 2 3 4 5 6 
#
# 1 102.7535 13.3213 18.9478 -0.0011 -3.6583 0.0004
# 2 13.3213 23.7291 9.4508 -0.0026 1.2490 0.0018
# 3 18.9478 9.4508 52.3229 -0.0022 -4.5494 0.0008
# 4 -0.0011 -0.0026 -0.0022 14.7802 -0.0001 6.4771
# 5 -3.6583 1.2490 -4.5494 -0.0001 30.1454 -0.0003
# 6 0.0004 0.0018 0.0008 6.4771 -0.0003 1.8569
#
#
#
# Elastic Compliance Matrix: (Units=1/GPa)
#
#
# Indices 1 2 3 4 5 6 
#
# 1 0.010971 -0.005034 -0.002969 0.000004 0.001092 -0.000011
# 2 -0.005034 0.048018 -0.007170 -0.000048 -0.003682 0.000126
# 3 -0.002969 -0.007170 0.021762 -0.000005 0.003221 0.000016
# 4 0.000004 -0.000048 -0.000005 -0.127994 0.000005 0.446458
# 5 0.001092 -0.003682 0.003221 0.000005 0.033944 -0.000012
# 6 -0.000011 0.000126 0.000016 0.446458 -0.000012 -1.018775
#
#
# Mechanical properties :
#
#
# Convention : Reuss Voigt Hill
#
# Bulk Modulus (GPa) = 19.83932 29.13835 24.48883
# Shear Modulus (GPa) = -5.07653 18.49555 6.70951
#
# Velocity S-wave (km/s) = -1.59821 3.05059 1.83737
# Velocity P-wave (km/s) = 2.56447 5.20280 4.10157
#
# Compressibility (1/GPa) = 0.05040496
#
# Stress axis : x y z
#
# Youngs Moduli (GPa) = 91.14966 20.82552 45.95084
#
# Poissons Ratio (x) = 0.10484 0.13642
# Poissons Ratio (y) = 0.45885 0.32949
# Poissons Ratio (z) = 0.27060 0.14933
#
# Static dielectric constant tensor:
#      x y z
#    x 1.810340 0.000000 -0.005470 
#    y 0.000000 1.711630 0.000000 
#    z -0.005470 0.000000 1.691060 
# 
# From -- ./inp_files/222011.got.cif
#   From: 2010.05.17/outbox.ucp.g08.bks.cvg/sg15_112_cif.got.tgz:222011.got - 2010.06.11 12:40:34.
