data_PCOD9309255
_publ_section_title
;
Structure prediction by ZEFSAII (Michael W. Deem and Ramdas Pophale) SiO2 
 PCOD9309255
Probable space group: C 2/C
;
_chemical_formula_sum "Si O2"
_cell_formula_units_Z 28
_cell_length_a 21.000000
_cell_length_b 21.000000
_cell_length_c 18.000000
_cell_angle_alpha 90.000000
_cell_angle_beta 20.000000
_cell_angle_gamma 90.000000
_cell_volume 2714.955898
_symmetry_space_group_name_H-M "C 2/C"
_symmetry_group_IT_number 15
_symmetry_cell_setting 'monoclinic'
loop_
_space_group_symop_operation_xyz
x,y,z
-x,y,1/2-z
-x,-y,-z
x,-y,1/2+z
1/2+x,1/2+y,z
1/2-x,1/2+y,1/2-z
1/2-x,1/2-y,-z
1/2+x,1/2-y,1/2+z
loop_
_atom_site_type_symbol
_atom_site_label
_atom_site_fract_x
_atom_site_fract_y
_atom_site_fract_z
Si Si1 0.734611 0.089241 0.089258
Si Si2 0.334860 0.332931 0.176121
Si Si3 0.540990 0.301373 0.794638
Si Si4 0.948524 0.523231 0.891956
Si Si5 0.868121 0.929986 0.277497
Si Si6 0.101521 0.309603 0.851686
Si Si7 0.901333 0.663710 0.981953
O O1 0.688061 0.153659 0.186267
O O2 0.577841 0.035667 0.275766
O O3 0.759378 0.097019 0.971866
O O4 0.925232 0.063326 0.916414
O O5 0.373207 0.387451 0.196573
O O6 0.389465 0.266762 0.157680
O O7 0.112712 0.330749 0.409128
O O8 0.419030 0.331091 0.998589
O O9 0.500000 0.310629 0.750000
O O10 0.744304 0.328587 0.590850
O O11 0.533474 0.224971 0.821300
O O12 0.000000 0.533666 0.750000
O O13 0.738744 0.495498 0.124981
O O14 0.977224 0.591900 0.897521
O O15 0.186799 0.327354 0.839048
#
# Coordination Sequence:
#
# PCOD9309255 Si02
#       7
#     8   8   8   8   8   8   8
#     4  10  21  41  66  93 136 173 216 268 316 385
#     4  11  22  40  64  94 131 170 218 272 327 384
#     4  11  23  42  65  94 128 165 217 276 327 387
#     4  10  22  42  65  94 133 173 216 267 321 388
#     4  10  21  42  65  97 131 174 219 262 322 387
#     4  11  22  39  64  94 131 173 216 272 324 378
#     4  11  23  42  65  94 128 168 217 267 330 390
#
# _framework density 10.313243
#
# number of rings (size 3 to 8) (size 9 to 14) (size 15 to 20)
#    0.000    1.429    1.429    6.000    0.000    2.286 
#   10.286    1.429    0.000    0.000    0.000    0.000 
#    0.000    0.000    0.000    0.000    0.000    0.000 
#
# Total GULP energy -156226.243059 kJ/mol
# GULP energy per Si atom -5579.508681 kJ/mol
# Density = 1.028977 g / cm^3
# Si number density = 10.313243 Si / 1000 Ang^3
#
#
#
# Elastic Constant Matrix: (Units=GPa)
#
#
# Indices 1 2 3 4 5 6 
#
# 1 112.4523 22.5746 9.0265 -0.0045 11.7174 0.0257
# 2 22.5746 82.9931 8.7468 -0.0785 13.5106 0.0607
# 3 9.0265 8.7468 64.8640 -0.0736 -0.6418 0.0682
# 4 -0.0045 -0.0785 -0.0736 23.9596 0.0361 -0.3368
# 5 11.7174 13.5106 -0.6418 0.0361 38.3323 -0.0153
# 6 0.0257 0.0607 0.0682 -0.3368 -0.0153 32.4925
#
#
#
# Elastic Compliance Matrix: (Units=1/GPa)
#
#
# Indices 1 2 3 4 5 6 
#
# 1 0.009640 -0.002150 -0.001074 -0.000005 -0.002207 -0.000002
# 2 -0.002150 0.013468 -0.001558 0.000045 -0.004116 -0.000022
# 3 -0.001074 -0.001558 0.015788 0.000041 0.001141 -0.000028
# 4 -0.000005 0.000045 0.000041 0.041743 -0.000053 0.000432
# 5 -0.002207 -0.004116 0.001141 -0.000053 0.028232 0.000020
# 6 -0.000002 -0.000022 -0.000028 0.000432 0.000020 0.030781
#
#
# Mechanical properties :
#
#
# Convention : Reuss Voigt Hill
#
# Bulk Modulus (GPa) = 34.08972 37.88948 35.98960
# Shear Modulus (GPa) = 31.44795 33.62098 32.53447
#
# Velocity S-wave (km/s) = 3.90890 4.04169 3.97585
# Velocity P-wave (km/s) = 6.07747 6.33953 6.20988
#
# Compressibility (1/GPa) = 0.02933436
#
# Stress axis : x y z
#
# Youngs Moduli (GPa) = 103.73038 74.24887 63.34056
#
# Poissons Ratio (x) = 0.15962 0.06800
# Poissons Ratio (y) = 0.22300 0.09866
# Poissons Ratio (z) = 0.11135 0.11565
#
# Static dielectric constant tensor:
#      x y z
#    x 1.747540 -0.000010 -0.027400 
#    y -0.000010 1.724440 0.000040 
#    z -0.027400 0.000040 1.811060 
# 
# From -- ./inp_files/216628.got.cif
#   From: 2010.05.17/outbox.ucp.g08.bks.cvg/sg15_109_cif.got.tgz:216628.got - 2010.06.11 12:40:34.
