data_PCOD9309556
_publ_section_title
;
Structure prediction by ZEFSAII (Michael W. Deem and Ramdas Pophale) SiO2 
 PCOD9309556
Probable space group: C 2/C
;
_chemical_formula_sum "Si O2"
_cell_formula_units_Z 20
_cell_length_a 15.000000
_cell_length_b 9.000000
_cell_length_c 15.000000
_cell_angle_alpha 90.000000
_cell_angle_beta 70.000000
_cell_angle_gamma 90.000000
_cell_volume 1902.877557
_symmetry_space_group_name_H-M "C 2/C"
_symmetry_group_IT_number 15
_symmetry_cell_setting 'monoclinic'
loop_
_space_group_symop_operation_xyz
x,y,z
-x,y,1/2-z
-x,-y,-z
x,-y,1/2+z
1/2+x,1/2+y,z
1/2-x,1/2+y,1/2-z
1/2-x,1/2-y,-z
1/2+x,1/2-y,1/2+z
loop_
_atom_site_type_symbol
_atom_site_label
_atom_site_fract_x
_atom_site_fract_y
_atom_site_fract_z
Si Si1 0.937029 0.355111 0.993210
Si Si2 0.815933 0.860545 0.861832
Si Si3 0.014923 0.913400 0.145975
Si Si4 0.840978 0.122149 0.150651
Si Si5 0.802777 0.453947 0.432184
O O1 0.874145 0.278269 0.093890
O O2 0.985534 0.211722 0.930286
O O3 0.872488 0.415221 0.934878
O O4 0.000000 0.500000 0.000000
O O5 0.791657 0.865366 0.765038
O O6 0.847466 0.690605 0.869818
O O7 0.892614 0.983068 0.867705
O O8 0.731159 0.893485 0.959309
O O9 0.000000 0.845682 0.250000
O O10 0.934226 0.028969 0.144464
O O11 0.778721 0.026513 0.101928
#
# Coordination Sequence:
#
# PCOD9309556 Si02
#       5
#     8   8   8   8   8
#     4  12  26  41  64  96 132 170 219 268 318 380
#     4  10  24  43  67  97 130 168 215 264 335 378
#     4  10  23  44  66  92 129 172 212 264 325 388
#     4  11  24  42  72  93 131 172 215 265 326 387
#     4  11  25  42  67  96 132 166 214 274 316 388
#
# _framework density 10.510398
#
# number of rings (size 3 to 8) (size 9 to 14) (size 15 to 20)
#    0.000    1.200    2.000    2.400    8.400    3.200 
#    0.000    0.000    0.000    0.000    0.000    0.000 
#    0.000    0.000    0.000    0.000    0.000    0.000 
#
# Total GULP energy -111579.460665 kJ/mol
# GULP energy per Si atom -5578.973033 kJ/mol
# Density = 1.048648 g / cm^3
# Si number density = 10.510398 Si / 1000 Ang^3
#
#
#
# Elastic Constant Matrix: (Units=GPa)
#
#
# Indices 1 2 3 4 5 6 
#
# 1 25.5480 -4.3968 0.7122 0.0000 18.7354 0.0000
# 2 -4.3968 103.5960 29.9914 0.0000 4.6938 0.0000
# 3 0.7122 29.9914 121.5768 0.0000 23.7821 0.0000
# 4 0.0000 0.0000 0.0000 31.9194 0.0000 6.0852
# 5 18.7354 4.6938 23.7821 0.0000 25.0796 0.0000
# 6 0.0000 0.0000 0.0000 6.0852 0.0000 25.5218
#
#
#
# Elastic Compliance Matrix: (Units=1/GPa)
#
#
# Indices 1 2 3 4 5 6 
#
# 1 0.117826 0.004296 0.019184 0.000000 -0.107016 0.000000
# 2 0.004296 0.010559 -0.001984 0.000000 -0.003304 0.000000
# 3 0.019184 -0.001984 0.013914 0.000000 -0.027154 0.000000
# 4 0.000000 0.000000 0.000000 0.032821 0.000000 -0.007826
# 5 -0.107016 -0.003304 -0.027154 0.000000 0.146186 0.000000
# 6 0.000000 0.000000 0.000000 -0.007826 0.000000 0.041048
#
#
# Mechanical properties :
#
#
# Convention : Reuss Voigt Hill
#
# Bulk Modulus (GPa) = 5.39691 33.70382 19.55036
# Shear Modulus (GPa) = 13.11903 31.46510 22.29206
#
# Velocity S-wave (km/s) = 2.50091 3.87312 3.26003
# Velocity P-wave (km/s) = 3.30339 6.00581 4.84676
#
# Compressibility (1/GPa) = 0.18529134
#
# Stress axis : x y z
#
# Youngs Moduli (GPa) = 8.48709 94.70439 71.87050
#
# Poissons Ratio (x) = -0.40682 -1.37876
# Poissons Ratio (y) = -0.03646 0.14256
# Poissons Ratio (z) = -0.16282 0.18786
#
# Static dielectric constant tensor:
#      x y z
#    x 1.755960 0.000000 -0.060270 
#    y 0.000000 1.776770 0.000000 
#    z -0.060270 0.000000 1.817750 
# 
# From -- ./inp_files/150614.got.cif
#   From: 2010.05.17/outbox.ucp.g08.bks.cvg/sg15_76_cif.got.tgz:150614.got - 2010.06.11 12:40:34.
