data_PCOD9309643
_publ_section_title
;
Structure prediction by ZEFSAII (Michael W. Deem and Ramdas Pophale) SiO2 
 PCOD9309643
Probable space group: C 2/C
;
_chemical_formula_sum "Si O2"
_cell_formula_units_Z 24
_cell_length_a 12.000000
_cell_length_b 9.000000
_cell_length_c 24.000000
_cell_angle_alpha 90.000000
_cell_angle_beta 70.000000
_cell_angle_gamma 90.000000
_cell_volume 2435.683273
_symmetry_space_group_name_H-M "C 2/C"
_symmetry_group_IT_number 15
_symmetry_cell_setting 'monoclinic'
loop_
_space_group_symop_operation_xyz
x,y,z
-x,y,1/2-z
-x,-y,-z
x,-y,1/2+z
1/2+x,1/2+y,z
1/2-x,1/2+y,1/2-z
1/2-x,1/2-y,-z
1/2+x,1/2-y,1/2+z
loop_
_atom_site_type_symbol
_atom_site_label
_atom_site_fract_x
_atom_site_fract_y
_atom_site_fract_z
Si Si1 0.202390 0.333641 0.063830
Si Si2 0.271445 0.957341 0.677489
Si Si3 0.992187 0.434060 0.939732
Si Si4 0.039282 0.100239 0.941229
Si Si5 0.122894 0.292957 0.259131
Si Si6 0.950628 0.077630 0.351853
O O1 0.116549 0.474541 0.068603
O O2 0.320021 0.377640 0.076828
O O3 0.124220 0.212104 0.108584
O O4 0.250000 0.250000 0.000000
O O5 0.383571 0.949713 0.615673
O O6 0.227374 0.795250 0.707883
O O7 0.147782 0.006774 0.668826
O O8 0.316995 0.075081 0.715932
O O9 0.975198 0.259229 0.951408
O O10 0.000000 0.500000 0.000000
O O11 0.002238 0.022031 0.891208
O O12 0.000000 0.000000 0.000000
O O13 0.000000 0.351622 0.250000
O O14 0.060919 0.156355 0.302875
#
# Coordination Sequence:
#
# PCOD9309643 Si02
#       6
#     8   8   8   8   8   8
#     4  12  22  44  65  94 147 181 223 284 339 414
#     4  11  24  47  73  98 141 178 233 290 342 417
#     4  12  24  43  72 101 139 187 226 282 360 415
#     4  12  26  41  69 104 141 184 234 279 348 419
#     4  10  25  46  71  98 136 183 233 285 350 404
#     4  11  23  45  69 100 136 184 227 288 346 407
#
# _framework density 9.8534980000000001
#
# number of rings (size 3 to 8) (size 9 to 14) (size 15 to 20)
#    0.000    0.667    6.667    0.000    2.333    2.000 
#    3.000    0.000    0.000    0.000    0.000    0.000 
#    0.000    0.000    0.000    0.000    0.000    0.000 
#
# Total GULP energy -133915.712844 kJ/mol
# GULP energy per Si atom -5579.821368 kJ/mol
# Density = 0.983107 g / cm^3
# Si number density = 9.853498 Si / 1000 Ang^3
#
#
#
# Elastic Constant Matrix: (Units=GPa)
#
#
# Indices 1 2 3 4 5 6 
#
# 1 161.2385 83.9091 40.5572 0.0000 19.3673 0.0000
# 2 83.9091 117.8359 46.4625 0.0000 12.4708 0.0000
# 3 40.5572 46.4625 100.9267 0.0000 -9.2050 0.0000
# 4 0.0000 0.0000 0.0000 39.5309 0.0000 7.2534
# 5 19.3673 12.4708 -9.2050 0.0000 48.3258 0.0000
# 6 0.0000 0.0000 0.0000 7.2534 0.0000 47.8677
#
#
#
# Elastic Compliance Matrix: (Units=1/GPa)
#
#
# Indices 1 2 3 4 5 6 
#
# 1 0.010235 -0.006455 -0.001387 0.000000 -0.002700 0.000000
# 2 -0.006455 0.015113 -0.004562 0.000000 -0.002182 0.000000
# 3 -0.001387 -0.004562 0.012949 0.000000 0.004200 0.000000
# 4 0.000000 0.000000 0.000000 0.026020 0.000000 -0.003943
# 5 -0.002700 -0.002182 0.004200 0.000000 0.023138 0.000000
# 6 0.000000 0.000000 0.000000 -0.003943 0.000000 0.021488
#
#
# Mechanical properties :
#
#
# Convention : Reuss Voigt Hill
#
# Bulk Modulus (GPa) = 74.14641 80.20653 77.17647
# Shear Modulus (GPa) = 36.16686 41.08303 38.62495
#
# Velocity S-wave (km/s) = 4.28861 4.57080 4.43195
# Velocity P-wave (km/s) = 7.88853 8.28517 8.08928
#
# Compressibility (1/GPa) = 0.01348683
#
# Stress axis : x y z
#
# Youngs Moduli (GPa) = 97.70846 66.16914 77.22573
#
# Poissons Ratio (x) = 0.42713 0.10714
# Poissons Ratio (y) = 0.63071 0.35233
# Poissons Ratio (z) = 0.13556 0.30189
#
# Static dielectric constant tensor:
#      x y z
#    x 1.694300 0.000000 0.023090 
#    y 0.000000 1.717210 0.000000 
#    z 0.023090 0.000000 1.778330 
# 
# From -- ./inp_files/267733.got.cif
#   From: 2010.05.17/outbox.ucp.g08.bks.cvg/sg15_134_cif.got.tgz:267733.got - 2010.06.11 12:40:34.
