data_PCOD9309094
_publ_section_title
;
Structure prediction by ZEFSAII (Michael W. Deem and Ramdas Pophale) SiO2 
 PCOD9309094
Probable space group: C 2/C
;
_chemical_formula_sum "Si O2"
_cell_formula_units_Z 30
_cell_length_a 21.000000
_cell_length_b 9.000000
_cell_length_c 24.000000
_cell_angle_alpha 90.000000
_cell_angle_beta 40.000000
_cell_angle_gamma 90.000000
_cell_volume 2915.684598
_symmetry_space_group_name_H-M "C 2/C"
_symmetry_group_IT_number 15
_symmetry_cell_setting 'monoclinic'
loop_
_space_group_symop_operation_xyz
x,y,z
-x,y,1/2-z
-x,-y,-z
x,-y,1/2+z
1/2+x,1/2+y,z
1/2-x,1/2+y,1/2-z
1/2-x,1/2-y,-z
1/2+x,1/2-y,1/2+z
loop_
_atom_site_type_symbol
_atom_site_label
_atom_site_fract_x
_atom_site_fract_y
_atom_site_fract_z
Si Si1 0.654923 0.259920 0.103644
Si Si2 0.750000 0.750000 0.000000
Si Si3 0.829579 0.083814 0.227184
Si Si4 0.976629 0.056677 0.953695
Si Si5 0.460096 0.873715 0.918917
Si Si6 0.841436 0.570970 0.730259
Si Si7 0.741646 0.011388 0.595595
Si Si8 0.249860 0.521568 0.405052
O O1 0.566558 0.202616 0.123486
O O2 0.662554 0.423380 0.124440
O O3 0.683346 0.145316 0.132723
O O4 0.750000 0.250000 0.000000
O O5 0.720302 0.908130 0.051228
O O6 0.758939 0.674021 0.055383
O O7 0.843728 0.259601 0.207606
O O8 0.784673 0.048284 0.318466
O O9 0.747158 0.018560 0.240461
O O10 0.938215 0.012239 0.143320
O O11 0.986422 0.234186 0.940628
O O12 0.861504 0.012900 0.017827
O O13 0.000000 0.000000 0.000000
O O14 0.552550 0.987269 0.849730
O O15 0.358567 0.944288 0.013080
O O16 0.806022 0.584239 0.818066
#
# Coordination Sequence:
#
# PCOD9309094 Si02
#       8
#     8   4   8   8   8   8   8   8
#     4  10  20  44  73 101 135 190 231 291 353 434
#     4  12  22  44  74 104 146 192 230 300 366 424
#     4  12  29  47  72 106 147 191 247 306 368 437
#     4  12  26  46  75 104 141 195 239 301 363 434
#     4  11  25  47  75 108 141 192 243 292 375 438
#     4  12  29  47  70 109 145 192 245 307 364 439
#     4  12  24  47  73  99 153 184 241 300 366 428
#     4  11  24  47  74 105 148 190 243 298 365 444
#
# _framework density 10.289179000000001
#
# number of rings (size 3 to 8) (size 9 to 14) (size 15 to 20)
#    0.000    0.533    8.000    0.800    7.467    1.067 
#    0.000    3.333    0.000    0.000    0.000    0.000 
#    0.000    0.000    0.000    0.000    0.000    0.000 
#
# Total GULP energy -167037.517574 kJ/mol
# GULP energy per Si atom -5567.917252 kJ/mol
# Density = 1.026576 g / cm^3
# Si number density = 10.289179 Si / 1000 Ang^3
#
#
#
# Elastic Constant Matrix: (Units=GPa)
#
#
# Indices 1 2 3 4 5 6 
#
# 1 74.7436 20.8433 33.5018 0.0000 2.6711 0.0001
# 2 20.8433 118.7455 36.5556 -0.0001 -13.7504 0.0005
# 3 33.5018 36.5556 129.8663 0.0000 0.0348 0.0000
# 4 0.0000 -0.0001 0.0000 34.2273 0.0000 4.2394
# 5 2.6711 -13.7504 0.0348 0.0000 36.8777 0.0000
# 6 0.0001 0.0005 0.0000 4.2394 0.0000 37.1409
#
#
#
# Elastic Compliance Matrix: (Units=1/GPa)
#
#
# Indices 1 2 3 4 5 6 
#
# 1 0.015523 -0.001864 -0.003479 0.000000 -0.001816 0.000000
# 2 -0.001864 0.009902 -0.002308 0.000000 0.003829 0.000000
# 3 -0.003479 -0.002308 0.009248 0.000000 -0.000617 0.000000
# 4 0.000000 0.000000 0.000000 0.029635 0.000000 -0.003383
# 5 -0.001816 0.003829 -0.000617 0.000000 0.028677 0.000000
# 6 0.000000 0.000000 0.000000 -0.003383 0.000000 0.027311
#
#
# Mechanical properties :
#
#
# Convention : Reuss Voigt Hill
#
# Bulk Modulus (GPa) = 51.62264 56.12855 53.87559
# Shear Modulus (GPa) = 35.19766 37.14615 36.17190
#
# Velocity S-wave (km/s) = 4.14021 4.25326 4.19712
# Velocity P-wave (km/s) = 6.92788 7.17322 7.05162
#
# Compressibility (1/GPa) = 0.01937135
#
# Stress axis : x y z
#
# Youngs Moduli (GPa) = 64.41919 100.98595 108.13703
#
# Poissons Ratio (x) = 0.18823 0.37625
# Poissons Ratio (y) = 0.12008 0.24953
# Poissons Ratio (z) = 0.22414 0.23303
#
# Static dielectric constant tensor:
#      x y z
#    x 1.768400 0.000000 0.027210 
#    y 0.000000 1.817800 0.000000 
#    z 0.027210 0.000000 1.716700 
# 
# From -- ./inp_files/279663.got.cif
#   From: 2010.05.17/outbox.ucp.g08.bks.cvg/sg15_140_cif.got.tgz:279663.got - 2010.06.11 12:40:34.
