data_PCOD9309875
_publ_section_title
;
Structure prediction by ZEFSAII (Michael W. Deem and Ramdas Pophale) SiO2 
 PCOD9309875
Probable space group: C 2/C
;
_chemical_formula_sum "Si O2"
_cell_formula_units_Z 28
_cell_length_a 27.000000
_cell_length_b 9.000000
_cell_length_c 12.000000
_cell_angle_alpha 90.000000
_cell_angle_beta 70.000000
_cell_angle_gamma 90.000000
_cell_volume 2740.143682
_symmetry_space_group_name_H-M "C 2/C"
_symmetry_group_IT_number 15
_symmetry_cell_setting 'monoclinic'
loop_
_space_group_symop_operation_xyz
x,y,z
-x,y,1/2-z
-x,-y,-z
x,-y,1/2+z
1/2+x,1/2+y,z
1/2-x,1/2+y,1/2-z
1/2-x,1/2-y,-z
1/2+x,1/2-y,1/2+z
loop_
_atom_site_type_symbol
_atom_site_label
_atom_site_fract_x
_atom_site_fract_y
_atom_site_fract_z
Si Si1 0.551512 0.416601 0.404291
Si Si2 0.757250 0.929001 0.127721
Si Si3 0.195289 0.247797 0.354768
Si Si4 0.364862 0.271992 0.992371
Si Si5 0.842581 0.530050 0.440586
Si Si6 0.410573 0.261691 0.709324
Si Si7 0.947815 0.424472 0.713925
O O1 0.500000 0.500000 0.500000
O O2 0.597587 0.370680 0.457001
O O3 0.568598 0.565839 0.321402
O O4 0.545165 0.245112 0.352056
O O5 0.737385 0.840250 0.250804
O O6 0.806194 0.840945 0.034716
O O7 0.704966 0.956877 0.093955
O O8 0.781196 0.086335 0.144062
O O9 0.182143 0.328833 0.479949
O O10 0.140389 0.245085 0.330185
O O11 0.359181 0.094306 0.021138
O O12 0.392060 0.261358 0.851208
O O13 0.893006 0.578397 0.327071
O O14 0.442143 0.099495 0.665854
O O15 0.000000 0.434971 0.750000
#
# Coordination Sequence:
#
# PCOD9309875 Si02
#       7
#     8   8   8   8   8   8   8
#     4  12  30  47  78 109 144 190 248 309 366 439
#     4  12  25  42  71 105 142 192 236 303 353 444
#     4  12  25  44  69 103 146 190 241 294 370 427
#     4  11  25  47  71 104 143 189 240 304 362 434
#     4  11  26  45  71 103 147 189 243 299 367 436
#     4  11  27  50  73 105 149 193 245 300 370 435
#     4  11  28  49  76 106 145 191 245 305 365 441
#
# _framework density 10.218442
#
# number of rings (size 3 to 8) (size 9 to 14) (size 15 to 20)
#    0.000    0.571    4.286    2.571   14.000    0.571 
#    0.000    0.000    0.000    0.000    0.000    0.000 
#    0.000    0.000    0.000    0.000    0.000    0.000 
#
# Total GULP energy -155888.781581 kJ/mol
# GULP energy per Si atom -5567.456485 kJ/mol
# Density = 1.019518 g / cm^3
# Si number density = 10.218442 Si / 1000 Ang^3
#
#
#
# Elastic Constant Matrix: (Units=GPa)
#
#
# Indices 1 2 3 4 5 6 
#
# 1 126.8901 45.0027 23.2120 0.0000 -8.7342 0.0000
# 2 45.0027 197.6810 41.1800 0.0000 -9.2145 0.0000
# 3 23.2120 41.1800 54.4993 0.0000 -12.0102 0.0000
# 4 0.0000 0.0000 0.0000 48.2135 0.0000 -0.1348
# 5 -8.7342 -9.2145 -12.0102 0.0000 26.2414 0.0000
# 6 0.0000 0.0000 0.0000 -0.1348 0.0000 50.5750
#
#
#
# Elastic Compliance Matrix: (Units=1/GPa)
#
#
# Indices 1 2 3 4 5 6 
#
# 1 0.008934 -0.001472 -0.002393 0.000000 0.001362 0.000000
# 2 -0.001472 0.006246 -0.004134 0.000000 -0.000189 0.000000
# 3 -0.002393 -0.004134 0.024464 0.000000 0.008949 0.000000
# 4 0.000000 0.000000 0.000000 0.020741 0.000000 0.000055
# 5 0.001362 -0.000189 0.008949 0.000000 0.042590 0.000000
# 6 0.000000 0.000000 0.000000 0.000055 0.000000 0.019773
#
#
# Mechanical properties :
#
#
# Convention : Reuss Voigt Hill
#
# Bulk Modulus (GPa) = 42.29045 66.42888 54.35967
# Shear Modulus (GPa) = 34.09958 42.98435 38.54197
#
# Velocity S-wave (km/s) = 4.08920 4.59112 4.34741
# Velocity P-wave (km/s) = 6.55999 7.78970 7.20115
#
# Compressibility (1/GPa) = 0.02364600
#
# Stress axis : x y z
#
# Youngs Moduli (GPa) = 111.92754 160.09724 40.87629
#
# Poissons Ratio (x) = 0.23566 0.09782
# Poissons Ratio (y) = 0.16475 0.16900
# Poissons Ratio (z) = 0.26784 0.66190
#
# Static dielectric constant tensor:
#      x y z
#    x 1.726300 0.000000 0.004760 
#    y 0.000000 1.800900 0.000000 
#    z 0.004760 0.000000 1.762970 
# 
# From -- ./inp_files/121891.got.cif
#   From: 2010.05.17/outbox.ucp.g08.bks.cvg/sg15_61_cif.got.tgz:121891.got - 2010.06.11 12:40:34.
