data_PCOD9309678
_publ_section_title
;
Structure prediction by ZEFSAII (Michael W. Deem and Ramdas Pophale) SiO2 
 PCOD9309678
Probable space group: C 2/C
;
_chemical_formula_sum "Si O2"
_cell_formula_units_Z 30
_cell_length_a 12.000000
_cell_length_b 21.000000
_cell_length_c 24.000000
_cell_angle_alpha 90.000000
_cell_angle_beta 150.000000
_cell_angle_gamma 90.000000
_cell_volume 3024.000000
_symmetry_space_group_name_H-M "C 2/C"
_symmetry_group_IT_number 15
_symmetry_cell_setting 'monoclinic'
loop_
_space_group_symop_operation_xyz
x,y,z
-x,y,1/2-z
-x,-y,-z
x,-y,1/2+z
1/2+x,1/2+y,z
1/2-x,1/2+y,1/2-z
1/2-x,1/2-y,-z
1/2+x,1/2-y,1/2+z
loop_
_atom_site_type_symbol
_atom_site_label
_atom_site_fract_x
_atom_site_fract_y
_atom_site_fract_z
Si Si1 0.622416 0.898959 0.134304
Si Si2 0.500000 0.474852 0.250000
Si Si3 0.173391 0.397188 0.277970
Si Si4 0.269647 0.841931 0.623604
Si Si5 0.242976 0.793443 0.384708
Si Si6 0.741000 0.494460 0.954048
Si Si7 0.676325 0.365609 0.465336
Si Si8 0.113067 0.026812 0.105073
O O1 0.582062 0.875888 0.178896
O O2 0.607544 0.845727 0.081371
O O3 0.867982 0.929169 0.235002
O O4 0.466316 0.958295 0.058450
O O5 0.341667 0.516140 0.143931
O O6 0.429316 0.373097 0.386078
O O7 0.203976 0.474359 0.296857
O O8 0.000000 0.377138 0.250000
O O9 0.500000 0.824873 0.750000
O O10 0.141734 0.775206 0.570500
O O11 0.322556 0.856671 0.582772
O O12 0.186062 0.903304 0.619559
O O13 0.197285 0.811173 0.428869
O O14 0.000000 0.798710 0.250000
O O15 0.754463 0.569387 0.970524
O O16 0.564636 0.470042 0.922691
O O17 0.000000 0.000000 0.000000
#
# Coordination Sequence:
#
# PCOD9309678 Si02
#       8
#     8   4   8   8   8   8   8   8
#     4  12  21  38  62  90 121 160 204 246 305 362
#     4  12  20  40  56  92 124 152 206 252 304 362
#     4  11  21  34  64  89 120 155 198 254 305 360
#     4  11  25  38  61  91 121 160 199 253 305 353
#     4  11  21  42  62  87 121 159 207 247 294 367
#     4  11  23  34  63  90 120 158 196 258 306 358
#     4  11  21  40  61  92 122 154 204 257 299 355
#     4  11  20  39  56  89 126 147 195 249 304 353
#
# _framework density 9.9206350000000008
#
# number of rings (size 3 to 8) (size 9 to 14) (size 15 to 20)
#    0.000    0.800    8.667    2.000    1.867    0.000 
#    0.000    0.667    0.000    0.000    0.000    0.000 
#    0.000    0.000    0.000    0.000    0.000    0.000 
#
# Total GULP energy -167038.128295 kJ/mol
# GULP energy per Si atom -5567.937610 kJ/mol
# Density = 0.989806 g / cm^3
# Si number density = 9.920635 Si / 1000 Ang^3
#
#
#
# Elastic Constant Matrix: (Units=GPa)
#
#
# Indices 1 2 3 4 5 6 
#
# 1 120.9416 21.6740 18.9972 0.0013 -10.1754 -0.0007
# 2 21.6740 30.0519 2.2354 0.0019 5.9002 -0.0028
# 3 18.9972 2.2354 32.7861 0.0059 -18.3055 0.0012
# 4 0.0013 0.0019 0.0059 10.4497 0.0017 -10.4490
# 5 -10.1754 5.9002 -18.3055 0.0017 27.2581 0.0000
# 6 -0.0007 -0.0028 0.0012 -10.4490 0.0000 35.9000
#
#
#
# Elastic Compliance Matrix: (Units=1/GPa)
#
#
# Indices 1 2 3 4 5 6 
#
# 1 0.010553 -0.007924 -0.003868 0.000002 0.003057 0.000000
# 2 -0.007924 0.043124 -0.008339 0.000006 -0.017892 0.000005
# 3 -0.003868 -0.008339 0.053615 -0.000052 0.036367 -0.000018
# 4 0.000002 0.000006 -0.000052 0.134982 -0.000044 0.039287
# 5 0.003057 -0.017892 0.036367 -0.000044 0.066124 -0.000015
# 6 0.000000 0.000005 -0.000018 0.039287 -0.000015 0.039290
#
#
# Mechanical properties :
#
#
# Convention : Reuss Voigt Hill
#
# Bulk Modulus (GPa) = 14.91827 29.95475 22.43651
# Shear Modulus (GPa) = 12.18645 24.11308 18.14977
#
# Velocity S-wave (km/s) = 2.48099 3.48990 3.02776
# Velocity P-wave (km/s) = 3.96764 5.60082 4.85342
#
# Compressibility (1/GPa) = 0.06703188
#
# Stress axis : x y z
#
# Youngs Moduli (GPa) = 94.75799 23.18920 18.65135
#
# Poissons Ratio (x) = 0.18374 0.07214
# Poissons Ratio (y) = 0.75083 0.15553
# Poissons Ratio (z) = 0.36649 0.19337
#
# Static dielectric constant tensor:
#      x y z
#    x 1.701050 0.000010 0.006100 
#    y 0.000010 1.870200 0.000010 
#    z 0.006100 0.000010 1.754290 
# 
# From -- ./inp_files/146714.got.cif
#   From: 2010.05.17/outbox.ucp.g08.bks.cvg/sg15_74_cif.got.tgz:146714.got - 2010.06.11 12:40:34.
