data_PCOD9309343
_publ_section_title
;
Structure prediction by ZEFSAII (Michael W. Deem and Ramdas Pophale) SiO2 
 PCOD9309343
Probable space group: C 2/C
;
_chemical_formula_sum "Si O2"
_cell_formula_units_Z 30
_cell_length_a 15.000000
_cell_length_b 21.000000
_cell_length_c 21.000000
_cell_angle_alpha 90.000000
_cell_angle_beta 150.000000
_cell_angle_gamma 90.000000
_cell_volume 3307.500000
_symmetry_space_group_name_H-M "C 2/C"
_symmetry_group_IT_number 15
_symmetry_cell_setting 'monoclinic'
loop_
_space_group_symop_operation_xyz
x,y,z
-x,y,1/2-z
-x,-y,-z
x,-y,1/2+z
1/2+x,1/2+y,z
1/2-x,1/2+y,1/2-z
1/2-x,1/2-y,-z
1/2+x,1/2-y,1/2+z
loop_
_atom_site_type_symbol
_atom_site_label
_atom_site_fract_x
_atom_site_fract_y
_atom_site_fract_z
Si Si1 0.545845 0.248942 0.401679
Si Si2 0.292364 0.232927 0.601310
Si Si3 0.004195 0.873883 0.932573
Si Si4 0.000000 0.685156 0.250000
Si Si5 0.182444 0.669427 0.143350
Si Si6 0.919401 0.005552 0.107250
Si Si7 0.192019 0.527587 0.093406
Si Si8 0.627026 0.619463 0.005629
O O1 0.750000 0.250000 0.500000
O O2 0.442216 0.228849 0.273760
O O3 0.482890 0.198652 0.417328
O O4 0.517139 0.319588 0.410848
O O5 0.500000 0.224287 0.750000
O O6 0.250000 0.250000 0.500000
O O7 0.174067 0.171468 0.542817
O O8 0.224096 0.285507 0.609338
O O9 0.067255 0.935014 0.932096
O O10 0.848611 0.838174 0.795536
O O11 0.930188 0.891406 0.956670
O O12 0.167580 0.641514 0.369468
O O13 0.168733 0.600349 0.102175
O O14 0.761161 0.018423 0.062172
O O15 0.123447 0.001743 0.260549
O O16 0.889653 0.941244 0.049639
O O17 0.000000 0.500000 0.000000
#
# Coordination Sequence:
#
# PCOD9309343 Si02
#       8
#     8   8   8   4   8   8   8   8
#     4  10  22  38  62  95 128 168 217 266 325 398
#     4  12  24  41  68  99 131 175 225 284 336 401
#     4  11  22  43  65  93 132 176 219 274 343 405
#     4  10  22  38  62  92 128 174 210 264 336 390
#     4  11  22  43  70  93 135 176 225 270 344 401
#     4  10  24  44  65  95 132 172 220 279 336 401
#     4  10  24  44  67  93 126 178 225 272 334 405
#     4  11  22  40  64  94 132 169 218 269 335 397
#
# _framework density 9.0702949999999998
#
# number of rings (size 3 to 8) (size 9 to 14) (size 15 to 20)
#    0.000    1.333    4.000    1.200    5.600    1.067 
#   10.800    0.000    0.000    0.000    0.000    0.000 
#    0.000    0.000    0.000    0.000    0.000    0.000 
#
# Total GULP energy -167041.420416 kJ/mol
# GULP energy per Si atom -5568.047347 kJ/mol
# Density = 0.904965 g / cm^3
# Si number density = 9.070295 Si / 1000 Ang^3
#
#
#
# Elastic Constant Matrix: (Units=GPa)
#
#
# Indices 1 2 3 4 5 6 
#
# 1 187.4112 72.5072 59.8039 0.0003 -6.2338 0.0002
# 2 72.5072 112.8004 72.7870 -0.0057 -9.1030 0.0000
# 3 59.8039 72.7870 87.4381 -0.0090 3.7672 -0.0001
# 4 0.0003 -0.0057 -0.0090 27.7885 -0.0010 -0.4283
# 5 -6.2338 -9.1030 3.7672 -0.0010 39.0007 0.0010
# 6 0.0002 0.0000 -0.0001 -0.4283 0.0010 29.3546
#
#
#
# Elastic Compliance Matrix: (Units=1/GPa)
#
#
# Indices 1 2 3 4 5 6 
#
# 1 0.007338 -0.003027 -0.002529 -0.000001 0.000711 0.000000
# 2 -0.003027 0.021930 -0.016453 -0.000001 0.006224 0.000000
# 3 -0.002529 -0.016453 0.027159 0.000005 -0.006868 0.000000
# 4 -0.000001 -0.000001 0.000005 0.035994 0.000000 0.000525
# 5 0.000711 0.006224 -0.006868 0.000000 0.027870 -0.000001
# 6 0.000000 0.000000 0.000000 0.000525 -0.000001 0.034074
#
#
# Mechanical properties :
#
#
# Convention : Reuss Voigt Hill
#
# Bulk Modulus (GPa) = 80.59831 88.64954 84.62392
# Shear Modulus (GPa) = 24.68881 31.39886 28.04383
#
# Velocity S-wave (km/s) = 3.69314 4.16488 3.93608
# Velocity P-wave (km/s) = 7.91909 8.49131 8.21019
#
# Compressibility (1/GPa) = 0.01240721
#
# Stress axis : x y z
#
# Youngs Moduli (GPa) = 136.28010 45.59923 36.82026
#
# Poissons Ratio (x) = 0.13804 0.09313
# Poissons Ratio (y) = 0.41254 0.60581
# Poissons Ratio (z) = 0.34471 0.75026
#
# Static dielectric constant tensor:
#      x y z
#    x 1.629930 0.000000 -0.021690 
#    y 0.000000 1.649240 0.000000 
#    z -0.021690 0.000000 1.663310 
# 
# From -- ./inp_files/245457.got.cif
#   From: 2010.05.17/outbox.ucp.g08.bks.cvg/sg15_123_cif.got.tgz:245457.got - 2010.06.11 12:40:34.
