data_PCOD9309204
_publ_section_title
;
Structure prediction by ZEFSAII (Michael W. Deem and Ramdas Pophale) SiO2 
 PCOD9309204
Probable space group: C 2/C
;
_chemical_formula_sum "Si O2"
_cell_formula_units_Z 32
_cell_length_a 18.000000
_cell_length_b 12.000000
_cell_length_c 30.000000
_cell_angle_alpha 90.000000
_cell_angle_beta 150.000000
_cell_angle_gamma 90.000000
_cell_volume 3240.000000
_symmetry_space_group_name_H-M "C 2/C"
_symmetry_group_IT_number 15
_symmetry_cell_setting 'monoclinic'
loop_
_space_group_symop_operation_xyz
x,y,z
-x,y,1/2-z
-x,-y,-z
x,-y,1/2+z
1/2+x,1/2+y,z
1/2-x,1/2+y,1/2-z
1/2-x,1/2-y,-z
1/2+x,1/2-y,1/2+z
loop_
_atom_site_type_symbol
_atom_site_label
_atom_site_fract_x
_atom_site_fract_y
_atom_site_fract_z
Si Si1 0.668871 0.753670 0.161572
Si Si2 0.133248 0.354622 0.285198
Si Si3 0.064353 0.263040 0.389197
Si Si4 0.675433 0.890408 0.836031
Si Si5 0.172433 0.845806 0.489832
Si Si6 0.474500 0.014653 0.934682
Si Si7 0.366458 0.771470 0.852848
Si Si8 0.724740 0.565828 0.462719
O O1 0.510089 0.723425 0.102731
O O2 0.733813 0.683154 0.153539
O O3 0.636121 0.881486 0.130887
O O4 0.780817 0.739671 0.261224
O O5 0.180836 0.479609 0.323382
O O6 0.272912 0.274094 0.347107
O O7 0.000000 0.322144 0.250000
O O8 0.052945 0.344648 0.195660
O O9 0.202973 0.346979 0.464630
O O10 0.099050 0.150662 0.379269
O O11 0.500000 0.860544 0.750000
O O12 0.740026 0.874005 0.919200
O O13 0.250000 0.750000 0.500000
O O14 0.013822 0.801228 0.423295
O O15 0.165420 0.956072 0.455538
O O16 0.408958 0.900128 0.881578
O O17 0.636215 0.037427 0.996514
O O18 0.500000 0.000000 0.000000
#
# Coordination Sequence:
#
# PCOD9309204 Si02
#       8
#     8   8   8   8   8   8   8   8
#     4  10  24  42  68  93 131 179 229 271 345 403
#     4  10  23  41  65  92 130 168 225 279 334 383
#     4   9  21  41  64  95 123 178 219 278 326 403
#     4  11  24  43  68  96 134 174 224 281 336 409
#     4  12  24  42  67 102 136 178 220 278 345 410
#     4  11  24  44  67  98 138 180 221 284 344 404
#     4  11  25  41  69  96 140 176 226 280 341 409
#     4  10  21  39  67  90 135 171 223 267 343 394
#
# _framework density 9.8765429999999999
#
# number of rings (size 3 to 8) (size 9 to 14) (size 15 to 20)
#    0.000    1.500    1.250    3.000    8.750    1.500 
#    4.500    0.625    0.000    0.000    0.000    0.000 
#    0.000    0.000    0.000    0.000    0.000    0.000 
#
# Total GULP energy -178347.999186 kJ/mol
# GULP energy per Si atom -5573.374975 kJ/mol
# Density = 0.985406 g / cm^3
# Si number density = 9.876543 Si / 1000 Ang^3
#
#
#
# Elastic Constant Matrix: (Units=GPa)
#
#
# Indices 1 2 3 4 5 6 
#
# 1 137.2957 69.5991 25.7861 0.0000 12.6712 0.0000
# 2 69.5991 167.9771 42.8728 0.0000 1.7221 0.0000
# 3 25.7861 42.8728 61.9503 0.0001 -5.3004 0.0000
# 4 0.0000 0.0000 0.0001 29.6266 0.0000 2.3695
# 5 12.6712 1.7221 -5.3004 0.0000 42.1141 0.0000
# 6 0.0000 0.0000 0.0000 2.3695 0.0000 40.5650
#
#
#
# Elastic Compliance Matrix: (Units=1/GPa)
#
#
# Indices 1 2 3 4 5 6 
#
# 1 0.009689 -0.003509 -0.001862 0.000000 -0.003006 0.000000
# 2 -0.003509 0.008537 -0.004435 0.000000 0.000148 0.000000
# 3 -0.001862 -0.004435 0.020268 0.000000 0.003293 0.000000
# 4 0.000000 0.000000 0.000000 0.033912 0.000000 -0.001981
# 5 -0.003006 0.000148 0.003293 0.000000 0.025058 0.000000
# 6 0.000000 0.000000 0.000000 -0.001981 0.000000 0.024768
#
#
# Mechanical properties :
#
#
# Convention : Reuss Voigt Hill
#
# Bulk Modulus (GPa) = 52.95769 71.52655 62.24212
# Shear Modulus (GPa) = 33.75223 37.72549 35.73886
#
# Velocity S-wave (km/s) = 4.13813 4.37493 4.25818
# Velocity P-wave (km/s) = 7.04984 7.86186 7.46690
#
# Compressibility (1/GPa) = 0.01888300
#
# Stress axis : x y z
#
# Youngs Moduli (GPa) = 103.20649 117.13188 49.33838
#
# Poissons Ratio (x) = 0.41096 0.09188
# Poissons Ratio (y) = 0.36210 0.21883
# Poissons Ratio (z) = 0.19219 0.51951
#
# Static dielectric constant tensor:
#      x y z
#    x 1.746190 0.000000 0.015950 
#    y 0.000000 1.743790 0.000000 
#    z 0.015950 0.000000 1.904200 
# 
# From -- ./inp_files/316225.got.cif
#   From: 2010.05.17/outbox.ucp.g08.bks.cvg/sg15_159_cif.got.tgz:316225.got - 2010.06.11 12:40:34.
