data_PCOD9309647
_publ_section_title
;
Structure prediction by ZEFSAII (Michael W. Deem and Ramdas Pophale) SiO2 
 PCOD9309647
Probable space group: C 2/C
;
_chemical_formula_sum "Si O2"
_cell_formula_units_Z 24
_cell_length_a 9.000000
_cell_length_b 24.000000
_cell_length_c 12.000000
_cell_angle_alpha 90.000000
_cell_angle_beta 70.000000
_cell_angle_gamma 90.000000
_cell_volume 2435.683273
_symmetry_space_group_name_H-M "C 2/C"
_symmetry_group_IT_number 15
_symmetry_cell_setting 'monoclinic'
loop_
_space_group_symop_operation_xyz
x,y,z
-x,y,1/2-z
-x,-y,-z
x,-y,1/2+z
1/2+x,1/2+y,z
1/2-x,1/2+y,1/2-z
1/2-x,1/2-y,-z
1/2+x,1/2-y,1/2+z
loop_
_atom_site_type_symbol
_atom_site_label
_atom_site_fract_x
_atom_site_fract_y
_atom_site_fract_z
Si Si1 0.288277 0.917321 0.560106
Si Si2 0.842509 0.036470 0.854557
Si Si3 0.092787 0.378626 0.342328
Si Si4 0.329810 0.668493 0.235002
Si Si5 0.502809 0.373247 0.480633
Si Si6 0.664006 0.713454 0.771321
O O1 0.455844 0.896429 0.465655
O O2 0.258271 0.883125 0.682276
O O3 0.140557 0.901013 0.518942
O O4 0.262007 0.983732 0.580142
O O5 0.726166 0.073313 0.807819
O O6 0.000000 0.015646 0.750000
O O7 0.913645 0.080275 0.927637
O O8 0.199008 0.322341 0.328010
O O9 0.000000 0.373431 0.250000
O O10 0.500000 0.674637 0.250000
O O11 0.236989 0.726181 0.278058
O O12 0.372866 0.654525 0.095872
O O13 0.600266 0.326453 0.386872
O O14 0.500000 0.723039 0.750000
#
# Coordination Sequence:
#
# PCOD9309647 Si02
#       6
#     8   8   8   8   8   8
#     4  11  25  42  66 101 137 173 221 279 330 390
#     4  12  22  44  69  99 136 174 228 269 331 402
#     4  12  23  42  66  99 126 178 225 272 333 393
#     4  10  26  42  65 101 134 176 221 275 335 389
#     4  11  22  44  69  98 130 181 221 265 344 388
#     4  12  24  44  68  95 129 177 227 276 330 401
#
# _framework density 9.8534980000000001
#
# number of rings (size 3 to 8) (size 9 to 14) (size 15 to 20)
#    0.000    0.667    5.000    3.000    2.333    4.667 
#    0.000    0.833    0.000    0.000    0.000    0.000 
#    0.000    0.000    0.000    0.000    0.000    0.000 
#
# Total GULP energy -133972.579178 kJ/mol
# GULP energy per Si atom -5582.190799 kJ/mol
# Density = 0.983107 g / cm^3
# Si number density = 9.853498 Si / 1000 Ang^3
#
#
#
# Elastic Constant Matrix: (Units=GPa)
#
#
# Indices 1 2 3 4 5 6 
#
# 1 94.2458 22.7762 18.2739 0.0000 -21.9483 0.0000
# 2 22.7762 126.7227 38.5592 0.0000 -7.0435 0.0000
# 3 18.2739 38.5592 96.1183 0.0000 -28.8378 0.0000
# 4 0.0000 0.0000 0.0000 19.7317 0.0000 -3.5276
# 5 -21.9483 -7.0435 -28.8378 0.0000 31.1433 0.0000
# 6 0.0000 0.0000 0.0000 -3.5276 0.0000 36.2235
#
#
#
# Elastic Compliance Matrix: (Units=1/GPa)
#
#
# Indices 1 2 3 4 5 6 
#
# 1 0.013240 -0.002251 0.001430 0.000000 0.010146 0.000000
# 2 -0.002251 0.009445 -0.004426 0.000000 -0.003548 0.000000
# 3 0.001430 -0.004426 0.016491 0.000000 0.015277 0.000000
# 4 0.000000 0.000000 0.000000 0.051578 0.000000 0.005023
# 5 0.010146 -0.003548 0.015277 0.000000 0.052603 0.000000
# 6 0.000000 0.000000 0.000000 0.005023 0.000000 0.028096
#
#
# Mechanical properties :
#
#
# Convention : Reuss Voigt Hill
#
# Bulk Modulus (GPa) = 34.86425 52.92282 43.89353
# Shear Modulus (GPa) = 26.10865 33.25153 29.68009
#
# Velocity S-wave (km/s) = 3.64379 4.11213 3.88502
# Velocity P-wave (km/s) = 5.95253 7.03273 6.51505
#
# Compressibility (1/GPa) = 0.02868268
#
# Stress axis : x y z
#
# Youngs Moduli (GPa) = 75.52830 105.87355 60.63957
#
# Poissons Ratio (x) = 0.23830 -0.08670
# Poissons Ratio (y) = 0.17000 0.26837
# Poissons Ratio (z) = -0.10799 0.46857
#
# Static dielectric constant tensor:
#      x y z
#    x 1.666570 0.000000 0.026620 
#    y 0.000000 1.693540 0.000000 
#    z 0.026620 0.000000 1.752110 
# 
# From -- ./inp_files/79109.got.cif
#   From: 2010.05.17/outbox.ucp.g08.bks.cvg/sg15_40_cif.got.tgz:79109.got - 2010.06.11 12:40:34.
