data_PCOD9309998
_publ_section_title
;
Structure prediction by ZEFSAII (Michael W. Deem and Ramdas Pophale) SiO2 
 PCOD9309998
Probable space group: P 2 2 2
;
_chemical_formula_sum "Si O2"
_cell_formula_units_Z 20
_cell_length_a 11.155561
_cell_length_b 15.058774
_cell_length_c 5.981863
_cell_angle_alpha 90.000000
_cell_angle_beta 90.000000
_cell_angle_gamma 90.000000
_cell_volume 1004.887614
_symmetry_space_group_name_H-M "P 2 2 2"
_symmetry_group_IT_number 16
_symmetry_cell_setting 'orthorhombic'
loop_
_space_group_symop_operation_xyz
x,y,z
-x,-y,z
x,-y,-z
-x,y,-z
loop_
_atom_site_type_symbol
_atom_site_label
_atom_site_fract_x
_atom_site_fract_y
_atom_site_fract_z
Si Si1 0.210964 0.704262 0.814261
Si Si2 0.000000 0.285071 0.500000
Si Si3 0.500000 0.500000 0.500000
Si Si4 0.371580 0.798654 0.442001
Si Si5 0.847011 0.845815 0.809262
Si Si6 0.000000 0.000000 0.000000
Si Si7 0.615236 0.625896 0.851093
O O1 0.099174 0.669823 0.663248
O O2 0.311592 0.744909 0.648340
O O3 0.171533 0.789387 0.963103
O O4 0.269502 0.632583 0.984886
O O5 0.921603 0.221781 0.343181
O O6 0.591723 0.557737 0.650510
O O7 0.500000 0.838421 0.500000
O O8 0.275144 0.862249 0.326746
O O9 0.392643 0.722722 0.257539
O O10 0.917514 0.935140 0.855335
O O11 0.500000 0.610122 0.000000
#
# Coordination Sequence:
#
# PCOD9309998 Si02
#       7
#     4   2   1   4   4   1   4
#     4  10  19  35  56  86 121 162 202 268 301 373
#     4  10  18  37  54  90 114 155 222 262 308 371
#     4  12  22  32  52  94 136 174 200 248 324 404
#     4  10  19  36  58  87 115 168 206 248 307 382
#     4  10  22  33  59  84 119 156 211 266 319 370
#     4  12  20  42  52  90 122 172 206 288 332 360
#     4  11  20  34  55  87 130 169 196 253 316 378
#
# _framework density 19.902723999999999
#
# number of rings (size 3 to 8) (size 9 to 14) (size 15 to 20)
#    0.000    1.600    5.000    0.300    0.000    0.400 
#    0.000    0.000    0.000    3.600    0.000    0.000 
#    0.000  934.400    0.000    0.000    0.000    0.400 
#
# Total GULP energy -111488.533763 kJ/mol
# GULP energy per Si atom -5574.426688 kJ/mol
# Density = 1.985742 g / cm^3
# Si number density = 19.902724 Si / 1000 Ang^3
#
#
#
# Elastic Constant Matrix: (Units=GPa)
#
#
# Indices 1 2 3 4 5 6 
#
# 1 153.7481 36.2653 60.3166 0.0000 0.0000 0.0000
# 2 36.2653 57.7713 28.6300 0.0000 0.0000 0.0000
# 3 60.3166 28.6300 102.6945 0.0000 0.0000 0.0000
# 4 0.0000 0.0000 0.0000 -7.9037 0.0000 0.0000
# 5 0.0000 0.0000 0.0000 0.0000 26.5677 0.0000
# 6 0.0000 0.0000 0.0000 0.0000 0.0000 -3.2615
#
#
#
# Elastic Compliance Matrix: (Units=1/GPa)
#
#
# Indices 1 2 3 4 5 6 
#
# 1 0.009031 -0.003528 -0.004321 0.000000 0.000000 0.000000
# 2 -0.003528 0.021463 -0.003911 0.000000 0.000000 0.000000
# 3 -0.004321 -0.003911 0.013366 0.000000 0.000000 0.000000
# 4 0.000000 0.000000 0.000000 -0.126523 0.000000 0.000000
# 5 0.000000 0.000000 0.000000 0.000000 0.037640 0.000000
# 6 0.000000 0.000000 0.000000 0.000000 0.000000 -0.306607
#
#
# Mechanical properties :
#
#
# Convention : Reuss Voigt Hill
#
# Bulk Modulus (GPa) = 49.16582 62.73753 55.95168
# Shear Modulus (GPa) = -15.56037 15.68062 0.06012
#
# Velocity S-wave (km/s) = -2.79914 2.80993 0.17400
# Velocity P-wave (km/s) = 3.78283 6.48985 5.31168
#
# Compressibility (1/GPa) = 0.02033933
#
# Stress axis : x y z
#
# Youngs Moduli (GPa) = 110.72389 46.59245 74.81699
#
# Poissons Ratio (x) = 0.16438 0.32328
# Poissons Ratio (y) = 0.39064 0.29264
# Poissons Ratio (z) = 0.47843 0.18224
#
# Static dielectric constant tensor:
#      x y z
#    x 1.782540 0.000000 0.000000 
#    y 0.000000 1.657350 0.000000 
#    z 0.000000 0.000000 2.939550 
# 
# From -- ./inp_files/1413.got.cif
#   From: 2010.05.17/outbox.cif.g08.bks.cpg/sg16_1_cif.got.tgz:1413.got - 2010.06.03 22:28:35.
