data_PCOD9309598
_publ_section_title
;
Structure prediction by ZEFSAII (Michael W. Deem and Ramdas Pophale) SiO2 
 PCOD9309598
Probable space group: C 2/C
;
_chemical_formula_sum "Si O2"
_cell_formula_units_Z 28
_cell_length_a 27.000000
_cell_length_b 18.000000
_cell_length_c 9.000000
_cell_angle_alpha 90.000000
_cell_angle_beta 40.000000
_cell_angle_gamma 90.000000
_cell_volume 2811.553005
_symmetry_space_group_name_H-M "C 2/C"
_symmetry_group_IT_number 15
_symmetry_cell_setting 'monoclinic'
loop_
_space_group_symop_operation_xyz
x,y,z
-x,y,1/2-z
-x,-y,-z
x,-y,1/2+z
1/2+x,1/2+y,z
1/2-x,1/2+y,1/2-z
1/2-x,1/2-y,-z
1/2+x,1/2-y,1/2+z
loop_
_atom_site_type_symbol
_atom_site_label
_atom_site_fract_x
_atom_site_fract_y
_atom_site_fract_z
Si Si1 0.346782 0.533137 0.608362
Si Si2 0.667207 0.045258 0.091780
Si Si3 0.328851 0.782105 0.888755
Si Si4 0.913406 0.417472 0.027628
Si Si5 0.665940 0.240145 0.768587
Si Si6 0.594255 0.600065 0.342962
Si Si7 0.448049 0.340728 0.015906
O O1 0.363011 0.561435 0.400453
O O2 0.391684 0.458160 0.555098
O O3 0.382886 0.600016 0.621351
O O4 0.257347 0.522983 0.862790
O O5 0.663555 0.129680 0.167667
O O6 0.611573 0.982889 0.296849
O O7 0.638267 0.059021 0.992446
O O8 0.403304 0.733501 0.668802
O O9 0.250000 0.750000 0.000000
O O10 0.323150 0.769752 0.079454
O O11 0.884065 0.335607 0.154018
O O12 0.000000 0.413823 0.750000
O O13 0.750000 0.250000 0.500000
O O14 0.625417 0.318039 0.816964
O O15 0.506499 0.618473 0.495591
O O16 0.500000 0.325439 0.750000
#
# Coordination Sequence:
#
# PCOD9309598 Si02
#       7
#     8   8   8   8   8   8   8
#     4  11  22  44  67 105 141 184 237 289 355 441
#     4  11  23  43  72  96 139 180 233 291 353 427
#     4  11  24  44  73 101 139 189 241 293 360 436
#     4  11  26  47  68 103 136 180 238 301 359 424
#     4  11  26  45  70 101 141 189 241 296 366 436
#     4  11  25  42  72 102 147 187 235 297 367 430
#     4  10  24  43  66 104 144 183 232 298 359 431
#
# _framework density 9.9589090000000002
#
# number of rings (size 3 to 8) (size 9 to 14) (size 15 to 20)
#    0.000    1.143    1.429    4.286    8.000    2.857 
#    0.000    0.000    0.000    0.000    0.000    0.000 
#    0.000    0.000    0.000    0.000    0.000    0.000 
#
# Total GULP energy -156251.718772 kJ/mol
# GULP energy per Si atom -5580.418528 kJ/mol
# Density = 0.993624 g / cm^3
# Si number density = 9.958909 Si / 1000 Ang^3
#
#
#
# Elastic Constant Matrix: (Units=GPa)
#
#
# Indices 1 2 3 4 5 6 
#
# 1 77.6420 27.3371 19.8092 0.0000 -2.8555 0.0000
# 2 27.3371 167.8461 48.7680 0.0000 15.4734 0.0000
# 3 19.8092 48.7680 124.3332 0.0000 -13.5813 0.0000
# 4 0.0000 0.0000 0.0000 45.4402 0.0000 -0.0338
# 5 -2.8555 15.4734 -13.5813 0.0000 30.0861 0.0000
# 6 0.0000 0.0000 0.0000 -0.0338 0.0000 39.8858
#
#
#
# Elastic Compliance Matrix: (Units=1/GPa)
#
#
# Indices 1 2 3 4 5 6 
#
# 1 0.013995 -0.002103 -0.001201 0.000000 0.001867 0.000000
# 2 -0.002103 0.007801 -0.003350 0.000000 -0.005724 0.000000
# 3 -0.001201 -0.003350 0.010228 0.000000 0.006226 0.000000
# 4 0.000000 0.000000 0.000000 0.022007 0.000000 0.000019
# 5 0.001867 -0.005724 0.006226 0.000000 0.039170 0.000000
# 6 0.000000 0.000000 0.000000 0.000019 0.000000 0.025072
#
#
# Mechanical properties :
#
#
# Convention : Reuss Voigt Hill
#
# Bulk Modulus (GPa) = 53.42697 62.40557 57.91627
# Shear Modulus (GPa) = 36.27916 41.34289 38.81102
#
# Velocity S-wave (km/s) = 4.27247 4.56090 4.41904
# Velocity P-wave (km/s) = 7.15685 7.68995 7.42818
#
# Compressibility (1/GPa) = 0.01871714
#
# Stress axis : x y z
#
# Youngs Moduli (GPa) = 71.45393 128.18183 97.76616
#
# Poissons Ratio (x) = 0.26951 0.11742
# Poissons Ratio (y) = 0.15024 0.32754
# Poissons Ratio (z) = 0.08582 0.42945
#
# Static dielectric constant tensor:
#      x y z
#    x 1.740060 0.000000 -0.006930 
#    y 0.000000 1.718700 0.000000 
#    z -0.006930 0.000000 1.729370 
# 
# From -- ./inp_files/67116.got.cif
#   From: 2010.05.17/outbox.ucp.g08.bks.cvg/sg15_34_cif.got.tgz:67116.got - 2010.06.11 12:40:34.
