data_PCOD9309378
_publ_section_title
;
Structure prediction by ZEFSAII (Michael W. Deem and Ramdas Pophale) SiO2 
 PCOD9309378
Probable space group: C 2/C
;
_chemical_formula_sum "Si O2"
_cell_formula_units_Z 24
_cell_length_a 9.000000
_cell_length_b 27.000000
_cell_length_c 15.000000
_cell_angle_alpha 90.000000
_cell_angle_beta 40.000000
_cell_angle_gamma 90.000000
_cell_volume 2342.960837
_symmetry_space_group_name_H-M "C 2/C"
_symmetry_group_IT_number 15
_symmetry_cell_setting 'monoclinic'
loop_
_space_group_symop_operation_xyz
x,y,z
-x,y,1/2-z
-x,-y,-z
x,-y,1/2+z
1/2+x,1/2+y,z
1/2-x,1/2+y,1/2-z
1/2-x,1/2-y,-z
1/2+x,1/2-y,1/2+z
loop_
_atom_site_type_symbol
_atom_site_label
_atom_site_fract_x
_atom_site_fract_y
_atom_site_fract_z
Si Si1 0.500000 0.634941 0.750000
Si Si2 0.983916 0.941061 0.993602
Si Si3 0.617021 0.372970 0.791109
Si Si4 0.176506 0.628621 0.050140
Si Si5 0.184043 0.699613 0.777008
Si Si6 0.000000 0.384142 0.250000
Si Si7 0.052554 0.789821 0.965264
O O1 0.711682 0.612993 0.596721
O O2 0.384827 0.668643 0.729820
O O3 0.735329 0.917133 0.138658
O O4 0.024871 0.925049 0.872651
O O5 0.195724 0.911823 0.945370
O O6 0.000000 0.000000 0.000000
O O7 0.500000 0.363898 0.750000
O O8 0.526458 0.331344 0.901391
O O9 0.898835 0.371518 0.667304
O O10 0.256465 0.682723 0.056508
O O11 0.011940 0.655613 0.825917
O O12 0.113610 0.740503 0.881612
O O13 0.317448 0.720963 0.628711
#
# Coordination Sequence:
#
# PCOD9309378 Si02
#       7
#     4   8   8   8   8   4   8
#     4  10  22  40  64  99 135 182 228 282 346 410
#     4  11  25  48  73  99 135 187 227 295 373 420
#     4  11  25  44  69 104 140 181 241 301 345 422
#     4  10  23  46  67  98 143 183 239 290 355 423
#     4  11  25  39  65 100 143 191 237 282 350 417
#     4  12  24  46  68 101 143 176 236 292 346 422
#     4  10  23  43  62 102 141 199 231 281 355 417
#
# _framework density 10.243449
#
# number of rings (size 3 to 8) (size 9 to 14) (size 15 to 20)
#    0.000    1.333    5.000    2.000   10.500    2.000 
#    1.500    0.833    0.000    0.000    0.000    0.000 
#    0.000    0.000    0.000    0.000    0.000    0.000 
#
# Total GULP energy -133661.772413 kJ/mol
# GULP energy per Si atom -5569.240517 kJ/mol
# Density = 1.022013 g / cm^3
# Si number density = 10.243449 Si / 1000 Ang^3
#
#
#
# Elastic Constant Matrix: (Units=GPa)
#
#
# Indices 1 2 3 4 5 6 
#
# 1 99.2666 8.8815 40.4162 0.0000 -16.9245 0.0000
# 2 8.8815 51.7319 13.7043 0.0000 -31.0731 0.0000
# 3 40.4162 13.7043 136.8736 0.0000 -9.5744 0.0000
# 4 0.0000 0.0000 0.0000 61.6602 0.0000 -5.6614
# 5 -16.9245 -31.0731 -9.5744 0.0000 36.1950 0.0000
# 6 0.0000 0.0000 0.0000 -5.6614 0.0000 20.2778
#
#
#
# Elastic Compliance Matrix: (Units=1/GPa)
#
#
# Indices 1 2 3 4 5 6 
#
# 1 0.012547 0.003595 -0.003503 0.000000 0.008027 0.000000
# 2 0.003595 0.041301 -0.002648 0.000000 0.036437 0.000000
# 3 -0.003503 -0.002648 0.008489 0.000000 -0.001666 0.000000
# 4 0.000000 0.000000 0.000000 0.016645 0.000000 0.004647
# 5 0.008027 0.036437 -0.001666 0.000000 0.062222 0.000000
# 6 0.000000 0.000000 0.000000 0.004647 0.000000 0.050612
#
#
# Mechanical properties :
#
#
# Convention : Reuss Voigt Hill
#
# Bulk Modulus (GPa) = 17.47500 45.98623 31.73061
# Shear Modulus (GPa) = 23.14785 38.61794 30.88290
#
# Velocity S-wave (km/s) = 3.36502 4.34638 3.88680
# Velocity P-wave (km/s) = 4.86274 6.90531 5.97200
#
# Compressibility (1/GPa) = 0.05722461
#
# Stress axis : x y z
#
# Youngs Moduli (GPa) = 79.69951 24.21262 117.79806
#
# Poissons Ratio (x) = -0.08705 0.41270
# Poissons Ratio (y) = -0.28654 0.31193
# Poissons Ratio (z) = 0.27922 0.06411
#
# Static dielectric constant tensor:
#      x y z
#    x 1.751880 0.000000 0.006580 
#    y 0.000000 1.738860 0.000000 
#    z 0.006580 0.000000 1.849700 
# 
# From -- ./inp_files/80985.got.cif
#   From: 2010.05.17/outbox.ucp.g08.bks.cvg/sg15_41_cif.got.tgz:80985.got - 2010.06.11 12:40:34.
