data_PCOD9309586
_publ_section_title
;
Structure prediction by ZEFSAII (Michael W. Deem and Ramdas Pophale) SiO2 
 PCOD9309586
Probable space group: C 2/C
;
_chemical_formula_sum "Si O2"
_cell_formula_units_Z 30
_cell_length_a 18.000000
_cell_length_b 18.000000
_cell_length_c 9.000000
_cell_angle_alpha 90.000000
_cell_angle_beta 90.000000
_cell_angle_gamma 90.000000
_cell_volume 2916.000000
_symmetry_space_group_name_H-M "C 2/C"
_symmetry_group_IT_number 15
_symmetry_cell_setting 'monoclinic'
loop_
_space_group_symop_operation_xyz
x,y,z
-x,y,1/2-z
-x,-y,-z
x,-y,1/2+z
1/2+x,1/2+y,z
1/2-x,1/2+y,1/2-z
1/2-x,1/2-y,-z
1/2+x,1/2-y,1/2+z
loop_
_atom_site_type_symbol
_atom_site_label
_atom_site_fract_x
_atom_site_fract_y
_atom_site_fract_z
Si Si1 0.576729 0.423930 0.165230
Si Si2 0.836304 0.991538 0.069807
Si Si3 0.368258 0.737302 0.878179
Si Si4 0.735127 0.400829 0.700776
Si Si5 0.699141 0.763762 0.293542
Si Si6 0.107357 0.450417 0.910667
Si Si7 0.588842 0.099649 0.737265
Si Si8 0.000000 0.655657 0.250000
O O1 0.500000 0.437344 0.250000
O O2 0.637649 0.443693 0.290283
O O3 0.586905 0.339294 0.118323
O O4 0.594779 0.471974 0.019290
O O5 0.786527 0.055932 0.146525
O O6 0.797648 0.942449 0.943702
O O7 0.288937 0.722088 0.793682
O O8 0.430480 0.795170 0.814481
O O9 0.335602 0.757477 0.040322
O O10 0.700123 0.318193 0.716743
O O11 0.822921 0.409728 0.670313
O O12 0.645586 0.829610 0.232615
O O13 0.104033 0.536670 0.862198
O O14 0.035724 0.401138 0.867689
O O15 0.108745 0.444216 0.086987
O O16 0.500000 0.119731 0.750000
#
# Coordination Sequence:
#
# PCOD9309586 Si02
#       8
#     8   8   8   8   8   8   8   4
#     4  11  22  42  66  98 133 181 231 282 348 411
#     4  10  24  41  69  98 137 179 232 287 342 419
#     4  11  24  42  69 100 137 185 226 289 349 420
#     4  11  23  45  68 105 138 182 231 285 351 417
#     4  11  26  45  69 101 144 180 230 287 358 412
#     4  12  27  44  75 102 141 184 237 292 349 424
#     4  12  28  48  72 107 143 184 234 294 359 421
#     4  12  24  46  70 102 140 182 244 288 354 420
#
# _framework density 10.288066000000001
#
# number of rings (size 3 to 8) (size 9 to 14) (size 15 to 20)
#    0.000    0.800    4.000    2.400    7.467    1.600 
#    2.400    0.667    0.000    0.000    0.000    0.000 
#    0.000    0.000    0.000    0.000    0.000    0.000 
#
# Total GULP energy -167395.409647 kJ/mol
# GULP energy per Si atom -5579.846988 kJ/mol
# Density = 1.026465 g / cm^3
# Si number density = 10.288066 Si / 1000 Ang^3
#
#
#
# Elastic Constant Matrix: (Units=GPa)
#
#
# Indices 1 2 3 4 5 6 
#
# 1 124.1871 40.1338 22.8745 0.0000 -21.7020 0.0000
# 2 40.1338 120.4022 24.8369 0.0000 10.6849 0.0000
# 3 22.8745 24.8369 82.4754 0.0000 -12.8220 0.0000
# 4 0.0000 0.0000 0.0000 17.3658 0.0000 -4.4101
# 5 -21.7020 10.6849 -12.8220 0.0000 35.3691 0.0000
# 6 0.0000 0.0000 0.0000 -4.4101 0.0000 37.5414
#
#
#
# Elastic Compliance Matrix: (Units=1/GPa)
#
#
# Indices 1 2 3 4 5 6 
#
# 1 0.010859 -0.004193 -0.000547 0.000000 0.007731 0.000000
# 2 -0.004193 0.011001 -0.003250 0.000000 -0.007074 0.000000
# 3 -0.000547 -0.003250 0.014153 0.000000 0.005777 0.000000
# 4 0.000000 0.000000 0.000000 0.059355 0.000000 0.006973
# 5 0.007731 -0.007074 0.005777 0.000000 0.037249 0.000000
# 6 0.000000 0.000000 0.000000 0.006973 0.000000 0.027456
#
#
# Mechanical properties :
#
#
# Convention : Reuss Voigt Hill
#
# Bulk Modulus (GPa) = 49.91523 55.86168 52.88846
# Shear Modulus (GPa) = 27.36243 34.00323 30.68283
#
# Velocity S-wave (km/s) = 3.65062 4.06958 3.86578
# Velocity P-wave (km/s) = 6.48697 7.02066 6.75908
#
# Compressibility (1/GPa) = 0.02003397
#
# Stress axis : x y z
#
# Youngs Moduli (GPa) = 92.08704 90.89797 70.65457
#
# Poissons Ratio (x) = 0.38113 0.03866
# Poissons Ratio (y) = 0.38612 0.22962
# Poissons Ratio (z) = 0.05039 0.29541
#
# Static dielectric constant tensor:
#      x y z
#    x 1.767920 0.000000 0.054440 
#    y 0.000000 1.741820 0.000000 
#    z 0.054440 0.000000 1.762470 
# 
# From -- ./inp_files/49107.got.cif
#   From: 2010.05.17/outbox.ucp.g08.bks.cvg/sg15_25_cif.got.tgz:49107.got - 2010.06.11 12:40:34.
