data_PCOD9309610
_publ_section_title
;
Structure prediction by ZEFSAII (Michael W. Deem and Ramdas Pophale) SiO2 
 PCOD9309610
Probable space group: C 2/C
;
_chemical_formula_sum "Si O2"
_cell_formula_units_Z 26
_cell_length_a 15.000000
_cell_length_b 18.000000
_cell_length_c 30.000000
_cell_angle_alpha 90.000000
_cell_angle_beta 20.000000
_cell_angle_gamma 90.000000
_cell_volume 2770.363161
_symmetry_space_group_name_H-M "C 2/C"
_symmetry_group_IT_number 15
_symmetry_cell_setting 'monoclinic'
loop_
_space_group_symop_operation_xyz
x,y,z
-x,y,1/2-z
-x,-y,-z
x,-y,1/2+z
1/2+x,1/2+y,z
1/2-x,1/2+y,1/2-z
1/2-x,1/2-y,-z
1/2+x,1/2-y,1/2+z
loop_
_atom_site_type_symbol
_atom_site_label
_atom_site_fract_x
_atom_site_fract_y
_atom_site_fract_z
Si Si1 0.491433 0.590191 0.633178
Si Si2 0.888909 0.801041 0.099510
Si Si3 0.000000 0.818224 0.750000
Si Si4 0.834938 0.810688 0.365668
Si Si5 0.946064 0.421231 0.500452
Si Si6 0.267864 0.441103 0.097346
Si Si7 0.060495 0.524679 0.596934
O O1 0.405273 0.646165 0.634612
O O2 0.528011 0.640319 0.660288
O O3 0.768826 0.550452 0.491714
O O4 0.255971 0.529107 0.747315
O O5 0.660602 0.739151 0.205713
O O6 0.849999 0.859286 0.076799
O O7 0.146457 0.750744 0.975258
O O8 0.804424 0.874268 0.866376
O O9 0.678517 0.869647 0.408727
O O10 0.000000 0.769924 0.250000
O O11 0.918702 0.433437 0.460418
O O12 0.000000 0.500000 0.500000
O O13 0.192034 0.442781 0.080424
O O14 0.000000 0.460538 0.250000
O O15 0.500000 0.500000 0.000000
#
# Coordination Sequence:
#
# PCOD9309610 Si02
#       7
#     8   8   4   8   8   8   8
#     4  12  24  43  69  99 139 174 228 284 335 409
#     4  11  23  46  66  93 138 178 224 281 339 409
#     4  10  24  44  68  96 134 186 216 280 358 394
#     4  11  24  43  64  96 132 181 220 281 341 399
#     4  11  24  40  69  96 136 171 228 281 336 411
#     4  12  23  45  70  96 136 176 226 283 333 406
#     4  12  24  41  71 103 132 177 224 282 347 395
#
# _framework density 9.3850510000000007
#
# number of rings (size 3 to 8) (size 9 to 14) (size 15 to 20)
#    0.000    0.615    6.923    0.462    3.231    0.615 
#    5.538    2.308    0.000    0.000    0.000    0.000 
#    0.000    0.000    0.000    0.000    0.000    0.000 
#
# Total GULP energy -144934.365263 kJ/mol
# GULP energy per Si atom -5574.398664 kJ/mol
# Density = 0.936369 g / cm^3
# Si number density = 9.385051 Si / 1000 Ang^3
#
#
#
# Elastic Constant Matrix: (Units=GPa)
#
#
# Indices 1 2 3 4 5 6 
#
# 1 157.6019 30.0521 33.0371 0.0016 10.0053 0.0676
# 2 30.0521 98.6634 46.8603 -0.0173 0.1712 0.0388
# 3 33.0371 46.8603 102.2165 0.0767 -9.0987 0.1171
# 4 0.0016 -0.0173 0.0767 30.4281 -0.0074 -6.2810
# 5 10.0053 0.1712 -9.0987 -0.0074 28.1006 -0.0204
# 6 0.0676 0.0388 0.1171 -6.2810 -0.0204 28.6524
#
#
#
# Elastic Compliance Matrix: (Units=1/GPa)
#
#
# Indices 1 2 3 4 5 6 
#
# 1 0.007214 -0.001212 -0.002064 0.000001 -0.003229 -0.000009
# 2 -0.001212 0.013277 -0.005832 0.000025 -0.001538 0.000013
# 3 -0.002064 -0.005832 0.013584 -0.000046 0.005169 -0.000049
# 4 0.000001 0.000025 -0.000046 0.034422 -0.000001 0.007546
# 5 -0.003229 -0.001538 0.005169 -0.000001 0.038419 0.000016
# 6 -0.000009 0.000013 -0.000049 0.007546 0.000016 0.036555
#
#
# Mechanical properties :
#
#
# Convention : Reuss Voigt Hill
#
# Bulk Modulus (GPa) = 63.05025 64.26453 63.65739
# Shear Modulus (GPa) = 29.94503 34.00506 31.97504
#
# Velocity S-wave (km/s) = 3.99853 4.26098 4.13184
# Velocity P-wave (km/s) = 7.41494 7.64983 7.53330
#
# Compressibility (1/GPa) = 0.01586037
#
# Stress axis : x y z
#
# Youngs Moduli (GPa) = 138.62511 75.31741 73.61630
#
# Poissons Ratio (x) = 0.09125 0.15191
# Poissons Ratio (y) = 0.16795 0.42934
# Poissons Ratio (z) = 0.28606 0.43926
#
# Static dielectric constant tensor:
#      x y z
#    x 1.640280 0.000010 0.004710 
#    y 0.000010 1.619530 -0.000030 
#    z 0.004710 -0.000030 1.760850 
# 
# From -- ./inp_files/314319.got.cif
#   From: 2010.05.17/outbox.ucp.g08.bks.cvg/sg15_158_cif.got.tgz:314319.got - 2010.06.11 12:40:34.
