data_PCOD9309714
_publ_section_title
;
Structure prediction by ZEFSAII (Michael W. Deem and Ramdas Pophale) SiO2 
 PCOD9309714
Probable space group: C 2/C
;
_chemical_formula_sum "Si O2"
_cell_formula_units_Z 28
_cell_length_a 12.000000
_cell_length_b 30.000000
_cell_length_c 9.000000
_cell_angle_alpha 90.000000
_cell_angle_beta 60.000000
_cell_angle_gamma 90.000000
_cell_volume 2805.922308
_symmetry_space_group_name_H-M "C 2/C"
_symmetry_group_IT_number 15
_symmetry_cell_setting 'monoclinic'
loop_
_space_group_symop_operation_xyz
x,y,z
-x,y,1/2-z
-x,-y,-z
x,-y,1/2+z
1/2+x,1/2+y,z
1/2-x,1/2+y,1/2-z
1/2-x,1/2-y,-z
1/2+x,1/2-y,1/2+z
loop_
_atom_site_type_symbol
_atom_site_label
_atom_site_fract_x
_atom_site_fract_y
_atom_site_fract_z
Si Si1 0.665309 0.312957 0.107059
Si Si2 0.159736 0.953362 0.286496
Si Si3 0.947123 0.719751 0.439847
Si Si4 0.163254 0.142232 0.905486
Si Si5 0.849766 0.954369 0.552569
Si Si6 0.373924 0.362544 0.654725
Si Si7 0.800663 0.297210 0.530922
O O1 0.601118 0.269766 0.072621
O O2 0.614057 0.329264 0.297894
O O3 0.812104 0.303459 0.055444
O O4 0.652623 0.352393 0.000457
O O5 0.204464 0.907113 0.330799
O O6 0.004424 0.953007 0.418124
O O7 0.196401 0.999550 0.342142
O O8 0.198173 0.952064 0.086760
O O9 0.000000 0.700746 0.250000
O O10 0.060069 0.713301 0.486468
O O11 0.278305 0.168049 0.911359
O O12 0.027323 0.139169 0.084101
O O13 0.827288 0.914062 0.686780
O O14 0.292619 0.322882 0.788469
O O15 0.750000 0.250000 0.500000
#
# Coordination Sequence:
#
# PCOD9309714 Si02
#       7
#     8   8   8   8   8   8   8
#     4  11  22  40  65  81 113 160 208 254 300 370
#     4   9  18  33  55  88 128 159 201 249 311 383
#     4  11  23  41  60  83 113 160 208 251 308 366
#     4  11  23  39  60  95 126 161 205 257 316 373
#     4   9  18  32  56  88 123 164 201 248 311 376
#     4  11  21  39  62  86 126 166 205 246 315 380
#     4  12  26  41  57  88 124 164 209 261 310 364
#
# _framework density 9.9788940000000004
#
# number of rings (size 3 to 8) (size 9 to 14) (size 15 to 20)
#    0.000    1.429    2.857    3.429    4.000    0.571 
#    0.000    0.000    0.000    0.000    0.000    6.000 
#    0.000    0.000    0.000    0.000    0.000    0.000 
#
# Total GULP energy -155878.685134 kJ/mol
# GULP energy per Si atom -5567.095898 kJ/mol
# Density = 0.995618 g / cm^3
# Si number density = 9.978894 Si / 1000 Ang^3
#
#
#
# Elastic Constant Matrix: (Units=GPa)
#
#
# Indices 1 2 3 4 5 6 
#
# 1 92.0174 79.3160 -0.6049 0.0000 14.9563 0.0000
# 2 79.3160 124.5891 40.6213 0.0000 -1.3076 0.0000
# 3 -0.6049 40.6213 59.4111 0.0000 10.3829 0.0000
# 4 0.0000 0.0000 0.0000 27.7253 0.0000 8.4207
# 5 14.9563 -1.3076 10.3829 0.0000 26.4481 0.0000
# 6 0.0000 0.0000 0.0000 8.4207 0.0000 28.1696
#
#
#
# Elastic Compliance Matrix: (Units=1/GPa)
#
#
# Indices 1 2 3 4 5 6 
#
# 1 0.163093 -0.147336 0.128614 0.000000 -0.150003 0.000000
# 2 -0.147336 0.143746 -0.124101 0.000000 0.139144 0.000000
# 3 0.128614 -0.124101 0.125378 0.000000 -0.128086 0.000000
# 4 0.000000 0.000000 0.000000 0.039670 0.000000 -0.011858
# 5 -0.150003 0.139144 -0.128086 0.000000 0.179798 0.000000
# 6 0.000000 0.000000 0.000000 -0.011858 0.000000 0.039044
#
#
# Mechanical properties :
#
#
# Convention : Reuss Voigt Hill
#
# Bulk Modulus (GPa) = 6.82265 57.18694 32.00480
# Shear Modulus (GPa) = 4.87694 26.91428 15.89561
#
# Velocity S-wave (km/s) = 1.56491 3.67626 2.82523
# Velocity P-wave (km/s) = 2.58674 6.83637 5.16852
#
# Compressibility (1/GPa) = 0.14657063
#
# Stress axis : x y z
#
# Youngs Moduli (GPa) = 6.13148 6.95671 7.97587
#
# Poissons Ratio (x) = 1.02497 -1.02581
# Poissons Ratio (y) = 0.90339 0.98981
# Poissons Ratio (z) = -0.78859 0.86334
#
# Static dielectric constant tensor:
#      x y z
#    x 1.703580 0.000000 0.015230 
#    y 0.000000 1.738210 0.000000 
#    z 0.015230 0.000000 1.759560 
# 
# From -- ./inp_files/35566.got.cif
#   From: 2010.05.17/outbox.ucp.g08.bks.cvg/sg15_18_cif.got.tgz:35566.got - 2010.06.11 12:40:34.
