data_PCOD9309030
_publ_section_title
;
Structure prediction by ZEFSAII (Michael W. Deem and Ramdas Pophale) SiO2 
 PCOD9309030
Probable space group: C 2/C
;
_chemical_formula_sum "Si O2"
_cell_formula_units_Z 28
_cell_length_a 9.000000
_cell_length_b 18.000000
_cell_length_c 27.000000
_cell_angle_alpha 90.000000
_cell_angle_beta 40.000000
_cell_angle_gamma 90.000000
_cell_volume 2811.553005
_symmetry_space_group_name_H-M "C 2/C"
_symmetry_group_IT_number 15
_symmetry_cell_setting 'monoclinic'
loop_
_space_group_symop_operation_xyz
x,y,z
-x,y,1/2-z
-x,-y,-z
x,-y,1/2+z
1/2+x,1/2+y,z
1/2-x,1/2+y,1/2-z
1/2-x,1/2-y,-z
1/2+x,1/2-y,1/2+z
loop_
_atom_site_type_symbol
_atom_site_label
_atom_site_fract_x
_atom_site_fract_y
_atom_site_fract_z
Si Si1 0.274346 0.445945 0.671669
Si Si2 0.499453 0.218171 0.952498
Si Si3 0.245266 0.804126 0.208050
Si Si4 0.768605 0.115404 0.695062
Si Si5 0.293158 0.864356 0.906797
Si Si6 0.268674 0.330945 0.471133
Si Si7 0.664436 0.658469 0.255499
O O1 0.320847 0.531755 0.666873
O O2 0.310507 0.422077 0.606023
O O3 0.392133 0.396845 0.684392
O O4 0.000000 0.433944 0.750000
O O5 0.595190 0.179735 0.878936
O O6 0.663446 0.288807 0.922904
O O7 0.560696 0.165638 0.983945
O O8 0.250000 0.250000 0.000000
O O9 0.209456 0.874254 0.251897
O O10 0.348093 0.740093 0.216847
O O11 0.000000 0.776394 0.250000
O O12 0.500000 0.132165 0.750000
O O13 0.976886 0.162727 0.618062
O O14 0.568817 0.854591 0.828877
O O15 0.249796 0.882121 0.975475
O O16 0.250000 0.250000 0.500000
O O17 0.500000 0.651479 0.250000
#
# Coordination Sequence:
#
# PCOD9309030 Si02
#       7
#     8   8   8   8   8   8   8
#     4   9  20  41  61  90 123 164 209 250 309 376
#     4  11  23  36  60  92 126 160 202 259 316 366
#     4  12  20  38  61  89 123 163 200 259 313 359
#     4  11  24  39  63  94 124 161 209 256 312 374
#     4  10  20  39  62  85 127 162 202 255 306 370
#     4  10  22  38  57  92 123 157 207 255 303 370
#     4  11  21  36  66  92 117 158 212 252 305 378
#
# _framework density 9.9589090000000002
#
# number of rings (size 3 to 8) (size 9 to 14) (size 15 to 20)
#    0.000    1.429    4.286    1.714    6.000    1.143 
#    0.000    0.000    0.000    1.714    0.000    0.000 
#    0.000    0.000    0.000    0.000    0.000    0.000 
#
# Total GULP energy -156076.827812 kJ/mol
# GULP energy per Si atom -5574.172422 kJ/mol
# Density = 0.993624 g / cm^3
# Si number density = 9.958909 Si / 1000 Ang^3
#
#
#
# Elastic Constant Matrix: (Units=GPa)
#
#
# Indices 1 2 3 4 5 6 
#
# 1 169.4161 51.2721 61.4884 0.0025 20.7631 0.0030
# 2 51.2721 64.7805 12.8255 -0.0011 13.0581 0.0020
# 3 61.4884 12.8255 88.4058 -0.0030 25.9900 0.0086
# 4 0.0025 -0.0011 -0.0030 12.8333 0.0056 2.5848
# 5 20.7631 13.0581 25.9900 0.0056 44.1263 -0.0033
# 6 0.0030 0.0020 0.0086 2.5848 -0.0033 25.0233
#
#
#
# Elastic Compliance Matrix: (Units=1/GPa)
#
#
# Indices 1 2 3 4 5 6 
#
# 1 0.010227 -0.007037 -0.006397 -0.000005 0.001038 0.000002
# 2 -0.007037 0.021356 0.003242 0.000007 -0.004918 -0.000003
# 3 -0.006397 0.003242 0.017764 0.000011 -0.008412 -0.000008
# 4 -0.000005 0.000007 0.000011 0.079578 -0.000017 -0.008220
# 5 0.001038 -0.004918 -0.008412 -0.000017 0.028584 0.000009
# 6 0.000002 -0.000003 -0.000008 -0.008220 0.000009 0.040812
#
#
# Mechanical properties :
#
#
# Convention : Reuss Voigt Hill
#
# Bulk Modulus (GPa) = 34.52841 63.75272 49.14056
# Shear Modulus (GPa) = 21.89539 29.53102 25.71321
#
# Velocity S-wave (km/s) = 3.31915 3.85469 3.59690
# Velocity P-wave (km/s) = 5.66234 7.20339 6.47885
#
# Compressibility (1/GPa) = 0.02896166
#
# Stress axis : x y z
#
# Youngs Moduli (GPa) = 97.78043 46.82542 56.29473
#
# Poissons Ratio (x) = 0.32952 0.36014
# Poissons Ratio (y) = 0.68809 -0.18251
# Poissons Ratio (z) = 0.62555 -0.15181
#
# Static dielectric constant tensor:
#      x y z
#    x 1.735330 0.000000 0.033590 
#    y 0.000000 1.739340 0.000000 
#    z 0.033590 0.000000 1.752700 
# 
# From -- ./inp_files/289687.got.cif
#   From: 2010.05.17/outbox.ucp.g08.bks.cvg/sg15_145_cif.got.tgz:289687.got - 2010.06.11 12:40:34.
