data_PCOD9309087
_publ_section_title
;
Structure prediction by ZEFSAII (Michael W. Deem and Ramdas Pophale) SiO2 
 PCOD9309087
Probable space group: C 2/C
;
_chemical_formula_sum "Si O2"
_cell_formula_units_Z 26
_cell_length_a 21.000000
_cell_length_b 12.000000
_cell_length_c 12.000000
_cell_angle_alpha 90.000000
_cell_angle_beta 60.000000
_cell_angle_gamma 90.000000
_cell_volume 2618.860821
_symmetry_space_group_name_H-M "C 2/C"
_symmetry_group_IT_number 15
_symmetry_cell_setting 'monoclinic'
loop_
_space_group_symop_operation_xyz
x,y,z
-x,y,1/2-z
-x,-y,-z
x,-y,1/2+z
1/2+x,1/2+y,z
1/2-x,1/2+y,1/2-z
1/2-x,1/2-y,-z
1/2+x,1/2-y,1/2+z
loop_
_atom_site_type_symbol
_atom_site_label
_atom_site_fract_x
_atom_site_fract_y
_atom_site_fract_z
Si Si1 0.728346 0.378668 0.006702
Si Si2 0.175396 0.895099 0.301071
Si Si3 0.000000 0.201266 0.750000
Si Si4 0.085451 0.324256 0.873257
Si Si5 0.960114 0.716728 0.664962
Si Si6 0.671050 0.035908 0.715446
Si Si7 0.594189 0.399528 0.964808
O O1 0.793939 0.465465 0.919542
O O2 0.673584 0.374466 0.949348
O O3 0.750000 0.250000 0.000000
O O4 0.688240 0.412524 0.157161
O O5 0.145223 0.771146 0.349233
O O6 0.255344 0.916617 0.287845
O O7 0.110407 0.976125 0.404593
O O8 0.050761 0.281060 0.784577
O O9 0.040925 0.126575 0.618363
O O10 0.127581 0.440535 0.821978
O O11 0.022101 0.330562 0.023754
O O12 0.890866 0.632375 0.747557
O O13 0.929241 0.821994 0.619239
O O14 0.000000 0.740570 0.750000
#
# Coordination Sequence:
#
# PCOD9309087 Si02
#       7
#     8   8   4   8   8   8   8
#     4  11  20  42  71  96 132 177 236 280 334 415
#     4  11  24  42  72 104 133 178 237 291 344 404
#     4  10  20  42  72  96 136 184 240 284 334 414
#     4  11  24  46  69 102 136 188 240 281 339 425
#     4  11  27  45  65 102 148 184 221 287 361 418
#     4  11  25  41  72  99 140 181 236 288 345 415
#     4  10  23  43  68 102 133 179 231 285 343 414
#
# _framework density 9.9279810000000008
#
# number of rings (size 3 to 8) (size 9 to 14) (size 15 to 20)
#    0.000    1.231    3.077    1.385    5.385    6.154 
#    2.769    1.538    0.000    0.000    0.000    0.000 
#    0.000    0.000    0.000    0.000    0.000    0.000 
#
# Total GULP energy -145090.402114 kJ/mol
# GULP energy per Si atom -5580.400081 kJ/mol
# Density = 0.990538 g / cm^3
# Si number density = 9.927981 Si / 1000 Ang^3
#
#
#
# Elastic Constant Matrix: (Units=GPa)
#
#
# Indices 1 2 3 4 5 6 
#
# 1 118.2276 42.8392 33.5839 0.0000 4.1092 0.0000
# 2 42.8392 79.6315 26.5159 0.0000 1.3059 0.0000
# 3 33.5839 26.5159 120.4304 0.0000 1.5150 0.0000
# 4 0.0000 0.0000 0.0000 42.3948 0.0000 -12.0182
# 5 4.1092 1.3059 1.5150 0.0000 40.0548 0.0000
# 6 0.0000 0.0000 0.0000 -12.0182 0.0000 39.0892
#
#
#
# Elastic Compliance Matrix: (Units=1/GPa)
#
#
# Indices 1 2 3 4 5 6 
#
# 1 0.010920 -0.005233 -0.001882 0.000000 -0.000878 0.000000
# 2 -0.005233 0.016064 -0.002079 0.000000 0.000092 0.000000
# 3 -0.001882 -0.002079 0.009287 0.000000 -0.000090 0.000000
# 4 0.000000 0.000000 0.000000 0.025840 0.000000 0.007945
# 5 -0.000878 0.000092 -0.000090 0.000000 0.025056 0.000000
# 6 0.000000 0.000000 0.000000 0.007945 0.000000 0.028025
#
#
# Mechanical properties :
#
#
# Convention : Reuss Voigt Hill
#
# Bulk Modulus (GPa) = 55.91900 58.24083 57.07991
# Shear Modulus (GPa) = 35.83182 38.66446 37.24814
#
# Velocity S-wave (km/s) = 4.25265 4.41755 4.33588
# Velocity P-wave (km/s) = 7.23442 7.44412 7.34002
#
# Compressibility (1/GPa) = 0.01788301
#
# Stress axis : x y z
#
# Youngs Moduli (GPa) = 91.57819 62.25147 107.67605
#
# Poissons Ratio (x) = 0.32579 0.20262
# Poissons Ratio (y) = 0.47926 0.22382
# Poissons Ratio (z) = 0.17233 0.12940
#
# Static dielectric constant tensor:
#      x y z
#    x 1.726120 0.000000 -0.014480 
#    y 0.000000 1.716710 0.000000 
#    z -0.014480 0.000000 1.713090 
# 
# From -- ./inp_files/111507.got.cif
#   From: 2010.05.17/outbox.ucp.g08.bks.cvg/sg15_56_cif.got.tgz:111507.got - 2010.06.11 12:40:34.
