data_PCOD9309512
_publ_section_title
;
Structure prediction by ZEFSAII (Michael W. Deem and Ramdas Pophale) SiO2 
 PCOD9309512
Probable space group: C 2/C
;
_chemical_formula_sum "Si O2"
_cell_formula_units_Z 28
_cell_length_a 15.000000
_cell_length_b 24.000000
_cell_length_c 15.000000
_cell_angle_alpha 90.000000
_cell_angle_beta 30.000000
_cell_angle_gamma 90.000000
_cell_volume 2700.000000
_symmetry_space_group_name_H-M "C 2/C"
_symmetry_group_IT_number 15
_symmetry_cell_setting 'monoclinic'
loop_
_space_group_symop_operation_xyz
x,y,z
-x,y,1/2-z
-x,-y,-z
x,-y,1/2+z
1/2+x,1/2+y,z
1/2-x,1/2+y,1/2-z
1/2-x,1/2-y,-z
1/2+x,1/2-y,1/2+z
loop_
_atom_site_type_symbol
_atom_site_label
_atom_site_fract_x
_atom_site_fract_y
_atom_site_fract_z
Si Si1 0.859594 0.668110 0.049788
Si Si2 0.802043 0.941356 0.889389
Si Si3 0.733557 0.122916 0.766942
Si Si4 0.996543 0.793904 0.540232
Si Si5 0.705172 0.946398 0.593249
Si Si6 0.469536 0.660917 0.871319
Si Si7 0.704410 0.004973 0.290339
O O1 0.025862 0.637902 0.954539
O O2 0.941699 0.732964 0.974886
O O3 0.810522 0.617997 0.019014
O O4 0.670486 0.680600 0.261246
O O5 0.802835 0.965024 0.787221
O O6 0.000000 0.927198 0.750000
O O7 0.743124 0.996382 0.000817
O O8 0.840516 0.134626 0.764554
O O9 0.832934 0.164029 0.610197
O O10 0.763543 0.058358 0.720598
O O11 0.934658 0.798700 0.488005
O O12 0.500000 0.931097 0.750000
O O13 0.719325 0.963029 0.684861
O O14 0.834523 0.891795 0.474051
O O15 0.500000 0.690068 0.750000
O O16 0.500000 0.000000 0.500000
#
# Coordination Sequence:
#
# PCOD9309512 Si02
#       7
#     8   8   8   8   8   8   8
#     4  12  22  50  71 100 139 189 259 303 367 437
#     4  12  28  44  70 111 152 194 250 309 373 458
#     4  10  23  41  69  99 142 188 250 296 372 454
#     4  10  24  41  75  98 132 202 251 301 376 442
#     4  12  24  41  71 113 153 194 244 304 388 459
#     4  10  23  40  64 103 146 184 242 314 376 450
#     4  12  23  42  71 108 151 203 236 311 384 439
#
# _framework density 10.370369999999999
#
# number of rings (size 3 to 8) (size 9 to 14) (size 15 to 20)
#    0.857    0.000    4.286    3.000    2.000    1.143 
#    0.000    3.571    0.000    0.857    0.000    0.000 
#    0.000    0.000    0.000    0.000    0.000    0.000 
#
# Total GULP energy -155959.109867 kJ/mol
# GULP energy per Si atom -5569.968210 kJ/mol
# Density = 1.034677 g / cm^3
# Si number density = 10.370370 Si / 1000 Ang^3
#
#
#
# Elastic Constant Matrix: (Units=GPa)
#
#
# Indices 1 2 3 4 5 6 
#
# 1 114.1279 20.7770 30.2774 0.0132 -18.4189 -0.0062
# 2 20.7770 104.3596 10.8931 0.0095 -11.8839 -0.0146
# 3 30.2774 10.8931 75.0471 0.0373 -14.1192 -0.0286
# 4 0.0132 0.0095 0.0373 28.7186 -0.0249 -8.1763
# 5 -18.4189 -11.8839 -14.1192 -0.0249 45.5263 0.0152
# 6 -0.0062 -0.0146 -0.0286 -8.1763 0.0152 37.7939
#
#
#
# Elastic Compliance Matrix: (Units=1/GPa)
#
#
# Indices 1 2 3 4 5 6 
#
# 1 0.010381 -0.001390 -0.003467 0.000002 0.002762 -0.000002
# 2 -0.001390 0.010134 -0.000550 0.000000 0.001912 0.000003
# 3 -0.003467 -0.000550 0.015412 -0.000014 0.003234 0.000007
# 4 0.000002 0.000000 -0.000014 0.037106 0.000014 0.008028
# 5 0.002762 0.001912 0.003234 0.000014 0.024585 -0.000003
# 6 -0.000002 0.000003 0.000007 0.008028 -0.000003 0.028196
#
#
# Mechanical properties :
#
#
# Convention : Reuss Voigt Hill
#
# Bulk Modulus (GPa) = 39.82140 46.38105 43.10123
# Shear Modulus (GPa) = 34.48312 37.84692 36.16502
#
# Velocity S-wave (km/s) = 4.08190 4.27636 4.18026
# Velocity P-wave (km/s) = 6.43872 6.84060 6.64270
#
# Compressibility (1/GPa) = 0.02511212
#
# Stress axis : x y z
#
# Youngs Moduli (GPa) = 96.33369 98.67530 64.88540
#
# Poissons Ratio (x) = 0.13719 0.22493
# Poissons Ratio (y) = 0.13394 0.03571
# Poissons Ratio (z) = 0.33395 0.05430
#
# Static dielectric constant tensor:
#      x y z
#    x 1.768350 -0.000010 0.010770 
#    y -0.000010 1.784660 0.000020 
#    z 0.010770 0.000020 1.766970 
# 
# From -- ./inp_files/156901.got.cif
#   From: 2010.05.17/outbox.ucp.g08.bks.cvg/sg15_79_cif.got.tgz:156901.got - 2010.06.11 12:40:34.
