data_PCOD9309667
_publ_section_title
;
Structure prediction by ZEFSAII (Michael W. Deem and Ramdas Pophale) SiO2 
 PCOD9309667
Probable space group: C 2/C
;
_chemical_formula_sum "Si O2"
_cell_formula_units_Z 32
_cell_length_a 12.000000
_cell_length_b 18.000000
_cell_length_c 30.000000
_cell_angle_alpha 90.000000
_cell_angle_beta 30.000000
_cell_angle_gamma 90.000000
_cell_volume 3240.000000
_symmetry_space_group_name_H-M "C 2/C"
_symmetry_group_IT_number 15
_symmetry_cell_setting 'monoclinic'
loop_
_space_group_symop_operation_xyz
x,y,z
-x,y,1/2-z
-x,-y,-z
x,-y,1/2+z
1/2+x,1/2+y,z
1/2-x,1/2+y,1/2-z
1/2-x,1/2-y,-z
1/2+x,1/2-y,1/2+z
loop_
_atom_site_type_symbol
_atom_site_label
_atom_site_fract_x
_atom_site_fract_y
_atom_site_fract_z
Si Si1 0.539479 0.258699 0.685021
Si Si2 0.996176 0.481178 0.143345
Si Si3 0.662250 0.565307 0.896817
Si Si4 0.259468 0.378350 0.738225
Si Si5 0.898124 0.926911 0.955404
Si Si6 0.716948 0.369012 0.278158
Si Si7 0.544506 0.259073 0.185231
Si Si8 0.967973 0.197544 0.498516
O O1 0.500000 0.240921 0.750000
O O2 0.410031 0.334063 0.720942
O O3 0.416678 0.190295 0.703697
O O4 0.788814 0.255242 0.580227
O O5 0.134689 0.453825 0.139752
O O6 0.916086 0.564806 0.179340
O O7 0.771451 0.433343 0.224368
O O8 0.148728 0.460817 0.047827
O O9 0.534123 0.488192 0.936404
O O10 0.709740 0.596450 0.830462
O O11 0.524025 0.630941 0.968092
O O12 0.442775 0.417220 0.642612
O O13 0.115032 0.313886 0.763968
O O14 0.889525 0.846022 0.981343
O O15 0.510355 0.319083 0.334135
O O16 0.500000 0.290110 0.250000
O O17 0.796077 0.232872 0.092523
#
# Coordination Sequence:
#
# PCOD9309667 Si02
#       8
#     8   8   8   8   8   8   8   8
#     4  11  22  43  61  87 124 170 206 246 302 375
#     4  11  21  38  60  93 119 153 199 258 309 360
#     4  11  20  35  63  90 123 147 194 255 313 361
#     4  11  24  38  64  93 125 159 205 257 315 363
#     4  11  21  34  63  94 121 153 197 255 315 365
#     4  11  21  37  64  86 119 163 199 241 314 359
#     4  11  24  39  56  91 128 160 199 254 299 364
#     4  11  21  37  61  89 123 165 201 247 308 365
#
# _framework density 9.8765429999999999
#
# number of rings (size 3 to 8) (size 9 to 14) (size 15 to 20)
#    0.000    1.000    6.250    3.375    0.000    2.000 
#    2.250    0.625    0.000    1.500    0.000    0.000 
#    0.000    0.000    0.000    0.000    0.000    0.000 
#
# Total GULP energy -178296.181152 kJ/mol
# GULP energy per Si atom -5571.755661 kJ/mol
# Density = 0.985406 g / cm^3
# Si number density = 9.876543 Si / 1000 Ang^3
#
#
#
# Elastic Constant Matrix: (Units=GPa)
#
#
# Indices 1 2 3 4 5 6 
#
# 1 18.7917 20.4439 14.9807 0.0206 -6.6410 -0.0039
# 2 20.4439 68.8475 16.9999 -0.0119 -15.5469 0.0122
# 3 14.9807 16.9999 117.8677 0.0373 -5.8397 -0.0023
# 4 0.0206 -0.0119 0.0373 15.9478 -0.0202 -10.0917
# 5 -6.6410 -15.5469 -5.8397 -0.0202 10.3646 0.0141
# 6 -0.0039 0.0122 -0.0023 -10.0917 0.0141 26.5647
#
#
#
# Elastic Compliance Matrix: (Units=1/GPa)
#
#
# Indices 1 2 3 4 5 6 
#
# 1 0.088095 -0.018967 -0.007277 -0.000099 0.023895 -0.000029
# 2 -0.018967 0.026338 -0.000034 0.000079 0.027336 0.000001
# 3 -0.007277 -0.000034 0.009444 -0.000016 0.000607 -0.000007
# 4 -0.000099 0.000079 -0.000016 0.082550 0.000165 0.031360
# 5 0.023895 0.027336 0.000607 0.000165 0.153140 -0.000028
# 6 -0.000029 0.000001 -0.000007 0.031360 -0.000028 0.049557
#
#
# Mechanical properties :
#
#
# Convention : Reuss Voigt Hill
#
# Bulk Modulus (GPa) = 14.02089 34.48399 24.25244
# Shear Modulus (GPa) = 10.29964 20.78089 15.54026
#
# Velocity S-wave (km/s) = 2.28594 3.24702 2.80791
# Velocity P-wave (km/s) = 3.75244 5.61720 4.77670
#
# Compressibility (1/GPa) = 0.07132215
#
# Stress axis : x y z
#
# Youngs Moduli (GPa) = 11.35137 37.96763 105.88751
#
# Poissons Ratio (x) = 0.72011 0.77057
# Poissons Ratio (y) = 0.21530 0.00358
# Poissons Ratio (z) = 0.08261 0.00128
#
# Static dielectric constant tensor:
#      x y z
#    x 1.734390 -0.000010 -0.006480 
#    y -0.000010 1.719330 0.000000 
#    z -0.006480 0.000000 1.748330 
# 
# From -- ./inp_files/311610.got.cif
#   From: 2010.05.17/outbox.ucp.g08.bks.cvg/sg15_156_cif.got.tgz:311610.got - 2010.06.11 12:40:34.
