data_PCOD9309048
_publ_section_title
;
Structure prediction by ZEFSAII (Michael W. Deem and Ramdas Pophale) SiO2 
 PCOD9309048
Probable space group: C 2/C
;
_chemical_formula_sum "Si O2"
_cell_formula_units_Z 30
_cell_length_a 15.000000
_cell_length_b 15.000000
_cell_length_c 30.000000
_cell_angle_alpha 90.000000
_cell_angle_beta 30.000000
_cell_angle_gamma 90.000000
_cell_volume 3375.000000
_symmetry_space_group_name_H-M "C 2/C"
_symmetry_group_IT_number 15
_symmetry_cell_setting 'monoclinic'
loop_
_space_group_symop_operation_xyz
x,y,z
-x,y,1/2-z
-x,-y,-z
x,-y,1/2+z
1/2+x,1/2+y,z
1/2-x,1/2+y,1/2-z
1/2-x,1/2-y,-z
1/2+x,1/2-y,1/2+z
loop_
_atom_site_type_symbol
_atom_site_label
_atom_site_fract_x
_atom_site_fract_y
_atom_site_fract_z
Si Si1 0.843790 0.801752 0.676931
Si Si2 0.004878 0.311156 0.461970
Si Si3 0.149775 0.304015 0.100158
Si Si4 0.973222 0.194474 0.637887
Si Si5 0.758212 0.987522 0.208624
Si Si6 0.359459 0.155568 0.498286
Si Si7 0.054200 0.536702 0.583198
Si Si8 0.000000 0.408639 0.250000
O O1 0.862633 0.758713 0.619646
O O2 0.672452 0.754752 0.773602
O O3 0.009214 0.758901 0.634010
O O4 0.834143 0.910391 0.679090
O O5 0.057452 0.340272 0.488592
O O6 0.818002 0.257511 0.538939
O O7 0.999427 0.400943 0.434925
O O8 0.182068 0.393848 0.055871
O O9 0.072100 0.344814 0.179451
O O10 0.888553 0.099167 0.658598
O O11 0.147412 0.171985 0.591527
O O12 0.048371 0.260914 0.567155
O O13 0.612008 0.978974 0.311556
O O14 0.651469 0.968967 0.208485
O O15 0.385689 0.060562 0.460892
#
# Coordination Sequence:
#
# PCOD9309048 Si02
#       8
#     8   8   8   8   8   8   8   4
#     4  11  22  42  65  90 127 171 207 258 326 379
#     4  11  23  40  63  97 122 161 216 273 302 375
#     4  10  22  39  67  91 126 163 213 268 312 372
#     4  11  23  43  62  88 132 174 203 250 333 384
#     4  11  22  39  67  90 125 162 217 257 315 382
#     4  11  25  40  64  90 134 168 208 262 321 386
#     4  10  20  41  62  90 124 167 202 266 320 365
#     4  10  20  40  62  94 120 160 210 270 298 372
#
# _framework density 8.8888890000000007
#
# number of rings (size 3 to 8) (size 9 to 14) (size 15 to 20)
#    0.000    1.333    5.333    2.800    3.733    1.600 
#    2.400    1.333    0.000    0.000    0.000    0.000 
#    0.000    0.000    0.000    0.000    0.000    0.000 
#
# Total GULP energy -167215.984860 kJ/mol
# GULP energy per Si atom -5573.866162 kJ/mol
# Density = 0.886866 g / cm^3
# Si number density = 8.888889 Si / 1000 Ang^3
#
#
#
# Elastic Constant Matrix: (Units=GPa)
#
#
# Indices 1 2 3 4 5 6 
#
# 1 122.1841 49.8492 37.2036 -0.0003 2.0891 -0.0003
# 2 49.8492 167.3329 31.1585 -0.0005 -5.5142 -0.0004
# 3 37.2036 31.1585 62.8242 -0.0017 -7.7667 -0.0020
# 4 -0.0003 -0.0005 -0.0017 34.6749 -0.0009 0.5935
# 5 2.0891 -5.5142 -7.7667 -0.0009 28.7463 0.0001
# 6 -0.0003 -0.0004 -0.0020 0.5935 0.0001 28.3301
#
#
#
# Elastic Compliance Matrix: (Units=1/GPa)
#
#
# Indices 1 2 3 4 5 6 
#
# 1 0.010884 -0.002280 -0.005655 0.000000 -0.002756 0.000000
# 2 -0.002280 0.007066 -0.002034 0.000000 0.000972 0.000000
# 3 -0.005655 -0.002034 0.020978 0.000001 0.005689 0.000001
# 4 0.000000 0.000000 0.000001 0.028850 0.000001 -0.000604
# 5 -0.002756 0.000972 0.005689 0.000001 0.036711 0.000000
# 6 0.000000 0.000000 0.000001 -0.000604 0.000000 0.035311
#
#
# Mechanical properties :
#
#
# Convention : Reuss Voigt Hill
#
# Bulk Modulus (GPa) = 52.66055 65.41820 59.03938
# Shear Modulus (GPa) = 30.10817 33.95892 32.03354
#
# Velocity S-wave (km/s) = 4.11978 4.37531 4.24947
# Velocity P-wave (km/s) = 7.23298 7.89950 7.57358
#
# Compressibility (1/GPa) = 0.01898955
#
# Stress axis : x y z
#
# Youngs Moduli (GPa) = 91.88110 141.51949 47.66810
#
# Poissons Ratio (x) = 0.32268 0.26956
# Poissons Ratio (y) = 0.20950 0.09697
# Poissons Ratio (z) = 0.51959 0.28788
#
# Static dielectric constant tensor:
#      x y z
#    x 1.611400 0.000000 -0.007520 
#    y 0.000000 1.589090 0.000000 
#    z -0.007520 0.000000 1.646240 
# 
# From -- ./inp_files/313968.got.cif
#   From: 2010.05.17/outbox.ucp.g08.bks.cvg/sg15_157_cif.got.tgz:313968.got - 2010.06.11 12:40:34.
