data_PCOD9309817
_publ_section_title
;
Structure prediction by ZEFSAII (Michael W. Deem and Ramdas Pophale) SiO2 
 PCOD9309817
Probable space group: C 2/C
;
_chemical_formula_sum "Si O2"
_cell_formula_units_Z 28
_cell_length_a 21.000000
_cell_length_b 18.000000
_cell_length_c 21.000000
_cell_angle_alpha 90.000000
_cell_angle_beta 20.000000
_cell_angle_gamma 90.000000
_cell_volume 2714.955898
_symmetry_space_group_name_H-M "C 2/C"
_symmetry_group_IT_number 15
_symmetry_cell_setting 'monoclinic'
loop_
_space_group_symop_operation_xyz
x,y,z
-x,y,1/2-z
-x,-y,-z
x,-y,1/2+z
1/2+x,1/2+y,z
1/2-x,1/2+y,1/2-z
1/2-x,1/2-y,-z
1/2+x,1/2-y,1/2+z
loop_
_atom_site_type_symbol
_atom_site_label
_atom_site_fract_x
_atom_site_fract_y
_atom_site_fract_z
Si Si1 0.568336 0.415814 0.612406
Si Si2 0.881623 0.571594 0.589444
Si Si3 0.359296 0.147266 0.743219
Si Si4 0.776026 0.180643 0.306790
Si Si5 0.142869 0.766234 0.158164
Si Si6 0.033912 0.080183 0.828656
Si Si7 0.717997 0.839107 0.710248
O O1 0.500000 0.395764 0.750000
O O2 0.770406 0.393712 0.389290
O O3 0.432781 0.370985 0.691280
O O4 0.543956 0.505167 0.630570
O O5 0.802466 0.610226 0.728513
O O6 0.707619 0.554580 0.708370
O O7 0.000000 0.500000 0.500000
O O8 0.023948 0.620949 0.412739
O O9 0.582600 0.151037 0.519721
O O10 0.296914 0.233054 0.805575
O O11 0.784769 0.181025 0.220259
O O12 0.110198 0.853605 0.209468
O O13 0.179500 0.723303 0.191423
O O14 0.887271 0.745796 0.393312
O O15 0.873556 0.111775 0.027160
#
# Coordination Sequence:
#
# PCOD9309817 Si02
#       7
#     8   8   8   8   8   8   8
#     4  12  28  47  70 102 142 193 240 298 366 431
#     4  11  24  43  70 109 145 181 245 305 363 423
#     4  11  23  44  71 104 138 178 237 300 364 423
#     4  11  24  45  73 105 139 179 244 303 359 427
#     4  12  24  43  67 106 148 193 241 290 354 444
#     4  12  25  45  72 101 150 195 238 294 362 434
#     4  11  25  42  74 105 142 191 237 298 357 428
#
# _framework density 10.313243
#
# number of rings (size 3 to 8) (size 9 to 14) (size 15 to 20)
#    0.000    0.571    2.857    5.571    4.000    2.857 
#    0.000    0.000    0.000    0.000    0.000    0.000 
#    0.000    0.000    0.000    0.000    0.000    0.000 
#
# Total GULP energy -155999.842970 kJ/mol
# GULP energy per Si atom -5571.422963 kJ/mol
# Density = 1.028977 g / cm^3
# Si number density = 10.313243 Si / 1000 Ang^3
#
#
#
# Elastic Constant Matrix: (Units=GPa)
#
#
# Indices 1 2 3 4 5 6 
#
# 1 123.9874 44.3342 43.2004 0.0094 23.7624 -0.0019
# 2 44.3342 129.2169 25.6045 -0.0090 15.6887 -0.0048
# 3 43.2004 25.6045 108.0487 -0.0198 34.2744 0.0044
# 4 0.0094 -0.0090 -0.0198 43.9023 0.0083 2.9196
# 5 23.7624 15.6887 34.2744 0.0083 58.4661 0.0015
# 6 -0.0019 -0.0048 0.0044 2.9196 0.0015 30.3682
#
#
#
# Elastic Compliance Matrix: (Units=1/GPa)
#
#
# Indices 1 2 3 4 5 6 
#
# 1 0.010424 -0.002778 -0.002951 -0.000004 -0.001761 0.000001
# 2 -0.002778 0.008941 -0.000743 0.000002 -0.000834 0.000001
# 3 -0.002951 -0.000743 0.012490 0.000007 -0.005923 -0.000003
# 4 -0.000004 0.000002 0.000007 0.022924 -0.000007 -0.002204
# 5 -0.001761 -0.000834 -0.005923 -0.000007 0.021516 0.000000
# 6 0.000001 0.000001 -0.000003 -0.002204 0.000000 0.033141
#
#
# Mechanical properties :
#
#
# Convention : Reuss Voigt Hill
#
# Bulk Modulus (GPa) = 52.88029 65.28125 59.08077
# Shear Modulus (GPa) = 38.85471 43.08824 40.97148
#
# Velocity S-wave (km/s) = 4.34490 4.57549 4.46169
# Velocity P-wave (km/s) = 7.13188 7.72214 7.43287
#
# Compressibility (1/GPa) = 0.01891064
#
# Stress axis : x y z
#
# Youngs Moduli (GPa) = 95.92860 111.84868 80.06436
#
# Poissons Ratio (x) = 0.31072 0.23626
# Poissons Ratio (y) = 0.26649 0.05951
# Poissons Ratio (z) = 0.28307 0.08314
#
# Static dielectric constant tensor:
#      x y z
#    x 1.639370 0.000000 0.505020 
#    y 0.000000 1.754240 0.000000 
#    z 0.505020 0.000000 -0.996960 
# 
# From -- ./inp_files/253321.got.cif
#   From: 2010.05.17/outbox.ucp.g08.bks.cvg/sg15_127_cif.got.tgz:253321.got - 2010.06.11 12:40:34.
