data_PCOD9309784
_publ_section_title
;
Structure prediction by ZEFSAII (Michael W. Deem and Ramdas Pophale) SiO2 
 PCOD9309784
Probable space group: C 2/C
;
_chemical_formula_sum "Si O2"
_cell_formula_units_Z 28
_cell_length_a 15.000000
_cell_length_b 12.000000
_cell_length_c 15.000000
_cell_angle_alpha 90.000000
_cell_angle_beta 90.000000
_cell_angle_gamma 90.000000
_cell_volume 2700.000000
_symmetry_space_group_name_H-M "C 2/C"
_symmetry_group_IT_number 15
_symmetry_cell_setting 'monoclinic'
loop_
_space_group_symop_operation_xyz
x,y,z
-x,y,1/2-z
-x,-y,-z
x,-y,1/2+z
1/2+x,1/2+y,z
1/2-x,1/2+y,1/2-z
1/2-x,1/2-y,-z
1/2+x,1/2-y,1/2+z
loop_
_atom_site_type_symbol
_atom_site_label
_atom_site_fract_x
_atom_site_fract_y
_atom_site_fract_z
Si Si1 0.667537 0.901238 0.104293
Si Si2 0.473171 0.690501 0.959203
Si Si3 0.024258 0.416322 0.650122
Si Si4 0.644327 0.328244 0.336590
Si Si5 0.851617 0.044781 0.846934
Si Si6 0.832801 0.571574 0.108608
Si Si7 0.548762 0.308720 0.655994
O O1 0.769288 0.897557 0.134156
O O2 0.621302 0.786997 0.136254
O O3 0.607777 0.001222 0.144014
O O4 0.670600 0.907165 0.997202
O O5 0.460462 0.814580 0.918148
O O6 0.561927 0.651134 0.904267
O O7 0.391944 0.610867 0.931319
O O8 0.489803 0.690914 0.065107
O O9 0.000000 0.374635 0.750000
O O10 0.931732 0.477949 0.624423
O O11 0.628742 0.372830 0.236554
O O12 0.666898 0.195377 0.345600
O O13 0.748531 0.006263 0.859508
O O14 0.905218 0.929479 0.835831
O O15 0.500000 0.285362 0.750000
#
# Coordination Sequence:
#
# PCOD9309784 Si02
#       7
#     8   8   8   8   8   8   8
#     4  12  23  45  72 101 139 187 235 286 347 415
#     4  11  24  46  73  98 143 187 230 284 355 416
#     4  11  23  43  72 103 137 187 237 287 346 413
#     4  11  22  43  72  99 138 185 231 281 343 427
#     4  12  25  43  71 108 137 181 235 289 348 420
#     4  11  23  43  71  98 139 188 231 279 349 420
#     4  12  25  42  69 103 140 180 238 292 349 407
#
# _framework density 10.370369999999999
#
# number of rings (size 3 to 8) (size 9 to 14) (size 15 to 20)
#    0.000    0.571    4.286    6.429    0.000    1.143 
#    0.000    0.714    3.143    0.000    0.000    0.000 
#    0.000    0.000    0.000    0.000    0.000    0.000 
#
# Total GULP energy -156637.357383 kJ/mol
# GULP energy per Si atom -5594.191335 kJ/mol
# Density = 1.034677 g / cm^3
# Si number density = 10.370370 Si / 1000 Ang^3
#
#
#
# Elastic Constant Matrix: (Units=GPa)
#
#
# Indices 1 2 3 4 5 6 
#
# 1 101.2982 32.2878 12.1482 0.0000 8.5733 0.0000
# 2 32.2878 71.3411 12.9881 0.0000 -14.6375 0.0000
# 3 12.1482 12.9881 125.7993 0.0000 -5.3451 0.0000
# 4 0.0000 0.0000 0.0000 30.0696 0.0000 3.6272
# 5 8.5733 -14.6375 -5.3451 0.0000 29.5857 0.0000
# 6 0.0000 0.0000 0.0000 3.6272 0.0000 39.6717
#
#
#
# Elastic Compliance Matrix: (Units=1/GPa)
#
#
# Indices 1 2 3 4 5 6 
#
# 1 0.012903 -0.007221 -0.000817 0.000000 -0.007459 0.000000
# 2 -0.007221 0.019854 -0.000853 0.000000 0.011761 0.000000
# 3 -0.000817 -0.000853 0.008171 0.000000 0.001291 0.000000
# 4 0.000000 0.000000 0.000000 0.033627 0.000000 -0.003075
# 5 -0.007459 0.011761 0.001291 0.000000 0.042014 0.000000
# 6 0.000000 0.000000 0.000000 -0.003075 0.000000 0.025488
#
#
# Mechanical properties :
#
#
# Convention : Reuss Voigt Hill
#
# Bulk Modulus (GPa) = 43.20624 45.92077 44.56351
# Shear Modulus (GPa) = 29.84108 35.93305 32.88706
#
# Velocity S-wave (km/s) = 3.79722 4.16683 3.98631
# Velocity P-wave (km/s) = 6.33261 6.73338 6.53607
#
# Compressibility (1/GPa) = 0.02314480
#
# Stress axis : x y z
#
# Youngs Moduli (GPa) = 77.50185 50.36824 122.38399
#
# Poissons Ratio (x) = 0.36373 0.10004
# Poissons Ratio (y) = 0.55967 0.10436
# Poissons Ratio (z) = 0.06335 0.04295
#
# Static dielectric constant tensor:
#      x y z
#    x 1.761510 0.000000 0.061800 
#    y 0.000000 1.729700 0.000000 
#    z 0.061800 0.000000 1.778280 
# 
# From -- ./inp_files/152628.got.cif
#   From: 2010.05.17/outbox.ucp.g08.bks.cvg/sg15_77_cif.got.tgz:152628.got - 2010.06.11 12:40:34.
