data_PCOD9309296
_publ_section_title
;
Structure prediction by ZEFSAII (Michael W. Deem and Ramdas Pophale) SiO2 
 PCOD9309296
Probable space group: C 2/C
;
_chemical_formula_sum "Si O2"
_cell_formula_units_Z 24
_cell_length_a 12.000000
_cell_length_b 21.000000
_cell_length_c 12.000000
_cell_angle_alpha 90.000000
_cell_angle_beta 50.000000
_cell_angle_gamma 90.000000
_cell_volume 2316.518396
_symmetry_space_group_name_H-M "C 2/C"
_symmetry_group_IT_number 15
_symmetry_cell_setting 'monoclinic'
loop_
_space_group_symop_operation_xyz
x,y,z
-x,y,1/2-z
-x,-y,-z
x,-y,1/2+z
1/2+x,1/2+y,z
1/2-x,1/2+y,1/2-z
1/2-x,1/2-y,-z
1/2+x,1/2-y,1/2+z
loop_
_atom_site_type_symbol
_atom_site_label
_atom_site_fract_x
_atom_site_fract_y
_atom_site_fract_z
Si Si1 0.582794 0.420933 0.995615
Si Si2 0.851452 0.777870 0.531439
Si Si3 0.132209 0.012250 0.251044
Si Si4 0.842716 0.509526 0.917358
Si Si5 0.168526 0.734192 0.374518
Si Si6 0.665537 0.159018 0.603097
O O1 0.599087 0.349701 0.027412
O O2 0.609058 0.427545 0.846690
O O3 0.721136 0.461975 0.948872
O O4 0.429824 0.452555 0.134269
O O5 0.750000 0.750000 0.500000
O O6 0.762888 0.778935 0.704292
O O7 0.999118 0.738097 0.452055
O O8 0.000000 0.017571 0.250000
O O9 0.288658 0.006465 0.086134
O O10 0.814960 0.583289 0.905845
O O11 0.000000 0.495523 0.750000
O O12 0.223958 0.801293 0.391087
O O13 0.186312 0.683933 0.463576
O O14 0.500000 0.173480 0.750000
#
# Coordination Sequence:
#
# PCOD9309296 Si02
#       6
#     8   8   8   8   8   8
#     4  10  23  43  64  97 130 180 228 267 334 397
#     4  12  27  45  65  98 139 189 228 269 332 416
#     4   9  20  39  64  97 127 166 223 281 322 398
#     4  10  22  39  65  99 133 167 210 285 342 398
#     4  11  24  43  70  96 135 183 222 290 332 401
#     4  10  21  43  68 105 133 166 230 284 357 390
#
# _framework density 10.360374999999999
#
# number of rings (size 3 to 8) (size 9 to 14) (size 15 to 20)
#    0.000    1.667    1.667    1.500    7.000    6.000 
#    0.000    0.000    0.000    0.000    0.000    0.000 
#    0.000    0.000    0.000    0.000    0.000    0.000 
#
# Total GULP energy -133816.752343 kJ/mol
# GULP energy per Si atom -5575.698014 kJ/mol
# Density = 1.033679 g / cm^3
# Si number density = 10.360375 Si / 1000 Ang^3
#
#
#
# Elastic Constant Matrix: (Units=GPa)
#
#
# Indices 1 2 3 4 5 6 
#
# 1 75.2322 12.4969 12.7381 0.0000 -0.4515 0.0000
# 2 12.4969 71.8185 7.3837 0.0000 2.4430 0.0000
# 3 12.7381 7.3837 139.1704 0.0000 -4.2530 0.0000
# 4 0.0000 0.0000 0.0000 25.4668 0.0000 -5.8763
# 5 -0.4515 2.4430 -4.2530 0.0000 33.7021 0.0000
# 6 0.0000 0.0000 0.0000 -5.8763 0.0000 28.3919
#
#
#
# Elastic Compliance Matrix: (Units=1/GPa)
#
#
# Indices 1 2 3 4 5 6 
#
# 1 0.013869 -0.002303 -0.001141 0.000000 0.000209 0.000000
# 2 -0.002303 0.014425 -0.000590 0.000000 -0.001151 0.000000
# 3 -0.001141 -0.000590 0.007350 0.000000 0.000955 0.000000
# 4 0.000000 0.000000 0.000000 0.041236 0.000000 0.008535
# 5 0.000209 -0.001151 0.000955 0.000000 0.029878 0.000000
# 6 0.000000 0.000000 0.000000 0.008535 0.000000 0.036988
#
#
# Mechanical properties :
#
#
# Convention : Reuss Voigt Hill
#
# Bulk Modulus (GPa) = 36.26250 39.05096 37.65673
# Shear Modulus (GPa) = 31.05474 34.41898 32.73686
#
# Velocity S-wave (km/s) = 3.87554 4.08007 3.97912
# Velocity P-wave (km/s) = 6.12903 6.40961 6.27089
#
# Compressibility (1/GPa) = 0.02757670
#
# Stress axis : x y z
#
# Youngs Moduli (GPa) = 72.10234 69.32635 136.04835
#
# Poissons Ratio (x) = 0.15967 0.15521
# Poissons Ratio (y) = 0.16606 0.08022
# Poissons Ratio (z) = 0.08226 0.04088
#
# Static dielectric constant tensor:
#      x y z
#    x 1.769160 0.000000 0.055100 
#    y 0.000000 1.746180 0.000000 
#    z 0.055100 0.000000 1.792610 
# 
# From -- ./inp_files/89388.got.cif
#   From: 2010.05.17/outbox.ucp.g08.bks.cvg/sg15_45_cif.got.tgz:89388.got - 2010.06.11 12:40:34.
