data_PCOD9309953
_publ_section_title
;
Structure prediction by ZEFSAII (Michael W. Deem and Ramdas Pophale) SiO2 
 PCOD9309953
Probable space group: P 2 2 2
;
_chemical_formula_sum "Si O2"
_cell_formula_units_Z 32
_cell_length_a 9.127561
_cell_length_b 10.226827
_cell_length_c 16.560504
_cell_angle_alpha 90.000000
_cell_angle_beta 90.000000
_cell_angle_gamma 90.000000
_cell_volume 1545.856596
_symmetry_space_group_name_H-M "P 2 2 2"
_symmetry_group_IT_number 16
_symmetry_cell_setting 'orthorhombic'
loop_
_space_group_symop_operation_xyz
x,y,z
-x,-y,z
x,-y,-z
-x,y,-z
loop_
_atom_site_type_symbol
_atom_site_label
_atom_site_fract_x
_atom_site_fract_y
_atom_site_fract_z
Si Si1 0.816073 0.314760 0.251685
Si Si2 0.441631 0.142533 0.811841
Si Si3 0.164899 0.317735 0.479002
Si Si4 0.212702 0.939075 0.085959
Si Si5 0.755423 0.801073 0.188970
Si Si6 0.010121 0.691660 0.094935
Si Si7 0.670693 0.539378 0.613921
Si Si8 0.936537 0.147565 0.656196
O O1 0.695432 0.201946 0.235240
O O2 0.887757 0.366320 0.167428
O O3 0.726535 0.425035 0.297899
O O4 0.937786 0.248303 0.310459
O O5 0.370492 0.127869 0.900418
O O6 0.584696 0.230549 0.811951
O O7 0.500000 0.000000 0.783883
O O8 0.275088 0.340381 0.554962
O O9 0.235024 0.417074 0.415659
O O10 0.131266 0.183401 0.431265
O O11 0.000000 0.360031 0.500000
O O12 0.082573 0.836587 0.094499
O O13 0.214985 0.056902 0.148888
O O14 0.201781 0.000000 0.000000
O O15 0.810942 0.822853 0.278969
O O16 0.851289 0.703243 0.135195
O O17 0.000000 0.649883 0.000000
O O18 0.500000 0.500000 0.607402
O O19 0.000000 0.000000 0.659251
#
# Coordination Sequence:
#
# PCOD9309953 Si02
#       8
#     4   4   4   4   4   4   4   4
#     4  10  22  39  59  91 131 170 214 268 329 392
#     4   9  19  32  47  76 126 166 207 258 315 392
#     4  11  23  43  70 100 125 156 210 275 322 384
#     4  10  17  28  46  74 118 172 215 262 313 378
#     4  10  19  30  49  79 118 170 215 254 306 380
#     4  10  18  31  51  82 123 161 215 268 321 382
#     4  11  24  45  71  96 126 159 222 289 334 369
#     4  11  22  38  64  95 136 170 202 248 326 410
#
# _framework density 20.700498
#
# number of rings (size 3 to 8) (size 9 to 14) (size 15 to 20)
#    0.000    1.750    2.500    4.875    1.750    2.500 
#    0.000    0.000    0.000    0.000    0.000    7.000 
#    0.000    0.000    0.000    0.000    0.000    0.000 
#
# Total GULP energy -178217.034625 kJ/mol
# GULP energy per Si atom -5569.282332 kJ/mol
# Density = 2.065338 g / cm^3
# Si number density = 20.700498 Si / 1000 Ang^3
#
#
#
# Elastic Constant Matrix: (Units=GPa)
#
#
# Indices 1 2 3 4 5 6 
#
# 1 158.7675 16.2946 44.2693 0.0000 0.0000 0.0000
# 2 16.2946 21.1682 17.5559 0.0000 0.0000 0.0000
# 3 44.2693 17.5559 106.5491 0.0000 0.0000 0.0000
# 4 0.0000 0.0000 0.0000 3.9545 0.0000 0.0000
# 5 0.0000 0.0000 0.0000 0.0000 32.8240 0.0000
# 6 0.0000 0.0000 0.0000 0.0000 0.0000 20.4359
#
#
#
# Elastic Compliance Matrix: (Units=1/GPa)
#
#
# Indices 1 2 3 4 5 6 
#
# 1 0.007356 -0.003623 -0.002459 0.000000 0.000000 0.000000
# 2 -0.003623 0.056502 -0.007805 0.000000 0.000000 0.000000
# 3 -0.002459 -0.007805 0.011693 0.000000 0.000000 0.000000
# 4 0.000000 0.000000 0.000000 0.252875 0.000000 0.000000
# 5 0.000000 0.000000 0.000000 0.000000 0.030466 0.000000
# 6 0.000000 0.000000 0.000000 0.000000 0.000000 0.048933
#
#
# Mechanical properties :
#
#
# Convention : Reuss Voigt Hill
#
# Bulk Modulus (GPa) = 20.93021 49.19160 35.06090
# Shear Modulus (GPa) = 11.07360 25.33388 18.20374
#
# Velocity S-wave (km/s) = 2.31539 3.50212 2.96866
# Velocity P-wave (km/s) = 4.15704 6.33784 5.35953
#
# Compressibility (1/GPa) = 0.04777782
#
# Stress axis : x y z
#
# Youngs Moduli (GPa) = 135.94180 17.69848 85.52024
#
# Poissons Ratio (x) = 0.06412 0.21033
# Poissons Ratio (y) = 0.49248 0.66745
# Poissons Ratio (z) = 0.33434 0.13813
#
# Static dielectric constant tensor:
#      x y z
#    x 1.757330 0.000000 0.000000 
#    y 0.000000 1.810500 0.000000 
#    z 0.000000 0.000000 1.664710 
# 
# From -- ./inp_files/7996.got.cif
#   From: 2010.05.17/outbox.cif.g08.bks.cpg/sg16_4_cif.got.tgz:7996.got - 2010.06.03 22:28:35.
