data_PCOD9309663
_publ_section_title
;
Structure prediction by ZEFSAII (Michael W. Deem and Ramdas Pophale) SiO2 
 PCOD9309663
Probable space group: C 2/C
;
_chemical_formula_sum "Si O2"
_cell_formula_units_Z 28
_cell_length_a 30.000000
_cell_length_b 12.000000
_cell_length_c 15.000000
_cell_angle_alpha 90.000000
_cell_angle_beta 30.000000
_cell_angle_gamma 90.000000
_cell_volume 2700.000000
_symmetry_space_group_name_H-M "C 2/C"
_symmetry_group_IT_number 15
_symmetry_cell_setting 'monoclinic'
loop_
_space_group_symop_operation_xyz
x,y,z
-x,y,1/2-z
-x,-y,-z
x,-y,1/2+z
1/2+x,1/2+y,z
1/2-x,1/2+y,1/2-z
1/2-x,1/2-y,-z
1/2+x,1/2-y,1/2+z
loop_
_atom_site_type_symbol
_atom_site_label
_atom_site_fract_x
_atom_site_fract_y
_atom_site_fract_z
Si Si1 0.857170 0.168848 0.149033
Si Si2 0.664336 0.761625 0.507456
Si Si3 0.533294 0.041452 0.291772
Si Si4 0.515590 0.327347 0.625177
Si Si5 0.431653 0.847323 0.137845
Si Si6 0.327048 0.422946 0.234628
Si Si7 0.441334 0.431097 0.213708
O O1 0.829060 0.234157 0.108733
O O2 0.858872 0.258378 0.226966
O O3 0.802702 0.052888 0.258120
O O4 0.960901 0.127511 0.955320
O O5 0.590171 0.851714 0.663363
O O6 0.752858 0.829569 0.384070
O O7 0.628834 0.644770 0.609909
O O8 0.500000 0.000534 0.250000
O O9 0.467107 0.091764 0.484764
O O10 0.584467 0.945017 0.260561
O O11 0.500000 0.279026 0.750000
O O12 0.498122 0.235960 0.577933
O O13 0.616051 0.373177 0.445043
O O14 0.455751 0.440488 0.718362
O O15 0.399294 0.431981 0.188560
#
# Coordination Sequence:
#
# PCOD9309663 Si02
#       7
#     8   8   8   8   8   8   8
#     4  11  20  43  66  91 132 181 223 273 326 418
#     4  12  23  40  65 101 136 172 222 283 356 403
#     4  11  22  40  65  97 129 185 230 273 338 422
#     4  11  21  40  68  99 128 174 236 278 331 401
#     4  11  21  39  68  95 128 170 238 279 319 402
#     4  11  23  40  64 103 134 169 226 296 340 392
#     4  11  19  39  72  94 127 178 235 271 329 416
#
# _framework density 10.370369999999999
#
# number of rings (size 3 to 8) (size 9 to 14) (size 15 to 20)
#    0.000    0.857    5.714    3.857    0.000    0.000 
#    5.143    5.000    0.000    0.000    0.000    0.000 
#    0.000    0.000    0.000    0.000    0.000    0.000 
#
# Total GULP energy -156060.731914 kJ/mol
# GULP energy per Si atom -5573.597568 kJ/mol
# Density = 1.034677 g / cm^3
# Si number density = 10.370370 Si / 1000 Ang^3
#
#
#
# Elastic Constant Matrix: (Units=GPa)
#
#
# Indices 1 2 3 4 5 6 
#
# 1 83.4934 14.4635 13.0302 0.0000 20.7961 0.0000
# 2 14.4635 118.9753 11.3320 0.0000 6.7581 0.0000
# 3 13.0302 11.3320 44.6503 0.0000 7.3282 0.0000
# 4 0.0000 0.0000 0.0000 36.2244 0.0000 8.1088
# 5 20.7961 6.7581 7.3282 0.0000 30.1599 0.0000
# 6 0.0000 0.0000 0.0000 8.1088 0.0000 44.8978
#
#
#
# Elastic Compliance Matrix: (Units=1/GPa)
#
#
# Indices 1 2 3 4 5 6 
#
# 1 0.014900 -0.001034 -0.002539 0.000000 -0.009425 0.000000
# 2 -0.001034 0.008747 -0.001785 0.000000 -0.000813 0.000000
# 3 -0.002539 -0.001785 0.024202 0.000000 -0.003730 0.000000
# 4 0.000000 0.000000 0.000000 0.028769 0.000000 -0.005196
# 5 -0.009425 -0.000813 -0.003730 0.000000 0.040744 0.000000
# 6 0.000000 0.000000 0.000000 -0.005196 0.000000 0.023211
#
#
# Mechanical properties :
#
#
# Convention : Reuss Voigt Hill
#
# Bulk Modulus (GPa) = 26.92948 36.08559 31.50754
# Shear Modulus (GPa) = 30.54985 36.14263 33.34624
#
# Velocity S-wave (km/s) = 3.84205 4.17896 4.01404
# Velocity P-wave (km/s) = 5.71786 6.38131 6.05867
#
# Compressibility (1/GPa) = 0.03713402
#
# Stress axis : x y z
#
# Youngs Moduli (GPa) = 67.11412 114.32490 41.31834
#
# Poissons Ratio (x) = 0.11823 0.10490
# Poissons Ratio (y) = 0.06941 0.07374
# Poissons Ratio (z) = 0.17039 0.20403
#
# Static dielectric constant tensor:
#      x y z
#    x 1.781910 0.000000 0.015220 
#    y 0.000000 1.771470 0.000000 
#    z 0.015220 0.000000 1.802010 
# 
# From -- ./inp_files/181895.got.cif
#   From: 2010.05.17/outbox.ucp.g08.bks.cvg/sg15_91_cif.got.tgz:181895.got - 2010.06.11 12:40:34.
