data_PCOD9309982
_publ_section_title
;
Structure prediction by ZEFSAII (Michael W. Deem and Ramdas Pophale) SiO2 
 PCOD9309982
Probable space group: P 2 2 2
;
_chemical_formula_sum "Si O2"
_cell_formula_units_Z 32
_cell_length_a 16.476332
_cell_length_b 12.600730
_cell_length_c 8.747266
_cell_angle_alpha 90.000000
_cell_angle_beta 90.000000
_cell_angle_gamma 90.000000
_cell_volume 1816.053229
_symmetry_space_group_name_H-M "P 2 2 2"
_symmetry_group_IT_number 16
_symmetry_cell_setting 'orthorhombic'
loop_
_space_group_symop_operation_xyz
x,y,z
-x,-y,z
x,-y,-z
-x,y,-z
loop_
_atom_site_type_symbol
_atom_site_label
_atom_site_fract_x
_atom_site_fract_y
_atom_site_fract_z
Si Si1 0.906802 0.019002 0.680294
Si Si2 0.841425 0.769541 0.177290
Si Si3 0.245373 0.537037 0.329675
Si Si4 0.668623 0.720983 0.814881
Si Si5 0.679038 0.658695 0.170200
Si Si6 0.781855 0.100510 0.105646
Si Si7 0.498527 0.376239 0.185762
Si Si8 0.091550 0.536716 0.829512
O O1 0.880243 0.138236 0.722524
O O2 0.902015 0.000000 0.500000
O O3 0.844713 0.942372 0.769405
O O4 0.000000 0.000000 0.730111
O O5 0.750928 0.734198 0.230574
O O6 0.894450 0.662916 0.177504
O O7 0.828091 0.817483 0.007549
O O8 0.263398 0.500000 0.500000
O O9 0.272771 0.655340 0.295723
O O10 0.294742 0.459859 0.215112
O O11 0.151915 0.517813 0.289525
O O12 0.703278 0.839760 0.827211
O O13 0.576689 0.692436 0.767280
O O14 0.677777 0.674814 0.987603
O O15 0.587924 0.674300 0.229670
O O16 0.758382 0.000000 0.000000
O O17 0.500000 0.500000 0.237250
O O18 0.500000 0.379516 0.000000
O O19 0.000000 0.500000 0.805277
O O20 0.116224 0.500000 0.000000
#
# Coordination Sequence:
#
# PCOD9309982 Si02
#       8
#     4   4   4   4   4   4   4   4
#     4  10  22  38  56  78 101 132 182 234 273 317
#     4   9  19  35  55  77 104 139 169 220 275 314
#     4  11  21  31  46  73 107 144 178 211 259 320
#     4  10  18  32  55  76 105 143 176 222 272 311
#     4   9  17  33  52  74 107 137 178 213 262 327
#     4   9  19  34  55  80 103 134 180 226 273 325
#     4   9  15  26  52  83 104 136 180 218 262 319
#     4  10  21  36  54  77 106 140 178 213 262 337
#
# _framework density 17.620629000000001
#
# number of rings (size 3 to 8) (size 9 to 14) (size 15 to 20)
#    0.000    2.375    1.250    2.625    0.000    7.500 
#    0.000    3.750    0.000   17.625    0.000    0.875 
#    0.000    0.000    0.000    0.000    0.000    0.000 
#
# Total GULP energy -178374.181495 kJ/mol
# GULP energy per Si atom -5574.193172 kJ/mol
# Density = 1.758052 g / cm^3
# Si number density = 17.620629 Si / 1000 Ang^3
#
#
#
# Elastic Constant Matrix: (Units=GPa)
#
#
# Indices 1 2 3 4 5 6 
#
# 1 128.6227 86.0468 30.0559 0.0000 0.0000 0.0000
# 2 86.0468 106.9773 26.9713 0.0000 0.0000 0.0000
# 3 30.0559 26.9713 28.7162 0.0000 0.0000 0.0000
# 4 0.0000 0.0000 0.0000 11.6975 0.0000 0.0000
# 5 0.0000 0.0000 0.0000 0.0000 -24.0820 0.0000
# 6 0.0000 0.0000 0.0000 0.0000 0.0000 22.6369
#
#
#
# Elastic Compliance Matrix: (Units=1/GPa)
#
#
# Indices 1 2 3 4 5 6 
#
# 1 0.017787 -0.012596 -0.006786 0.000000 0.000000 0.000000
# 2 -0.012596 0.021168 -0.006698 0.000000 0.000000 0.000000
# 3 -0.006786 -0.006698 0.048218 0.000000 0.000000 0.000000
# 4 0.000000 0.000000 0.000000 0.085488 0.000000 0.000000
# 5 0.000000 0.000000 0.000000 0.000000 -0.041525 0.000000
# 6 0.000000 0.000000 0.000000 0.000000 0.000000 0.044176
#
#
# Mechanical properties :
#
#
# Convention : Reuss Voigt Hill
#
# Bulk Modulus (GPa) = 28.56175 61.16267 44.86221
# Shear Modulus (GPa) = 20.90800 10.13329 15.52064
#
# Velocity S-wave (km/s) = 3.44839 2.40069 2.97108
# Velocity P-wave (km/s) = 5.66566 6.51695 6.10615
#
# Compressibility (1/GPa) = 0.03501186
#
# Stress axis : x y z
#
# Youngs Moduli (GPa) = 56.22112 47.24110 20.73931
#
# Poissons Ratio (x) = 0.59504 0.14074
# Poissons Ratio (y) = 0.70815 0.13892
# Poissons Ratio (z) = 0.38153 0.31643
#
# Static dielectric constant tensor:
#      x y z
#    x 1.628930 0.000000 0.000000 
#    y 0.000000 1.599000 0.000000 
#    z 0.000000 0.000000 1.595500 
# 
# From -- ./inp_files/5547.got.cif
#   From: 2010.05.17/outbox.cif.g08.bks.cpg/sg16_3_cif.got.tgz:5547.got - 2010.06.03 22:28:35.
