data_PCOD9309353
_publ_section_title
;
Structure prediction by ZEFSAII (Michael W. Deem and Ramdas Pophale) SiO2 
 PCOD9309353
Probable space group: C 2/C
;
_chemical_formula_sum "Si O2"
_cell_formula_units_Z 28
_cell_length_a 9.000000
_cell_length_b 12.000000
_cell_length_c 27.000000
_cell_angle_alpha 90.000000
_cell_angle_beta 110.000000
_cell_angle_gamma 90.000000
_cell_volume 2740.143682
_symmetry_space_group_name_H-M "C 2/C"
_symmetry_group_IT_number 15
_symmetry_cell_setting 'monoclinic'
loop_
_space_group_symop_operation_xyz
x,y,z
-x,y,1/2-z
-x,-y,-z
x,-y,1/2+z
1/2+x,1/2+y,z
1/2-x,1/2+y,1/2-z
1/2-x,1/2-y,-z
1/2+x,1/2-y,1/2+z
loop_
_atom_site_type_symbol
_atom_site_label
_atom_site_fract_x
_atom_site_fract_y
_atom_site_fract_z
Si Si1 0.812303 0.304718 0.556634
Si Si2 0.988028 0.799837 0.691567
Si Si3 0.432525 0.884384 0.796895
Si Si4 0.355137 0.717213 0.868990
Si Si5 0.141954 0.322042 0.124386
Si Si6 0.658612 0.970678 0.393994
Si Si7 0.128664 0.975065 0.296650
O O1 0.750000 0.250000 0.500000
O O2 0.702699 0.255199 0.587819
O O3 0.796646 0.438221 0.559664
O O4 0.996225 0.266674 0.584021
O O5 0.818600 0.772976 0.647917
O O6 0.000000 0.758167 0.750000
O O7 0.120692 0.746464 0.672957
O O8 0.986045 0.931776 0.693410
O O9 0.500000 0.875584 0.750000
O O10 0.402671 0.764286 0.819580
O O11 0.561318 0.955505 0.842806
O O12 0.270010 0.957244 0.784101
O O13 0.302938 0.594789 0.883193
O O14 0.280497 0.409163 0.151068
O O15 0.974903 0.386344 0.099178
O O16 0.000000 0.908295 0.250000
#
# Coordination Sequence:
#
# PCOD9309353 Si02
#       7
#     8   8   8   8   8   8   8
#     4  11  25  42  62  89 114 146 204 262 304 350
#     4   9  19  37  60  89 126 159 191 231 280 353
#     4   9  18  34  57  87 123 158 193 234 282 347
#     4   9  20  38  59  84 119 157 195 240 294 351
#     4  10  22  39  60  85 118 158 194 240 298 350
#     4   9  21  42  60  81 118 155 190 242 298 350
#     4   9  19  34  55  86 119 156 197 233 281 349
#
# _framework density 10.218442
#
# number of rings (size 3 to 8) (size 9 to 14) (size 15 to 20)
#    0.000    2.571    0.000    0.857    0.000   16.571 
#    0.000    3.571    0.000    0.857    0.000    0.000 
#    0.000    0.000    0.000    0.000    0.000    0.000 
#
# Total GULP energy -155919.169671 kJ/mol
# GULP energy per Si atom -5568.541774 kJ/mol
# Density = 1.019518 g / cm^3
# Si number density = 10.218442 Si / 1000 Ang^3
#
#
#
# Elastic Constant Matrix: (Units=GPa)
#
#
# Indices 1 2 3 4 5 6 
#
# 1 36.9567 22.0408 16.1004 0.0000 4.1015 0.0000
# 2 22.0408 59.8148 -9.7098 0.0000 -3.9652 0.0000
# 3 16.1004 -9.7098 37.6676 0.0000 6.4822 0.0000
# 4 0.0000 0.0000 0.0000 -46.3414 0.0000 -15.1775
# 5 4.1015 -3.9652 6.4822 0.0000 22.3408 0.0000
# 6 0.0000 0.0000 0.0000 -15.1775 0.0000 35.8902
#
#
#
# Elastic Compliance Matrix: (Units=1/GPa)
#
#
# Indices 1 2 3 4 5 6 
#
# 1 0.056061 -0.025872 -0.029545 0.000000 -0.006311 0.000000
# 2 -0.025872 0.029464 0.017827 0.000000 0.004807 0.000000
# 3 -0.029545 0.017827 0.044517 0.000000 -0.004328 0.000000
# 4 0.000000 0.000000 0.000000 -0.018954 0.000000 -0.008015
# 5 -0.006311 0.004807 -0.004328 0.000000 0.048029 0.000000
# 6 0.000000 0.000000 0.000000 -0.008015 0.000000 0.024473
#
#
# Mechanical properties :
#
#
# Convention : Reuss Voigt Hill
#
# Bulk Modulus (GPa) = 18.22816 21.25576 19.74196
# Shear Modulus (GPa) = 18.04676 9.44512 13.74594
#
# Velocity S-wave (km/s) = 2.97484 2.15212 2.59628
# Velocity P-wave (km/s) = 4.55392 4.07416 4.32070
#
# Compressibility (1/GPa) = 0.05486018
#
# Stress axis : x y z
#
# Youngs Moduli (GPa) = 17.83783 33.93955 22.46338
#
# Poissons Ratio (x) = 0.87808 0.66369
# Poissons Ratio (y) = 0.46150 -0.40044
# Poissons Ratio (z) = 0.52702 -0.60502
#
# Static dielectric constant tensor:
#      x y z
#    x 1.734880 0.000000 0.008090 
#    y 0.000000 1.801850 0.000000 
#    z 0.008090 0.000000 1.789090 
# 
# From -- ./inp_files/288077.got.cif
#   From: 2010.05.17/outbox.ucp.g08.bks.cvg/sg15_145_cif.got.tgz:288077.got - 2010.06.11 12:40:34.
