data_PCOD9309863
_publ_section_title
;
Structure prediction by ZEFSAII (Michael W. Deem and Ramdas Pophale) SiO2 
 PCOD9309863
Probable space group: C 2/C
;
_chemical_formula_sum "Si O2"
_cell_formula_units_Z 28
_cell_length_a 30.000000
_cell_length_b 9.000000
_cell_length_c 12.000000
_cell_angle_alpha 90.000000
_cell_angle_beta 120.000000
_cell_angle_gamma 90.000000
_cell_volume 2805.922308
_symmetry_space_group_name_H-M "C 2/C"
_symmetry_group_IT_number 15
_symmetry_cell_setting 'monoclinic'
loop_
_space_group_symop_operation_xyz
x,y,z
-x,y,1/2-z
-x,-y,-z
x,-y,1/2+z
1/2+x,1/2+y,z
1/2-x,1/2+y,1/2-z
1/2-x,1/2-y,-z
1/2+x,1/2-y,1/2+z
loop_
_atom_site_type_symbol
_atom_site_label
_atom_site_fract_x
_atom_site_fract_y
_atom_site_fract_z
Si Si1 0.708202 0.720575 0.690690
Si Si2 0.134501 0.579522 0.256416
Si Si3 0.045532 0.627289 0.540732
Si Si4 0.554088 0.361792 0.756376
Si Si5 0.910396 0.195595 0.611766
Si Si6 0.160890 0.278259 0.394184
Si Si7 0.683249 0.371154 0.681434
O O1 0.670236 0.824198 0.717819
O O2 0.697392 0.744468 0.544736
O O3 0.697760 0.546293 0.702059
O O4 0.766478 0.774053 0.787766
O O5 0.094960 0.475102 0.136010
O O6 0.107601 0.693642 0.310698
O O7 0.164023 0.451840 0.364451
O O8 0.044574 0.772364 0.624736
O O9 0.052333 0.706732 0.426549
O O10 0.000000 0.500000 0.500000
O O11 0.500000 0.339697 0.750000
O O12 0.568709 0.539381 0.802776
O O13 0.603362 0.269338 0.862245
O O14 0.862769 0.153831 0.467099
O O15 0.168831 0.183482 0.289430
#
# Coordination Sequence:
#
# PCOD9309863 Si02
#       7
#     8   8   8   8   8   8   8
#     4  12  27  45  74 102 147 189 250 304 368 440
#     4  11  26  44  75 105 144 189 241 301 377 429
#     4  11  28  48  77 107 149 195 250 302 374 444
#     4  11  26  45  74 106 145 191 244 299 377 429
#     4  12  26  49  72 107 153 186 249 306 369 453
#     4  11  24  50  69 104 146 189 243 307 360 445
#     4  12  26  47  72 105 144 198 245 303 378 437
#
# _framework density 9.9788940000000004
#
# number of rings (size 3 to 8) (size 9 to 14) (size 15 to 20)
#    0.000    0.571    4.286    3.000   10.000    1.143 
#    0.000    0.000    0.000    0.000    0.000    0.000 
#    0.000    0.000    0.000    0.000    0.000    0.000 
#
# Total GULP energy -156251.850611 kJ/mol
# GULP energy per Si atom -5580.423236 kJ/mol
# Density = 0.995618 g / cm^3
# Si number density = 9.978894 Si / 1000 Ang^3
#
#
#
# Elastic Constant Matrix: (Units=GPa)
#
#
# Indices 1 2 3 4 5 6 
#
# 1 110.7423 47.7831 28.4895 0.0000 -9.8186 0.0000
# 2 47.7831 176.4582 34.3167 0.0000 -15.0192 0.0000
# 3 28.4895 34.3167 76.1340 0.0000 -14.5558 0.0000
# 4 0.0000 0.0000 0.0000 48.6742 0.0000 -2.2942
# 5 -9.8186 -15.0192 -14.5558 0.0000 39.0805 0.0000
# 6 0.0000 0.0000 0.0000 -2.2942 0.0000 51.1426
#
#
#
# Elastic Compliance Matrix: (Units=1/GPa)
#
#
# Indices 1 2 3 4 5 6 
#
# 1 0.010832 -0.002311 -0.002865 0.000000 0.000766 0.000000
# 2 -0.002311 0.006781 -0.001943 0.000000 0.001302 0.000000
# 3 -0.002865 -0.001943 0.015937 0.000000 0.004469 0.000000
# 4 0.000000 0.000000 0.000000 0.020588 0.000000 0.000924
# 5 0.000766 0.001302 0.004469 0.000000 0.027946 0.000000
# 6 0.000000 0.000000 0.000000 0.000924 0.000000 0.019595
#
#
# Mechanical properties :
#
#
# Convention : Reuss Voigt Hill
#
# Bulk Modulus (GPa) = 51.78015 64.94590 58.36303
# Shear Modulus (GPa) = 40.86461 44.62915 42.74688
#
# Velocity S-wave (km/s) = 4.52990 4.73395 4.63305
# Velocity P-wave (km/s) = 7.30487 7.90523 7.61097
#
# Compressibility (1/GPa) = 0.01931242
#
# Stress axis : x y z
#
# Youngs Moduli (GPa) = 92.31820 147.46012 62.74612
#
# Poissons Ratio (x) = 0.34075 0.17979
# Poissons Ratio (y) = 0.21333 0.12192
# Poissons Ratio (z) = 0.26452 0.28653
#
# Static dielectric constant tensor:
#      x y z
#    x 1.751590 0.000000 0.019600 
#    y 0.000000 1.696820 0.000000 
#    z 0.019600 0.000000 1.722380 
# 
# From -- ./inp_files/125970.got.cif
#   From: 2010.05.17/outbox.ucp.g08.bks.cvg/sg15_63_cif.got.tgz:125970.got - 2010.06.11 12:40:34.
