data_PCOD9309370
_publ_section_title
;
Structure prediction by ZEFSAII (Michael W. Deem and Ramdas Pophale) SiO2 
 PCOD9309370
Probable space group: C 2/C
;
_chemical_formula_sum "Si O2"
_cell_formula_units_Z 18
_cell_length_a 12.000000
_cell_length_b 9.000000
_cell_length_c 18.000000
_cell_angle_alpha 90.000000
_cell_angle_beta 110.000000
_cell_angle_gamma 90.000000
_cell_volume 1826.762455
_symmetry_space_group_name_H-M "C 2/C"
_symmetry_group_IT_number 15
_symmetry_cell_setting 'monoclinic'
loop_
_space_group_symop_operation_xyz
x,y,z
-x,y,1/2-z
-x,-y,-z
x,-y,1/2+z
1/2+x,1/2+y,z
1/2-x,1/2+y,1/2-z
1/2-x,1/2-y,-z
1/2+x,1/2-y,1/2+z
loop_
_atom_site_type_symbol
_atom_site_label
_atom_site_fract_x
_atom_site_fract_y
_atom_site_fract_z
Si Si1 0.068666 0.480012 0.125038
Si Si2 0.832807 0.942159 0.990990
Si Si3 0.500000 0.832168 0.750000
Si Si4 0.433470 0.243146 0.491047
Si Si5 0.274881 0.709320 0.630620
O O1 0.031203 0.559131 0.190516
O O2 0.097181 0.621449 0.078196
O O3 0.179416 0.371095 0.159405
O O4 0.972605 0.367577 0.066434
O O5 0.758185 0.874157 0.906068
O O6 0.846946 0.119834 0.990983
O O7 0.779341 0.889525 0.056838
O O8 0.953338 0.842527 0.010953
O O9 0.395838 0.725281 0.700306
#
# Coordination Sequence:
#
# PCOD9309370 Si02
#       5
#     8   8   4   8   8
#     4  10  22  40  62  90 121 162 205 250 317 366
#     4   9  18  38  67  91 114 156 208 261 303 366
#     4  12  24  44  58  86 142 166 188 276 300 360
#     4   9  18  38  67  91 116 153 210 262 301 367
#     4  10  22  40  62  88 122 165 204 248 321 362
#
# _framework density 9.8534980000000001
#
# number of rings (size 3 to 8) (size 9 to 14) (size 15 to 20)
#    0.000    2.222    2.222    0.000    3.111    2.667 
#    8.000    0.000    0.000    0.000    0.000    0.000 
#    0.000    0.000    0.000    0.000    0.000    0.000 
#
# Total GULP energy -100277.759193 kJ/mol
# GULP energy per Si atom -5570.986622 kJ/mol
# Density = 0.983107 g / cm^3
# Si number density = 9.853498 Si / 1000 Ang^3
#
#
#
# Elastic Constant Matrix: (Units=GPa)
#
#
# Indices 1 2 3 4 5 6 
#
# 1 24.4698 -39.1508 126.2357 0.0000 59.2552 0.0000
# 2 -39.1508 -14.1828 247.1396 0.0000 128.0066 0.0000
# 3 126.2357 247.1396 -190.9198 0.0000 -137.9197 0.0000
# 4 0.0000 0.0000 0.0000 -0.6862 0.0000 -28.3484
# 5 59.2552 128.0066 -137.9197 0.0000 -56.5509 0.0000
# 6 0.0000 0.0000 0.0000 -28.3484 0.0000 104.6014
#
#
#
# Elastic Compliance Matrix: (Units=1/GPa)
#
#
# Indices 1 2 3 4 5 6 
#
# 1 0.018625 -0.006559 -0.000593 0.000000 0.006114 0.000000
# 2 -0.006559 0.006367 0.002023 0.000000 0.002605 0.000000
# 3 -0.000593 0.002023 0.007706 0.000000 -0.014835 0.000000
# 4 0.000000 0.000000 0.000000 -0.119488 0.000000 -0.032383
# 5 0.006114 0.002605 -0.014835 0.000000 0.030799 0.000000
# 6 0.000000 0.000000 0.000000 -0.032383 0.000000 0.000784
#
#
# Mechanical properties :
#
#
# Convention : Reuss Voigt Hill
#
# Bulk Modulus (GPa) = 44.56239 54.20183 49.38211
# Shear Modulus (GPa) = -133.44107 -24.85096 -79.14601
#
# Velocity S-wave (km/s) = -8.23769 -3.55494 -6.34418
# Velocity P-wave (km/s) = 8.23516 3.27314 5.34343
#
# Compressibility (1/GPa) = 0.02244045
#
# Stress axis : x y z
#
# Youngs Moduli (GPa) = 53.69207 157.05593 129.77253
#
# Poissons Ratio (x) = 1.03015 0.07693
# Poissons Ratio (y) = 0.35217 -0.26257
# Poissons Ratio (z) = 0.03183 -0.31778
#
# Static dielectric constant tensor:
#      x y z
#    x 1.801310 0.000000 0.017120 
#    y 0.000000 1.618090 0.000000 
#    z 0.017120 0.000000 1.674810 
# 
# From -- ./inp_files/150190.got.cif
#   From: 2010.05.17/outbox.ucp.g08.bks.cvg/sg15_76_cif.got.tgz:150190.got - 2010.06.11 12:40:34.
