data_PCOD9309949
_publ_section_title
;
Structure prediction by ZEFSAII (Michael W. Deem and Ramdas Pophale) SiO2 
 PCOD9309949
Probable space group: P 2 2 2
;
_chemical_formula_sum "Si O2"
_cell_formula_units_Z 20
_cell_length_a 21.577490
_cell_length_b 5.369347
_cell_length_c 7.229276
_cell_angle_alpha 90.000000
_cell_angle_beta 90.000000
_cell_angle_gamma 90.000000
_cell_volume 837.562455
_symmetry_space_group_name_H-M "P 2 2 2"
_symmetry_group_IT_number 16
_symmetry_cell_setting 'orthorhombic'
loop_
_space_group_symop_operation_xyz
x,y,z
-x,-y,z
x,-y,-z
-x,y,-z
loop_
_atom_site_type_symbol
_atom_site_label
_atom_site_fract_x
_atom_site_fract_y
_atom_site_fract_z
Si Si1 0.641816 0.492310 0.776402
Si Si2 0.833050 0.054035 0.287115
Si Si3 0.428326 0.999065 0.225146
Si Si4 0.216006 0.456387 0.287384
Si Si5 0.973111 0.755463 0.710781
O O1 0.599662 0.262322 0.716239
O O2 0.710800 0.418402 0.713230
O O3 0.612718 0.758565 0.718199
O O4 0.643721 0.500000 0.000000
O O5 0.791995 0.270359 0.198288
O O6 0.900470 0.183737 0.291539
O O7 0.813948 0.000000 0.500000
O O8 0.823526 0.775760 0.208250
O O9 0.500000 0.000000 0.281886
O O10 0.427628 0.000000 0.000000
O O11 0.194697 0.500000 0.500000
O O12 0.000000 0.500000 0.790139
O O13 0.000000 0.752824 0.500000
O O14 0.000000 0.000000 0.802768
#
# Coordination Sequence:
#
# PCOD9309949 Si02
#       5
#     4   4   4   4   4
#     4  10  19  33  52  74  99 129 167 203 242 295
#     4  10  18  30  43  66  97 134 161 192 245 296
#     4   9  17  30  52  78  99 121 159 213 258 287
#     4  10  21  32  48  67 100 139 162 196 239 299
#     4  10  17  24  41  63  92 126 151 198 243 293
#
# _framework density 23.878817999999999
#
# number of rings (size 3 to 8) (size 9 to 14) (size 15 to 20)
#    0.000    2.200    2.000    3.000    5.600    2.400 
#    0.000    0.000    0.000    3.600    0.000    0.000 
#    0.000   12.000    0.000    0.000    0.000    0.000 
#
# Total GULP energy -111544.314667 kJ/mol
# GULP energy per Si atom -5577.215733 kJ/mol
# Density = 2.382447 g / cm^3
# Si number density = 23.878818 Si / 1000 Ang^3
#
#
#
# Elastic Constant Matrix: (Units=GPa)
#
#
# Indices 1 2 3 4 5 6 
#
# 1 140.0653 66.2450 -18.2781 0.0000 0.0000 0.0000
# 2 66.2450 255.0628 -0.0442 0.0000 0.0000 0.0000
# 3 -18.2781 -0.0442 91.0022 0.0000 0.0000 0.0000
# 4 0.0000 0.0000 0.0000 -20.5945 0.0000 0.0000
# 5 0.0000 0.0000 0.0000 0.0000 5.4518 0.0000
# 6 0.0000 0.0000 0.0000 0.0000 0.0000 52.6753
#
#
#
# Elastic Compliance Matrix: (Units=1/GPa)
#
#
# Indices 1 2 3 4 5 6 
#
# 1 0.008390 -0.002179 0.001684 0.000000 0.000000 0.000000
# 2 -0.002179 0.004486 -0.000435 0.000000 0.000000 0.000000
# 3 0.001684 -0.000435 0.011327 0.000000 0.000000 0.000000
# 4 0.000000 0.000000 0.000000 -0.048557 0.000000 0.000000
# 5 0.000000 0.000000 0.000000 0.000000 0.183426 0.000000
# 6 0.000000 0.000000 0.000000 0.000000 0.000000 0.018984
#
#
# Mechanical properties :
#
#
# Convention : Reuss Voigt Hill
#
# Bulk Modulus (GPa) = 44.75723 64.66395 54.71059
# Shear Modulus (GPa) = 26.68599 36.72036 31.70317
#
# Velocity S-wave (km/s) = 3.34662 3.92571 3.64767
# Velocity P-wave (km/s) = 5.80666 6.90558 6.37983
#
# Compressibility (1/GPa) = 0.02234276
#
# Stress axis : x y z
#
# Youngs Moduli (GPa) = 119.19357 222.89704 88.28632
#
# Poissons Ratio (x) = 0.48562 -0.14868
# Poissons Ratio (y) = 0.25969 0.03844
# Poissons Ratio (z) = -0.20073 0.09705
#
# Static dielectric constant tensor:
#      x y z
#    x 1.941310 0.000000 0.000000 
#    y 0.000000 1.970480 0.000000 
#    z 0.000000 0.000000 1.928410 
# 
# From -- ./inp_files/1897.got.cif
#   From: 2010.05.17/outbox.cif.g08.bks.cpg/sg16_1_cif.got.tgz:1897.got - 2010.06.03 22:28:35.
