data_PCOD9309756
_publ_section_title
;
Structure prediction by ZEFSAII (Michael W. Deem and Ramdas Pophale) SiO2 
 PCOD9309756
Probable space group: C 2/C
;
_chemical_formula_sum "Si O2"
_cell_formula_units_Z 30
_cell_length_a 15.000000
_cell_length_b 21.000000
_cell_length_c 27.000000
_cell_angle_alpha 90.000000
_cell_angle_beta 160.000000
_cell_angle_gamma 90.000000
_cell_volume 2908.881319
_symmetry_space_group_name_H-M "C 2/C"
_symmetry_group_IT_number 15
_symmetry_cell_setting 'monoclinic'
loop_
_space_group_symop_operation_xyz
x,y,z
-x,y,1/2-z
-x,-y,-z
x,-y,1/2+z
1/2+x,1/2+y,z
1/2-x,1/2+y,1/2-z
1/2-x,1/2-y,-z
1/2+x,1/2-y,1/2+z
loop_
_atom_site_type_symbol
_atom_site_label
_atom_site_fract_x
_atom_site_fract_y
_atom_site_fract_z
Si Si1 0.979721 0.727455 0.582177
Si Si2 0.718766 0.663754 0.133955
Si Si3 0.000000 0.878510 0.250000
Si Si4 0.270901 0.419292 0.762742
Si Si5 0.371743 0.029969 0.882743
Si Si6 0.660674 0.617538 0.384298
Si Si7 0.442516 0.697082 0.889433
Si Si8 0.846306 0.671233 0.013036
O O1 0.750000 0.750000 0.500000
O O2 0.823059 0.682170 0.462682
O O3 0.142712 0.778625 0.633268
O O4 0.177625 0.685912 0.720139
O O5 0.708894 0.602822 0.168215
O O6 0.000000 0.667601 0.250000
O O7 0.510016 0.667669 0.978779
O O8 0.163179 0.921897 0.297468
O O9 0.171290 0.834331 0.373853
O O10 0.265742 0.488579 0.732728
O O11 0.480459 0.381316 0.838791
O O12 0.992413 0.393746 0.599528
O O13 0.622608 0.064735 0.991754
O O14 0.500000 0.000000 0.000000
O O15 0.500000 0.603574 0.250000
O O16 0.680052 0.683018 0.975675
O O17 0.450826 0.773779 0.894821
#
# Coordination Sequence:
#
# PCOD9309756 Si02
#       8
#     8   8   4   8   8   8   8   8
#     4  12  26  44  66 107 147 189 230 296 362 436
#     4  12  25  44  73 101 144 198 243 290 355 440
#     4  12  24  38  68 104 128 184 232 304 374 424
#     4  12  24  45  65 101 141 187 236 297 357 427
#     4  12  24  40  68  98 138 177 234 299 369 423
#     4  12  25  44  70 105 145 182 230 298 373 434
#     4  11  24  40  65 104 142 188 231 280 352 443
#     4  11  22  39  65 100 143 173 235 291 352 429
#
# _framework density 10.313243
#
# number of rings (size 3 to 8) (size 9 to 14) (size 15 to 20)
#    0.000    0.267    6.667    2.400    8.400    0.000 
#    0.000    0.000    0.000    7.200    0.000    0.000 
#    0.000    0.000    0.000    0.000    0.000    0.000 
#
# Total GULP energy -167158.264422 kJ/mol
# GULP energy per Si atom -5571.942147 kJ/mol
# Density = 1.028977 g / cm^3
# Si number density = 10.313243 Si / 1000 Ang^3
#
#
#
# Elastic Constant Matrix: (Units=GPa)
#
#
# Indices 1 2 3 4 5 6 
#
# 1 149.7134 23.4440 35.9962 0.0015 -8.7015 -0.0052
# 2 23.4440 41.7645 7.4895 -0.0205 -4.3325 -0.0188
# 3 35.9962 7.4895 82.5779 -0.0382 -14.1637 -0.0771
# 4 0.0015 -0.0205 -0.0382 41.2922 -0.0173 -5.4498
# 5 -8.7015 -4.3325 -14.1637 -0.0173 47.9766 -0.0069
# 6 -0.0052 -0.0188 -0.0771 -5.4498 -0.0069 23.0767
#
#
#
# Elastic Compliance Matrix: (Units=1/GPa)
#
#
# Indices 1 2 3 4 5 6 
#
# 1 0.008059 -0.003945 -0.003124 -0.000007 0.000183 -0.000013
# 2 -0.003945 0.026392 -0.000409 0.000017 0.001547 0.000024
# 3 -0.003124 -0.000409 0.014120 0.000021 0.003565 0.000052
# 4 -0.000007 0.000017 0.000021 0.024997 0.000016 0.005903
# 5 0.000183 0.001547 0.003565 0.000016 0.022069 0.000024
# 6 -0.000013 0.000024 0.000052 0.005903 0.000024 0.044728
#
#
# Mechanical properties :
#
#
# Convention : Reuss Voigt Hill
#
# Bulk Modulus (GPa) = 29.74724 45.32392 37.53558
# Shear Modulus (GPa) = 30.02569 36.27750 33.15160
#
# Velocity S-wave (km/s) = 3.81948 4.19833 4.01338
# Velocity P-wave (km/s) = 5.82275 6.74705 6.30187
#
# Compressibility (1/GPa) = 0.03361657
#
# Stress axis : x y z
#
# Youngs Moduli (GPa) = 124.08772 37.89055 70.82131
#
# Poissons Ratio (x) = 0.14946 0.22123
# Poissons Ratio (y) = 0.48947 0.02895
# Poissons Ratio (z) = 0.38762 0.01549
#
# Static dielectric constant tensor:
#      x y z
#    x 1.731990 -0.000010 0.033350 
#    y -0.000010 1.897050 0.000060 
#    z 0.033350 0.000060 1.827550 
# 
# From -- ./inp_files/297056.got.cif
#   From: 2010.05.17/outbox.ucp.g08.bks.cvg/sg15_149_cif.got.tgz:297056.got - 2010.06.11 12:40:34.
