data_PCOD9309927
_publ_section_title
;
Structure prediction by ZEFSAII (Michael W. Deem and Ramdas Pophale) SiO2 
 PCOD9309927
Probable space group: P 2 2 2
;
_chemical_formula_sum "Si O2"
_cell_formula_units_Z 28
_cell_length_a 9.330724
_cell_length_b 25.624975
_cell_length_c 5.548823
_cell_angle_alpha 90.000000
_cell_angle_beta 90.000000
_cell_angle_gamma 90.000000
_cell_volume 1326.721189
_symmetry_space_group_name_H-M "P 2 2 2"
_symmetry_group_IT_number 16
_symmetry_cell_setting 'orthorhombic'
loop_
_space_group_symop_operation_xyz
x,y,z
-x,-y,z
x,-y,-z
-x,y,-z
loop_
_atom_site_type_symbol
_atom_site_label
_atom_site_fract_x
_atom_site_fract_y
_atom_site_fract_z
Si Si1 0.161465 0.102777 0.021287
Si Si2 0.766545 0.744129 0.706988
Si Si3 0.666014 0.478920 0.247495
Si Si4 0.830085 0.062278 0.489111
Si Si5 0.507549 0.826381 0.750409
Si Si6 0.588754 0.639633 0.748123
Si Si7 0.802781 0.219527 0.803216
O O1 0.236529 0.079250 0.256203
O O2 0.146803 0.162548 0.108479
O O3 0.224282 0.089905 0.756995
O O4 0.000000 0.079773 0.000000
O O5 0.647093 0.790050 0.736253
O O6 0.690683 0.688567 0.697770
O O7 0.845958 0.759545 0.459478
O O8 0.840385 0.745329 0.968067
O O9 0.500000 0.500000 0.247522
O O10 0.727663 0.500000 0.500000
O O11 0.663231 0.416590 0.230996
O O12 0.732585 0.500000 0.000000
O O13 0.000000 0.077533 0.500000
O O14 0.822408 0.000000 0.500000
O O15 0.500000 0.855956 0.500000
O O16 0.370271 0.787586 0.768769
O O17 0.500000 0.856850 0.000000
O O18 0.500000 0.635372 0.500000
O O19 0.500000 0.648088 0.000000
#
# Coordination Sequence:
#
# PCOD9309927 Si02
#       7
#     4   4   4   4   4   4   4
#     4  10  19  30  47  68  89 121 145 164 213 264
#     4  10  19  28  40  60  79 112 146 187 218 245
#     4  10  16  27  33  51  74 104 141 187 210 257
#     4   9  17  30  47  68  92 113 140 173 204 251
#     4   8  14  25  37  52  77 100 133 173 212 235
#     4  12  18  25  41  54  78 109 148 188 224 253
#     4  10  18  30  41  58  90 108 141 183 208 249
#
# _framework density 21.104662000000001
#
# number of rings (size 3 to 8) (size 9 to 14) (size 15 to 20)
#    0.000    2.143    2.857    4.714    0.000    1.714 
#    0.000    0.000    0.000    0.000    0.000    0.000 
#    0.000   77.143    0.000    0.000    0.000   10.714 
#
# Total GULP energy -155892.423985 kJ/mol
# GULP energy per Si atom -5567.586571 kJ/mol
# Density = 2.105663 g / cm^3
# Si number density = 21.104662 Si / 1000 Ang^3
#
#
#
# Elastic Constant Matrix: (Units=GPa)
#
#
# Indices 1 2 3 4 5 6 
#
# 1 41.9594 3.6206 28.3868 0.0000 0.0000 0.0000
# 2 3.6206 97.3018 68.2000 0.0000 0.0000 0.0000
# 3 28.3868 68.2000 299.2073 0.0000 0.0000 0.0000
# 4 0.0000 0.0000 0.0000 31.0004 0.0000 0.0000
# 5 0.0000 0.0000 0.0000 0.0000 -10.5270 0.0000
# 6 0.0000 0.0000 0.0000 0.0000 0.0000 10.0834
#
#
#
# Elastic Compliance Matrix: (Units=1/GPa)
#
#
# Indices 1 2 3 4 5 6 
#
# 1 0.025532 0.000890 -0.002625 0.000000 0.000000 0.000000
# 2 0.000890 0.012262 -0.002879 0.000000 0.000000 0.000000
# 3 -0.002625 -0.002879 0.004248 0.000000 0.000000 0.000000
# 4 0.000000 0.000000 0.000000 0.032258 0.000000 0.000000
# 5 0.000000 0.000000 0.000000 0.000000 -0.094993 0.000000
# 6 0.000000 0.000000 0.000000 0.000000 0.000000 0.099173
#
#
# Mechanical properties :
#
#
# Convention : Reuss Voigt Hill
#
# Bulk Modulus (GPa) = 30.47624 70.98702 50.73163
# Shear Modulus (GPa) = 50.68628 28.66209 39.67418
#
# Velocity S-wave (km/s) = 4.90599 3.68923 4.34046
# Velocity P-wave (km/s) = 6.82375 7.20111 7.01497
#
# Compressibility (1/GPa) = 0.03281245
#
# Stress axis : x y z
#
# Youngs Moduli (GPa) = 39.16690 81.54979 235.42945
#
# Poissons Ratio (x) = -0.07258 0.61803
# Poissons Ratio (y) = -0.03486 0.67791
# Poissons Ratio (z) = 0.10282 0.23482
#
# Static dielectric constant tensor:
#      x y z
#    x 1.830890 0.000000 0.000000 
#    y 0.000000 1.759890 0.000000 
#    z 0.000000 0.000000 1.898410 
# 
# From -- ./inp_files/1695.got.cif
#   From: 2010.05.17/outbox.cif.g08.bks.cpg/sg16_1_cif.got.tgz:1695.got - 2010.06.03 22:28:35.
