data_PCOD9309241
_publ_section_title
;
Structure prediction by ZEFSAII (Michael W. Deem and Ramdas Pophale) SiO2 
 PCOD9309241
Probable space group: C 2/C
;
_chemical_formula_sum "Si O2"
_cell_formula_units_Z 24
_cell_length_a 12.000000
_cell_length_b 21.000000
_cell_length_c 30.000000
_cell_angle_alpha 90.000000
_cell_angle_beta 20.000000
_cell_angle_gamma 90.000000
_cell_volume 2585.672284
_symmetry_space_group_name_H-M "C 2/C"
_symmetry_group_IT_number 15
_symmetry_cell_setting 'monoclinic'
loop_
_space_group_symop_operation_xyz
x,y,z
-x,y,1/2-z
-x,-y,-z
x,-y,1/2+z
1/2+x,1/2+y,z
1/2-x,1/2+y,1/2-z
1/2-x,1/2-y,-z
1/2+x,1/2-y,1/2+z
loop_
_atom_site_type_symbol
_atom_site_label
_atom_site_fract_x
_atom_site_fract_y
_atom_site_fract_z
Si Si1 0.908488 0.712100 0.497496
Si Si2 0.738453 0.349422 0.973405
Si Si3 0.649528 0.188878 0.809809
Si Si4 0.225308 0.825307 0.554746
Si Si5 0.811065 0.575030 0.774142
Si Si6 0.147956 0.422439 0.745022
O O1 0.957866 0.685554 0.428704
O O2 0.955852 0.789046 0.475257
O O3 0.532169 0.702851 0.655930
O O4 0.128588 0.674382 0.450246
O O5 0.903493 0.389416 0.872153
O O6 0.538707 0.398782 0.078917
O O7 0.462778 0.256689 0.873577
O O8 0.569534 0.127309 0.807773
O O9 0.526807 0.173572 0.906186
O O10 0.977658 0.880924 0.630844
O O11 0.815847 0.499322 0.760066
O O12 0.000000 0.580414 0.750000
O O13 0.000000 0.415215 0.750000
#
# Coordination Sequence:
#
# PCOD9309241 Si02
#       6
#     8   8   8   8   8   8
#     4  10  21  41  63  93 123 161 208 260 302 365
#     4  10  22  41  63  89 128 156 207 262 299 370
#     4  10  22  38  61  96 122 160 210 256 302 365
#     4  11  23  37  67  92 127 163 203 254 317 364
#     4  10  23  40  64  89 125 169 206 256 310 365
#     4  11  26  40  62  95 127 162 206 259 311 370
#
# _framework density 9.2819190000000003
#
# number of rings (size 3 to 8) (size 9 to 14) (size 15 to 20)
#    0.000    1.667    1.667    1.500    9.333    2.000 
#    0.000    3.333    7.333    0.000    0.000    0.000 
#    0.000    0.000    0.000    0.000    0.000    0.000 
#
# Total GULP energy -133652.892023 kJ/mol
# GULP energy per Si atom -5568.870501 kJ/mol
# Density = 0.926079 g / cm^3
# Si number density = 9.281919 Si / 1000 Ang^3
#
#
#
# Elastic Constant Matrix: (Units=GPa)
#
#
# Indices 1 2 3 4 5 6 
#
# 1 113.0630 53.1835 24.7468 0.1287 11.9646 -0.0320
# 2 53.1835 165.9553 28.4391 0.1449 10.1552 -0.1276
# 3 24.7468 28.4391 54.5189 0.3179 19.9084 -0.1335
# 4 0.1287 0.1449 0.3179 30.7594 -0.0293 6.6034
# 5 11.9646 10.1552 19.9084 -0.0293 33.8900 0.0384
# 6 -0.0320 -0.1276 -0.1335 6.6034 0.0384 39.9492
#
#
#
# Elastic Compliance Matrix: (Units=1/GPa)
#
#
# Indices 1 2 3 4 5 6 
#
# 1 0.011018 -0.002938 -0.003017 0.000000 -0.001237 -0.000009
# 2 -0.002938 0.007401 -0.002668 0.000003 0.000387 0.000012
# 3 -0.003017 -0.002668 0.026003 -0.000285 -0.013411 0.000136
# 4 0.000000 0.000003 -0.000285 0.033710 0.000202 -0.005573
# 5 -0.001237 0.000387 -0.013411 0.000202 0.037706 -0.000114
# 6 -0.000009 0.000012 0.000136 -0.005573 -0.000114 0.025954
#
#
# Mechanical properties :
#
#
# Convention : Reuss Voigt Hill
#
# Bulk Modulus (GPa) = 36.79841 60.69733 48.74787
# Shear Modulus (GPa) = 29.74489 36.06425 32.90457
#
# Velocity S-wave (km/s) = 4.00722 4.41241 4.21468
# Velocity P-wave (km/s) = 6.42465 7.66333 7.07116
#
# Compressibility (1/GPa) = 0.02717509
#
# Stress axis : x y z
#
# Youngs Moduli (GPa) = 90.76100 135.11883 38.45771
#
# Poissons Ratio (x) = 0.39701 0.11602
# Poissons Ratio (y) = 0.26668 0.10261
# Poissons Ratio (z) = 0.27380 0.36052
#
# Static dielectric constant tensor:
#      x y z
#    x 1.670360 0.000020 -0.039860 
#    y 0.000020 1.633290 0.000050 
#    z -0.039860 0.000050 1.715090 
# 
# From -- ./inp_files/88561.got.cif
#   From: 2010.05.17/outbox.ucp.g08.bks.cvg/sg15_45_cif.got.tgz:88561.got - 2010.06.11 12:40:34.
