data_PCOD9309162
_publ_section_title
;
Structure prediction by ZEFSAII (Michael W. Deem and Ramdas Pophale) SiO2 
 PCOD9309162
Probable space group: C 2/C
;
_chemical_formula_sum "Si O2"
_cell_formula_units_Z 30
_cell_length_a 18.000000
_cell_length_b 24.000000
_cell_length_c 15.000000
_cell_angle_alpha 90.000000
_cell_angle_beta 30.000000
_cell_angle_gamma 90.000000
_cell_volume 3240.000000
_symmetry_space_group_name_H-M "C 2/C"
_symmetry_group_IT_number 15
_symmetry_cell_setting 'monoclinic'
loop_
_space_group_symop_operation_xyz
x,y,z
-x,y,1/2-z
-x,-y,-z
x,-y,1/2+z
1/2+x,1/2+y,z
1/2-x,1/2+y,1/2-z
1/2-x,1/2-y,-z
1/2+x,1/2-y,1/2+z
loop_
_atom_site_type_symbol
_atom_site_label
_atom_site_fract_x
_atom_site_fract_y
_atom_site_fract_z
Si Si1 0.500000 0.575383 0.750000
Si Si2 0.792338 0.119710 0.353212
Si Si3 0.970282 0.022482 0.428911
Si Si4 0.445116 0.204866 0.402913
Si Si5 0.038501 0.798328 0.543240
Si Si6 0.903750 0.177629 0.721388
Si Si7 0.040119 0.666455 0.496234
Si Si8 0.238008 0.619082 0.615149
O O1 0.548277 0.529527 0.622127
O O2 0.421212 0.622208 0.765016
O O3 0.683085 0.133934 0.384887
O O4 0.719633 0.114493 0.527146
O O5 0.899195 0.173856 0.237367
O O6 0.889695 0.063438 0.239107
O O7 0.832557 0.066022 0.554872
O O8 0.000000 0.000000 0.500000
O O9 0.500000 0.183006 0.250000
O O10 0.267830 0.197582 0.595235
O O11 0.492793 0.270096 0.356801
O O12 0.519839 0.174348 0.410681
O O13 0.054511 0.826566 0.427386
O O14 0.037588 0.731396 0.533408
O O15 0.173923 0.823352 0.458030
O O16 0.908787 0.629995 0.675466
#
# Coordination Sequence:
#
# PCOD9309162 Si02
#       8
#     4   8   8   8   8   8   8   8
#     4  12  22  42  74  94 120 180 230 264 334 384
#     4  11  23  40  65  93 134 171 220 275 320 381
#     4  11  24  44  69  91 121 171 235 282 317 381
#     4  11  24  42  64 100 144 168 207 266 335 412
#     4  10  21  38  61  99 133 170 216 257 321 415
#     4  11  24  40  69 100 135 172 212 266 336 404
#     4  11  24  37  65  94 136 175 207 263 345 389
#     4  11  21  43  62  94 133 170 218 278 317 384
#
# _framework density 9.2592590000000001
#
# number of rings (size 3 to 8) (size 9 to 14) (size 15 to 20)
#    0.000    1.067    3.333    4.400    5.600    4.267 
#    0.000    0.667    2.933    0.000    0.000    0.000 
#    0.000    0.000    0.000    0.000    0.000    0.000 
#
# Total GULP energy -167107.702458 kJ/mol
# GULP energy per Si atom -5570.256749 kJ/mol
# Density = 0.923818 g / cm^3
# Si number density = 9.259259 Si / 1000 Ang^3
#
#
#
# Elastic Constant Matrix: (Units=GPa)
#
#
# Indices 1 2 3 4 5 6 
#
# 1 79.9126 45.0480 15.1409 -0.0253 17.9013 0.0252
# 2 45.0480 86.0132 11.3690 -0.0172 -2.5259 0.0177
# 3 15.1409 11.3690 44.9411 -0.0334 5.8055 0.0360
# 4 -0.0253 -0.0172 -0.0334 19.0803 0.0159 11.6693
# 5 17.9013 -2.5259 5.8055 0.0159 46.0258 -0.0115
# 6 0.0252 0.0177 0.0360 11.6693 -0.0115 40.5896
#
#
#
# Elastic Compliance Matrix: (Units=1/GPa)
#
#
# Indices 1 2 3 4 5 6 
#
# 1 0.021164 -0.010897 -0.003287 0.000029 -0.008415 -0.000016
# 2 -0.010897 0.017690 -0.001501 -0.000008 0.005399 0.000004
# 3 -0.003287 -0.001501 0.023975 0.000060 -0.001828 -0.000036
# 4 0.000029 -0.000008 0.000060 0.063591 -0.000046 -0.018282
# 5 -0.008415 0.005399 -0.001828 -0.000046 0.025527 0.000025
# 6 -0.000016 0.000004 -0.000036 -0.018282 0.000025 0.029893
#
#
# Mechanical properties :
#
#
# Convention : Reuss Voigt Hill
#
# Bulk Modulus (GPa) = 31.78719 39.33142 35.55931
# Shear Modulus (GPa) = 22.35165 30.42642 26.38903
#
# Velocity S-wave (km/s) = 3.47794 4.05782 3.77902
# Velocity P-wave (km/s) = 5.77325 6.57569 6.18749
#
# Compressibility (1/GPa) = 0.03145921
#
# Stress axis : x y z
#
# Youngs Moduli (GPa) = 47.24906 56.52804 41.71078
#
# Poissons Ratio (x) = 0.61600 0.13709
# Poissons Ratio (y) = 0.51488 0.06262
# Poissons Ratio (z) = 0.15529 0.08486
#
# Static dielectric constant tensor:
#      x y z
#    x 1.695610 -0.000010 -0.026400 
#    y -0.000010 1.606920 0.000020 
#    z -0.026400 0.000020 1.706880 
# 
# From -- ./inp_files/164090.got.cif
#   From: 2010.05.17/outbox.ucp.g08.bks.cvg/sg15_83_cif.got.tgz:164090.got - 2010.06.11 12:40:34.
