data_PCOD9309729
_publ_section_title
;
Structure prediction by ZEFSAII (Michael W. Deem and Ramdas Pophale) SiO2 
 PCOD9309729
Probable space group: C 2/C
;
_chemical_formula_sum "Si O2"
_cell_formula_units_Z 28
_cell_length_a 12.000000
_cell_length_b 21.000000
_cell_length_c 12.000000
_cell_angle_alpha 90.000000
_cell_angle_beta 90.000000
_cell_angle_gamma 90.000000
_cell_volume 3024.000000
_symmetry_space_group_name_H-M "C 2/C"
_symmetry_group_IT_number 15
_symmetry_cell_setting 'monoclinic'
loop_
_space_group_symop_operation_xyz
x,y,z
-x,y,1/2-z
-x,-y,-z
x,-y,1/2+z
1/2+x,1/2+y,z
1/2-x,1/2+y,1/2-z
1/2-x,1/2-y,-z
1/2+x,1/2-y,1/2+z
loop_
_atom_site_type_symbol
_atom_site_label
_atom_site_fract_x
_atom_site_fract_y
_atom_site_fract_z
Si Si1 0.637107 0.835589 0.748250
Si Si2 0.251112 0.063657 0.082048
Si Si3 0.650603 0.923555 0.373590
Si Si4 0.893206 0.390694 0.375528
Si Si5 0.274088 0.325777 0.524705
Si Si6 0.305246 0.250692 0.878272
Si Si7 0.522934 0.366972 0.621262
O O1 0.500000 0.832087 0.750000
O O2 0.686321 0.893814 0.822697
O O3 0.689498 0.843087 0.625696
O O4 0.703653 0.773555 0.797836
O O5 0.117339 0.080569 0.080516
O O6 0.291245 0.990447 0.093678
O O7 0.306784 0.087939 0.968725
O O8 0.521075 0.908286 0.410040
O O9 0.636797 0.923685 0.240581
O O10 0.729993 0.867634 0.420839
O O11 0.867329 0.315860 0.355635
O O12 0.250000 0.250000 0.500000
O O13 0.402535 0.348031 0.561102
O O14 0.401877 0.303448 0.876670
O O15 0.250000 0.250000 0.000000
O O16 0.500000 0.384336 0.750000
#
# Coordination Sequence:
#
# PCOD9309729 Si02
#       7
#     8   8   8   8   8   8   8
#     4  11  24  39  68  98 135 172 223 283 338 410
#     4  11  24  44  66  96 131 188 228 271 349 409
#     4  11  27  40  69  99 132 180 227 290 339 403
#     4  11  23  44  66  98 137 172 224 289 343 400
#     4  12  25  43  66 103 135 171 234 283 346 413
#     4  11  21  41  66  98 130 178 222 269 355 396
#     4  11  23  43  70  95 139 187 223 278 347 426
#
# _framework density 9.2592590000000001
#
# number of rings (size 3 to 8) (size 9 to 14) (size 15 to 20)
#    0.000    0.857    5.714    3.000    8.000    0.571 
#    0.000    0.714    0.000    0.000    0.000    0.000 
#    0.000    0.000    0.000    0.000    0.000    0.000 
#
# Total GULP energy -156054.002195 kJ/mol
# GULP energy per Si atom -5573.357221 kJ/mol
# Density = 0.923818 g / cm^3
# Si number density = 9.259259 Si / 1000 Ang^3
#
#
#
# Elastic Constant Matrix: (Units=GPa)
#
#
# Indices 1 2 3 4 5 6 
#
# 1 190.2698 40.8989 32.0702 0.0000 12.9918 0.0000
# 2 40.8989 130.2453 4.3255 0.0000 10.7131 0.0000
# 3 32.0702 4.3255 69.8610 0.0000 -1.5122 0.0000
# 4 0.0000 0.0000 0.0000 23.5236 0.0000 3.7744
# 5 12.9918 10.7131 -1.5122 0.0000 44.3682 0.0000
# 6 0.0000 0.0000 0.0000 3.7744 0.0000 40.8424
#
#
#
# Elastic Compliance Matrix: (Units=1/GPa)
#
#
# Indices 1 2 3 4 5 6 
#
# 1 0.006196 -0.001731 -0.002770 0.000000 -0.001491 0.000000
# 2 -0.001731 0.008336 0.000246 0.000000 -0.001498 0.000000
# 3 -0.002770 0.000246 0.015598 0.000000 0.001283 0.000000
# 4 0.000000 0.000000 0.000000 0.043150 0.000000 -0.003988
# 5 -0.001491 -0.001498 0.001283 0.000000 0.023381 0.000000
# 6 0.000000 0.000000 0.000000 -0.003988 0.000000 0.024853
#
#
# Mechanical properties :
#
#
# Convention : Reuss Voigt Hill
#
# Bulk Modulus (GPa) = 46.24987 60.55170 53.40079
# Shear Modulus (GPa) = 36.43488 42.61894 39.52691
#
# Velocity S-wave (km/s) = 4.44044 4.80252 4.62503
# Velocity P-wave (km/s) = 7.16374 7.97002 7.57761
#
# Compressibility (1/GPa) = 0.02162168
#
# Stress axis : x y z
#
# Youngs Moduli (GPa) = 161.38329 119.95532 64.11041
#
# Poissons Ratio (x) = 0.20766 0.17756
# Poissons Ratio (y) = 0.27938 -0.01578
# Poissons Ratio (z) = 0.44697 -0.02952
#
# Static dielectric constant tensor:
#      x y z
#    x 1.638380 0.000000 -0.008460 
#    y 0.000000 1.696940 0.000000 
#    z -0.008460 0.000000 1.687250 
# 
# From -- ./inp_files/88953.got.cif
#   From: 2010.05.17/outbox.ucp.g08.bks.cvg/sg15_45_cif.got.tgz:88953.got - 2010.06.11 12:40:34.
