data_PCOD9309336
_publ_section_title
;
Structure prediction by ZEFSAII (Michael W. Deem and Ramdas Pophale) SiO2 
 PCOD9309336
Probable space group: C 2/C
;
_chemical_formula_sum "Si O2"
_cell_formula_units_Z 20
_cell_length_a 12.000000
_cell_length_b 9.000000
_cell_length_c 30.000000
_cell_angle_alpha 90.000000
_cell_angle_beta 140.000000
_cell_angle_gamma 90.000000
_cell_volume 2082.631855
_symmetry_space_group_name_H-M "C 2/C"
_symmetry_group_IT_number 15
_symmetry_cell_setting 'monoclinic'
loop_
_space_group_symop_operation_xyz
x,y,z
-x,y,1/2-z
-x,-y,-z
x,-y,1/2+z
1/2+x,1/2+y,z
1/2-x,1/2+y,1/2-z
1/2-x,1/2-y,-z
1/2+x,1/2-y,1/2+z
loop_
_atom_site_type_symbol
_atom_site_label
_atom_site_fract_x
_atom_site_fract_y
_atom_site_fract_z
Si Si1 0.618239 0.865318 0.587567
Si Si2 0.182657 0.513011 0.284942
Si Si3 0.048459 0.973576 0.065936
Si Si4 0.720890 0.426759 0.437197
Si Si5 0.099863 0.274957 0.678165
O O1 0.638770 0.688271 0.590572
O O2 0.417325 0.889499 0.511655
O O3 0.629919 0.884602 0.644740
O O4 0.745642 0.956895 0.593605
O O5 0.308271 0.569192 0.363580
O O6 0.146431 0.638481 0.237120
O O7 0.281624 0.372493 0.292829
O O8 0.000000 0.465994 0.250000
O O9 0.883746 0.976258 0.049733
O O10 0.000000 0.000000 0.000000
O O11 0.597975 0.289681 0.383934
#
# Coordination Sequence:
#
# PCOD9309336 Si02
#       5
#     8   8   8   8   8
#     4   9  19  37  63  87 117 158 195 256 302 363
#     4  10  24  39  61  90 122 165 201 253 313 359
#     4  10  22  38  59  89 126 156 199 255 302 366
#     4   9  19  37  63  89 114 158 204 243 312 361
#     4  10  22  41  59  87 126 157 206 258 304 368
#
# _framework density 9.6032340000000005
#
# number of rings (size 3 to 8) (size 9 to 14) (size 15 to 20)
#    0.000    2.800    0.000    2.400    5.600    8.800 
#    3.600    0.000    0.000    0.000    0.000    0.000 
#    0.000    0.000    0.000    0.000    0.000    0.000 
#
# Total GULP energy -111345.610008 kJ/mol
# GULP energy per Si atom -5567.280500 kJ/mol
# Density = 0.958138 g / cm^3
# Si number density = 9.603234 Si / 1000 Ang^3
#
#
#
# Elastic Constant Matrix: (Units=GPa)
#
#
# Indices 1 2 3 4 5 6 
#
# 1 131.6672 42.5131 63.5910 0.0000 -16.9821 0.0000
# 2 42.5131 47.2367 30.1294 0.0000 -14.8077 0.0000
# 3 63.5910 30.1294 135.1734 0.0000 -28.0292 0.0000
# 4 0.0000 0.0000 0.0000 36.8387 0.0000 -9.7177
# 5 -16.9821 -14.8077 -28.0292 0.0000 39.6026 0.0000
# 6 0.0000 0.0000 0.0000 -9.7177 0.0000 38.4568
#
#
#
# Elastic Compliance Matrix: (Units=1/GPa)
#
#
# Indices 1 2 3 4 5 6 
#
# 1 0.012228 -0.008729 -0.003980 0.000000 -0.000838 0.000000
# 2 -0.008729 0.032305 -0.001601 0.000000 0.007203 0.000000
# 3 -0.003980 -0.001601 0.010723 0.000000 0.005284 0.000000
# 4 0.000000 0.000000 0.000000 0.029084 0.000000 0.007349
# 5 -0.000838 0.007203 0.005284 0.000000 0.031325 0.000000
# 6 0.000000 0.000000 0.000000 0.007349 0.000000 0.027860
#
#
# Mechanical properties :
#
#
# Convention : Reuss Voigt Hill
#
# Bulk Modulus (GPa) = 37.54338 65.17158 51.35748
# Shear Modulus (GPa) = 27.62091 34.83588 31.22840
#
# Velocity S-wave (km/s) = 3.79635 4.26344 4.03666
# Velocity P-wave (km/s) = 6.22945 7.63163 6.96591
#
# Compressibility (1/GPa) = 0.02663585
#
# Stress axis : x y z
#
# Youngs Moduli (GPa) = 81.78210 30.95527 93.25813
#
# Poissons Ratio (x) = 0.27019 0.37121
# Poissons Ratio (y) = 0.71384 0.14928
# Poissons Ratio (z) = 0.32553 0.04955
#
# Static dielectric constant tensor:
#      x y z
#    x 1.688680 0.000000 -0.030970 
#    y 0.000000 1.700660 0.000000 
#    z -0.030970 0.000000 1.739810 
# 
# From -- ./inp_files/267555.got.cif
#   From: 2010.05.17/outbox.ucp.g08.bks.cvg/sg15_134_cif.got.tgz:267555.got - 2010.06.11 12:40:34.
