data_PCOD9309788
_publ_section_title
;
Structure prediction by ZEFSAII (Michael W. Deem and Ramdas Pophale) SiO2 
 PCOD9309788
Probable space group: C 2/C
;
_chemical_formula_sum "Si O2"
_cell_formula_units_Z 32
_cell_length_a 15.000000
_cell_length_b 12.000000
_cell_length_c 27.000000
_cell_angle_alpha 90.000000
_cell_angle_beta 140.000000
_cell_angle_gamma 90.000000
_cell_volume 3123.947783
_symmetry_space_group_name_H-M "C 2/C"
_symmetry_group_IT_number 15
_symmetry_cell_setting 'monoclinic'
loop_
_space_group_symop_operation_xyz
x,y,z
-x,y,1/2-z
-x,-y,-z
x,-y,1/2+z
1/2+x,1/2+y,z
1/2-x,1/2+y,1/2-z
1/2-x,1/2-y,-z
1/2+x,1/2-y,1/2+z
loop_
_atom_site_type_symbol
_atom_site_label
_atom_site_fract_x
_atom_site_fract_y
_atom_site_fract_z
Si Si1 0.416920 0.933761 0.834293
Si Si2 0.617102 0.459464 0.212226
Si Si3 0.370780 0.764816 0.725963
Si Si4 0.406736 0.645779 0.161205
Si Si5 0.419007 0.315712 0.945957
Si Si6 0.084503 0.391146 0.552182
Si Si7 0.396371 0.092654 0.658484
Si Si8 0.897193 0.053047 0.905252
O O1 0.367226 0.841765 0.773236
O O2 0.449161 0.881694 0.902668
O O3 0.275181 0.999599 0.786241
O O4 0.535419 0.010968 0.855782
O O5 0.596815 0.360180 0.242584
O O6 0.497041 0.554817 0.167878
O O7 0.623776 0.408914 0.159598
O O8 0.500000 0.808971 0.750000
O O9 0.234355 0.772837 0.633300
O O10 0.500000 0.652228 0.250000
O O11 0.249828 0.607148 0.109509
O O12 0.396176 0.777078 0.139805
O O13 0.432467 0.421609 0.915260
O O14 0.520313 0.210536 0.992652
O O15 0.469172 0.382413 0.016522
O O16 0.000000 0.500000 0.500000
O O17 0.500000 0.084847 0.750000
O O18 0.240888 0.067130 0.617283
#
# Coordination Sequence:
#
# PCOD9309788 Si02
#       8
#     8   8   8   8   8   8   8   8
#     4  12  25  45  76 107 139 195 250 289 366 435
#     4  12  25  43  75 106 139 194 245 297 358 443
#     4  12  27  47  73 106 146 188 248 299 363 443
#     4  11  25  45  72 103 143 192 244 292 363 437
#     4  11  24  46  73 102 149 192 230 313 367 424
#     4  12  27  49  71 108 154 191 235 312 374 432
#     4  11  22  44  76 106 140 188 250 305 348 439
#     4  11  23  47  75 107 146 187 246 302 371 426
#
# _framework density 10.243449
#
# number of rings (size 3 to 8) (size 9 to 14) (size 15 to 20)
#    0.000    0.500    5.000    3.000    3.500    1.000 
#    6.750    4.375    0.000    0.000    0.000    0.000 
#    0.000    0.000    0.000    0.000    0.000    0.000 
#
# Total GULP energy -178323.138030 kJ/mol
# GULP energy per Si atom -5572.598063 kJ/mol
# Density = 1.022013 g / cm^3
# Si number density = 10.243449 Si / 1000 Ang^3
#
#
#
# Elastic Constant Matrix: (Units=GPa)
#
#
# Indices 1 2 3 4 5 6 
#
# 1 110.6014 36.0024 34.0148 0.0000 13.7052 0.0000
# 2 36.0024 123.1216 29.0237 0.0000 15.5560 0.0000
# 3 34.0148 29.0237 120.8109 0.0000 20.4758 0.0000
# 4 0.0000 0.0000 0.0000 42.6399 0.0000 7.3115
# 5 13.7052 15.5560 20.4758 0.0000 27.7139 0.0000
# 6 0.0000 0.0000 0.0000 7.3115 0.0000 23.2782
#
#
#
# Elastic Compliance Matrix: (Units=1/GPa)
#
#
# Indices 1 2 3 4 5 6 
#
# 1 0.010740 -0.002346 -0.002039 0.000000 -0.002488 0.000000
# 2 -0.002346 0.009482 -0.001043 0.000000 -0.003392 0.000000
# 3 -0.002039 -0.001043 0.010096 0.000000 -0.005866 0.000000
# 4 0.000000 0.000000 0.000000 0.024787 0.000000 -0.007785
# 5 -0.002488 -0.003392 -0.005866 0.000000 0.043551 0.000000
# 6 0.000000 0.000000 0.000000 -0.007785 0.000000 0.045404
#
#
# Mechanical properties :
#
#
# Convention : Reuss Voigt Hill
#
# Bulk Modulus (GPa) = 51.37509 61.40176 56.38842
# Shear Modulus (GPa) = 30.97822 35.75927 33.36875
#
# Velocity S-wave (km/s) = 3.89279 4.18242 4.04020
# Velocity P-wave (km/s) = 6.73324 7.30478 7.02483
#
# Compressibility (1/GPa) = 0.01946469
#
# Stress axis : x y z
#
# Youngs Moduli (GPa) = 93.10663 105.45937 99.04836
#
# Poissons Ratio (x) = 0.24737 0.20193
# Poissons Ratio (y) = 0.21839 0.10328
# Poissons Ratio (z) = 0.18982 0.10996
#
# Static dielectric constant tensor:
#      x y z
#    x 1.711060 0.000000 -0.007040 
#    y 0.000000 1.797150 0.000000 
#    z -0.007040 0.000000 1.743280 
# 
# From -- ./inp_files/296155.got.cif
#   From: 2010.05.17/outbox.ucp.g08.bks.cvg/sg15_149_cif.got.tgz:296155.got - 2010.06.11 12:40:34.
