data_PCOD9309518
_publ_section_title
;
Structure prediction by ZEFSAII (Michael W. Deem and Ramdas Pophale) SiO2 
 PCOD9309518
Probable space group: C 2/C
;
_chemical_formula_sum "Si O2"
_cell_formula_units_Z 24
_cell_length_a 12.000000
_cell_length_b 27.000000
_cell_length_c 15.000000
_cell_angle_alpha 90.000000
_cell_angle_beta 150.000000
_cell_angle_gamma 90.000000
_cell_volume 2430.000000
_symmetry_space_group_name_H-M "C 2/C"
_symmetry_group_IT_number 15
_symmetry_cell_setting 'monoclinic'
loop_
_space_group_symop_operation_xyz
x,y,z
-x,y,1/2-z
-x,-y,-z
x,-y,1/2+z
1/2+x,1/2+y,z
1/2-x,1/2+y,1/2-z
1/2-x,1/2-y,-z
1/2+x,1/2-y,1/2+z
loop_
_atom_site_type_symbol
_atom_site_label
_atom_site_fract_x
_atom_site_fract_y
_atom_site_fract_z
Si Si1 0.779503 0.127180 0.036914
Si Si2 0.247656 0.521617 0.922890
Si Si3 0.905128 0.696033 0.434287
Si Si4 0.250691 0.024943 0.790299
Si Si5 0.521434 0.686667 0.487783
Si Si6 0.652831 0.361485 0.268334
O O1 0.000000 0.119327 0.250000
O O2 0.824983 0.158151 0.978078
O O3 0.710348 0.072372 0.954476
O O4 0.640268 0.162925 0.007408
O O5 0.263078 0.529046 0.826876
O O6 0.000000 0.494129 0.750000
O O7 0.494834 0.500139 0.128672
O O8 0.910027 0.755285 0.455409
O O9 0.144681 0.675996 0.571682
O O10 0.719289 0.685730 0.229298
O O11 0.238663 0.081636 0.816387
O O12 0.500000 0.000000 0.000000
O O13 0.541616 0.658714 0.597800
O O14 0.500000 0.360796 0.250000
#
# Coordination Sequence:
#
# PCOD9309518 Si02
#       6
#     8   8   8   8   8   8
#     4  10  23  40  73 109 146 183 229 300 380 445
#     4  11  25  44  72 108 143 186 238 310 373 438
#     4  11  24  44  73 103 143 187 233 300 372 442
#     4  11  28  48  72 102 143 193 251 302 370 438
#     4  11  23  46  69 107 144 183 240 295 370 442
#     4  12  28  47  68 100 143 195 249 301 351 438
#
# _framework density 9.8765429999999999
#
# number of rings (size 3 to 8) (size 9 to 14) (size 15 to 20)
#    0.000    1.000    3.333    1.500    9.333    1.333 
#    0.000    0.000    0.000    0.000    0.000    0.000 
#    0.000    0.000    0.000    0.000    0.000    0.000 
#
# Total GULP energy -133632.746902 kJ/mol
# GULP energy per Si atom -5568.031121 kJ/mol
# Density = 0.985406 g / cm^3
# Si number density = 9.876543 Si / 1000 Ang^3
#
#
#
# Elastic Constant Matrix: (Units=GPa)
#
#
# Indices 1 2 3 4 5 6 
#
# 1 109.7463 26.3583 36.0250 0.0000 -11.9251 0.0000
# 2 26.3583 121.3697 39.9137 0.0000 -1.0278 0.0000
# 3 36.0250 39.9137 140.7516 0.0000 -5.1589 0.0002
# 4 0.0000 0.0000 0.0000 42.0553 0.0000 -4.0016
# 5 -11.9251 -1.0278 -5.1589 0.0000 40.0503 0.0001
# 6 0.0000 0.0000 0.0002 -4.0016 0.0001 24.7798
#
#
#
# Elastic Compliance Matrix: (Units=1/GPa)
#
#
# Indices 1 2 3 4 5 6 
#
# 1 0.010493 -0.001550 -0.002143 0.000000 0.002808 0.000000
# 2 -0.001550 0.009316 -0.002264 0.000000 -0.000514 0.000000
# 3 -0.002143 -0.002264 0.008309 0.000000 0.000374 0.000000
# 4 0.000000 0.000000 0.000000 0.024149 0.000000 0.003900
# 5 0.002808 -0.000514 0.000374 0.000000 0.025840 0.000000
# 6 0.000000 0.000000 0.000000 0.003900 0.000000 0.040985
#
#
# Mechanical properties :
#
#
# Convention : Reuss Voigt Hill
#
# Bulk Modulus (GPa) = 61.71492 64.05130 62.88311
# Shear Modulus (GPa) = 36.65477 39.34845 38.00161
#
# Velocity S-wave (km/s) = 4.31240 4.46804 4.39091
# Velocity P-wave (km/s) = 7.49044 7.68858 7.59016
#
# Compressibility (1/GPa) = 0.01620354
#
# Stress axis : x y z
#
# Youngs Moduli (GPa) = 95.30250 107.34102 120.35252
#
# Poissons Ratio (x) = 0.16640 0.25793
# Poissons Ratio (y) = 0.14774 0.27246
# Poissons Ratio (z) = 0.20424 0.24301
#
# Static dielectric constant tensor:
#      x y z
#    x 1.745550 0.000000 0.060380 
#    y 0.000000 1.692170 0.000000 
#    z 0.060380 0.000000 1.757090 
# 
# From -- ./inp_files/148845.got.cif
#   From: 2010.05.17/outbox.ucp.g08.bks.cvg/sg15_75_cif.got.tgz:148845.got - 2010.06.11 12:40:34.
