data_PCOD9309528
_publ_section_title
;
Structure prediction by ZEFSAII (Michael W. Deem and Ramdas Pophale) SiO2 
 PCOD9309528
Probable space group: C 2/C
;
_chemical_formula_sum "Si O2"
_cell_formula_units_Z 28
_cell_length_a 15.000000
_cell_length_b 15.000000
_cell_length_c 24.000000
_cell_angle_alpha 90.000000
_cell_angle_beta 30.000000
_cell_angle_gamma 90.000000
_cell_volume 2700.000000
_symmetry_space_group_name_H-M "C 2/C"
_symmetry_group_IT_number 15
_symmetry_cell_setting 'monoclinic'
loop_
_space_group_symop_operation_xyz
x,y,z
-x,y,1/2-z
-x,-y,-z
x,-y,1/2+z
1/2+x,1/2+y,z
1/2-x,1/2+y,1/2-z
1/2-x,1/2-y,-z
1/2+x,1/2-y,1/2+z
loop_
_atom_site_type_symbol
_atom_site_label
_atom_site_fract_x
_atom_site_fract_y
_atom_site_fract_z
Si Si1 0.203122 0.540806 0.135040
Si Si2 0.785133 0.323527 0.171476
Si Si3 0.809152 0.316577 0.680201
Si Si4 0.673836 0.389685 0.511732
Si Si5 0.801576 0.763651 0.540794
Si Si6 0.696134 0.194865 0.443225
Si Si7 0.200622 0.994433 0.787516
O O1 0.209045 0.461862 0.085888
O O2 0.297577 0.631370 0.060760
O O3 0.264650 0.504131 0.163418
O O4 0.000000 0.570468 0.250000
O O5 0.771543 0.242272 0.224543
O O6 0.722732 0.288985 0.141506
O O7 0.708954 0.412451 0.246681
O O8 0.994219 0.341636 0.049869
O O9 0.723841 0.312460 0.663368
O O10 0.827396 0.418826 0.690949
O O11 0.998757 0.271166 0.568502
O O12 0.682902 0.298441 0.470378
O O13 0.718397 0.359215 0.550950
O O14 0.487685 0.442821 0.615284
O O15 0.750000 0.750000 0.500000
#
# Coordination Sequence:
#
# PCOD9309528 Si02
#       7
#     8   8   8   8   8   8   8
#     4  12  24  43  69 100 135 184 236 284 349 417
#     4  11  23  44  68  99 136 181 228 283 348 406
#     4  11  22  43  66  96 131 183 221 280 343 399
#     4  11  23  43  65 103 133 176 228 285 343 418
#     4  11  25  42  67  97 141 180 230 283 341 416
#     4  10  23  42  66  96 140 171 225 287 343 405
#     4  12  23  41  71  96 137 181 230 282 350 420
#
# _framework density 10.370369999999999
#
# number of rings (size 3 to 8) (size 9 to 14) (size 15 to 20)
#    0.000    0.857    2.857    4.714    0.000    4.000 
#    0.000    1.429    0.000    0.000    0.000    0.000 
#    0.000    0.000    0.000    0.000    0.000    0.000 
#
# Total GULP energy -155900.412207 kJ/mol
# GULP energy per Si atom -5567.871865 kJ/mol
# Density = 1.034677 g / cm^3
# Si number density = 10.370370 Si / 1000 Ang^3
#
#
#
# Elastic Constant Matrix: (Units=GPa)
#
#
# Indices 1 2 3 4 5 6 
#
# 1 159.9200 30.2058 19.7564 0.0026 44.4505 -0.0018
# 2 30.2058 143.3585 11.1551 0.0013 24.4047 0.0008
# 3 19.7564 11.1551 65.0520 0.0179 26.1985 -0.0108
# 4 0.0026 0.0013 0.0179 43.3954 -0.0064 15.4040
# 5 44.4505 24.4047 26.1985 -0.0064 49.6505 0.0063
# 6 -0.0018 0.0008 -0.0108 15.4040 0.0063 38.1361
#
#
#
# Elastic Compliance Matrix: (Units=1/GPa)
#
#
# Indices 1 2 3 4 5 6 
#
# 1 0.008379 -0.000525 0.000587 -0.000003 -0.007553 0.000003
# 2 -0.000525 0.007649 0.000219 -0.000001 -0.003405 0.000001
# 3 0.000587 0.000219 0.019570 -0.000014 -0.010960 0.000013
# 4 -0.000003 -0.000001 -0.000014 0.026901 0.000016 -0.010866
# 5 -0.007553 -0.003405 -0.010960 0.000016 0.034360 -0.000015
# 6 0.000003 0.000001 0.000013 -0.010866 -0.000015 0.030611
#
#
# Mechanical properties :
#
#
# Convention : Reuss Voigt Hill
#
# Bulk Modulus (GPa) = 27.65441 54.50724 41.08082
# Shear Modulus (GPa) = 35.98120 46.71727 41.34923
#
# Velocity S-wave (km/s) = 4.16962 4.75114 4.46985
# Velocity P-wave (km/s) = 6.04511 7.51233 6.81830
#
# Compressibility (1/GPa) = 0.03616060
#
# Stress axis : x y z
#
# Youngs Moduli (GPa) = 119.34177 130.73949 51.09782
#
# Poissons Ratio (x) = 0.06869 -0.03001
# Poissons Ratio (y) = 0.06270 -0.01120
# Poissons Ratio (z) = -0.07009 -0.02866
#
# Static dielectric constant tensor:
#      x y z
#    x 1.832080 0.000000 0.009880 
#    y 0.000000 1.753550 0.000000 
#    z 0.009880 0.000000 1.873180 
# 
# From -- ./inp_files/274456.got.cif
#   From: 2010.05.17/outbox.ucp.g08.bks.cvg/sg15_138_cif.got.tgz:274456.got - 2010.06.11 12:40:34.
