data_PCOD9309679
_publ_section_title
;
Structure prediction by ZEFSAII (Michael W. Deem and Ramdas Pophale) SiO2 
 PCOD9309679
Probable space group: C 2/C
;
_chemical_formula_sum "Si O2"
_cell_formula_units_Z 32
_cell_length_a 12.000000
_cell_length_b 30.000000
_cell_length_c 18.000000
_cell_angle_alpha 90.000000
_cell_angle_beta 30.000000
_cell_angle_gamma 90.000000
_cell_volume 3240.000000
_symmetry_space_group_name_H-M "C 2/C"
_symmetry_group_IT_number 15
_symmetry_cell_setting 'monoclinic'
loop_
_space_group_symop_operation_xyz
x,y,z
-x,y,1/2-z
-x,-y,-z
x,-y,1/2+z
1/2+x,1/2+y,z
1/2-x,1/2+y,1/2-z
1/2-x,1/2-y,-z
1/2+x,1/2-y,1/2+z
loop_
_atom_site_type_symbol
_atom_site_label
_atom_site_fract_x
_atom_site_fract_y
_atom_site_fract_z
Si Si1 0.432425 0.862186 0.098364
Si Si2 0.212210 0.693484 0.681403
Si Si3 0.025220 0.575408 0.320113
Si Si4 0.096077 0.851860 0.878490
Si Si5 0.217588 0.202173 0.177624
Si Si6 0.998234 0.921944 0.332547
Si Si7 0.083587 0.008741 0.368390
Si Si8 0.846347 0.918980 0.912106
O O1 0.380860 0.823519 0.187163
O O2 0.188318 0.882754 0.219205
O O3 0.591319 0.834769 0.949477
O O4 0.598456 0.901550 0.033349
O O5 0.425787 0.662611 0.540605
O O6 0.275364 0.745620 0.637667
O O7 0.000000 0.686058 0.750000
O O8 0.185105 0.619429 0.227542
O O9 0.186144 0.538120 0.266849
O O10 0.000000 0.559858 0.250000
O O11 0.768837 0.585196 0.495039
O O12 0.152374 0.807704 0.799907
O O13 0.952077 0.881791 0.904917
O O14 0.000000 0.194547 0.250000
O O15 0.000000 0.942399 0.250000
O O16 0.099312 0.959260 0.327504
O O17 0.893889 0.035667 0.430863
O O18 0.000000 0.000000 0.500000
O O19 0.000000 0.921452 0.750000
#
# Coordination Sequence:
#
# PCOD9309679 Si02
#       8
#     8   8   8   8   8   8   8   8
#     4  12  23  40  67  96 138 172 223 276 331 409
#     4  11  22  34  63 105 135 165 216 287 340 398
#     4  11  24  45  67  90 131 174 222 270 334 396
#     4  11  20  39  64  88 131 176 212 262 337 402
#     4  11  20  39  62  97 139 170 214 277 349 400
#     4  12  28  44  66  99 130 179 228 273 328 395
#     4  11  26  45  69  94 130 169 221 285 328 396
#     4  11  22  41  67  97 131 177 219 264 347 402
#
# _framework density 9.8765429999999999
#
# number of rings (size 3 to 8) (size 9 to 14) (size 15 to 20)
#    0.000    0.750    5.000    2.625    5.250    2.500 
#    0.000    0.000    0.000   15.000    0.000    0.000 
#    0.000    0.000    0.000    0.000    0.000    0.000 
#
# Total GULP energy -178414.491455 kJ/mol
# GULP energy per Si atom -5575.452858 kJ/mol
# Density = 0.985406 g / cm^3
# Si number density = 9.876543 Si / 1000 Ang^3
#
#
#
# Elastic Constant Matrix: (Units=GPa)
#
#
# Indices 1 2 3 4 5 6 
#
# 1 33.3365 -4.2322 14.4068 0.0001 -9.3495 0.0003
# 2 -4.2322 65.4743 15.5297 0.0004 -10.3778 0.0002
# 3 14.4068 15.5297 117.8866 -0.0009 -22.5583 -0.0002
# 4 0.0001 0.0004 -0.0009 31.9309 0.0002 -1.1761
# 5 -9.3495 -10.3778 -22.5583 0.0002 45.9889 0.0003
# 6 0.0003 0.0002 -0.0002 -1.1761 0.0003 24.8353
#
#
#
# Elastic Compliance Matrix: (Units=1/GPa)
#
#
# Indices 1 2 3 4 5 6 
#
# 1 0.033699 0.003962 -0.003485 0.000000 0.006035 -0.000001
# 2 0.003962 0.016566 -0.001983 0.000000 0.003571 0.000000
# 3 -0.003485 -0.001983 0.009876 0.000000 0.003688 0.000000
# 4 0.000000 0.000000 0.000000 0.031372 0.000000 0.001486
# 5 0.006035 0.003571 0.003688 0.000000 0.025586 0.000000
# 6 -0.000001 0.000000 0.000000 0.001486 0.000000 0.040336
#
#
# Mechanical properties :
#
#
# Convention : Reuss Voigt Hill
#
# Bulk Modulus (GPa) = 17.50498 29.78955 23.64727
# Shear Modulus (GPa) = 27.85667 33.28390 30.57029
#
# Velocity S-wave (km/s) = 3.75940 4.10932 3.93825
# Velocity P-wave (km/s) = 5.26547 6.13426 5.71639
#
# Compressibility (1/GPa) = 0.05712659
#
# Stress axis : x y z
#
# Youngs Moduli (GPa) = 29.67449 60.36607 101.25929
#
# Poissons Ratio (x) = -0.23914 0.35292
# Poissons Ratio (y) = -0.11756 0.20081
# Poissons Ratio (z) = 0.10342 0.11971
#
# Static dielectric constant tensor:
#      x y z
#    x 1.743100 0.000000 0.048370 
#    y 0.000000 1.710630 0.000000 
#    z 0.048370 0.000000 1.732100 
# 
# From -- ./inp_files/201467.got.cif
#   From: 2010.05.17/outbox.ucp.g08.bks.cvg/sg15_101_cif.got.tgz:201467.got - 2010.06.11 12:40:34.
