data_PCOD9309540
_publ_section_title
;
Structure prediction by ZEFSAII (Michael W. Deem and Ramdas Pophale) SiO2 
 PCOD9309540
Probable space group: C 2/C
;
_chemical_formula_sum "Si O2"
_cell_formula_units_Z 28
_cell_length_a 27.000000
_cell_length_b 9.000000
_cell_length_c 12.000000
_cell_angle_alpha 90.000000
_cell_angle_beta 70.000000
_cell_angle_gamma 90.000000
_cell_volume 2740.143682
_symmetry_space_group_name_H-M "C 2/C"
_symmetry_group_IT_number 15
_symmetry_cell_setting 'monoclinic'
loop_
_space_group_symop_operation_xyz
x,y,z
-x,y,1/2-z
-x,-y,-z
x,-y,1/2+z
1/2+x,1/2+y,z
1/2-x,1/2+y,1/2-z
1/2-x,1/2-y,-z
1/2+x,1/2-y,1/2+z
loop_
_atom_site_type_symbol
_atom_site_label
_atom_site_fract_x
_atom_site_fract_y
_atom_site_fract_z
Si Si1 0.212330 0.532846 0.298287
Si Si2 0.864679 0.347086 0.002392
Si Si3 0.215921 0.252967 0.137985
Si Si4 0.502699 0.395947 0.880018
Si Si5 0.949435 0.601067 0.010414
Si Si6 0.872866 0.756958 0.238233
Si Si7 0.623389 0.381952 0.802884
O O1 0.187445 0.440774 0.421285
O O2 0.220616 0.411442 0.195252
O O3 0.263321 0.619899 0.299051
O O4 0.174351 0.664776 0.284249
O O5 0.909066 0.476431 0.990356
O O6 0.864406 0.206609 0.089644
O O7 0.869407 0.282060 0.873307
O O8 0.155099 0.204553 0.180504
O O9 0.250000 0.250000 0.000000
O O10 0.500000 0.457602 0.750000
O O11 0.562520 0.345745 0.836499
O O12 0.500000 0.500000 0.000000
O O13 0.465975 0.248818 0.925582
O O14 0.923329 0.678222 0.140493
O O15 0.000000 0.500000 0.000000
O O16 0.870920 0.936052 0.212801
#
# Coordination Sequence:
#
# PCOD9309540 Si02
#       7
#     8   8   8   8   8   8   8
#     4  10  23  43  65 105 133 172 233 279 348 423
#     4  10  24  43  70  99 142 176 237 288 349 415
#     4  11  24  44  71  95 137 177 224 289 348 416
#     4  12  28  47  72 106 147 188 240 291 354 427
#     4  11  24  42  67 102 137 185 235 287 346 419
#     4  11  24  42  70  99 141 184 226 289 352 421
#     4  11  25  44  66 102 134 181 235 285 351 419
#
# _framework density 10.218442
#
# number of rings (size 3 to 8) (size 9 to 14) (size 15 to 20)
#    0.000    1.143    2.857    1.714    4.000    5.714 
#    0.000    5.000    0.000    0.000    0.000    0.000 
#    0.000    0.000    0.000    0.000    0.000    0.000 
#
# Total GULP energy -155998.111653 kJ/mol
# GULP energy per Si atom -5571.361130 kJ/mol
# Density = 1.019518 g / cm^3
# Si number density = 10.218442 Si / 1000 Ang^3
#
#
#
# Elastic Constant Matrix: (Units=GPa)
#
#
# Indices 1 2 3 4 5 6 
#
# 1 39.5685 8.4796 17.7022 0.0000 -16.2168 0.0000
# 2 8.4796 151.3551 42.2212 0.0000 -0.1062 0.0000
# 3 17.7022 42.2212 150.4681 0.0000 -11.4363 0.0000
# 4 0.0000 0.0000 0.0000 40.3109 0.0000 -6.2255
# 5 -16.2168 -0.1062 -11.4363 0.0000 33.0881 0.0000
# 6 0.0000 0.0000 0.0000 -6.2255 0.0000 35.9215
#
#
#
# Elastic Compliance Matrix: (Units=1/GPa)
#
#
# Indices 1 2 3 4 5 6 
#
# 1 0.032845 -0.001167 -0.002376 0.000000 0.015273 0.000000
# 2 -0.001167 0.007225 -0.001984 0.000000 -0.001234 0.000000
# 3 -0.002376 -0.001984 0.007593 0.000000 0.001453 0.000000
# 4 0.000000 0.000000 0.000000 0.025489 0.000000 0.004418
# 5 0.015273 -0.001234 0.001453 0.000000 0.038206 0.000000
# 6 0.000000 0.000000 0.000000 0.004418 0.000000 0.028604
#
#
# Mechanical properties :
#
#
# Convention : Reuss Voigt Hill
#
# Bulk Modulus (GPa) = 27.31530 53.13307 40.22419
# Shear Modulus (GPa) = 30.63388 40.06334 35.34861
#
# Velocity S-wave (km/s) = 3.87583 4.43238 4.16342
# Velocity P-wave (km/s) = 5.78136 7.22840 6.54499
#
# Compressibility (1/GPa) = 0.03660952
#
# Stress axis : x y z
#
# Youngs Moduli (GPa) = 30.44609 138.41062 131.70743
#
# Poissons Ratio (x) = 0.16147 0.31293
# Poissons Ratio (y) = 0.03552 0.26129
# Poissons Ratio (z) = 0.07234 0.27459
#
# Static dielectric constant tensor:
#      x y z
#    x 1.831450 0.000000 -0.007950 
#    y 0.000000 1.704590 0.000000 
#    z -0.007950 0.000000 1.771610 
# 
# From -- ./inp_files/121851.got.cif
#   From: 2010.05.17/outbox.ucp.g08.bks.cvg/sg15_61_cif.got.tgz:121851.got - 2010.06.11 12:40:34.
