data_PCOD9309979
_publ_section_title
;
Structure prediction by ZEFSAII (Michael W. Deem and Ramdas Pophale) SiO2 
 PCOD9309979
Probable space group: P 2 2 2
;
_chemical_formula_sum "Si O2"
_cell_formula_units_Z 21
_cell_length_a 9.202214
_cell_length_b 16.551009
_cell_length_c 5.575317
_cell_angle_alpha 90.000000
_cell_angle_beta 90.000000
_cell_angle_gamma 90.000000
_cell_volume 849.153823
_symmetry_space_group_name_H-M "P 2 2 2"
_symmetry_group_IT_number 16
_symmetry_cell_setting 'orthorhombic'
loop_
_space_group_symop_operation_xyz
x,y,z
-x,-y,z
x,-y,-z
-x,y,-z
loop_
_atom_site_type_symbol
_atom_site_label
_atom_site_fract_x
_atom_site_fract_y
_atom_site_fract_z
Si Si1 0.288769 0.162831 0.192571
Si Si2 0.987549 0.743620 0.749872
Si Si3 0.237873 0.116630 0.701682
Si Si4 0.661517 0.659500 0.023659
Si Si5 0.672040 0.403795 0.486297
Si Si6 0.000000 0.000000 0.500000
O O1 0.118829 0.189572 0.232286
O O2 0.327451 0.126139 0.453153
O O3 0.358635 0.247446 0.108999
O O4 0.308421 0.105068 0.962809
O O5 0.000000 0.699255 0.500000
O O6 0.842336 0.796982 0.735488
O O7 0.000000 0.698668 0.000000
O O8 0.110033 0.052845 0.657592
O O9 0.737619 0.625030 0.260750
O O10 0.500000 0.622116 0.000000
O O11 0.726285 0.636031 0.763215
O O12 0.681758 0.500000 0.500000
O O13 0.500000 0.380305 0.500000
#
# Coordination Sequence:
#
# PCOD9309979 Si02
#       6
#     4   4   4   4   4   1
#     4  10  18  32  43  68 101 129 158 200 231 293
#     4   8  14  27  40  60  88 117 140 189 228 288
#     4  10  20  30  48  70  99 123 154 197 252 313
#     4  10  19  30  49  72  98 137 170 194 239 290
#     4   9  17  30  47  71 100 128 161 205 250 290
#     4  12  20  34  52  78 102 130 142 198 268 330
#
# _framework density 24.730499999999999
#
# number of rings (size 3 to 8) (size 9 to 14) (size 15 to 20)
#    0.000    2.476    2.857    1.714    0.000    3.810 
#    0.000    0.000    0.000    0.000    0.000    4.000 
#    0.000  102.857    0.000    0.000    0.000    0.000 
#
# Total GULP energy -117024.585968 kJ/mol
# GULP energy per Si atom -5572.599332 kJ/mol
# Density = 2.467421 g / cm^3
# Si number density = 24.730500 Si / 1000 Ang^3
#
#
#
# Elastic Constant Matrix: (Units=GPa)
#
#
# Indices 1 2 3 4 5 6 
#
# 1 40.3859 8.5514 29.8670 0.0000 0.0000 0.0000
# 2 8.5514 76.8000 56.8516 0.0000 0.0000 0.0000
# 3 29.8670 56.8516 340.5797 0.0000 0.0000 0.0000
# 4 0.0000 0.0000 0.0000 21.4140 0.0000 0.0000
# 5 0.0000 0.0000 0.0000 0.0000 12.5933 0.0000
# 6 0.0000 0.0000 0.0000 0.0000 0.0000 26.8377
#
#
#
# Elastic Compliance Matrix: (Units=1/GPa)
#
#
# Indices 1 2 3 4 5 6 
#
# 1 0.026611 -0.001410 -0.002098 0.000000 0.000000 0.000000
# 2 -0.001410 0.014931 -0.002369 0.000000 0.000000 0.000000
# 3 -0.002098 -0.002369 0.003516 0.000000 0.000000 0.000000
# 4 0.000000 0.000000 0.000000 0.046699 0.000000 0.000000
# 5 0.000000 0.000000 0.000000 0.000000 0.079407 0.000000
# 6 0.000000 0.000000 0.000000 0.000000 0.000000 0.037261
#
#
# Mechanical properties :
#
#
# Convention : Reuss Voigt Hill
#
# Bulk Modulus (GPa) = 30.02597 72.03396 51.02997
# Shear Modulus (GPa) = 21.61879 36.33537 28.97708
#
# Velocity S-wave (km/s) = 2.95985 3.83724 3.42674
# Velocity P-wave (km/s) = 4.88350 6.98737 6.02793
#
# Compressibility (1/GPa) = 0.03330450
#
# Stress axis : x y z
#
# Youngs Moduli (GPa) = 37.57781 66.97334 284.44663
#
# Poissons Ratio (x) = 0.09442 0.59687
# Poissons Ratio (y) = 0.05298 0.67380
# Poissons Ratio (z) = 0.07885 0.15865
#
# Static dielectric constant tensor:
#      x y z
#    x 2.028590 0.000000 0.000000 
#    y 0.000000 1.940200 0.000000 
#    z 0.000000 0.000000 2.112990 
# 
# From -- ./inp_files/1457.got.cif
#   From: 2010.05.17/outbox.cif.g08.bks.cpg/sg16_1_cif.got.tgz:1457.got - 2010.06.03 22:28:35.
