data_PCOD9309171
_publ_section_title
;
Structure prediction by ZEFSAII (Michael W. Deem and Ramdas Pophale) SiO2 
 PCOD9309171
Probable space group: C 2/C
;
_chemical_formula_sum "Si O2"
_cell_formula_units_Z 28
_cell_length_a 27.000000
_cell_length_b 6.000000
_cell_length_c 27.000000
_cell_angle_alpha 90.000000
_cell_angle_beta 40.000000
_cell_angle_gamma 90.000000
_cell_volume 2811.553005
_symmetry_space_group_name_H-M "C 2/C"
_symmetry_group_IT_number 15
_symmetry_cell_setting 'monoclinic'
loop_
_space_group_symop_operation_xyz
x,y,z
-x,y,1/2-z
-x,-y,-z
x,-y,1/2+z
1/2+x,1/2+y,z
1/2-x,1/2+y,1/2-z
1/2-x,1/2-y,-z
1/2+x,1/2-y,1/2+z
loop_
_atom_site_type_symbol
_atom_site_label
_atom_site_fract_x
_atom_site_fract_y
_atom_site_fract_z
Si Si1 0.812960 0.080763 0.131335
Si Si2 0.312857 0.060028 0.964607
Si Si3 0.489163 0.166153 0.864509
Si Si4 0.053863 0.647646 0.923438
Si Si5 0.831572 0.726511 0.194130
Si Si6 0.428768 0.654248 0.710737
Si Si7 0.719070 0.231388 0.107780
O O1 0.898336 0.179283 0.078125
O O2 0.748619 0.196318 0.215939
O O3 0.775548 0.108954 0.105214
O O4 0.817933 0.834088 0.150860
O O5 0.399260 0.141069 0.915348
O O6 0.314133 0.917766 0.912256
O O7 0.250000 0.250000 0.000000
O O8 0.273465 0.913457 0.038690
O O9 0.502602 0.201577 0.913620
O O10 0.525357 0.411601 0.816589
O O11 0.527656 0.908878 0.822702
O O12 0.123405 0.502005 0.847577
O O13 0.000000 0.500000 0.000000
O O14 0.888197 0.864972 0.187450
O O15 0.356405 0.677326 0.804560
#
# Coordination Sequence:
#
# PCOD9309171 Si02
#       7
#     8   8   8   8   8   8   8
#     4  11  20  40  68  98 139 181 231 280 352 433
#     4  11  27  51  70  99 142 189 251 302 366 430
#     4  11  25  47  73 103 146 186 240 308 351 427
#     4  11  23  39  62 105 139 181 228 286 361 417
#     4  10  21  38  66  99 140 180 227 280 343 436
#     4  10  24  46  74 107 143 183 242 296 364 421
#     4  10  26  45  71 106 139 194 242 299 362 441
#
# _framework density 9.9589090000000002
#
# number of rings (size 3 to 8) (size 9 to 14) (size 15 to 20)
#    0.000    1.429    2.857    0.857    6.000    3.429 
#    0.000    0.000    0.000    0.000    0.000    0.000 
#    0.000    0.000    0.000    0.000    0.000    0.000 
#
# Total GULP energy -155870.242932 kJ/mol
# GULP energy per Si atom -5566.794390 kJ/mol
# Density = 0.993624 g / cm^3
# Si number density = 9.958909 Si / 1000 Ang^3
#
#
#
# Elastic Constant Matrix: (Units=GPa)
#
#
# Indices 1 2 3 4 5 6 
#
# 1 161.6694 35.1012 38.0659 0.0855 -10.1123 -0.0373
# 2 35.1012 73.5588 11.1731 0.0538 -5.2177 0.4193
# 3 38.0659 11.1731 75.7605 -0.0472 -1.9283 0.1207
# 4 0.0855 0.0538 -0.0472 33.5608 -0.0332 -5.4008
# 5 -10.1123 -5.2177 -1.9283 -0.0332 45.1497 0.0740
# 6 -0.0373 0.4193 0.1207 -5.4008 0.0740 41.3657
#
#
#
# Elastic Compliance Matrix: (Units=1/GPa)
#
#
# Indices 1 2 3 4 5 6 
#
# 1 0.007733 -0.003087 -0.003399 -0.000011 0.001230 0.000045
# 2 -0.003087 0.015244 -0.000671 -0.000043 0.001042 -0.000163
# 3 -0.003399 -0.000671 0.015001 0.000025 -0.000198 -0.000036
# 4 -0.000011 -0.000043 0.000025 0.030436 0.000010 0.003974
# 5 0.001230 0.001042 -0.000198 0.000010 0.022536 -0.000048
# 6 0.000045 -0.000163 -0.000036 0.003974 -0.000048 0.024695
#
#
# Mechanical properties :
#
#
# Convention : Reuss Voigt Hill
#
# Bulk Modulus (GPa) = 42.25484 53.29657 47.77570
# Shear Modulus (GPa) = 36.27205 39.12514 37.69860
#
# Velocity S-wave (km/s) = 4.27205 4.43688 4.35525
# Velocity P-wave (km/s) = 6.75237 7.28452 7.02349
#
# Compressibility (1/GPa) = 0.02366593
#
# Stress axis : x y z
#
# Youngs Moduli (GPa) = 129.31762 65.59856 66.66135
#
# Poissons Ratio (x) = 0.20249 0.22658
# Poissons Ratio (y) = 0.39917 0.04470
# Poissons Ratio (z) = 0.43954 0.04398
#
# Static dielectric constant tensor:
#      x y z
#    x 1.705560 -0.000160 0.001290 
#    y -0.000160 1.812120 0.000080 
#    z 0.001290 0.000080 1.708330 
# 
# From -- ./inp_files/302887.got.cif
#   From: 2010.05.17/outbox.ucp.g08.bks.cvg/sg15_152_cif.got.tgz:302887.got - 2010.06.11 12:40:34.
