data_PCOD9309137
_publ_section_title
;
Structure prediction by ZEFSAII (Michael W. Deem and Ramdas Pophale) SiO2 
 PCOD9309137
Probable space group: C 2/C
;
_chemical_formula_sum "Si O2"
_cell_formula_units_Z 28
_cell_length_a 27.000000
_cell_length_b 18.000000
_cell_length_c 9.000000
_cell_angle_alpha 90.000000
_cell_angle_beta 140.000000
_cell_angle_gamma 90.000000
_cell_volume 2811.553005
_symmetry_space_group_name_H-M "C 2/C"
_symmetry_group_IT_number 15
_symmetry_cell_setting 'monoclinic'
loop_
_space_group_symop_operation_xyz
x,y,z
-x,y,1/2-z
-x,-y,-z
x,-y,1/2+z
1/2+x,1/2+y,z
1/2-x,1/2+y,1/2-z
1/2-x,1/2-y,-z
1/2+x,1/2-y,1/2+z
loop_
_atom_site_type_symbol
_atom_site_label
_atom_site_fract_x
_atom_site_fract_y
_atom_site_fract_z
Si Si1 0.752207 0.373388 0.641747
Si Si2 0.418581 0.516224 0.061127
Si Si3 0.034438 0.246595 0.987897
Si Si4 0.812466 0.968880 0.578028
Si Si5 0.916053 0.684313 0.610797
Si Si6 0.700124 0.678643 0.345198
Si Si7 0.399202 0.674810 0.877051
O O1 0.739509 0.460854 0.580560
O O2 0.723847 0.345459 0.735750
O O3 0.689093 0.334076 0.385683
O O4 0.843750 0.356020 0.865437
O O5 0.500000 0.475677 0.250000
O O6 0.390042 0.529931 0.160246
O O7 0.346092 0.477030 0.819934
O O8 0.425971 0.593438 0.989646
O O9 0.000000 0.271410 0.750000
O O10 0.961758 0.207815 0.904932
O O11 0.071651 0.309151 0.183185
O O12 0.108363 0.193189 0.136304
O O13 0.777653 0.887416 0.489895
O O14 0.903705 0.769290 0.526154
O O15 0.000000 0.657635 0.750000
O O16 0.750000 0.750000 0.500000
#
# Coordination Sequence:
#
# PCOD9309137 Si02
#       7
#     8   8   8   8   8   8   8
#     4  11  22  40  61  92 125 164 213 257 323 375
#     4  11  21  36  55  86 128 173 201 242 310 380
#     4  11  21  36  60  95 134 160 209 257 309 379
#     4  11  24  40  57  88 126 166 211 259 308 376
#     4  10  21  39  63  90 122 162 214 273 315 367
#     4  12  23  40  66  92 125 172 208 263 314 373
#     4  10  21  37  58  91 126 168 208 253 311 379
#
# _framework density 9.9589090000000002
#
# number of rings (size 3 to 8) (size 9 to 14) (size 15 to 20)
#    0.000    1.143    4.286    3.857    0.000    1.714 
#    0.000    0.000    0.000    1.714    0.000    0.000 
#    0.000    0.000    0.000    0.000    0.000    0.000 
#
# Total GULP energy -156049.646480 kJ/mol
# GULP energy per Si atom -5573.201660 kJ/mol
# Density = 0.993624 g / cm^3
# Si number density = 9.958909 Si / 1000 Ang^3
#
#
#
# Elastic Constant Matrix: (Units=GPa)
#
#
# Indices 1 2 3 4 5 6 
#
# 1 40.6521 9.4932 37.2598 0.0000 9.7090 0.0000
# 2 9.4932 91.3937 46.9314 0.0000 8.1267 0.0000
# 3 37.2598 46.9314 153.9893 0.0000 18.7513 0.0000
# 4 0.0000 0.0000 0.0000 -1.1279 0.0000 2.0680
# 5 9.7090 8.1267 18.7513 0.0000 38.0280 0.0000
# 6 0.0000 0.0000 0.0000 2.0680 0.0000 12.6429
#
#
#
# Elastic Compliance Matrix: (Units=1/GPa)
#
#
# Indices 1 2 3 4 5 6 
#
# 1 0.032442 0.000933 -0.007555 0.000000 -0.004757 0.000000
# 2 0.000933 0.013026 -0.004072 0.000000 -0.001014 0.000000
# 3 -0.007555 -0.004072 0.009811 0.000000 -0.002039 0.000000
# 4 0.000000 0.000000 0.000000 -0.682044 0.000000 0.111561
# 5 -0.004757 -0.001014 -0.002039 0.000000 0.028733 0.000000
# 6 0.000000 0.000000 0.000000 0.111561 0.000000 0.060848
#
#
# Mechanical properties :
#
#
# Convention : Reuss Voigt Hill
#
# Bulk Modulus (GPa) = 29.50684 52.60041 41.05362
# Shear Modulus (GPa) = -9.91081 22.73198 6.41059
#
# Velocity S-wave (km/s) = -2.23308 3.38196 1.79597
# Velocity P-wave (km/s) = 2.86314 6.45881 4.99569
#
# Compressibility (1/GPa) = 0.03389045
#
# Stress axis : x y z
#
# Youngs Moduli (GPa) = 30.82466 76.76928 101.92373
#
# Poissons Ratio (x) = -0.07160 0.77000
# Poissons Ratio (y) = -0.02875 0.41505
# Poissons Ratio (z) = 0.23287 0.31262
#
# Static dielectric constant tensor:
#      x y z
#    x 1.767240 0.000000 -0.043530 
#    y 0.000000 1.751000 0.000000 
#    z -0.043530 0.000000 1.783350 
# 
# From -- ./inp_files/67186.got.cif
#   From: 2010.05.17/outbox.ucp.g08.bks.cvg/sg15_34_cif.got.tgz:67186.got - 2010.06.11 12:40:34.
