data_PCOD9309376
_publ_section_title
;
Structure prediction by ZEFSAII (Michael W. Deem and Ramdas Pophale) SiO2 
 PCOD9309376
Probable space group: C 2/C
;
_chemical_formula_sum "Si O2"
_cell_formula_units_Z 18
_cell_length_a 15.000000
_cell_length_b 24.000000
_cell_length_c 15.000000
_cell_angle_alpha 90.000000
_cell_angle_beta 20.000000
_cell_angle_gamma 90.000000
_cell_volume 1846.908774
_symmetry_space_group_name_H-M "C 2/C"
_symmetry_group_IT_number 15
_symmetry_cell_setting 'monoclinic'
loop_
_space_group_symop_operation_xyz
x,y,z
-x,y,1/2-z
-x,-y,-z
x,-y,1/2+z
1/2+x,1/2+y,z
1/2-x,1/2+y,1/2-z
1/2-x,1/2-y,-z
1/2+x,1/2-y,1/2+z
loop_
_atom_site_type_symbol
_atom_site_label
_atom_site_fract_x
_atom_site_fract_y
_atom_site_fract_z
Si Si1 0.780420 0.104122 0.190174
Si Si2 0.658287 0.891450 0.243852
Si Si3 0.438139 0.786198 0.703297
Si Si4 0.000000 0.707202 0.750000
Si Si5 0.729279 0.489470 0.957536
O O1 0.575668 0.094452 0.465273
O O2 0.659182 0.157309 0.251909
O O3 0.810957 0.052477 0.090136
O O4 0.067772 0.118024 0.960504
O O5 0.572877 0.837229 0.262895
O O6 0.722222 0.947090 0.124386
O O7 0.500000 0.796535 0.750000
O O8 0.703860 0.758974 0.416044
O O9 0.250000 0.750000 0.500000
O O10 0.000000 0.471921 0.750000
O O11 0.500000 0.487740 0.250000
#
# Coordination Sequence:
#
# PCOD9309376 Si02
#       5
#     8   8   8   4   8
#     4  12  25  42  71 105 135 179 234 283 346 414
#     4  12  26  46  69  99 142 174 232 297 341 403
#     4  10  22  40  63  93 136 176 215 273 340 407
#     4  12  28  48  74 100 136 192 238 284 354 410
#     4  12  25  45  73 100 143 182 228 279 357 416
#
# _framework density 9.7460149999999999
#
# number of rings (size 3 to 8) (size 9 to 14) (size 15 to 20)
#    0.000    0.444    1.111    7.333    1.556    8.000 
#    0.000    0.000    0.000    0.000    0.000    0.000 
#    0.000    0.000    0.000    0.000    0.000    0.000 
#
# Total GULP energy -100582.950468 kJ/mol
# GULP energy per Si atom -5587.941693 kJ/mol
# Density = 0.972383 g / cm^3
# Si number density = 9.746015 Si / 1000 Ang^3
#
#
#
# Elastic Constant Matrix: (Units=GPa)
#
#
# Indices 1 2 3 4 5 6 
#
# 1 131.5625 65.8540 64.1775 -0.0220 -9.9577 -0.0655
# 2 65.8540 150.2932 43.9756 -0.1326 7.9895 -0.0988
# 3 64.1775 43.9756 193.3909 -0.3352 4.5462 -0.0775
# 4 -0.0220 -0.1326 -0.3352 38.5063 -0.0038 -1.6427
# 5 -9.9577 7.9895 4.5462 -0.0038 53.8030 0.0563
# 6 -0.0655 -0.0988 -0.0775 -1.6427 0.0563 57.2799
#
#
#
# Elastic Compliance Matrix: (Units=1/GPa)
#
#
# Indices 1 2 3 4 5 6 
#
# 1 0.011382 -0.004307 -0.002868 -0.000033 0.002988 -0.000002
# 2 -0.004307 0.008804 -0.000524 0.000024 -0.002060 0.000012
# 3 -0.002868 -0.000524 0.006265 0.000051 -0.000982 0.000007
# 4 -0.000033 0.000024 0.000051 0.026002 -0.000013 0.000746
# 5 0.002988 -0.002060 -0.000982 -0.000013 0.019528 -0.000021
# 6 -0.000002 0.000012 0.000007 0.000746 -0.000021 0.017480
#
#
# Mechanical properties :
#
#
# Convention : Reuss Voigt Hill
#
# Bulk Modulus (GPa) = 90.47811 91.47344 90.97577
# Shear Modulus (GPa) = 46.06443 50.00047 48.03245
#
# Velocity S-wave (km/s) = 4.86660 5.07025 4.96947
# Velocity P-wave (km/s) = 8.83726 9.01704 8.92760
#
# Compressibility (1/GPa) = 0.01105240
#
# Stress axis : x y z
#
# Youngs Moduli (GPa) = 87.85716 113.58782 159.61579
#
# Poissons Ratio (x) = 0.48922 0.45780
# Poissons Ratio (y) = 0.37840 0.08366
# Poissons Ratio (z) = 0.25199 0.05954
#
# Static dielectric constant tensor:
#      x y z
#    x 1.712750 -0.000090 0.008200 
#    y -0.000090 1.681830 0.000180 
#    z 0.008200 0.000180 1.684010 
# 
# From -- ./inp_files/156697.got.cif
#   From: 2010.05.17/outbox.ucp.g08.bks.cvg/sg15_79_cif.got.tgz:156697.got - 2010.06.11 12:40:34.
