data_PCOD9309604
_publ_section_title
;
Structure prediction by ZEFSAII (Michael W. Deem and Ramdas Pophale) SiO2 
 PCOD9309604
Probable space group: C 2/C
;
_chemical_formula_sum "Si O2"
_cell_formula_units_Z 24
_cell_length_a 12.000000
_cell_length_b 21.000000
_cell_length_c 12.000000
_cell_angle_alpha 90.000000
_cell_angle_beta 50.000000
_cell_angle_gamma 90.000000
_cell_volume 2316.518396
_symmetry_space_group_name_H-M "C 2/C"
_symmetry_group_IT_number 15
_symmetry_cell_setting 'monoclinic'
loop_
_space_group_symop_operation_xyz
x,y,z
-x,y,1/2-z
-x,-y,-z
x,-y,1/2+z
1/2+x,1/2+y,z
1/2-x,1/2+y,1/2-z
1/2-x,1/2-y,-z
1/2+x,1/2-y,1/2+z
loop_
_atom_site_type_symbol
_atom_site_label
_atom_site_fract_x
_atom_site_fract_y
_atom_site_fract_z
Si Si1 0.237344 0.282150 0.628738
Si Si2 0.278071 0.165818 0.757432
Si Si3 0.500000 0.887470 0.750000
Si Si4 0.993971 0.849655 0.937225
Si Si5 0.500000 0.752391 0.250000
Si Si6 0.623248 0.050970 0.947302
Si Si7 0.927003 0.013174 0.175201
O O1 0.250000 0.250000 0.500000
O O2 0.211040 0.222614 0.726790
O O3 0.118797 0.337593 0.721154
O O4 0.389450 0.315609 0.559086
O O5 0.376722 0.202080 0.782325
O O6 0.372792 0.118030 0.621496
O O7 0.147104 0.130106 0.902848
O O8 0.587654 0.928535 0.599576
O O9 0.947825 0.795364 0.879808
O O10 0.068987 0.909984 0.831023
O O11 0.768901 0.016801 0.803636
O O12 0.500000 0.000000 0.000000
O O13 0.000000 0.994742 0.250000
O O14 0.000000 0.000000 0.000000
#
# Coordination Sequence:
#
# PCOD9309604 Si02
#       7
#     8   8   4   8   4   8   8
#     4  11  23  42  72 106 142 186 238 305 377 438
#     4  11  24  44  70 105 140 183 240 299 369 441
#     4  12  26  47  70 105 148 190 242 308 372 442
#     4  11  23  45  71 102 145 184 245 305 371 442
#     4  10  24  43  70 107 138 186 232 310 380 442
#     4  12  29  47  72 105 149 197 250 301 372 448
#     4  12  28  50  77 108 149 203 256 309 373 449
#
# _framework density 10.360374999999999
#
# number of rings (size 3 to 8) (size 9 to 14) (size 15 to 20)
#    0.000    0.667    4.167    2.500    7.000    2.000 
#    1.500    0.000    0.000    0.000    0.000    0.000 
#    0.000    0.000    0.000    0.000    0.000    0.000 
#
# Total GULP energy -133697.556336 kJ/mol
# GULP energy per Si atom -5570.731514 kJ/mol
# Density = 1.033679 g / cm^3
# Si number density = 10.360375 Si / 1000 Ang^3
#
#
#
# Elastic Constant Matrix: (Units=GPa)
#
#
# Indices 1 2 3 4 5 6 
#
# 1 69.6564 50.1434 75.0741 0.0000 19.8120 0.0000
# 2 50.1434 126.8797 53.7053 0.0000 -9.3651 0.0000
# 3 75.0741 53.7053 149.2528 0.0000 -9.7316 0.0000
# 4 0.0000 0.0000 0.0000 86.9208 0.0000 -20.2739
# 5 19.8120 -9.3651 -9.7316 0.0000 17.8599 0.0000
# 6 0.0000 0.0000 0.0000 -20.2739 0.0000 28.6197
#
#
#
# Elastic Compliance Matrix: (Units=1/GPa)
#
#
# Indices 1 2 3 4 5 6 
#
# 1 -0.077114 0.023041 0.038221 0.000000 0.118450 0.000000
# 2 0.023041 0.002589 -0.014618 0.000000 -0.032167 0.000000
# 3 0.038221 -0.014618 -0.010917 0.000000 -0.056012 0.000000
# 4 0.000000 0.000000 0.000000 0.013782 0.000000 0.009763
# 5 0.118450 -0.032167 -0.056012 0.000000 -0.122793 0.000000
# 6 0.000000 0.000000 0.000000 0.009763 0.000000 0.041857
#
#
# Mechanical properties :
#
#
# Convention : Reuss Voigt Hill
#
# Bulk Modulus (GPa) = 127.48111 78.18164 102.83138
# Shear Modulus (GPa) = -20.55346 37.80450 8.62552
#
# Velocity S-wave (km/s) = -3.15290 4.27602 2.04249
# Velocity P-wave (km/s) = 6.95720 7.88620 7.43622
#
# Compressibility (1/GPa) = 0.00784430
#
# Stress axis : x y z
#
# Youngs Moduli (GPa) = -12.96782 386.23920 -91.59980
#
# Poissons Ratio (x) = -8.89923 3.50102
# Poissons Ratio (y) = 0.29879 -1.33905
# Poissons Ratio (z) = 0.49564 5.64622
#
# Static dielectric constant tensor:
#      x y z
#    x 1.804940 0.000000 0.011170 
#    y 0.000000 2.185960 0.000000 
#    z 0.011170 0.000000 1.748540 
# 
# From -- ./inp_files/89434.got.cif
#   From: 2010.05.17/outbox.ucp.g08.bks.cvg/sg15_45_cif.got.tgz:89434.got - 2010.06.11 12:40:34.
