data_PCOD9309374
_publ_section_title
;
Structure prediction by ZEFSAII (Michael W. Deem and Ramdas Pophale) SiO2 
 PCOD9309374
Probable space group: C 2/C
;
_chemical_formula_sum "Si O2"
_cell_formula_units_Z 24
_cell_length_a 27.000000
_cell_length_b 15.000000
_cell_length_c 9.000000
_cell_angle_alpha 90.000000
_cell_angle_beta 140.000000
_cell_angle_gamma 90.000000
_cell_volume 2342.960837
_symmetry_space_group_name_H-M "C 2/C"
_symmetry_group_IT_number 15
_symmetry_cell_setting 'monoclinic'
loop_
_space_group_symop_operation_xyz
x,y,z
-x,y,1/2-z
-x,-y,-z
x,-y,1/2+z
1/2+x,1/2+y,z
1/2-x,1/2+y,1/2-z
1/2-x,1/2-y,-z
1/2+x,1/2-y,1/2+z
loop_
_atom_site_type_symbol
_atom_site_label
_atom_site_fract_x
_atom_site_fract_y
_atom_site_fract_z
Si Si1 0.085442 0.777885 0.370513
Si Si2 0.087460 0.532286 0.160598
Si Si3 0.082201 0.727831 0.014939
Si Si4 0.829236 0.603509 0.853853
Si Si5 0.147788 0.887431 0.981624
Si Si6 0.913655 0.047082 0.480552
O O1 0.138961 0.703578 0.566839
O O2 0.118878 0.873173 0.492969
O O3 0.000000 0.769852 0.250000
O O4 0.082309 0.765190 0.185206
O O5 0.132899 0.560197 0.412357
O O6 0.132574 0.450769 0.191429
O O7 0.091785 0.620595 0.063583
O O8 0.000000 0.500000 0.000000
O O9 0.134621 0.788558 0.024116
O O10 0.000000 0.740135 0.750000
O O11 0.737119 0.601677 0.643601
O O12 0.097712 0.918706 0.717891
O O13 0.127189 0.955306 0.069000
O O14 0.000000 0.037052 0.750000
#
# Coordination Sequence:
#
# PCOD9309374 Si02
#       6
#     8   8   8   8   8   8
#     4  10  22  40  63  89 121 164 212 262 307 374
#     4  11  23  42  68  94 126 172 219 263 312 378
#     4  11  22  39  65  93 125 165 217 263 313 379
#     4  11  24  40  62  95 132 163 207 264 326 380
#     4  12  25  40  63  95 128 166 205 263 327 381
#     4  11  23  42  64  87 123 168 218 258 308 381
#
# _framework density 10.243449
#
# number of rings (size 3 to 8) (size 9 to 14) (size 15 to 20)
#    0.000    1.000    0.000    8.500    0.000    6.000 
#    0.000    0.000    0.000    0.000    0.000    0.000 
#    0.000    0.000    0.000    0.000    0.000    0.000 
#
# Total GULP energy -133981.216151 kJ/mol
# GULP energy per Si atom -5582.550673 kJ/mol
# Density = 1.022013 g / cm^3
# Si number density = 10.243449 Si / 1000 Ang^3
#
#
#
# Elastic Constant Matrix: (Units=GPa)
#
#
# Indices 1 2 3 4 5 6 
#
# 1 77.0450 20.3022 15.8094 0.0000 23.0320 0.0000
# 2 20.3022 107.0257 5.5896 0.0000 14.9896 0.0000
# 3 15.8094 5.5896 67.7968 0.0000 17.8178 0.0000
# 4 0.0000 0.0000 0.0000 13.7511 0.0000 -16.6700
# 5 23.0320 14.9896 17.8178 0.0000 36.5943 0.0000
# 6 0.0000 0.0000 0.0000 -16.6700 0.0000 38.1051
#
#
#
# Elastic Compliance Matrix: (Units=1/GPa)
#
#
# Indices 1 2 3 4 5 6 
#
# 1 0.016396 -0.001789 -0.001326 0.000000 -0.008941 0.000000
# 2 -0.001789 0.010112 0.000431 0.000000 -0.003226 0.000000
# 3 -0.001326 0.000431 0.017030 0.000000 -0.007634 0.000000
# 4 0.000000 0.000000 0.000000 0.154839 0.000000 0.067738
# 5 -0.008941 -0.003226 -0.007634 0.000000 0.037993 0.000000
# 6 0.000000 0.000000 0.000000 0.067738 0.000000 0.055877
#
#
# Mechanical properties :
#
#
# Convention : Reuss Voigt Hill
#
# Bulk Modulus (GPa) = 26.19790 37.25220 31.72505
# Shear Modulus (GPa) = 16.11155 31.70117 23.90636
#
# Velocity S-wave (km/s) = 2.80738 3.93795 3.41971
# Velocity P-wave (km/s) = 4.82948 6.23695 5.57779
#
# Compressibility (1/GPa) = 0.03817100
#
# Stress axis : x y z
#
# Youngs Moduli (GPa) = 60.99160 98.89052 58.72021
#
# Poissons Ratio (x) = 0.17688 0.07786
# Poissons Ratio (y) = 0.10909 -0.02533
# Poissons Ratio (z) = 0.08088 -0.04265
#
# Static dielectric constant tensor:
#      x y z
#    x 1.751580 0.000000 -0.021310 
#    y 0.000000 1.813310 0.000000 
#    z -0.021310 0.000000 1.728510 
# 
# From -- ./inp_files/66473.got.cif
#   From: 2010.05.17/outbox.ucp.g08.bks.cvg/sg15_34_cif.got.tgz:66473.got - 2010.06.11 12:40:34.
