data_PCOD9309674
_publ_section_title
;
Structure prediction by ZEFSAII (Michael W. Deem and Ramdas Pophale) SiO2 
 PCOD9309674
Probable space group: C 2/C
;
_chemical_formula_sum "Si O2"
_cell_formula_units_Z 32
_cell_length_a 15.000000
_cell_length_b 12.000000
_cell_length_c 27.000000
_cell_angle_alpha 90.000000
_cell_angle_beta 140.000000
_cell_angle_gamma 90.000000
_cell_volume 3123.947783
_symmetry_space_group_name_H-M "C 2/C"
_symmetry_group_IT_number 15
_symmetry_cell_setting 'monoclinic'
loop_
_space_group_symop_operation_xyz
x,y,z
-x,y,1/2-z
-x,-y,-z
x,-y,1/2+z
1/2+x,1/2+y,z
1/2-x,1/2+y,1/2-z
1/2-x,1/2-y,-z
1/2+x,1/2-y,1/2+z
loop_
_atom_site_type_symbol
_atom_site_label
_atom_site_fract_x
_atom_site_fract_y
_atom_site_fract_z
Si Si1 0.264677 0.695379 0.922088
Si Si2 0.002165 0.184544 0.146882
Si Si3 0.701688 0.560852 0.035700
Si Si4 0.362593 0.276723 0.225156
Si Si5 0.686617 0.855737 0.279679
Si Si6 0.426291 0.721475 0.436891
Si Si7 0.969156 0.068239 0.857504
Si Si8 0.516352 0.939297 0.697909
O O1 0.299778 0.573489 0.960027
O O2 0.183827 0.667898 0.836855
O O3 0.149384 0.763768 0.904210
O O4 0.416627 0.753205 0.976979
O O5 0.128299 0.243396 0.229991
O O6 0.035897 0.198547 0.103585
O O7 0.004064 0.052638 0.153846
O O8 0.627364 0.620860 0.050896
O O9 0.867414 0.588972 0.110046
O O10 0.610501 0.596133 0.948710
O O11 0.500000 0.272642 0.250000
O O12 0.219317 0.291597 0.133513
O O13 0.406172 0.362694 0.285262
O O14 0.369066 0.157388 0.255998
O O15 0.839710 0.910753 0.339431
O O16 0.583334 0.945303 0.210275
O O17 0.500000 0.956420 0.750000
#
# Coordination Sequence:
#
# PCOD9309674 Si02
#       8
#     8   8   8   8   8   8   8   8
#     4  12  23  39  68 105 139 171 227 289 350 399
#     4  12  25  41  67 100 142 179 216 278 354 416
#     4  12  22  40  68 102 129 173 229 294 333 389
#     4  11  24  45  68  90 133 184 225 277 343 414
#     4  12  23  42  69 104 134 180 230 286 342 411
#     4  12  22  41  66  98 135 171 226 285 340 398
#     4  12  27  42  68 101 138 179 228 282 348 420
#     4  11  20  37  67  95 129 169 225 281 334 390
#
# _framework density 10.243449
#
# number of rings (size 3 to 8) (size 9 to 14) (size 15 to 20)
#    0.000    0.250    8.750    2.625    0.000    1.500 
#    0.000    0.000    0.000    1.500    0.000    0.000 
#    0.000    0.000    0.000    0.000    0.000    0.000 
#
# Total GULP energy -178161.086825 kJ/mol
# GULP energy per Si atom -5567.533963 kJ/mol
# Density = 1.022013 g / cm^3
# Si number density = 10.243449 Si / 1000 Ang^3
#
#
#
# Elastic Constant Matrix: (Units=GPa)
#
#
# Indices 1 2 3 4 5 6 
#
# 1 64.2869 29.0711 17.1949 0.0000 19.2010 0.0000
# 2 29.0711 49.9917 27.9583 0.0000 -9.8356 0.0000
# 3 17.1949 27.9583 141.1700 0.0000 30.9800 0.0000
# 4 0.0000 0.0000 0.0000 22.5212 0.0000 1.6145
# 5 19.2010 -9.8356 30.9800 0.0000 35.9967 0.0000
# 6 0.0000 0.0000 0.0000 1.6145 0.0000 12.8002
#
#
#
# Elastic Compliance Matrix: (Units=1/GPa)
#
#
# Indices 1 2 3 4 5 6 
#
# 1 0.046560 -0.044456 0.013868 0.000000 -0.048918 0.000000
# 2 -0.044456 0.070443 -0.022147 0.000000 0.062021 0.000000
# 3 0.013868 -0.022147 0.015697 0.000000 -0.026958 0.000000
# 4 0.000000 0.000000 0.000000 0.044808 0.000000 -0.005652
# 5 -0.048918 0.062021 -0.026958 0.000000 0.094021 0.000000
# 6 0.000000 0.000000 0.000000 -0.005652 0.000000 0.078836
#
#
# Mechanical properties :
#
#
# Convention : Reuss Voigt Hill
#
# Bulk Modulus (GPa) = 36.72280 44.87748 40.80014
# Shear Modulus (GPa) = 10.75475 26.34525 18.55000
#
# Velocity S-wave (km/s) = 2.29368 3.58991 3.01235
# Velocity P-wave (km/s) = 4.99786 6.25590 5.66193
#
# Compressibility (1/GPa) = 0.02723104
#
# Stress axis : x y z
#
# Youngs Moduli (GPa) = 21.47775 14.19578 63.70828
#
# Poissons Ratio (x) = 0.63108 -0.88353
# Poissons Ratio (y) = 0.95481 1.41095
# Poissons Ratio (z) = -0.29786 0.31439
#
# Static dielectric constant tensor:
#      x y z
#    x 2.126020 0.000000 -0.044480 
#    y 0.000000 1.816750 0.000000 
#    z -0.044480 0.000000 1.772380 
# 
# From -- ./inp_files/296143.got.cif
#   From: 2010.05.17/outbox.ucp.g08.bks.cvg/sg15_149_cif.got.tgz:296143.got - 2010.06.11 12:40:34.
