data_PCOD9309350
_publ_section_title
;
Structure prediction by ZEFSAII (Michael W. Deem and Ramdas Pophale) SiO2 
 PCOD9309350
Probable space group: C 2/C
;
_chemical_formula_sum "Si O2"
_cell_formula_units_Z 20
_cell_length_a 18.000000
_cell_length_b 12.000000
_cell_length_c 9.000000
_cell_angle_alpha 90.000000
_cell_angle_beta 80.000000
_cell_angle_gamma 90.000000
_cell_volume 1914.466272
_symmetry_space_group_name_H-M "C 2/C"
_symmetry_group_IT_number 15
_symmetry_cell_setting 'monoclinic'
loop_
_space_group_symop_operation_xyz
x,y,z
-x,y,1/2-z
-x,-y,-z
x,-y,1/2+z
1/2+x,1/2+y,z
1/2-x,1/2+y,1/2-z
1/2-x,1/2-y,-z
1/2+x,1/2-y,1/2+z
loop_
_atom_site_type_symbol
_atom_site_label
_atom_site_fract_x
_atom_site_fract_y
_atom_site_fract_z
Si Si1 0.545670 0.903898 0.886334
Si Si2 0.523727 0.319227 0.577941
Si Si3 0.232935 0.127171 0.668258
Si Si4 0.927667 0.946087 0.385057
Si Si5 0.286412 0.895320 0.810705
O O1 0.500000 0.889761 0.750000
O O2 0.631712 0.914820 0.795125
O O3 0.545893 0.789438 0.979812
O O4 0.500000 0.000000 0.000000
O O5 0.500000 0.283898 0.750000
O O6 0.453072 0.378799 0.521645
O O7 0.582373 0.422752 0.572710
O O8 0.145030 0.111347 0.657357
O O9 0.279270 0.108938 0.495195
O O10 0.240441 0.261844 0.715449
O O11 0.247843 0.015275 0.768288
O O12 0.000000 0.940477 0.250000
#
# Coordination Sequence:
#
# PCOD9309350 Si02
#       5
#     8   8   8   8   8
#     4  12  25  47  72 100 141 188 244 302 355 430
#     4  10  22  38  69 105 130 174 239 290 359 413
#     4  11  26  48  70 107 150 193 239 303 362 450
#     4  10  22  42  70 102 135 181 237 293 352 418
#     4  11  27  47  72 105 146 197 240 296 379 427
#
# _framework density 10.446776
#
# number of rings (size 3 to 8) (size 9 to 14) (size 15 to 20)
#    0.000    1.200    0.000    4.800   11.200    3.200 
#    3.600    0.000    0.000    0.000    0.000    0.000 
#    0.000    0.000    0.000    0.000    0.000    0.000 
#
# Total GULP energy -111426.312580 kJ/mol
# GULP energy per Si atom -5571.315629 kJ/mol
# Density = 1.042300 g / cm^3
# Si number density = 10.446776 Si / 1000 Ang^3
#
#
#
# Elastic Constant Matrix: (Units=GPa)
#
#
# Indices 1 2 3 4 5 6 
#
# 1 67.4314 19.4038 27.6578 0.0000 -16.9077 0.0000
# 2 19.4038 148.0775 38.9432 0.0000 -4.1810 0.0000
# 3 27.6578 38.9432 135.7574 0.0000 -12.8792 0.0000
# 4 0.0000 0.0000 0.0000 55.9991 0.0000 -2.6627
# 5 -16.9077 -4.1810 -12.8792 0.0000 35.4767 0.0000
# 6 0.0000 0.0000 0.0000 -2.6627 0.0000 26.4317
#
#
#
# Elastic Compliance Matrix: (Units=1/GPa)
#
#
# Indices 1 2 3 4 5 6 
#
# 1 0.018211 -0.001499 -0.002562 0.000000 0.007572 0.000000
# 2 -0.001499 0.007428 -0.001875 0.000000 -0.000519 0.000000
# 3 -0.002562 -0.001875 0.008585 0.000000 0.001675 0.000000
# 4 0.000000 0.000000 0.000000 0.017943 0.000000 0.001808
# 5 0.007572 -0.000519 0.001675 0.000000 0.032343 0.000000
# 6 0.000000 0.000000 0.000000 0.001808 0.000000 0.038015
#
#
# Mechanical properties :
#
#
# Convention : Reuss Voigt Hill
#
# Bulk Modulus (GPa) = 44.73716 58.14177 51.43946
# Shear Modulus (GPa) = 35.24938 41.26560 38.25749
#
# Velocity S-wave (km/s) = 4.11188 4.44896 4.28374
# Velocity P-wave (km/s) = 6.63339 7.36743 7.01003
#
# Compressibility (1/GPa) = 0.02235278
#
# Stress axis : x y z
#
# Youngs Moduli (GPa) = 54.91317 134.62604 116.48713
#
# Poissons Ratio (x) = 0.20177 0.29841
# Poissons Ratio (y) = 0.08230 0.21838
# Poissons Ratio (z) = 0.14067 0.25239
#
# Static dielectric constant tensor:
#      x y z
#    x 1.878430 0.000000 0.052960 
#    y 0.000000 1.803780 0.000000 
#    z 0.052960 0.000000 1.818950 
# 
# From -- ./inp_files/46062.got.cif
#   From: 2010.05.17/outbox.ucp.g08.bks.cvg/sg15_24_cif.got.tgz:46062.got - 2010.06.11 12:40:34.
