data_PCOD9309900
_publ_section_title
;
Structure prediction by ZEFSAII (Michael W. Deem and Ramdas Pophale) SiO2 
 PCOD9309900
Probable space group: C 2/C
;
_chemical_formula_sum "Si O2"
_cell_formula_units_Z 22
_cell_length_a 21.000000
_cell_length_b 6.000000
_cell_length_c 18.000000
_cell_angle_alpha 90.000000
_cell_angle_beta 70.000000
_cell_angle_gamma 90.000000
_cell_volume 2131.222864
_symmetry_space_group_name_H-M "C 2/C"
_symmetry_group_IT_number 15
_symmetry_cell_setting 'monoclinic'
loop_
_space_group_symop_operation_xyz
x,y,z
-x,y,1/2-z
-x,-y,-z
x,-y,1/2+z
1/2+x,1/2+y,z
1/2-x,1/2+y,1/2-z
1/2-x,1/2-y,-z
1/2+x,1/2-y,1/2+z
loop_
_atom_site_type_symbol
_atom_site_label
_atom_site_fract_x
_atom_site_fract_y
_atom_site_fract_z
Si Si1 0.398159 0.939060 0.060495
Si Si2 0.939438 0.934539 0.101113
Si Si3 0.000000 0.649263 0.750000
Si Si4 0.882999 0.014209 0.783353
Si Si5 0.557633 0.811924 0.615810
Si Si6 0.742121 0.009896 0.793875
O O1 0.427995 0.688684 0.073971
O O2 0.327762 0.960165 0.133320
O O3 0.429787 0.191893 0.062437
O O4 0.400801 0.911957 0.969708
O O5 0.015291 0.899702 0.101796
O O6 0.893056 0.923667 0.192972
O O7 0.066044 0.806899 0.725793
O O8 0.007539 0.493676 0.673867
O O9 0.902037 0.214734 0.830373
O O10 0.804472 0.966002 0.824623
O O11 0.755495 0.266474 0.753011
#
# Coordination Sequence:
#
# PCOD9309900 Si02
#       6
#     8   8   4   8   8   8
#     4  12  27  46  74 108 145 189 241 295 351 424
#     4  12  23  47  72 107 143 189 237 291 357 424
#     4  12  24  46  70 104 148 182 240 292 372 416
#     4  12  25  43  76 101 141 194 238 287 363 428
#     4  12  27  43  73 111 148 185 237 304 357 421
#     4  12  26  48  74 102 142 192 241 290 356 433
#
# _framework density 10.322711999999999
#
# number of rings (size 3 to 8) (size 9 to 14) (size 15 to 20)
#    0.000    0.000    7.273    2.182    5.091    0.727 
#    0.000    0.909    0.000    0.000    0.000    0.000 
#    0.000    0.000    0.000    0.000    0.000    0.000 
#
# Total GULP energy -122484.443551 kJ/mol
# GULP energy per Si atom -5567.474707 kJ/mol
# Density = 1.029922 g / cm^3
# Si number density = 10.322712 Si / 1000 Ang^3
#
#
#
# Elastic Constant Matrix: (Units=GPa)
#
#
# Indices 1 2 3 4 5 6 
#
# 1 73.7068 46.2082 9.1282 0.0000 -7.7055 0.0003
# 2 46.2082 161.3052 49.2146 0.0006 4.7551 0.0013
# 3 9.1282 49.2146 140.1226 0.0000 -4.2932 0.0001
# 4 0.0000 0.0006 0.0000 13.4005 0.0001 -6.7655
# 5 -7.7055 4.7551 -4.2932 0.0001 26.2347 0.0001
# 6 0.0003 0.0013 0.0001 -6.7655 0.0001 27.0531
#
#
#
# Elastic Compliance Matrix: (Units=1/GPa)
#
#
# Indices 1 2 3 4 5 6 
#
# 1 0.017566 -0.005520 0.000988 0.000000 0.006322 0.000000
# 2 -0.005520 0.008751 -0.002827 -0.000001 -0.003670 -0.000001
# 3 0.000988 -0.002827 0.008130 0.000000 0.002133 0.000000
# 4 0.000000 -0.000001 0.000000 0.085408 0.000000 0.021359
# 5 0.006322 -0.003670 0.002133 0.000000 0.040988 0.000000
# 6 0.000000 -0.000001 0.000000 0.021359 0.000000 0.042306
#
#
# Mechanical properties :
#
#
# Convention : Reuss Voigt Hill
#
# Bulk Modulus (GPa) = 50.68121 64.91518 57.79819
# Shear Modulus (GPa) = 22.27729 31.37656 26.82692
#
# Velocity S-wave (km/s) = 3.28844 3.90267 3.60865
# Velocity P-wave (km/s) = 6.24661 7.19854 6.73940
#
# Compressibility (1/GPa) = 0.01973118
#
# Stress axis : x y z
#
# Youngs Moduli (GPa) = 56.92704 114.26920 122.99610
#
# Poissons Ratio (x) = 0.63076 -0.12153
# Poissons Ratio (y) = 0.31423 0.34765
# Poissons Ratio (z) = -0.05625 0.32298
#
# Static dielectric constant tensor:
#      x y z
#    x 1.803280 0.000000 0.024160 
#    y 0.000000 1.792140 0.000000 
#    z 0.024160 0.000000 1.775100 
# 
# From -- ./inp_files/212814.got.cif
#   From: 2010.05.17/outbox.ucp.g08.bks.cvg/sg15_107_cif.got.tgz:212814.got - 2010.06.11 12:40:34.
