data_PCOD9309686
_publ_section_title
;
Structure prediction by ZEFSAII (Michael W. Deem and Ramdas Pophale) SiO2 
 PCOD9309686
Probable space group: C 2/C
;
_chemical_formula_sum "Si O2"
_cell_formula_units_Z 32
_cell_length_a 9.000000
_cell_length_b 30.000000
_cell_length_c 18.000000
_cell_angle_alpha 90.000000
_cell_angle_beta 40.000000
_cell_angle_gamma 90.000000
_cell_volume 3123.947783
_symmetry_space_group_name_H-M "C 2/C"
_symmetry_group_IT_number 15
_symmetry_cell_setting 'monoclinic'
loop_
_space_group_symop_operation_xyz
x,y,z
-x,y,1/2-z
-x,-y,-z
x,-y,1/2+z
1/2+x,1/2+y,z
1/2-x,1/2+y,1/2-z
1/2-x,1/2-y,-z
1/2+x,1/2-y,1/2+z
loop_
_atom_site_type_symbol
_atom_site_label
_atom_site_fract_x
_atom_site_fract_y
_atom_site_fract_z
Si Si1 0.885458 0.084969 0.001945
Si Si2 0.635511 0.798985 0.775701
Si Si3 0.043228 0.111713 0.358019
Si Si4 0.337843 0.060873 0.740223
Si Si5 0.579685 0.956855 0.805004
Si Si6 0.497931 0.133787 0.937973
Si Si7 0.173869 0.706084 0.754729
Si Si8 0.280297 0.327367 0.469160
O O1 0.801098 0.135030 0.023500
O O2 0.087641 0.073939 0.867249
O O3 0.974014 0.087403 0.053529
O O4 0.667222 0.054094 0.064098
O O5 0.500000 0.793816 0.750000
O O6 0.794307 0.843806 0.709838
O O7 0.799831 0.756753 0.727685
O O8 0.432737 0.797880 0.916975
O O9 0.206590 0.074852 0.254005
O O10 0.776998 0.125019 0.438744
O O11 0.500000 0.069719 0.750000
O O12 0.412587 0.090631 0.641792
O O13 0.354777 0.008464 0.715920
O O14 0.500000 0.946535 0.750000
O O15 0.542840 0.174549 0.863737
O O16 0.667338 0.147648 0.941066
O O17 0.451013 0.690301 0.642294
O O18 0.000000 0.704270 0.750000
#
# Coordination Sequence:
#
# PCOD9309686 Si02
#       8
#     8   8   8   8   8   8   8   8
#     4  11  20  41  70  95 135 183 228 283 337 396
#     4  12  25  46  73  98 135 179 226 281 340 400
#     4  11  22  42  70 100 135 178 230 281 335 400
#     4  11  22  38  69 101 137 182 234 284 334 398
#     4   9  21  37  65 104 134 177 236 283 332 399
#     4  12  26  42  68  99 140 179 227 278 339 402
#     4  12  28  47  71 103 135 173 229 276 336 410
#     4  12  25  47  70  98 138 181 220 280 345 395
#
# _framework density 10.243449
#
# number of rings (size 3 to 8) (size 9 to 14) (size 15 to 20)
#    0.000    0.750    5.000    3.000    3.500    2.000 
#    0.000    0.625    2.750    0.000    0.000    0.000 
#    0.000    0.000    0.000    0.000    0.000    0.000 
#
# Total GULP energy -178444.687880 kJ/mol
# GULP energy per Si atom -5576.396496 kJ/mol
# Density = 1.022013 g / cm^3
# Si number density = 10.243449 Si / 1000 Ang^3
#
#
#
# Elastic Constant Matrix: (Units=GPa)
#
#
# Indices 1 2 3 4 5 6 
#
# 1 112.0509 31.0633 44.6585 0.0000 -18.8871 0.0000
# 2 31.0633 89.0181 24.1048 0.0000 -15.8704 0.0000
# 3 44.6585 24.1048 103.7184 0.0000 -35.7866 0.0000
# 4 0.0000 0.0000 0.0000 21.7630 0.0000 -0.7830
# 5 -18.8871 -15.8704 -35.7866 0.0000 39.3441 0.0000
# 6 0.0000 0.0000 0.0000 -0.7830 0.0000 20.0792
#
#
#
# Elastic Compliance Matrix: (Units=1/GPa)
#
#
# Indices 1 2 3 4 5 6 
#
# 1 0.011416 -0.002768 -0.004032 0.000000 0.000696 0.000000
# 2 -0.002768 0.012971 -0.000694 0.000000 0.003273 0.000000
# 3 -0.004032 -0.000694 0.015702 0.000000 0.012067 0.000000
# 4 0.000000 0.000000 0.000000 0.046014 0.000000 0.001794
# 5 0.000696 0.003273 0.012067 0.000000 0.038047 0.000000
# 6 0.000000 0.000000 0.000000 0.001794 0.000000 0.049873
#
#
# Mechanical properties :
#
#
# Convention : Reuss Voigt Hill
#
# Bulk Modulus (GPa) = 39.83649 56.04896 47.94273
# Shear Modulus (GPa) = 25.33217 29.90133 27.61675
#
# Velocity S-wave (km/s) = 3.52021 3.82453 3.67552
# Velocity P-wave (km/s) = 6.00080 6.84986 6.43934
#
# Compressibility (1/GPa) = 0.02510261
#
# Stress axis : x y z
#
# Youngs Moduli (GPa) = 87.59514 77.09656 63.68464
#
# Poissons Ratio (x) = 0.21338 0.25677
# Poissons Ratio (y) = 0.24244 0.04417
# Poissons Ratio (z) = 0.35318 0.05348
#
# Static dielectric constant tensor:
#      x y z
#    x 1.756600 0.000000 0.012540 
#    y 0.000000 1.737260 0.000000 
#    z 0.012540 0.000000 1.791850 
# 
# From -- ./inp_files/194216.got.cif
#   From: 2010.05.17/outbox.ucp.g08.bks.cvg/sg15_98_cif.got.tgz:194216.got - 2010.06.11 12:40:34.
