data_PCOD9309436
_publ_section_title
;
Structure prediction by ZEFSAII (Michael W. Deem and Ramdas Pophale) SiO2 
 PCOD9309436
Probable space group: C 2/C
;
_chemical_formula_sum "Si O2"
_cell_formula_units_Z 32
_cell_length_a 18.000000
_cell_length_b 9.000000
_cell_length_c 30.000000
_cell_angle_alpha 90.000000
_cell_angle_beta 140.000000
_cell_angle_gamma 90.000000
_cell_volume 3123.947783
_symmetry_space_group_name_H-M "C 2/C"
_symmetry_group_IT_number 15
_symmetry_cell_setting 'monoclinic'
loop_
_space_group_symop_operation_xyz
x,y,z
-x,y,1/2-z
-x,-y,-z
x,-y,1/2+z
1/2+x,1/2+y,z
1/2-x,1/2+y,1/2-z
1/2-x,1/2-y,-z
1/2+x,1/2-y,1/2+z
loop_
_atom_site_type_symbol
_atom_site_label
_atom_site_fract_x
_atom_site_fract_y
_atom_site_fract_z
Si Si1 0.180892 0.197235 0.359969
Si Si2 0.697297 0.739644 0.182107
Si Si3 0.929066 0.048502 0.901411
Si Si4 0.925847 0.817248 0.783396
Si Si5 0.336360 0.558154 0.958033
Si Si6 0.721385 0.242010 0.434030
Si Si7 0.132787 0.437710 0.066474
Si Si8 0.950900 0.165025 0.818778
O O1 0.141820 0.240791 0.291619
O O2 0.258883 0.299280 0.427293
O O3 0.060977 0.190515 0.332070
O O4 0.266899 0.061732 0.388455
O O5 0.665331 0.571693 0.155370
O O6 0.629689 0.761842 0.198436
O O7 0.647676 0.844290 0.119490
O O8 0.836688 0.750196 0.248934
O O9 0.894194 0.086746 0.935737
O O10 0.941227 0.170186 0.868444
O O11 0.054442 0.969138 0.960265
O O12 0.920337 0.995607 0.789860
O O13 0.249922 0.419480 0.925976
O O14 0.750000 0.250000 0.500000
O O15 0.819334 0.337741 0.452683
O O16 0.583813 0.290063 0.365774
O O17 0.000000 0.500000 0.000000
#
# Coordination Sequence:
#
# PCOD9309436 Si02
#       8
#     8   8   8   8   8   8   8   8
#     4  11  23  44  70 100 139 187 227 292 352 412
#     4  11  23  43  69 101 132 184 235 281 350 422
#     4  10  22  42  67  98 136 179 222 286 348 404
#     4  10  23  43  68 100 140 180 232 290 358 409
#     4  11  23  43  69  97 142 178 230 285 350 412
#     4  12  26  47  70 106 137 187 234 295 353 421
#     4  12  26  45  72 103 136 186 242 282 348 433
#     4  11  22  44  71  95 142 182 232 290 350 422
#
# _framework density 10.243449
#
# number of rings (size 3 to 8) (size 9 to 14) (size 15 to 20)
#    0.000    1.000    5.000    1.500    1.750    2.500 
#    9.000    2.500    0.000    0.000    0.000    0.000 
#    0.000    0.000    0.000    0.000    0.000    0.000 
#
# Total GULP energy -178251.053254 kJ/mol
# GULP energy per Si atom -5570.345414 kJ/mol
# Density = 1.022013 g / cm^3
# Si number density = 10.243449 Si / 1000 Ang^3
#
#
#
# Elastic Constant Matrix: (Units=GPa)
#
#
# Indices 1 2 3 4 5 6 
#
# 1 126.3615 15.5420 30.9450 0.0000 11.7649 0.0000
# 2 15.5420 31.5535 0.9532 0.0000 5.0378 0.0000
# 3 30.9450 0.9532 94.2404 0.0000 20.9102 0.0000
# 4 0.0000 0.0000 0.0000 27.6977 0.0000 3.8474
# 5 11.7649 5.0378 20.9102 0.0000 36.2311 0.0000
# 6 0.0000 0.0000 0.0000 3.8474 0.0000 30.9082
#
#
#
# Elastic Compliance Matrix: (Units=1/GPa)
#
#
# Indices 1 2 3 4 5 6 
#
# 1 0.009205 -0.004327 -0.002809 0.000000 -0.000766 0.000000
# 2 -0.004327 0.034495 0.002092 0.000000 -0.004599 0.000000
# 3 -0.002809 0.002092 0.013045 0.000000 -0.006908 0.000000
# 4 0.000000 0.000000 0.000000 0.036739 0.000000 -0.004573
# 5 -0.000766 -0.004599 -0.006908 0.000000 0.032476 0.000000
# 6 0.000000 0.000000 0.000000 -0.004573 0.000000 0.032923
#
#
# Mechanical properties :
#
#
# Convention : Reuss Voigt Hill
#
# Bulk Modulus (GPa) = 21.43262 38.55952 29.99607
# Shear Modulus (GPa) = 27.09701 32.61507 29.85604
#
# Velocity S-wave (km/s) = 3.64077 3.99431 3.82163
# Velocity P-wave (km/s) = 5.30641 6.33523 5.84350
#
# Compressibility (1/GPa) = 0.04665784
#
# Stress axis : x y z
#
# Youngs Moduli (GPa) = 108.63409 28.99010 76.65784
#
# Poissons Ratio (x) = 0.12544 0.21532
# Poissons Ratio (y) = 0.47005 -0.16039
# Poissons Ratio (z) = 0.30514 -0.06066
#
# Static dielectric constant tensor:
#      x y z
#    x 1.764360 0.000000 -0.004270 
#    y 0.000000 1.818410 0.000000 
#    z -0.004270 0.000000 1.776070 
# 
# From -- ./inp_files/315758.got.cif
#   From: 2010.05.17/outbox.ucp.g08.bks.cvg/sg15_158_cif.got.tgz:315758.got - 2010.06.11 12:40:34.
