data_PCOD9309607
_publ_section_title
;
Structure prediction by ZEFSAII (Michael W. Deem and Ramdas Pophale) SiO2 
 PCOD9309607
Probable space group: C 2/C
;
_chemical_formula_sum "Si O2"
_cell_formula_units_Z 22
_cell_length_a 30.000000
_cell_length_b 18.000000
_cell_length_c 12.000000
_cell_angle_alpha 90.000000
_cell_angle_beta 160.000000
_cell_angle_gamma 90.000000
_cell_volume 2216.290529
_symmetry_space_group_name_H-M "C 2/C"
_symmetry_group_IT_number 15
_symmetry_cell_setting 'monoclinic'
loop_
_space_group_symop_operation_xyz
x,y,z
-x,y,1/2-z
-x,-y,-z
x,-y,1/2+z
1/2+x,1/2+y,z
1/2-x,1/2+y,1/2-z
1/2-x,1/2-y,-z
1/2+x,1/2-y,1/2+z
loop_
_atom_site_type_symbol
_atom_site_label
_atom_site_fract_x
_atom_site_fract_y
_atom_site_fract_z
Si Si1 0.710105 0.612037 0.114638
Si Si2 0.500000 0.505382 0.750000
Si Si3 0.366518 0.958616 0.158165
Si Si4 0.191945 0.903985 0.307585
Si Si5 0.148029 0.684920 0.726639
Si Si6 0.342673 0.787857 0.507570
O O1 0.842522 0.581519 0.483429
O O2 0.597130 0.562519 0.911124
O O3 0.712901 0.603552 0.988308
O O4 0.690636 0.700565 0.086724
O O5 0.448448 0.443157 0.539959
O O6 0.330160 0.893406 0.160086
O O7 0.500000 0.000000 0.500000
O O8 0.273053 0.028631 0.946634
O O9 0.245710 0.831191 0.365980
O O10 0.163325 0.675832 0.629521
O O11 0.997172 0.706517 0.401951
O O12 0.250000 0.750000 0.000000
#
# Coordination Sequence:
#
# PCOD9309607 Si02
#       6
#     8   4   8   8   8   8
#     4  11  24  44  68  95 137 176 233 286 352 423
#     4  10  24  44  66 100 128 188 228 282 350 422
#     4  11  24  44  66 102 133 183 230 289 354 412
#     4  11  25  42  66  99 139 176 228 293 354 414
#     4  11  23  42  68  96 135 183 233 280 339 423
#     4  11  24  42  67 100 133 179 233 287 345 418
#
# _framework density 9.9264960000000002
#
# number of rings (size 3 to 8) (size 9 to 14) (size 15 to 20)
#    0.000    1.091    3.636    2.182    7.636    2.182 
#    0.000    0.000    0.000    0.000    0.000    0.000 
#    0.000    0.000    0.000    0.000    0.000    0.000 
#
# Total GULP energy -122525.933506 kJ/mol
# GULP energy per Si atom -5569.360614 kJ/mol
# Density = 0.990390 g / cm^3
# Si number density = 9.926496 Si / 1000 Ang^3
#
#
#
# Elastic Constant Matrix: (Units=GPa)
#
#
# Indices 1 2 3 4 5 6 
#
# 1 121.1227 48.2591 20.1572 0.0000 -22.9625 0.0000
# 2 48.2591 146.1281 44.5483 0.0000 -8.8971 0.0000
# 3 20.1572 44.5483 46.9155 0.0000 -16.4485 0.0000
# 4 0.0000 0.0000 0.0000 -0.5605 0.0000 -3.2360
# 5 -22.9625 -8.8971 -16.4485 0.0000 30.8313 0.0000
# 6 0.0000 0.0000 0.0000 -3.2360 0.0000 44.0255
#
#
#
# Elastic Compliance Matrix: (Units=1/GPa)
#
#
# Indices 1 2 3 4 5 6 
#
# 1 0.010934 -0.003577 0.001467 0.000000 0.007893 0.000000
# 2 -0.003577 0.010972 -0.010708 0.000000 -0.005211 0.000000
# 3 0.001467 -0.010708 0.037090 0.000000 0.017790 0.000000
# 4 0.000000 0.000000 0.000000 -1.252502 0.000000 -0.092063
# 5 0.007893 -0.005211 0.017790 0.000000 0.046300 0.000000
# 6 0.000000 0.000000 0.000000 -0.092063 0.000000 0.015947
#
#
# Mechanical properties :
#
#
# Convention : Reuss Voigt Hill
#
# Bulk Modulus (GPa) = 29.97838 60.01062 44.99450
# Shear Modulus (GPa) = -4.56829 28.27269 11.85220
#
# Velocity S-wave (km/s) = -1.51857 3.77782 2.44601
# Velocity P-wave (km/s) = 3.47250 7.02299 5.53988
#
# Compressibility (1/GPa) = 0.03335737
#
# Stress axis : x y z
#
# Youngs Moduli (GPa) = 91.45949 91.14098 26.96154
#
# Poissons Ratio (x) = 0.32605 -0.03954
# Poissons Ratio (y) = 0.32719 0.28871
# Poissons Ratio (z) = -0.13414 0.97597
#
# Static dielectric constant tensor:
#      x y z
#    x 1.673570 0.000000 -0.009690 
#    y 0.000000 1.301310 0.000000 
#    z -0.009690 0.000000 1.384300 
# 
# From -- ./inp_files/87558.got.cif
#   From: 2010.05.17/outbox.ucp.g08.bks.cvg/sg15_44_cif.got.tgz:87558.got - 2010.06.11 12:40:34.
