data_PCOD9309301
_publ_section_title
;
Structure prediction by ZEFSAII (Michael W. Deem and Ramdas Pophale) SiO2 
 PCOD9309301
Probable space group: C 2/C
;
_chemical_formula_sum "Si O2"
_cell_formula_units_Z 26
_cell_length_a 18.000000
_cell_length_b 9.000000
_cell_length_c 18.000000
_cell_angle_alpha 90.000000
_cell_angle_beta 60.000000
_cell_angle_gamma 90.000000
_cell_volume 2525.330077
_symmetry_space_group_name_H-M "C 2/C"
_symmetry_group_IT_number 15
_symmetry_cell_setting 'monoclinic'
loop_
_space_group_symop_operation_xyz
x,y,z
-x,y,1/2-z
-x,-y,-z
x,-y,1/2+z
1/2+x,1/2+y,z
1/2-x,1/2+y,1/2-z
1/2-x,1/2-y,-z
1/2+x,1/2-y,1/2+z
loop_
_atom_site_type_symbol
_atom_site_label
_atom_site_fract_x
_atom_site_fract_y
_atom_site_fract_z
Si Si1 0.153300 0.509074 0.753497
Si Si2 0.007204 0.668014 0.391474
Si Si3 0.396160 0.252741 0.008917
Si Si4 0.152056 0.023576 0.091991
Si Si5 0.000000 0.148724 0.750000
Si Si6 0.163303 0.474398 0.565945
Si Si7 0.239047 0.805003 0.687133
O O1 0.062408 0.477572 0.840006
O O2 0.154674 0.483538 0.661564
O O3 0.178512 0.680101 0.751190
O O4 0.220608 0.410071 0.768818
O O5 0.030425 0.714839 0.465137
O O6 0.036255 0.768315 0.305903
O O7 0.905828 0.645333 0.428963
O O8 0.317684 0.276015 0.105624
O O9 0.397302 0.389637 0.950469
O O10 0.369818 0.119296 0.964818
O O11 0.191755 0.118705 0.140774
O O12 0.080283 0.932934 0.172218
O O13 0.237718 0.953833 0.009772
#
# Coordination Sequence:
#
# PCOD9309301 Si02
#       7
#     8   8   8   8   4   8   8
#     4  11  21  40  71 101 141 180 226 289 349 410
#     4  11  25  43  67  98 142 175 237 295 342 407
#     4  10  21  43  70  95 135 181 233 289 339 424
#     4  11  24  43  68  95 139 179 236 283 356 417
#     4  12  28  42  62 104 140 176 228 308 336 406
#     4  11  20  44  70  96 126 189 227 282 348 424
#     4  10  22  39  70 105 137 180 229 284 345 423
#
# _framework density 10.295684
#
# number of rings (size 3 to 8) (size 9 to 14) (size 15 to 20)
#    0.000    1.231    4.615    1.385    4.308    2.462 
#    0.000    1.538    0.000    0.000    0.000    0.000 
#    0.000    0.000    0.000    0.000    0.000    0.000 
#
# Total GULP energy -144758.538787 kJ/mol
# GULP energy per Si atom -5567.636107 kJ/mol
# Density = 1.027225 g / cm^3
# Si number density = 10.295684 Si / 1000 Ang^3
#
#
#
# Elastic Constant Matrix: (Units=GPa)
#
#
# Indices 1 2 3 4 5 6 
#
# 1 116.2680 34.1496 53.8673 0.0000 27.4565 0.0000
# 2 34.1496 45.4830 45.4377 0.0000 -1.0146 0.0000
# 3 53.8673 45.4377 129.3146 0.0000 20.0795 0.0000
# 4 0.0000 0.0000 0.0000 46.3677 0.0000 8.3865
# 5 27.4565 -1.0146 20.0795 0.0000 57.2287 0.0000
# 6 0.0000 0.0000 0.0000 8.3865 0.0000 26.8393
#
#
#
# Elastic Compliance Matrix: (Units=1/GPa)
#
#
# Indices 1 2 3 4 5 6 
#
# 1 0.013234 -0.008446 -0.001625 0.000000 -0.005929 0.000000
# 2 -0.008446 0.040708 -0.012191 0.000000 0.009051 0.000000
# 3 -0.001625 -0.012191 0.013332 0.000000 -0.004115 0.000000
# 4 0.000000 0.000000 0.000000 0.022859 0.000000 -0.007143
# 5 -0.005929 0.009051 -0.004115 0.000000 0.021922 0.000000
# 6 0.000000 0.000000 0.000000 -0.007143 0.000000 0.039491
#
#
# Mechanical properties :
#
#
# Convention : Reuss Voigt Hill
#
# Bulk Modulus (GPa) = 43.95222 61.99721 52.97472
# Shear Modulus (GPa) = 24.55146 36.59454 30.57300
#
# Velocity S-wave (km/s) = 3.45674 4.22023 3.85742
# Velocity P-wave (km/s) = 6.10929 7.34308 6.75442
#
# Compressibility (1/GPa) = 0.02275198
#
# Stress axis : x y z
#
# Youngs Moduli (GPa) = 75.56115 24.56494 75.00564
#
# Poissons Ratio (x) = 0.20747 0.12185
# Poissons Ratio (y) = 0.63818 0.91440
# Poissons Ratio (z) = 0.12275 0.29947
#
# Static dielectric constant tensor:
#      x y z
#    x 1.809910 0.000000 -0.016930 
#    y 0.000000 1.858740 0.000000 
#    z -0.016930 0.000000 1.684500 
# 
# From -- ./inp_files/209031.got.cif
#   From: 2010.05.17/outbox.ucp.g08.bks.cvg/sg15_105_cif.got.tgz:209031.got - 2010.06.11 12:40:34.
