data_PCOD9309739
_publ_section_title
;
Structure prediction by ZEFSAII (Michael W. Deem and Ramdas Pophale) SiO2 
 PCOD9309739
Probable space group: C 2/C
;
_chemical_formula_sum "Si O2"
_cell_formula_units_Z 32
_cell_length_a 12.000000
_cell_length_b 18.000000
_cell_length_c 15.000000
_cell_angle_alpha 90.000000
_cell_angle_beta 90.000000
_cell_angle_gamma 90.000000
_cell_volume 3240.000000
_symmetry_space_group_name_H-M "C 2/C"
_symmetry_group_IT_number 15
_symmetry_cell_setting 'monoclinic'
loop_
_space_group_symop_operation_xyz
x,y,z
-x,y,1/2-z
-x,-y,-z
x,-y,1/2+z
1/2+x,1/2+y,z
1/2-x,1/2+y,1/2-z
1/2-x,1/2-y,-z
1/2+x,1/2-y,1/2+z
loop_
_atom_site_type_symbol
_atom_site_label
_atom_site_fract_x
_atom_site_fract_y
_atom_site_fract_z
Si Si1 0.223568 0.824961 0.322200
Si Si2 0.151138 0.090463 0.989552
Si Si3 0.760989 0.929141 0.567726
Si Si4 0.482631 0.360239 0.641148
Si Si5 0.036169 0.310689 0.090596
Si Si6 0.850860 0.332499 0.598668
Si Si7 0.871947 0.537007 0.244424
Si Si8 0.806131 0.390845 0.139117
O O1 0.143256 0.872488 0.389846
O O2 0.349777 0.835548 0.360107
O O3 0.185668 0.741677 0.348535
O O4 0.234842 0.843834 0.215404
O O5 0.247359 0.136127 0.041351
O O6 0.053880 0.093712 0.065359
O O7 0.189764 0.008095 0.964197
O O8 0.855640 0.878721 0.614397
O O9 0.676557 0.945949 0.654230
O O10 0.728547 0.895875 0.467774
O O11 0.500000 0.373510 0.750000
O O12 0.513769 0.274890 0.618425
O O13 0.930706 0.356923 0.127291
O O14 0.058586 0.318493 0.982288
O O15 0.875256 0.392204 0.676754
O O16 0.809159 0.471640 0.188633
O O17 0.000000 0.511975 0.250000
#
# Coordination Sequence:
#
# PCOD9309739 Si02
#       8
#     8   8   8   8   8   8   8   8
#     4  11  21  43  72 101 132 179 231 284 327 402
#     4  11  21  45  70 100 135 174 232 280 331 402
#     4  12  28  45  66 103 141 177 225 284 343 408
#     4  12  25  44  72 101 138 178 229 278 339 412
#     4  11  23  41  71 106 129 180 239 277 330 403
#     4  11  22  43  73  98 138 176 233 285 330 399
#     4  12  26  45  70 100 139 183 224 280 346 406
#     4  12  26  43  69 100 139 177 226 289 339 401
#
# _framework density 9.8765429999999999
#
# number of rings (size 3 to 8) (size 9 to 14) (size 15 to 20)
#    0.000    0.500    5.000    4.500    3.500    1.500 
#    2.250    0.625    0.000    0.000    0.000    0.000 
#    0.000    0.000    0.000    0.000    0.000    0.000 
#
# Total GULP energy -178280.570202 kJ/mol
# GULP energy per Si atom -5571.267819 kJ/mol
# Density = 0.985406 g / cm^3
# Si number density = 9.876543 Si / 1000 Ang^3
#
#
#
# Elastic Constant Matrix: (Units=GPa)
#
#
# Indices 1 2 3 4 5 6 
#
# 1 61.3306 5.6228 43.2985 0.0000 -22.2877 0.0000
# 2 5.6228 74.3102 35.4331 0.0000 -6.4748 0.0000
# 3 43.2985 35.4331 214.7004 0.0000 -27.5098 0.0000
# 4 0.0000 0.0000 0.0000 47.1107 0.0000 -5.9396
# 5 -22.2877 -6.4748 -27.5098 0.0000 48.3076 0.0000
# 6 0.0000 0.0000 0.0000 -5.9396 0.0000 29.3047
#
#
#
# Elastic Compliance Matrix: (Units=1/GPa)
#
#
# Indices 1 2 3 4 5 6 
#
# 1 0.021613 0.000710 -0.003437 0.000000 0.008110 0.000000
# 2 0.000710 0.014648 -0.002445 0.000000 0.000898 0.000000
# 3 -0.003437 -0.002445 0.005943 0.000000 0.001471 0.000000
# 4 0.000000 0.000000 0.000000 0.021783 0.000000 0.004415
# 5 0.008110 0.000898 0.001471 0.000000 0.025400 0.000000
# 6 0.000000 0.000000 0.000000 0.004415 0.000000 0.035019
#
#
# Mechanical properties :
#
#
# Convention : Reuss Voigt Hill
#
# Bulk Modulus (GPa) = 31.38796 57.67221 44.53008
# Shear Modulus (GPa) = 34.39474 42.67704 38.53589
#
# Velocity S-wave (km/s) = 4.17734 4.65319 4.42167
# Velocity P-wave (km/s) = 6.26031 7.62427 6.97571
#
# Compressibility (1/GPa) = 0.03185935
#
# Stress axis : x y z
#
# Youngs Moduli (GPa) = 46.26746 68.26999 168.27073
#
# Poissons Ratio (x) = -0.04847 0.57832
# Poissons Ratio (y) = -0.03285 0.41150
# Poissons Ratio (z) = 0.15901 0.16695
#
# Static dielectric constant tensor:
#      x y z
#    x 1.740710 0.000000 -0.002310 
#    y 0.000000 1.742960 0.000000 
#    z -0.002310 0.000000 1.713200 
# 
# From -- ./inp_files/146097.got.cif
#   From: 2010.05.17/outbox.ucp.g08.bks.cvg/sg15_74_cif.got.tgz:146097.got - 2010.06.11 12:40:34.
