data_PCOD9309945
_publ_section_title
;
Structure prediction by ZEFSAII (Michael W. Deem and Ramdas Pophale) SiO2 
 PCOD9309945
Probable space group: P 2 2 2
;
_chemical_formula_sum "Si O2"
_cell_formula_units_Z 32
_cell_length_a 32.687113
_cell_length_b 5.596436
_cell_length_c 8.099225
_cell_angle_alpha 90.000000
_cell_angle_beta 90.000000
_cell_angle_gamma 90.000000
_cell_volume 1481.602049
_symmetry_space_group_name_H-M "P 2 2 2"
_symmetry_group_IT_number 16
_symmetry_cell_setting 'orthorhombic'
loop_
_space_group_symop_operation_xyz
x,y,z
-x,-y,z
x,-y,-z
-x,y,-z
loop_
_atom_site_type_symbol
_atom_site_label
_atom_site_fract_x
_atom_site_fract_y
_atom_site_fract_z
Si Si1 0.237159 0.792180 0.136350
Si Si2 0.016192 0.250366 0.191709
Si Si3 0.452459 0.496697 0.298551
Si Si4 0.742678 0.617977 0.322960
Si Si5 0.822469 0.075343 0.671098
Si Si6 0.316844 0.992189 0.698629
Si Si7 0.109340 0.252093 0.100449
Si Si8 0.410112 0.005871 0.702198
O O1 0.238648 0.509894 0.163144
O O2 0.194065 0.851298 0.225676
O O3 0.280907 0.840896 0.231411
O O4 0.238293 0.000000 0.000000
O O5 0.065083 0.253116 0.186865
O O6 0.000000 0.500000 0.265008
O O7 0.000000 0.000000 0.264171
O O8 0.000000 0.250353 0.000000
O O9 0.500000 0.500000 0.249880
O O10 0.450854 0.500000 0.500000
O O11 0.432408 0.748813 0.245332
O O12 0.430529 0.247654 0.246286
O O13 0.735061 0.500000 0.500000
O O14 0.779017 0.800847 0.367881
O O15 0.700528 0.731275 0.262206
O O16 0.852850 0.234679 0.775210
O O17 0.842294 0.000000 0.500000
O O18 0.316535 0.000000 0.500000
O O19 0.362836 0.026299 0.756089
O O20 0.111982 0.500000 0.000000
O O21 0.110527 0.000000 0.000000
O O22 0.410657 0.000000 0.500000
#
# Coordination Sequence:
#
# PCOD9309945 Si02
#       8
#     4   4   4   4   4   4   4   4
#     4  11  23  39  58  82 114 149 200 255 308 364
#     4  10  16  34  59  90 127 154 193 245 313 359
#     4   9  16  27  42  67 107 148 184 232 293 348
#     4  11  20  38  63  76 111 164 201 250 311 380
#     4  11  25  40  56  86 121 163 204 249 311 380
#     4  10  20  33  54  83 107 148 201 245 302 369
#     4  12  24  38  64  99 125 159 208 266 308 370
#     4   9  18  27  45  73 103 143 191 236 282 357
#
# _framework density 21.598241999999999
#
# number of rings (size 3 to 8) (size 9 to 14) (size 15 to 20)
#    0.000    1.625    5.000    1.500    5.250    3.500 
#    0.000    0.000    0.000    0.375    0.000    1.750 
#    0.000    3.000    0.000    0.000    0.000    0.000 
#
# Total GULP energy -178207.558056 kJ/mol
# GULP energy per Si atom -5568.986189 kJ/mol
# Density = 2.154908 g / cm^3
# Si number density = 21.598242 Si / 1000 Ang^3
#
#
#
# Elastic Constant Matrix: (Units=GPa)
#
#
# Indices 1 2 3 4 5 6 
#
# 1 155.7661 45.8783 3.6524 0.0000 0.0000 0.0000
# 2 45.8783 142.0336 15.3135 0.0000 0.0000 0.0000
# 3 3.6524 15.3135 32.5568 0.0000 0.0000 0.0000
# 4 0.0000 0.0000 0.0000 10.8805 0.0000 0.0000
# 5 0.0000 0.0000 0.0000 0.0000 -80.6414 0.0000
# 6 0.0000 0.0000 0.0000 0.0000 0.0000 37.3621
#
#
#
# Elastic Compliance Matrix: (Units=1/GPa)
#
#
# Indices 1 2 3 4 5 6 
#
# 1 0.007098 -0.002325 0.000297 0.000000 0.000000 0.000000
# 2 -0.002325 0.008178 -0.003586 0.000000 0.000000 0.000000
# 3 0.000297 -0.003586 0.032369 0.000000 0.000000 0.000000
# 4 0.000000 0.000000 0.000000 0.091907 0.000000 0.000000
# 5 0.000000 0.000000 0.000000 0.000000 -0.012401 0.000000
# 6 0.000000 0.000000 0.000000 0.000000 0.000000 0.026765
#
#
# Mechanical properties :
#
#
# Convention : Reuss Voigt Hill
#
# Bulk Modulus (GPa) = 27.45902 51.11608 39.28755
# Shear Modulus (GPa) = 28.20363 11.22109 19.71236
#
# Velocity S-wave (km/s) = 3.61755 2.28181 3.02434
# Velocity P-wave (km/s) = 5.49454 5.53718 5.51590
#
# Compressibility (1/GPa) = 0.03641790
#
# Stress axis : x y z
#
# Youngs Moduli (GPa) = 140.89281 122.27808 30.89388
#
# Poissons Ratio (x) = 0.28425 -0.00918
# Poissons Ratio (y) = 0.32752 0.11078
# Poissons Ratio (z) = -0.04187 0.43847
#
# Static dielectric constant tensor:
#      x y z
#    x 1.722740 0.000000 0.000000 
#    y 0.000000 5.714670 0.000000 
#    z 0.000000 0.000000 1.793760 
# 
# From -- ./inp_files/5659.got.cif
#   From: 2010.05.17/outbox.cif.g08.bks.cpg/sg16_3_cif.got.tgz:5659.got - 2010.06.03 22:28:35.
