data_PCOD9309685
_publ_section_title
;
Structure prediction by ZEFSAII (Michael W. Deem and Ramdas Pophale) SiO2 
 PCOD9309685
Probable space group: C 2/C
;
_chemical_formula_sum "Si O2"
_cell_formula_units_Z 32
_cell_length_a 21.000000
_cell_length_b 15.000000
_cell_length_c 30.000000
_cell_angle_alpha 90.000000
_cell_angle_beta 160.000000
_cell_angle_gamma 90.000000
_cell_volume 3232.090354
_symmetry_space_group_name_H-M "C 2/C"
_symmetry_group_IT_number 15
_symmetry_cell_setting 'monoclinic'
loop_
_space_group_symop_operation_xyz
x,y,z
-x,y,1/2-z
-x,-y,-z
x,-y,1/2+z
1/2+x,1/2+y,z
1/2-x,1/2+y,1/2-z
1/2-x,1/2-y,-z
1/2+x,1/2-y,1/2+z
loop_
_atom_site_type_symbol
_atom_site_label
_atom_site_fract_x
_atom_site_fract_y
_atom_site_fract_z
Si Si1 0.284089 0.508751 0.115900
Si Si2 0.257763 0.661886 0.660466
Si Si3 0.951558 0.469336 0.321196
Si Si4 0.720935 0.362866 0.634797
Si Si5 0.656320 0.177920 0.821805
Si Si6 0.811125 0.344735 0.872097
Si Si7 0.466811 0.613161 0.391721
Si Si8 0.903651 0.088017 0.852048
O O1 0.500000 0.535135 0.250000
O O2 0.300139 0.410656 0.149706
O O3 0.215955 0.574859 0.110454
O O4 0.136824 0.516166 0.975896
O O5 0.309147 0.765263 0.685698
O O6 0.344724 0.636221 0.766696
O O7 0.032369 0.660329 0.511570
O O8 0.875170 0.559240 0.245711
O O9 0.942722 0.396609 0.274992
O O10 0.786847 0.433230 0.245793
O O11 0.614335 0.366995 0.612320
O O12 0.563954 0.376360 0.492203
O O13 0.500000 0.219731 0.750000
O O14 0.744740 0.252641 0.849299
O O15 0.821975 0.146342 0.963828
O O16 0.683653 0.354166 0.743831
O O17 0.480330 0.508924 0.390182
#
# Coordination Sequence:
#
# PCOD9309685 Si02
#       8
#     8   8   8   8   8   8   8   8
#     4  12  28  47  64  96 138 179 218 273 337 401
#     4  12  24  42  71 101 129 174 224 278 333 393
#     4  11  23  45  67  96 133 176 219 274 329 393
#     4  11  23  39  71 104 127 166 225 288 324 380
#     4  12  27  42  65 100 138 179 218 270 338 404
#     4  12  25  43  66 101 132 178 220 275 326 402
#     4  11  22  41  64  94 136 168 221 269 332 387
#     4  11  20  41  69  97 131 167 226 283 320 384
#
# _framework density 9.9007129999999997
#
# number of rings (size 3 to 8) (size 9 to 14) (size 15 to 20)
#    0.000    0.500    6.250    3.000    8.750    0.500 
#    0.000    1.250    0.000    0.000    0.000    0.000 
#    0.000    0.000    0.000    0.000    0.000    0.000 
#
# Total GULP energy -178372.354123 kJ/mol
# GULP energy per Si atom -5574.136066 kJ/mol
# Density = 0.987818 g / cm^3
# Si number density = 9.900713 Si / 1000 Ang^3
#
#
#
# Elastic Constant Matrix: (Units=GPa)
#
#
# Indices 1 2 3 4 5 6 
#
# 1 35.1619 8.0677 37.6740 -0.0217 -27.7342 -0.0015
# 2 8.0677 103.5635 22.7898 0.0293 -20.8904 0.0261
# 3 37.6740 22.7898 156.1197 0.1018 -55.7444 0.1085
# 4 -0.0217 0.0293 0.1018 31.4574 0.0168 -20.2612
# 5 -27.7342 -20.8904 -55.7444 0.0168 52.4802 -0.0031
# 6 -0.0015 0.0261 0.1085 -20.2612 -0.0031 -0.0584
#
#
#
# Elastic Compliance Matrix: (Units=1/GPa)
#
#
# Indices 1 2 3 4 5 6 
#
# 1 0.050728 0.001610 -0.004310 -0.000028 0.022871 -0.000098
# 2 0.001610 0.010550 -0.000202 0.000012 0.004836 0.000034
# 3 -0.004310 -0.000202 0.010685 0.000055 0.008992 0.000152
# 4 -0.000028 0.000012 0.000055 0.000142 0.000046 -0.049135
# 5 0.022871 0.004836 0.008992 0.000046 0.042618 0.000134
# 6 -0.000098 0.000034 0.000152 -0.049135 0.000134 -0.076285
#
#
# Mechanical properties :
#
#
# Convention : Reuss Voigt Hill
#
# Bulk Modulus (GPa) = 15.11471 47.98980 31.55226
# Shear Modulus (GPa) = 75.41934 31.86340 53.64137
#
# Velocity S-wave (km/s) = 6.17823 4.01577 5.21042
# Velocity P-wave (km/s) = 7.65139 6.76683 7.22266
#
# Compressibility (1/GPa) = 0.06616072
#
# Stress axis : x y z
#
# Youngs Moduli (GPa) = 19.71288 94.78288 93.58537
#
# Poissons Ratio (x) = -0.15262 0.40335
# Poissons Ratio (y) = -0.03174 0.01889
# Poissons Ratio (z) = 0.08496 0.01913
#
# Static dielectric constant tensor:
#      x y z
#    x 1.720260 0.000000 0.008930 
#    y 0.000000 1.743670 -0.000040 
#    z 0.008930 -0.000040 1.731110 
# 
# From -- ./inp_files/318021.got.cif
#   From: 2010.05.17/outbox.ucp.g08.bks.cvg/sg15_160_cif.got.tgz:318021.got - 2010.06.11 12:40:34.
