data_PCOD9309340
_publ_section_title
;
Structure prediction by ZEFSAII (Michael W. Deem and Ramdas Pophale) SiO2 
 PCOD9309340
Probable space group: C 2/C
;
_chemical_formula_sum "Si O2"
_cell_formula_units_Z 24
_cell_length_a 12.000000
_cell_length_b 18.000000
_cell_length_c 12.000000
_cell_angle_alpha 90.000000
_cell_angle_beta 70.000000
_cell_angle_gamma 90.000000
_cell_volume 2435.683273
_symmetry_space_group_name_H-M "C 2/C"
_symmetry_group_IT_number 15
_symmetry_cell_setting 'monoclinic'
loop_
_space_group_symop_operation_xyz
x,y,z
-x,y,1/2-z
-x,-y,-z
x,-y,1/2+z
1/2+x,1/2+y,z
1/2-x,1/2+y,1/2-z
1/2-x,1/2-y,-z
1/2+x,1/2-y,1/2+z
loop_
_atom_site_type_symbol
_atom_site_label
_atom_site_fract_x
_atom_site_fract_y
_atom_site_fract_z
Si Si1 0.235065 0.366560 0.079985
Si Si2 0.029136 0.371179 0.431008
Si Si3 0.884012 0.346251 0.844520
Si Si4 0.803831 0.244427 0.227262
Si Si5 0.630637 0.591644 0.177229
Si Si6 0.672636 0.000368 0.766607
O O1 0.253472 0.293057 0.150869
O O2 0.222374 0.437740 0.165087
O O3 0.111095 0.362190 0.050031
O O4 0.340549 0.384282 0.958635
O O5 0.077430 0.363908 0.541365
O O6 0.097067 0.302765 0.347787
O O7 0.072084 0.451210 0.365979
O O8 0.780008 0.288077 0.844189
O O9 0.863642 0.426028 0.789323
O O10 0.000000 0.311115 0.750000
O O11 0.854918 0.168469 0.259750
O O12 0.500000 0.562608 0.250000
O O13 0.728730 0.531441 0.182297
#
# Coordination Sequence:
#
# PCOD9309340 Si02
#       6
#     8   8   8   8   8   8
#     4  11  22  39  63  86 114 156 200 242 286 343
#     4  11  21  39  63  86 116 153 199 244 287 342
#     4  11  22  36  57  89 123 154 190 240 295 345
#     4  10  22  39  59  87 117 153 199 242 291 343
#     4  11  23  38  58  85 118 155 195 239 292 350
#     4  10  22  38  60  89 117 152 197 244 289 339
#
# _framework density 9.8534980000000001
#
# number of rings (size 3 to 8) (size 9 to 14) (size 15 to 20)
#    0.000    1.333    0.000    8.000    0.000    4.000 
#    0.000    3.333    0.000    0.000    0.000    0.000 
#    0.000    0.000    0.000    0.000    0.000    0.000 
#
# Total GULP energy -133959.562813 kJ/mol
# GULP energy per Si atom -5581.648451 kJ/mol
# Density = 0.983107 g / cm^3
# Si number density = 9.853498 Si / 1000 Ang^3
#
#
#
# Elastic Constant Matrix: (Units=GPa)
#
#
# Indices 1 2 3 4 5 6 
#
# 1 18.3941 29.8292 18.2740 0.0000 7.2101 0.0000
# 2 29.8292 93.7320 1.2747 0.0000 3.2743 0.0000
# 3 18.2740 1.2747 97.0518 0.0000 8.8374 0.0000
# 4 0.0000 0.0000 0.0000 27.5965 0.0000 11.8068
# 5 7.2101 3.2743 8.8374 0.0000 36.1038 0.0000
# 6 0.0000 0.0000 0.0000 11.8068 0.0000 17.9819
#
#
#
# Elastic Compliance Matrix: (Units=1/GPa)
#
#
# Indices 1 2 3 4 5 6 
#
# 1 0.199088 -0.061992 -0.034329 0.000000 -0.025733 0.000000
# 2 -0.061992 0.030006 0.010636 0.000000 0.007055 0.000000
# 3 -0.034329 0.010636 0.016458 0.000000 0.001862 0.000000
# 4 0.000000 0.000000 0.000000 0.050392 0.000000 -0.033087
# 5 -0.025733 0.007055 0.001862 0.000000 0.031741 0.000000
# 6 0.000000 0.000000 0.000000 -0.033087 0.000000 0.077336
#
#
# Mechanical properties :
#
#
# Convention : Reuss Voigt Hill
#
# Bulk Modulus (GPa) = 13.48029 34.21487 23.84758
# Shear Modulus (GPa) = 8.31780 26.98978 17.65379
#
# Velocity S-wave (km/s) = 2.05667 3.70476 2.99626
# Velocity P-wave (km/s) = 3.53484 5.97493 4.90892
#
# Compressibility (1/GPa) = 0.07418240
#
# Stress axis : x y z
#
# Youngs Moduli (GPa) = 5.02289 33.32682 60.75926
#
# Poissons Ratio (x) = 2.06599 2.08582
# Poissons Ratio (y) = 0.31138 -0.64624
# Poissons Ratio (z) = 0.17243 -0.35446
#
# Static dielectric constant tensor:
#      x y z
#    x 1.723260 0.000000 0.002760 
#    y 0.000000 1.649990 0.000000 
#    z 0.002760 0.000000 1.768060 
# 
# From -- ./inp_files/87802.got.cif
#   From: 2010.05.17/outbox.ucp.g08.bks.cvg/sg15_44_cif.got.tgz:87802.got - 2010.06.11 12:40:34.
