data_PCOD9309670
_publ_section_title
;
Structure prediction by ZEFSAII (Michael W. Deem and Ramdas Pophale) SiO2 
 PCOD9309670
Probable space group: C 2/C
;
_chemical_formula_sum "Si O2"
_cell_formula_units_Z 32
_cell_length_a 21.000000
_cell_length_b 18.000000
_cell_length_c 24.000000
_cell_angle_alpha 90.000000
_cell_angle_beta 160.000000
_cell_angle_gamma 90.000000
_cell_volume 3102.806740
_symmetry_space_group_name_H-M "C 2/C"
_symmetry_group_IT_number 15
_symmetry_cell_setting 'monoclinic'
loop_
_space_group_symop_operation_xyz
x,y,z
-x,y,1/2-z
-x,-y,-z
x,-y,1/2+z
1/2+x,1/2+y,z
1/2-x,1/2+y,1/2-z
1/2-x,1/2-y,-z
1/2+x,1/2-y,1/2+z
loop_
_atom_site_type_symbol
_atom_site_label
_atom_site_fract_x
_atom_site_fract_y
_atom_site_fract_z
Si Si1 0.146094 0.956462 0.783687
Si Si2 0.377832 0.315618 0.011457
Si Si3 0.127881 0.071281 0.904545
Si Si4 0.126916 0.801297 0.110671
Si Si5 0.889316 0.938205 0.875718
Si Si6 0.038718 0.423397 0.973601
Si Si7 0.464607 0.149544 0.527245
Si Si8 0.049486 0.668950 0.379749
O O1 0.096783 0.946700 0.678744
O O2 0.285173 0.886100 0.911588
O O3 0.955524 0.986522 0.656752
O O4 0.300130 0.021509 0.912640
O O5 0.421634 0.392827 0.077357
O O6 0.545758 0.298581 0.106800
O O7 0.376629 0.252875 0.058194
O O8 0.169508 0.325204 0.815489
O O9 0.000000 0.102707 0.750000
O O10 0.334061 0.105199 0.058614
O O11 0.340898 0.829241 0.282997
O O12 0.106171 0.722396 0.063612
O O13 0.981553 0.859236 0.964691
O O14 0.673157 0.945392 0.714913
O O15 0.000000 0.000000 0.000000
O O16 0.074297 0.352182 0.965045
O O17 0.030972 0.407283 0.032911
#
# Coordination Sequence:
#
# PCOD9309670 Si02
#       8
#     8   8   8   8   8   8   8   8
#     4  11  24  40  59  84 125 168 217 266 312 373
#     4  12  24  41  61  92 128 174 208 268 306 386
#     4  12  25  43  61  82 120 174 221 260 307 367
#     4  12  22  38  67  98 133 165 204 258 330 394
#     4  11  21  37  59  93 126 166 199 257 328 388
#     4  11  20  37  57  86 122 165 208 261 312 374
#     4  11  22  38  60  96 126 164 208 259 324 385
#     4  12  24  39  61  86 126 169 225 252 310 369
#
# _framework density 10.313243
#
# number of rings (size 3 to 8) (size 9 to 14) (size 15 to 20)
#    0.000    0.500    3.750    8.250    0.000    0.000 
#    0.000    0.000    0.000    0.000    0.000    3.500 
#    0.000    0.000    0.000    0.000    0.000    0.000 
#
# Total GULP energy -178392.847000 kJ/mol
# GULP energy per Si atom -5574.776469 kJ/mol
# Density = 1.028977 g / cm^3
# Si number density = 10.313243 Si / 1000 Ang^3
#
#
#
# Elastic Constant Matrix: (Units=GPa)
#
#
# Indices 1 2 3 4 5 6 
#
# 1 33.9596 8.8414 -6.1671 0.0537 4.5197 0.0229
# 2 8.8414 73.6085 19.8969 0.1732 4.2755 0.0703
# 3 -6.1671 19.8969 100.4117 0.2128 7.0640 0.0899
# 4 0.0537 0.1732 0.2128 32.9178 0.1560 -3.0540
# 5 4.5197 4.2755 7.0640 0.1560 33.0919 0.0697
# 6 0.0229 0.0703 0.0899 -3.0540 0.0697 35.1683
#
#
#
# Elastic Compliance Matrix: (Units=1/GPa)
#
#
# Indices 1 2 3 4 5 6 
#
# 1 0.031753 -0.004404 0.003135 -0.000029 -0.004437 -0.000014
# 2 -0.004404 0.015017 -0.003200 -0.000050 -0.000655 -0.000022
# 3 0.003135 -0.003200 0.010951 -0.000050 -0.002352 -0.000023
# 4 -0.000029 -0.000050 -0.000050 0.030627 -0.000129 0.002660
# 5 -0.004437 -0.000655 -0.002352 -0.000129 0.031412 -0.000063
# 6 -0.000014 -0.000022 -0.000023 0.002660 -0.000063 0.028666
#
#
# Mechanical properties :
#
#
# Convention : Reuss Voigt Hill
#
# Bulk Modulus (GPa) = 20.49823 28.12469 24.31146
# Shear Modulus (GPa) = 28.79760 32.59618 30.69689
#
# Velocity S-wave (km/s) = 3.74056 3.97962 3.86194
# Velocity P-wave (km/s) = 5.34931 5.89757 5.63012
#
# Compressibility (1/GPa) = 0.04878470
#
# Stress axis : x y z
#
# Youngs Moduli (GPa) = 31.49300 66.58900 91.31388
#
# Poissons Ratio (x) = 0.29323 -0.28627
# Poissons Ratio (y) = 0.13868 0.29220
# Poissons Ratio (z) = -0.09873 0.21308
#
# Static dielectric constant tensor:
#      x y z
#    x 1.798030 -0.008820 -0.004960 
#    y -0.008820 -3.467350 0.001290 
#    z -0.004960 0.001290 1.760070 
# 
# From -- ./inp_files/280537.got.cif
#   From: 2010.05.17/outbox.ucp.g08.bks.cvg/sg15_141_cif.got.tgz:280537.got - 2010.06.11 12:40:34.
