data_PCOD9309721
_publ_section_title
;
Structure prediction by ZEFSAII (Michael W. Deem and Ramdas Pophale) SiO2 
 PCOD9309721
Probable space group: C 2/C
;
_chemical_formula_sum "Si O2"
_cell_formula_units_Z 30
_cell_length_a 21.000000
_cell_length_b 15.000000
_cell_length_c 30.000000
_cell_angle_alpha 90.000000
_cell_angle_beta 20.000000
_cell_angle_gamma 90.000000
_cell_volume 3232.090354
_symmetry_space_group_name_H-M "C 2/C"
_symmetry_group_IT_number 15
_symmetry_cell_setting 'monoclinic'
loop_
_space_group_symop_operation_xyz
x,y,z
-x,y,1/2-z
-x,-y,-z
x,-y,1/2+z
1/2+x,1/2+y,z
1/2-x,1/2+y,1/2-z
1/2-x,1/2-y,-z
1/2+x,1/2-y,1/2+z
loop_
_atom_site_type_symbol
_atom_site_label
_atom_site_fract_x
_atom_site_fract_y
_atom_site_fract_z
Si Si1 0.838126 0.123968 0.760168
Si Si2 0.686921 0.453769 0.657383
Si Si3 0.500000 0.103943 0.250000
Si Si4 0.457218 0.914076 0.938420
Si Si5 0.577773 0.376951 0.403223
Si Si6 0.709243 0.961281 0.692509
Si Si7 0.922283 0.320859 0.555147
Si Si8 0.846609 0.225464 0.891866
O O1 0.907677 0.121969 0.661683
O O2 0.962340 0.182454 0.714029
O O3 0.836480 0.026859 0.786540
O O4 0.629024 0.165205 0.897733
O O5 0.500000 0.448532 0.750000
O O6 0.853443 0.493143 0.516806
O O7 0.762765 0.360753 0.627878
O O8 0.438590 0.041193 0.250333
O O9 0.646564 0.180256 0.138346
O O10 0.598353 0.909814 0.804419
O O11 0.570033 0.886574 0.907626
O O12 0.285471 0.845734 0.044966
O O13 0.386157 0.414290 0.552025
O O14 0.727229 0.446699 0.326038
O O15 0.603320 0.277912 0.407257
O O16 0.750000 0.250000 0.000000
#
# Coordination Sequence:
#
# PCOD9309721 Si02
#       8
#     8   8   4   8   8   8   8   8
#     4  11  22  43  64  93 127 157 207 260 317 369
#     4  11  22  42  66  94 123 161 204 263 313 362
#     4  12  22  36  58  94 122 160 188 254 322 364
#     4  11  21  40  63  96 127 156 204 257 318 370
#     4  11  25  42  61  90 120 172 210 251 298 368
#     4  11  24  41  60  88 130 163 205 248 315 375
#     4  11  24  39  66  92 120 166 213 255 305 366
#     4  12  21  33  61  96 126 151 193 257 314 366
#
# _framework density 9.2819190000000003
#
# number of rings (size 3 to 8) (size 9 to 14) (size 15 to 20)
#    0.000    0.800    2.667    8.000    1.867    0.000 
#    1.200    0.000    0.000    1.600    0.000    0.000 
#    0.000    0.000    0.000    0.000    0.000    0.000 
#
# Total GULP energy -167118.802030 kJ/mol
# GULP energy per Si atom -5570.626734 kJ/mol
# Density = 0.926079 g / cm^3
# Si number density = 9.281919 Si / 1000 Ang^3
#
#
#
# Elastic Constant Matrix: (Units=GPa)
#
#
# Indices 1 2 3 4 5 6 
#
# 1 112.9883 36.2630 43.3582 -0.0051 -4.0305 0.0013
# 2 36.2630 57.4378 27.1240 -0.0101 -24.4402 0.0012
# 3 43.3582 27.1240 98.2867 0.0065 18.6255 0.0102
# 4 -0.0051 -0.0101 0.0065 24.9136 0.0054 -3.6130
# 5 -4.0305 -24.4402 18.6255 0.0054 40.4163 -0.0015
# 6 0.0013 0.0012 0.0102 -3.6130 -0.0015 40.6195
#
#
#
# Elastic Compliance Matrix: (Units=1/GPa)
#
#
# Indices 1 2 3 4 5 6 
#
# 1 0.012224 -0.006746 -0.003275 0.000001 -0.001351 0.000001
# 2 -0.006746 0.041845 -0.014506 0.000013 0.031317 0.000005
# 3 -0.003275 -0.014506 0.019006 -0.000008 -0.017858 -0.000006
# 4 0.000001 0.000013 -0.000008 0.040663 0.000007 0.003617
# 5 -0.001351 0.031317 -0.017858 0.000007 0.051775 0.000006
# 6 0.000001 0.000005 -0.000006 0.003617 0.000006 0.024940
#
#
# Mechanical properties :
#
#
# Convention : Reuss Voigt Hill
#
# Bulk Modulus (GPa) = 41.63061 53.57816 47.60438
# Shear Modulus (GPa) = 20.20076 31.98772 26.09424
#
# Velocity S-wave (km/s) = 3.30233 4.15555 3.75327
# Velocity P-wave (km/s) = 6.08398 7.20757 6.66948
#
# Compressibility (1/GPa) = 0.02402079
#
# Stress axis : x y z
#
# Youngs Moduli (GPa) = 81.80596 23.89766 52.61413
#
# Poissons Ratio (x) = 0.16122 0.17230
# Poissons Ratio (y) = 0.55187 0.76325
# Poissons Ratio (z) = 0.26789 0.34667
#
# Static dielectric constant tensor:
#      x y z
#    x 1.666650 -0.000010 -0.002020 
#    y -0.000010 1.644890 0.000010 
#    z -0.002020 0.000010 1.709390 
# 
# From -- ./inp_files/317947.got.cif
#   From: 2010.05.17/outbox.ucp.g08.bks.cvg/sg15_159_cif.got.tgz:317947.got - 2010.06.11 12:40:34.
