data_PCOD9309649
_publ_section_title
;
Structure prediction by ZEFSAII (Michael W. Deem and Ramdas Pophale) SiO2 
 PCOD9309649
Probable space group: C 2/C
;
_chemical_formula_sum "Si O2"
_cell_formula_units_Z 22
_cell_length_a 18.000000
_cell_length_b 6.000000
_cell_length_c 24.000000
_cell_angle_alpha 90.000000
_cell_angle_beta 60.000000
_cell_angle_gamma 90.000000
_cell_volume 2244.737847
_symmetry_space_group_name_H-M "C 2/C"
_symmetry_group_IT_number 15
_symmetry_cell_setting 'monoclinic'
loop_
_space_group_symop_operation_xyz
x,y,z
-x,y,1/2-z
-x,-y,-z
x,-y,1/2+z
1/2+x,1/2+y,z
1/2-x,1/2+y,1/2-z
1/2-x,1/2-y,-z
1/2+x,1/2-y,1/2+z
loop_
_atom_site_type_symbol
_atom_site_label
_atom_site_fract_x
_atom_site_fract_y
_atom_site_fract_z
Si Si1 0.667544 0.449333 0.413817
Si Si2 0.077327 0.537549 0.925539
Si Si3 0.975520 0.617939 0.360611
Si Si4 0.500000 0.445276 0.250000
Si Si5 0.671157 0.421439 0.037437
Si Si6 0.149283 0.255444 0.147330
O O1 0.625744 0.208047 0.411576
O O2 0.662308 0.450570 0.482811
O O3 0.768509 0.398354 0.360831
O O4 0.626505 0.708768 0.414150
O O5 0.038266 0.519020 0.877824
O O6 0.000000 0.500000 0.000000
O O7 0.914418 0.777992 0.420194
O O8 0.913804 0.439013 0.354790
O O9 0.012504 0.782232 0.298857
O O10 0.585402 0.599546 0.208810
O O11 0.681988 0.587941 0.085824
O O12 0.750000 0.250000 0.000000
#
# Coordination Sequence:
#
# PCOD9309649 Si02
#       6
#     8   8   8   4   8   8
#     4  12  25  42  69 109 150 183 227 291 375 438
#     4  12  26  42  69 111 156 183 221 290 385 447
#     4  11  24  43  73 100 140 192 243 298 359 436
#     4  10  26  46  76  96 132 194 272 304 350 422
#     4  11  21  38  68 110 142 179 233 296 363 433
#     4  11  24  43  74  97 138 188 252 299 349 435
#
# _framework density 9.8006989999999998
#
# number of rings (size 3 to 8) (size 9 to 14) (size 15 to 20)
#    0.000    0.727    3.636    3.818    7.636    0.000 
#    0.000    0.000    8.000    0.000    0.000    0.000 
#    0.000    0.000    0.000    0.000    0.000    0.000 
#
# Total GULP energy -122506.592181 kJ/mol
# GULP energy per Si atom -5568.481463 kJ/mol
# Density = 0.977839 g / cm^3
# Si number density = 9.800699 Si / 1000 Ang^3
#
#
#
# Elastic Constant Matrix: (Units=GPa)
#
#
# Indices 1 2 3 4 5 6 
#
# 1 118.0168 63.9093 39.9250 0.0092 -8.6681 0.0157
# 2 63.9093 157.8127 37.0707 0.0460 -15.6875 0.0006
# 3 39.9250 37.0707 102.3491 0.0015 -14.8073 0.0009
# 4 0.0092 0.0460 0.0015 52.3456 0.0052 -8.7284
# 5 -8.6681 -15.6875 -14.8073 0.0052 18.5768 0.0023
# 6 0.0157 0.0006 0.0009 -8.7284 0.0023 60.2539
#
#
#
# Elastic Compliance Matrix: (Units=1/GPa)
#
#
# Indices 1 2 3 4 5 6 
#
# 1 0.011698 -0.004041 -0.003169 0.000001 -0.000480 -0.000003
# 2 -0.004041 0.008647 -0.000873 -0.000007 0.004721 0.000000
# 3 -0.003169 -0.000873 0.012436 0.000000 0.007697 0.000000
# 4 0.000001 -0.000007 0.000000 0.019577 -0.000011 0.002836
# 5 -0.000480 0.004721 0.007697 -0.000011 0.063729 -0.000004
# 6 -0.000003 0.000000 0.000000 0.002836 -0.000004 0.017007
#
#
# Mechanical properties :
#
#
# Convention : Reuss Voigt Hill
#
# Bulk Modulus (GPa) = 60.18049 73.33208 66.75629
# Shear Modulus (GPa) = 32.29986 42.05351 37.17668
#
# Velocity S-wave (km/s) = 4.06376 4.63691 4.35976
# Velocity P-wave (km/s) = 7.26551 8.13393 7.71195
#
# Compressibility (1/GPa) = 0.01661668
#
# Stress axis : x y z
#
# Youngs Moduli (GPa) = 85.48133 115.64251 80.40876
#
# Poissons Ratio (x) = 0.46728 0.25484
# Poissons Ratio (y) = 0.34541 0.07018
# Poissons Ratio (z) = 0.27091 0.10093
#
# Static dielectric constant tensor:
#      x y z
#    x 1.767660 0.000000 -0.017540 
#    y 0.000000 1.753080 0.000000 
#    z -0.017540 0.000000 1.710550 
# 
# From -- ./inp_files/246416.got.cif
#   From: 2010.05.17/outbox.ucp.g08.bks.cvg/sg15_124_cif.got.tgz:246416.got - 2010.06.11 12:40:34.
