data_PCOD9309053
_publ_section_title
;
Structure prediction by ZEFSAII (Michael W. Deem and Ramdas Pophale) SiO2 
 PCOD9309053
Probable space group: C 2/C
;
_chemical_formula_sum "Si O2"
_cell_formula_units_Z 32
_cell_length_a 18.000000
_cell_length_b 9.000000
_cell_length_c 30.000000
_cell_angle_alpha 90.000000
_cell_angle_beta 140.000000
_cell_angle_gamma 90.000000
_cell_volume 3123.947783
_symmetry_space_group_name_H-M "C 2/C"
_symmetry_group_IT_number 15
_symmetry_cell_setting 'monoclinic'
loop_
_space_group_symop_operation_xyz
x,y,z
-x,y,1/2-z
-x,-y,-z
x,-y,1/2+z
1/2+x,1/2+y,z
1/2-x,1/2+y,1/2-z
1/2-x,1/2-y,-z
1/2+x,1/2-y,1/2+z
loop_
_atom_site_type_symbol
_atom_site_label
_atom_site_fract_x
_atom_site_fract_y
_atom_site_fract_z
Si Si1 0.263928 0.202633 0.935830
Si Si2 0.637843 0.540375 0.802485
Si Si3 0.057746 0.267581 0.908229
Si Si4 0.787484 0.255031 0.308461
Si Si5 0.820521 0.965891 0.433603
Si Si6 0.534321 0.501961 0.084930
Si Si7 0.632948 0.805143 0.297701
Si Si8 0.375062 0.014367 0.291615
O O1 0.220129 0.075126 0.882666
O O2 0.161574 0.216042 0.924566
O O3 0.278195 0.361970 0.917064
O O4 0.382686 0.181060 0.017862
O O5 0.500000 0.561500 0.750000
O O6 0.686944 0.665370 0.791348
O O7 0.654801 0.368255 0.795863
O O8 0.994521 0.400854 0.853779
O O9 0.975574 0.126575 0.882379
O O10 0.885290 0.144159 0.371678
O O11 0.718620 0.143516 0.244974
O O12 0.856558 0.388681 0.318987
O O13 0.713166 0.859170 0.375324
O O14 0.902716 0.949653 0.514182
O O15 0.906900 0.932047 0.432058
O O16 0.500000 0.812051 0.250000
O O17 0.647621 0.928248 0.265382
#
# Coordination Sequence:
#
# PCOD9309053 Si02
#       8
#     8   8   8   8   8   8   8   8
#     4  10  20  42  64  93 123 162 211 250 317 380
#     4  11  24  41  63  90 122 163 215 263 310 373
#     4  10  23  38  66  93 125 164 201 261 313 381
#     4  12  24  40  61  89 123 168 201 262 314 375
#     4  10  20  40  64  89 123 160 205 255 308 376
#     4  10  21  39  62  91 123 159 204 254 313 368
#     4  11  24  41  63  91 122 165 209 260 311 371
#     4  12  24  39  59  90 126 158 208 251 315 375
#
# _framework density 10.243449
#
# number of rings (size 3 to 8) (size 9 to 14) (size 15 to 20)
#    0.000    1.250    2.500    3.000    1.750    4.000 
#    0.000    1.250    0.000    8.250    0.000    0.000 
#    0.000    0.000    0.000    0.000    0.000    0.000 
#
# Total GULP energy -178391.293732 kJ/mol
# GULP energy per Si atom -5574.727929 kJ/mol
# Density = 1.022013 g / cm^3
# Si number density = 10.243449 Si / 1000 Ang^3
#
#
#
# Elastic Constant Matrix: (Units=GPa)
#
#
# Indices 1 2 3 4 5 6 
#
# 1 48.6535 23.9013 2.2308 0.0000 -0.8391 0.0000
# 2 23.9013 110.2405 48.8135 0.0000 8.8505 0.0000
# 3 2.2308 48.8135 92.3644 0.0000 12.0194 0.0000
# 4 0.0000 0.0000 0.0000 19.4245 0.0000 -2.3938
# 5 -0.8391 8.8505 12.0194 0.0000 20.1188 0.0000
# 6 0.0000 0.0000 0.0000 -2.3938 0.0000 23.4686
#
#
#
# Elastic Compliance Matrix: (Units=1/GPa)
#
#
# Indices 1 2 3 4 5 6 
#
# 1 0.023635 -0.006428 0.002526 0.000000 0.002304 0.000000
# 2 -0.006428 0.013638 -0.006762 0.000000 -0.002228 0.000000
# 3 0.002526 -0.006762 0.015114 0.000000 -0.005949 0.000000
# 4 0.000000 0.000000 0.000000 0.052137 0.000000 0.005318
# 5 0.002304 -0.002228 -0.005949 0.000000 0.054335 0.000000
# 6 0.000000 0.000000 0.000000 0.005318 0.000000 0.043152
#
#
# Mechanical properties :
#
#
# Convention : Reuss Voigt Hill
#
# Bulk Modulus (GPa) = 32.19689 44.57217 38.38453
# Shear Modulus (GPa) = 21.39574 24.35658 22.87616
#
# Velocity S-wave (km/s) = 3.23516 3.45176 3.34522
# Velocity P-wave (km/s) = 5.45023 6.13921 5.80495
#
# Compressibility (1/GPa) = 0.03105890
#
# Stress axis : x y z
#
# Youngs Moduli (GPa) = 42.30972 73.32521 66.16557
#
# Poissons Ratio (x) = 0.47134 -0.16716
# Poissons Ratio (y) = 0.27197 0.44743
# Poissons Ratio (z) = -0.10689 0.49585
#
# Static dielectric constant tensor:
#      x y z
#    x 1.752890 0.000000 -0.037960 
#    y 0.000000 1.697310 0.000000 
#    z -0.037960 0.000000 1.807000 
# 
# From -- ./inp_files/315729.got.cif
#   From: 2010.05.17/outbox.ucp.g08.bks.cvg/sg15_158_cif.got.tgz:315729.got - 2010.06.11 12:40:34.
