data_PCOD9309536
_publ_section_title
;
Structure prediction by ZEFSAII (Michael W. Deem and Ramdas Pophale) SiO2 
 PCOD9309536
Probable space group: C 2/C
;
_chemical_formula_sum "Si O2"
_cell_formula_units_Z 30
_cell_length_a 12.000000
_cell_length_b 21.000000
_cell_length_c 24.000000
_cell_angle_alpha 90.000000
_cell_angle_beta 150.000000
_cell_angle_gamma 90.000000
_cell_volume 3024.000000
_symmetry_space_group_name_H-M "C 2/C"
_symmetry_group_IT_number 15
_symmetry_cell_setting 'monoclinic'
loop_
_space_group_symop_operation_xyz
x,y,z
-x,y,1/2-z
-x,-y,-z
x,-y,1/2+z
1/2+x,1/2+y,z
1/2-x,1/2+y,1/2-z
1/2-x,1/2-y,-z
1/2+x,1/2-y,1/2+z
loop_
_atom_site_type_symbol
_atom_site_label
_atom_site_fract_x
_atom_site_fract_y
_atom_site_fract_z
Si Si1 0.428705 0.431090 0.487821
Si Si2 0.000000 0.629736 0.750000
Si Si3 0.816104 0.130328 0.497828
Si Si4 0.470725 0.051528 0.411433
Si Si5 0.936719 0.101708 0.331272
Si Si6 0.562425 0.905043 0.481285
Si Si7 0.750289 0.662657 0.752418
Si Si8 0.070402 0.703731 0.215295
O O1 0.500000 0.500000 0.500000
O O2 0.180452 0.413753 0.360343
O O3 0.577767 0.382336 0.516576
O O4 0.480117 0.428795 0.575036
O O5 0.886987 0.668111 0.752683
O O6 0.646296 0.074897 0.441652
O O7 0.650478 0.189890 0.417471
O O8 0.018392 0.131086 0.629843
O O9 0.220679 0.059674 0.277809
O O10 0.498759 0.095217 0.479224
O O11 0.534118 0.979576 0.453774
O O12 0.766235 0.156481 0.278414
O O13 0.178532 0.118092 0.409409
O O14 0.404155 0.870668 0.366708
O O15 0.668665 0.727519 0.744812
O O16 0.000000 0.696035 0.250000
#
# Coordination Sequence:
#
# PCOD9309536 Si02
#       8
#     8   4   8   8   8   8   8   8
#     4  11  22  37  69  97 133 166 207 270 336 397
#     4  10  24  44  58 102 128 162 222 270 322 392
#     4  10  23  43  64 100 127 173 217 272 331 395
#     4  10  25  41  66  95 140 171 218 271 331 400
#     4  11  23  44  65  97 133 176 216 272 336 394
#     4  11  24  44  64 101 129 178 222 270 326 400
#     4  11  25  43  70  93 129 174 225 274 328 388
#     4  11  24  45  67  95 132 173 221 276 324 394
#
# _framework density 9.9206350000000008
#
# number of rings (size 3 to 8) (size 9 to 14) (size 15 to 20)
#    0.000    1.333    2.667    1.600    7.467    1.600 
#    4.800    0.000    0.000    0.000    0.000    0.000 
#    0.000    0.000    0.000    0.000    0.000    0.000 
#
# Total GULP energy -167205.440203 kJ/mol
# GULP energy per Si atom -5573.514673 kJ/mol
# Density = 0.989806 g / cm^3
# Si number density = 9.920635 Si / 1000 Ang^3
#
#
#
# Elastic Constant Matrix: (Units=GPa)
#
#
# Indices 1 2 3 4 5 6 
#
# 1 64.2731 10.1235 29.7859 -0.0002 2.3294 -0.0002
# 2 10.1235 44.9606 15.8493 0.0008 11.9141 0.0006
# 3 29.7859 15.8493 150.4437 0.0027 4.9251 -0.0015
# 4 -0.0002 0.0008 0.0027 28.5457 0.0000 -0.2598
# 5 2.3294 11.9141 4.9251 0.0000 41.8780 0.0000
# 6 -0.0002 0.0006 -0.0015 -0.2598 0.0000 20.1791
#
#
#
# Elastic Compliance Matrix: (Units=1/GPa)
#
#
# Indices 1 2 3 4 5 6 
#
# 1 0.017470 -0.002876 -0.003163 0.000001 0.000219 0.000000
# 2 -0.002876 0.025363 -0.001879 -0.000001 -0.006835 -0.000001
# 3 -0.003163 -0.001879 0.007477 -0.000001 -0.000169 0.000001
# 4 0.000001 -0.000001 -0.000001 0.035036 0.000000 0.000451
# 5 0.000219 -0.006835 -0.000169 0.000000 0.025831 0.000000
# 6 0.000000 -0.000001 0.000001 0.000451 0.000000 0.049562
#
#
# Mechanical properties :
#
#
# Convention : Reuss Voigt Hill
#
# Bulk Modulus (GPa) = 29.00836 41.24388 35.12612
# Shear Modulus (GPa) = 26.58661 31.71515 29.15088
#
# Velocity S-wave (km/s) = 3.66452 4.00239 3.83718
# Velocity P-wave (km/s) = 5.70587 6.49545 6.11342
#
# Compressibility (1/GPa) = 0.03447282
#
# Stress axis : x y z
#
# Youngs Moduli (GPa) = 57.24255 39.42784 133.74951
#
# Poissons Ratio (x) = 0.11341 0.42303
# Poissons Ratio (y) = 0.16466 0.25128
# Poissons Ratio (z) = 0.18105 0.07407
#
# Static dielectric constant tensor:
#      x y z
#    x 1.741570 0.000000 0.011210 
#    y 0.000000 1.682060 0.000000 
#    z 0.011210 0.000000 1.697900 
# 
# From -- ./inp_files/271040.got.cif
#   From: 2010.05.17/outbox.ucp.g08.bks.cvg/sg15_136_cif.got.tgz:271040.got - 2010.06.11 12:40:34.
