data_PCOD9309140
_publ_section_title
;
Structure prediction by ZEFSAII (Michael W. Deem and Ramdas Pophale) SiO2 
 PCOD9309140
Probable space group: C 2/C
;
_chemical_formula_sum "Si O2"
_cell_formula_units_Z 24
_cell_length_a 9.000000
_cell_length_b 21.000000
_cell_length_c 27.000000
_cell_angle_alpha 90.000000
_cell_angle_beta 150.000000
_cell_angle_gamma 90.000000
_cell_volume 2551.500000
_symmetry_space_group_name_H-M "C 2/C"
_symmetry_group_IT_number 15
_symmetry_cell_setting 'monoclinic'
loop_
_space_group_symop_operation_xyz
x,y,z
-x,y,1/2-z
-x,-y,-z
x,-y,1/2+z
1/2+x,1/2+y,z
1/2-x,1/2+y,1/2-z
1/2-x,1/2-y,-z
1/2+x,1/2-y,1/2+z
loop_
_atom_site_type_symbol
_atom_site_label
_atom_site_fract_x
_atom_site_fract_y
_atom_site_fract_z
Si Si1 0.150892 0.213715 0.649525
Si Si2 0.199071 0.469327 0.631000
Si Si3 0.653428 0.844206 0.941701
Si Si4 0.829359 0.415921 0.986712
Si Si5 0.309199 0.313269 0.148992
Si Si6 0.705121 0.672834 0.132453
O O1 0.500000 0.203242 0.750000
O O2 0.954854 0.165547 0.560049
O O3 0.060278 0.284729 0.605450
O O4 0.038644 0.208191 0.673215
O O5 0.500000 0.479690 0.750000
O O6 0.256951 0.449054 0.590286
O O7 0.018128 0.409343 0.599587
O O8 0.976730 0.529664 0.563801
O O9 0.731377 0.838103 0.906791
O O10 0.090704 0.363203 0.060178
O O11 0.550597 0.375619 0.925427
O O12 0.500000 0.339865 0.250000
O O13 0.142142 0.248987 0.119221
O O14 0.000000 0.661454 0.250000
#
# Coordination Sequence:
#
# PCOD9309140 Si02
#       6
#     8   8   8   8   8   8
#     4  10  21  37  60  92 121 155 201 249 303 357
#     4  11  23  41  63  84 119 167 201 246 298 363
#     4  10  21  39  59  88 121 157 202 244 302 359
#     4  11  23  40  62  88 123 155 207 248 295 365
#     4  10  21  38  61  93 123 154 200 248 308 354
#     4  10  22  39  61  92 120 158 198 250 310 354
#
# _framework density 9.4062319999999993
#
# number of rings (size 3 to 8) (size 9 to 14) (size 15 to 20)
#    0.000    1.667    1.667    2.500    2.333    3.333 
#    0.000    0.833    0.000    0.000    0.000    0.000 
#    0.000    0.000    0.000    0.000    0.000    0.000 
#
# Total GULP energy -133919.559079 kJ/mol
# GULP energy per Si atom -5579.981628 kJ/mol
# Density = 0.938482 g / cm^3
# Si number density = 9.406232 Si / 1000 Ang^3
#
#
#
# Elastic Constant Matrix: (Units=GPa)
#
#
# Indices 1 2 3 4 5 6 
#
# 1 39.1674 6.3289 34.7675 0.0028 -6.3923 -0.0009
# 2 6.3289 79.1606 36.8516 0.0036 10.6658 0.0069
# 3 34.7675 36.8516 161.7579 0.0064 -5.7404 0.0039
# 4 0.0028 0.0036 0.0064 34.8141 0.0026 -8.7486
# 5 -6.3923 10.6658 -5.7404 0.0026 31.5231 -0.0051
# 6 -0.0009 0.0069 0.0039 -8.7486 -0.0051 28.2946
#
#
#
# Elastic Compliance Matrix: (Units=1/GPa)
#
#
# Indices 1 2 3 4 5 6 
#
# 1 0.032422 -0.000186 -0.006734 -0.000001 0.005411 0.000003
# 2 -0.000186 0.015110 -0.003608 -0.000002 -0.005807 -0.000005
# 3 -0.006734 -0.003608 0.008501 -0.000001 0.001403 -0.000001
# 4 -0.000001 -0.000002 -0.000001 0.031144 -0.000001 0.009630
# 5 0.005411 -0.005807 0.001403 -0.000001 0.035041 0.000007
# 6 0.000003 -0.000005 -0.000001 0.009630 0.000007 0.038320
#
#
# Mechanical properties :
#
#
# Convention : Reuss Voigt Hill
#
# Bulk Modulus (GPa) = 28.59125 48.44242 38.51684
# Shear Modulus (GPa) = 25.87268 32.40221 29.13745
#
# Velocity S-wave (km/s) = 3.71252 4.15466 3.93980
# Velocity P-wave (km/s) = 5.79725 6.98720 6.41986
#
# Compressibility (1/GPa) = 0.03497573
#
# Stress axis : x y z
#
# Youngs Moduli (GPa) = 30.84283 66.18281 117.62833
#
# Poissons Ratio (x) = 0.01233 0.79214
# Poissons Ratio (y) = 0.00575 0.42444
# Poissons Ratio (z) = 0.20770 0.23881
#
# Static dielectric constant tensor:
#      x y z
#    x 1.652830 0.000000 -0.012680 
#    y 0.000000 1.668180 0.000000 
#    z -0.012680 0.000000 1.635370 
# 
# From -- ./inp_files/135888.got.cif
#   From: 2010.05.17/outbox.ucp.g08.bks.cvg/sg15_68_cif.got.tgz:135888.got - 2010.06.11 12:40:34.
