data_PCOD9309457
_publ_section_title
;
Structure prediction by ZEFSAII (Michael W. Deem and Ramdas Pophale) SiO2 
 PCOD9309457
Probable space group: C 2/C
;
_chemical_formula_sum "Si O2"
_cell_formula_units_Z 28
_cell_length_a 9.000000
_cell_length_b 27.000000
_cell_length_c 12.000000
_cell_angle_alpha 90.000000
_cell_angle_beta 70.000000
_cell_angle_gamma 90.000000
_cell_volume 2740.143682
_symmetry_space_group_name_H-M "C 2/C"
_symmetry_group_IT_number 15
_symmetry_cell_setting 'monoclinic'
loop_
_space_group_symop_operation_xyz
x,y,z
-x,y,1/2-z
-x,-y,-z
x,-y,1/2+z
1/2+x,1/2+y,z
1/2-x,1/2+y,1/2-z
1/2-x,1/2-y,-z
1/2+x,1/2-y,1/2+z
loop_
_atom_site_type_symbol
_atom_site_label
_atom_site_fract_x
_atom_site_fract_y
_atom_site_fract_z
Si Si1 0.634683 0.509300 0.618633
Si Si2 0.251490 0.340883 0.690340
Si Si3 0.501320 0.414990 0.966106
Si Si4 0.592831 0.931269 0.344081
Si Si5 0.504926 0.151651 0.045754
Si Si6 0.119820 0.729181 0.823718
Si Si7 0.642216 0.353975 0.301384
O O1 0.500000 0.513715 0.750000
O O2 0.610627 0.454730 0.569578
O O3 0.594644 0.550161 0.532689
O O4 0.807091 0.523231 0.626270
O O5 0.380757 0.384975 0.645772
O O6 0.141613 0.348440 0.607167
O O7 0.329427 0.285778 0.661950
O O8 0.150833 0.343732 0.833187
O O9 0.415129 0.372511 0.062609
O O10 0.500000 0.943229 0.250000
O O11 0.506641 0.897679 0.463894
O O12 0.728614 0.893954 0.268302
O O13 0.545543 0.197384 0.948081
O O14 0.272179 0.698680 0.738363
O O15 0.000000 0.729566 0.750000
O O16 0.500000 0.356145 0.250000
#
# Coordination Sequence:
#
# PCOD9309457 Si02
#       7
#     8   8   8   8   8   8   8
#     4  11  22  45  72 106 135 188 249 301 358 442
#     4  11  24  42  71 106 142 193 236 316 358 429
#     4  11  22  42  76  99 143 179 255 305 361 419
#     4  11  21  44  75 103 143 190 236 296 368 442
#     4  10  22  43  68 104 147 184 245 292 370 432
#     4  11  26  44  66 103 148 192 247 295 369 435
#     4  11  20  41  74 102 134 195 243 294 354 441
#
# _framework density 10.218442
#
# number of rings (size 3 to 8) (size 9 to 14) (size 15 to 20)
#    0.000    1.143    4.286    3.000    4.000    1.143 
#    7.714    0.714    3.143    0.000    0.000    0.000 
#    0.000    0.000    0.000    0.000    0.000    0.000 
#
# Total GULP energy -156410.761417 kJ/mol
# GULP energy per Si atom -5586.098622 kJ/mol
# Density = 1.019518 g / cm^3
# Si number density = 10.218442 Si / 1000 Ang^3
#
#
#
# Elastic Constant Matrix: (Units=GPa)
#
#
# Indices 1 2 3 4 5 6 
#
# 1 111.6951 52.7980 44.5834 0.0000 22.3139 0.0000
# 2 52.7980 139.0065 57.6612 0.0000 1.4289 0.0000
# 3 44.5834 57.6612 166.9661 0.0000 -3.2986 0.0000
# 4 0.0000 0.0000 0.0000 31.0888 0.0000 -2.1671
# 5 22.3139 1.4289 -3.2986 0.0000 44.3433 0.0000
# 6 0.0000 0.0000 0.0000 -2.1671 0.0000 35.3452
#
#
#
# Elastic Compliance Matrix: (Units=1/GPa)
#
#
# Indices 1 2 3 4 5 6 
#
# 1 0.013036 -0.003952 -0.002247 0.000000 -0.006600 0.000000
# 2 -0.003952 0.009605 -0.002232 0.000000 0.001513 0.000000
# 3 -0.002247 -0.002232 0.007395 0.000000 0.001752 0.000000
# 4 0.000000 0.000000 0.000000 0.032304 0.000000 0.001981
# 5 -0.006600 0.001513 0.001752 0.000000 0.025954 0.000000
# 6 0.000000 0.000000 0.000000 0.001981 0.000000 0.028414
#
#
# Mechanical properties :
#
#
# Convention : Reuss Voigt Hill
#
# Bulk Modulus (GPa) = 75.90008 80.86141 78.38075
# Shear Modulus (GPa) = 36.24243 39.66380 37.95311
#
# Velocity S-wave (km/s) = 4.21572 4.41022 4.31407
# Velocity P-wave (km/s) = 7.80486 8.09850 7.95304
#
# Compressibility (1/GPa) = 0.01317522
#
# Stress axis : x y z
#
# Youngs Moduli (GPa) = 76.71027 104.11059 135.23417
#
# Poissons Ratio (x) = 0.41141 0.30382
# Poissons Ratio (y) = 0.30313 0.30185
# Poissons Ratio (z) = 0.17234 0.23238
#
# Static dielectric constant tensor:
#      x y z
#    x 1.769590 0.000000 -0.012720 
#    y 0.000000 1.732510 0.000000 
#    z -0.012720 0.000000 1.739400 
# 
# From -- ./inp_files/81236.got.cif
#   From: 2010.05.17/outbox.ucp.g08.bks.cvg/sg15_41_cif.got.tgz:81236.got - 2010.06.11 12:40:34.
