data_PCOD9309314
_publ_section_title
;
Structure prediction by ZEFSAII (Michael W. Deem and Ramdas Pophale) SiO2 
 PCOD9309314
Probable space group: C 2/C
;
_chemical_formula_sum "Si O2"
_cell_formula_units_Z 30
_cell_length_a 21.000000
_cell_length_b 15.000000
_cell_length_c 15.000000
_cell_angle_alpha 90.000000
_cell_angle_beta 40.000000
_cell_angle_gamma 90.000000
_cell_volume 3037.171456
_symmetry_space_group_name_H-M "C 2/C"
_symmetry_group_IT_number 15
_symmetry_cell_setting 'monoclinic'
loop_
_space_group_symop_operation_xyz
x,y,z
-x,y,1/2-z
-x,-y,-z
x,-y,1/2+z
1/2+x,1/2+y,z
1/2-x,1/2+y,1/2-z
1/2-x,1/2-y,-z
1/2+x,1/2-y,1/2+z
loop_
_atom_site_type_symbol
_atom_site_label
_atom_site_fract_x
_atom_site_fract_y
_atom_site_fract_z
Si Si1 0.511689 0.709334 0.502159
Si Si2 0.917474 0.962441 0.518741
Si Si3 0.811124 0.133101 0.675447
Si Si4 0.091619 0.606289 0.933868
Si Si5 0.163794 0.710454 0.489439
Si Si6 0.000000 0.026404 0.250000
Si Si7 0.512041 0.058832 0.629166
Si Si8 0.618471 0.318257 0.706877
O O1 0.593605 0.641346 0.451939
O O2 0.403670 0.667738 0.634605
O O3 0.522237 0.808562 0.523513
O O4 0.539425 0.704595 0.367426
O O5 0.828773 0.030678 0.629156
O O6 0.000000 0.000000 0.500000
O O7 0.958313 0.972499 0.376417
O O8 0.702833 0.138751 0.830707
O O9 0.820303 0.198229 0.581070
O O10 0.078948 0.578371 0.842306
O O11 0.061129 0.528102 0.032500
O O12 0.087469 0.640367 0.533290
O O13 0.271830 0.667417 0.375410
O O14 0.127134 0.738644 0.626786
O O15 0.083070 0.092850 0.197651
O O16 0.500000 0.050201 0.750000
#
# Coordination Sequence:
#
# PCOD9309314 Si02
#       8
#     8   8   8   8   8   4   8   8
#     4  11  21  41  60  88 129 162 206 257 310 367
#     4  10  22  35  57  89 119 159 195 247 310 364
#     4  11  21  36  64  95 124 158 202 255 316 380
#     4  11  25  43  64  92 122 169 210 252 313 372
#     4  11  22  34  63  97 121 161 200 264 318 370
#     4  12  20  36  56  88 126 156 192 258 304 362
#     4  11  26  44  65  90 127 166 210 260 309 372
#     4  11  21  33  60  96 125 152 197 260 328 366
#
# _framework density 9.8776119999999992
#
# number of rings (size 3 to 8) (size 9 to 14) (size 15 to 20)
#    0.000    1.067    6.667    0.800    4.667    0.000 
#    1.200    0.000    0.000    0.800    0.000    0.000 
#    0.000    0.000    0.000    0.000    0.000    0.000 
#
# Total GULP energy -167259.588190 kJ/mol
# GULP energy per Si atom -5575.319606 kJ/mol
# Density = 0.985513 g / cm^3
# Si number density = 9.877612 Si / 1000 Ang^3
#
#
#
# Elastic Constant Matrix: (Units=GPa)
#
#
# Indices 1 2 3 4 5 6 
#
# 1 51.2173 46.8325 19.1608 0.0000 -10.6689 0.0000
# 2 46.8325 105.3430 44.9989 0.0000 1.8337 0.0000
# 3 19.1608 44.9989 36.5789 0.0000 -16.4185 0.0000
# 4 0.0000 0.0000 0.0000 34.8491 0.0000 -23.9551
# 5 -10.6689 1.8337 -16.4185 0.0000 26.7588 0.0000
# 6 0.0000 0.0000 0.0000 -23.9551 0.0000 67.8846
#
#
#
# Elastic Compliance Matrix: (Units=1/GPa)
#
#
# Indices 1 2 3 4 5 6 
#
# 1 0.068159 -0.069960 0.089305 0.000000 0.086765 0.000000
# 2 -0.069960 0.111885 -0.161406 0.000000 -0.134595 0.000000
# 3 0.089305 -0.161406 0.276105 0.000000 0.216078 0.000000
# 4 0.000000 0.000000 0.000000 0.037885 0.000000 0.013369
# 5 0.086765 -0.134595 0.216078 0.000000 0.213767 0.000000
# 6 0.000000 0.000000 0.000000 0.013369 0.000000 0.019448
#
#
# Mechanical properties :
#
#
# Convention : Reuss Voigt Hill
#
# Bulk Modulus (GPa) = 5.81304 46.12484 25.96894
# Shear Modulus (GPa) = 4.67853 31.37498 18.02675
#
# Velocity S-wave (km/s) = 1.54058 3.98953 3.02405
# Velocity P-wave (km/s) = 2.47254 6.67987 5.03657
#
# Compressibility (1/GPa) = 0.17202690
#
# Stress axis : x y z
#
# Youngs Moduli (GPa) = 14.67156 8.93775 3.62182
#
# Poissons Ratio (x) = 0.62528 -0.32345
# Poissons Ratio (y) = 1.02642 0.58458
# Poissons Ratio (z) = -1.31025 1.44261
#
# Static dielectric constant tensor:
#      x y z
#    x 1.776990 0.000000 -0.048150 
#    y 0.000000 1.705790 0.000000 
#    z -0.048150 0.000000 1.635310 
# 
# From -- ./inp_files/168606.got.cif
#   From: 2010.05.17/outbox.ucp.g08.bks.cvg/sg15_85_cif.got.tgz:168606.got - 2010.06.11 12:40:34.
