data_PCOD9309854
_publ_section_title
;
Structure prediction by ZEFSAII (Michael W. Deem and Ramdas Pophale) SiO2 
 PCOD9309854
Probable space group: C 2/C
;
_chemical_formula_sum "Si O2"
_cell_formula_units_Z 20
_cell_length_a 18.000000
_cell_length_b 12.000000
_cell_length_c 9.000000
_cell_angle_alpha 90.000000
_cell_angle_beta 80.000000
_cell_angle_gamma 90.000000
_cell_volume 1914.466272
_symmetry_space_group_name_H-M "C 2/C"
_symmetry_group_IT_number 15
_symmetry_cell_setting 'monoclinic'
loop_
_space_group_symop_operation_xyz
x,y,z
-x,y,1/2-z
-x,-y,-z
x,-y,1/2+z
1/2+x,1/2+y,z
1/2-x,1/2+y,1/2-z
1/2-x,1/2-y,-z
1/2+x,1/2-y,1/2+z
loop_
_atom_site_type_symbol
_atom_site_label
_atom_site_fract_x
_atom_site_fract_y
_atom_site_fract_z
Si Si1 0.372927 0.460463 0.999633
Si Si2 0.519014 0.324102 0.073447
Si Si3 0.276483 0.686020 0.340248
Si Si4 0.199965 0.526331 0.165337
Si Si5 0.864063 0.347851 0.104832
O O1 0.438929 0.379741 0.045862
O O2 0.288202 0.482851 0.103971
O O3 0.417587 0.576100 0.953699
O O4 0.345652 0.394237 0.862938
O O5 0.500000 0.290666 0.250000
O O6 0.559759 0.221598 0.968237
O O7 0.250000 0.750000 0.500000
O O8 0.209323 0.613206 0.297126
O O9 0.304305 0.759143 0.191770
O O10 0.141790 0.434622 0.252906
O O11 0.168277 0.587659 0.029327
#
# Coordination Sequence:
#
# PCOD9309854 Si02
#       5
#     8   8   8   8   8
#     4  11  24  44  72 109 148 182 258 308 375 438
#     4  11  27  44  72 108 154 199 241 310 392 449
#     4  12  24  40  74 111 141 191 247 319 371 433
#     4  12  24  46  76 109 147 194 262 319 363 450
#     4  12  26  46  75 112 150 200 253 318 379 447
#
# _framework density 10.446776
#
# number of rings (size 3 to 8) (size 9 to 14) (size 15 to 20)
#    0.000    0.400    6.000    1.800    5.600    0.000 
#    0.000    1.000    0.000    0.000    0.000    0.000 
#    0.000    0.000    0.000    0.000    0.000    0.000 
#
# Total GULP energy -111513.463403 kJ/mol
# GULP energy per Si atom -5575.673170 kJ/mol
# Density = 1.042300 g / cm^3
# Si number density = 10.446776 Si / 1000 Ang^3
#
#
#
# Elastic Constant Matrix: (Units=GPa)
#
#
# Indices 1 2 3 4 5 6 
#
# 1 74.2485 25.5046 42.3312 0.0000 -7.7087 0.0000
# 2 25.5046 103.6504 56.5373 0.0000 -2.7881 0.0000
# 3 42.3312 56.5373 124.8013 0.0000 -16.7954 0.0000
# 4 0.0000 0.0000 0.0000 55.8356 0.0000 -5.5213
# 5 -7.7087 -2.7881 -16.7954 0.0000 44.4565 0.0000
# 6 0.0000 0.0000 0.0000 -5.5213 0.0000 33.4513
#
#
#
# Elastic Compliance Matrix: (Units=1/GPa)
#
#
# Indices 1 2 3 4 5 6 
#
# 1 0.016881 -0.001429 -0.004948 0.000000 0.000968 0.000000
# 2 -0.001429 0.013026 -0.005626 0.000000 -0.001556 0.000000
# 3 -0.004948 -0.005626 0.012724 0.000000 0.003596 0.000000
# 4 0.000000 0.000000 0.000000 0.018207 0.000000 0.003005
# 5 0.000968 -0.001556 0.003596 0.000000 0.023923 0.000000
# 6 0.000000 0.000000 0.000000 0.003005 0.000000 0.030390
#
#
# Mechanical properties :
#
#
# Convention : Reuss Voigt Hill
#
# Bulk Modulus (GPa) = 53.69139 61.27182 57.48161
# Shear Modulus (GPa) = 34.39628 38.63716 36.51672
#
# Velocity S-wave (km/s) = 4.06182 4.30494 4.18515
# Velocity P-wave (km/s) = 6.91022 7.35523 7.13620
#
# Compressibility (1/GPa) = 0.01862496
#
# Stress axis : x y z
#
# Youngs Moduli (GPa) = 59.23932 76.76808 78.59299
#
# Poissons Ratio (x) = 0.10967 0.38890
# Poissons Ratio (y) = 0.08463 0.44216
# Poissons Ratio (z) = 0.29313 0.43190
#
# Static dielectric constant tensor:
#      x y z
#    x 1.727530 0.000000 0.010320 
#    y 0.000000 1.879460 0.000000 
#    z 0.010320 0.000000 1.780460 
# 
# From -- ./inp_files/46075.got.cif
#   From: 2010.05.17/outbox.ucp.g08.bks.cvg/sg15_24_cif.got.tgz:46075.got - 2010.06.11 12:40:34.
