data_PCOD9309498
_publ_section_title
;
Structure prediction by ZEFSAII (Michael W. Deem and Ramdas Pophale) SiO2 
 PCOD9309498
Probable space group: C 2/C
;
_chemical_formula_sum "Si O2"
_cell_formula_units_Z 30
_cell_length_a 12.000000
_cell_length_b 27.000000
_cell_length_c 9.000000
_cell_angle_alpha 90.000000
_cell_angle_beta 90.000000
_cell_angle_gamma 90.000000
_cell_volume 2916.000000
_symmetry_space_group_name_H-M "C 2/C"
_symmetry_group_IT_number 15
_symmetry_cell_setting 'monoclinic'
loop_
_space_group_symop_operation_xyz
x,y,z
-x,y,1/2-z
-x,-y,-z
x,-y,1/2+z
1/2+x,1/2+y,z
1/2-x,1/2+y,1/2-z
1/2-x,1/2-y,-z
1/2+x,1/2-y,1/2+z
loop_
_atom_site_type_symbol
_atom_site_label
_atom_site_fract_x
_atom_site_fract_y
_atom_site_fract_z
Si Si1 0.500000 0.368630 0.250000
Si Si2 0.295686 0.305270 0.139639
Si Si3 0.368675 0.286504 0.810983
Si Si4 0.594621 0.080096 0.953392
Si Si5 0.224364 0.895196 0.800837
Si Si6 0.652255 0.099293 0.617651
Si Si7 0.219202 0.517455 0.430033
Si Si8 0.926128 0.951212 0.479104
O O1 0.390183 0.333693 0.237529
O O2 0.483771 0.407493 0.385419
O O3 0.218633 0.260991 0.212906
O O4 0.214226 0.349529 0.084213
O O5 0.362905 0.287917 0.991721
O O6 0.500000 0.281310 0.750000
O O7 0.316037 0.339820 0.751746
O O8 0.626715 0.100723 0.791885
O O9 0.464079 0.092513 0.971106
O O10 0.615452 0.020583 0.940947
O O11 0.676547 0.104471 0.075506
O O12 0.269772 0.936189 0.682609
O O13 0.119009 0.923387 0.874741
O O14 0.722022 0.049294 0.582595
O O15 0.317377 0.477516 0.407975
O O16 0.000000 0.000000 0.500000
#
# Coordination Sequence:
#
# PCOD9309498 Si02
#       8
#     4   8   8   8   8   8   8   8
#     4  12  24  46  70  98 142 184 226 294 350 428
#     4  11  25  49  70 103 131 185 231 288 364 408
#     4  11  26  48  74 100 134 178 237 298 354 412
#     4  10  23  38  63 100 139 185 232 272 337 415
#     4  11  23  42  64 102 135 178 236 287 340 415
#     4  11  22  42  66  91 144 188 222 284 344 407
#     4  11  21  38  61  99 141 183 228 276 343 416
#     4  11  23  38  66 101 138 183 226 278 349 422
#
# _framework density 10.288066000000001
#
# number of rings (size 3 to 8) (size 9 to 14) (size 15 to 20)
#    0.000    1.067    1.333    6.000    3.733    1.600 
#    4.800    3.333    0.000    0.000    0.000    0.000 
#    0.000    0.000    0.000    0.000    0.000    0.000 
#
# Total GULP energy -167273.555599 kJ/mol
# GULP energy per Si atom -5575.785187 kJ/mol
# Density = 1.026465 g / cm^3
# Si number density = 10.288066 Si / 1000 Ang^3
#
#
#
# Elastic Constant Matrix: (Units=GPa)
#
#
# Indices 1 2 3 4 5 6 
#
# 1 139.7194 70.3618 36.5001 0.0000 -2.3443 0.0000
# 2 70.3618 164.9502 24.1437 0.0000 -0.2016 0.0000
# 3 36.5001 24.1437 64.4832 0.0000 -10.7296 0.0000
# 4 0.0000 0.0000 0.0000 36.9984 0.0000 -6.3870
# 5 -2.3443 -0.2016 -10.7296 0.0000 36.9899 0.0000
# 6 0.0000 0.0000 0.0000 -6.3870 0.0000 48.5827
#
#
#
# Elastic Compliance Matrix: (Units=1/GPa)
#
#
# Indices 1 2 3 4 5 6 
#
# 1 0.010174 -0.003683 -0.004493 0.000000 -0.000679 0.000000
# 2 -0.003683 0.007764 -0.000897 0.000000 -0.000451 0.000000
# 3 -0.004493 -0.000897 0.019269 0.000000 0.005300 0.000000
# 4 0.000000 0.000000 0.000000 0.027656 0.000000 0.003636
# 5 -0.000679 -0.000451 0.005300 0.000000 0.028526 0.000000
# 6 0.000000 0.000000 0.000000 0.003636 0.000000 0.021061
#
#
# Mechanical properties :
#
#
# Convention : Reuss Voigt Hill
#
# Bulk Modulus (GPa) = 52.46428 70.12933 61.29681
# Shear Modulus (GPa) = 35.98368 40.39067 38.18718
#
# Velocity S-wave (km/s) = 4.18641 4.43537 4.31269
# Velocity P-wave (km/s) = 6.99436 7.77090 7.39283
#
# Compressibility (1/GPa) = 0.01906059
#
# Stress axis : x y z
#
# Youngs Moduli (GPa) = 98.28588 128.79348 51.89695
#
# Poissons Ratio (x) = 0.47438 0.23317
# Poissons Ratio (y) = 0.36201 0.04657
# Poissons Ratio (z) = 0.44159 0.11558
#
# Static dielectric constant tensor:
#      x y z
#    x 1.837560 0.000000 -0.011560 
#    y 0.000000 1.717650 0.000000 
#    z -0.011560 0.000000 1.834120 
# 
# From -- ./inp_files/34262.got.cif
#   From: 2010.05.17/outbox.ucp.g08.bks.cvg/sg15_18_cif.got.tgz:34262.got - 2010.06.11 12:40:34.
