data_PCOD9309884
_publ_section_title
;
Structure prediction by ZEFSAII (Michael W. Deem and Ramdas Pophale) SiO2 
 PCOD9309884
Probable space group: C 2/C
;
_chemical_formula_sum "Si O2"
_cell_formula_units_Z 30
_cell_length_a 12.000000
_cell_length_b 18.000000
_cell_length_c 27.000000
_cell_angle_alpha 90.000000
_cell_angle_beta 30.000000
_cell_angle_gamma 90.000000
_cell_volume 2916.000000
_symmetry_space_group_name_H-M "C 2/C"
_symmetry_group_IT_number 15
_symmetry_cell_setting 'monoclinic'
loop_
_space_group_symop_operation_xyz
x,y,z
-x,y,1/2-z
-x,-y,-z
x,-y,1/2+z
1/2+x,1/2+y,z
1/2-x,1/2+y,1/2-z
1/2-x,1/2-y,-z
1/2+x,1/2-y,1/2+z
loop_
_atom_site_type_symbol
_atom_site_label
_atom_site_fract_x
_atom_site_fract_y
_atom_site_fract_z
Si Si1 0.674337 0.367064 0.030792
Si Si2 0.945439 0.340770 0.682769
Si Si3 0.622323 0.448322 0.756334
Si Si4 0.500000 0.050255 0.250000
Si Si5 0.834058 0.943725 0.091049
Si Si6 0.477814 0.081152 0.639905
Si Si7 0.330296 0.986922 0.519415
Si Si8 0.577311 0.681767 0.775363
O O1 0.472250 0.384042 0.069992
O O2 0.808016 0.443000 0.991386
O O3 0.595453 0.340514 0.114949
O O4 0.859035 0.320326 0.930720
O O5 0.738056 0.373952 0.732220
O O6 0.891778 0.269665 0.736012
O O7 0.033304 0.401816 0.688090
O O8 0.500000 0.440749 0.750000
O O9 0.811346 0.511404 0.691652
O O10 0.417155 0.475277 0.867245
O O11 0.706641 0.995979 0.179076
O O12 0.648083 0.921217 0.121007
O O13 0.000000 0.000000 0.000000
O O14 0.307811 0.148282 0.706009
O O15 0.611015 0.083097 0.537093
O O16 0.500000 0.000000 0.500000
O O17 0.500000 0.656069 0.750000
#
# Coordination Sequence:
#
# PCOD9309884 Si02
#       8
#     8   8   8   4   8   8   8   8
#     4  12  23  43  70 104 134 173 228 282 339 400
#     4  12  25  44  69  98 136 183 226 273 340 411
#     4  12  22  41  68  98 136 175 225 282 336 397
#     4  12  20  40  68  96 136 174 220 270 342 404
#     4  12  22  39  71 106 135 164 224 292 337 400
#     4  12  23  41  66 101 133 172 227 276 340 397
#     4  12  21  37  70 102 129 169 226 285 331 393
#     4  12  27  47  68  94 139 186 228 275 340 417
#
# _framework density 10.288066000000001
#
# number of rings (size 3 to 8) (size 9 to 14) (size 15 to 20)
#    0.000    0.000    8.667    3.200    0.000    0.000 
#    2.400    0.667    0.000    0.000    0.000    0.000 
#    0.000    0.000    0.000    0.000    0.000    0.000 
#
# Total GULP energy -167294.114844 kJ/mol
# GULP energy per Si atom -5576.470495 kJ/mol
# Density = 1.026465 g / cm^3
# Si number density = 10.288066 Si / 1000 Ang^3
#
#
#
# Elastic Constant Matrix: (Units=GPa)
#
#
# Indices 1 2 3 4 5 6 
#
# 1 177.8181 21.7422 36.9464 -0.0008 -13.4536 -0.0045
# 2 21.7422 45.9081 18.7112 0.0096 -12.8963 -0.0110
# 3 36.9464 18.7112 78.1711 0.0348 -7.1998 -0.0301
# 4 -0.0008 0.0096 0.0348 18.9521 -0.0143 6.6009
# 5 -13.4536 -12.8963 -7.1998 -0.0143 38.4742 0.0080
# 6 -0.0045 -0.0110 -0.0301 6.6009 0.0080 14.8450
#
#
#
# Elastic Compliance Matrix: (Units=1/GPa)
#
#
# Indices 1 2 3 4 5 6 
#
# 1 0.006448 -0.001679 -0.002533 0.000010 0.001218 -0.000010
# 2 -0.001679 0.026665 -0.004904 -0.000001 0.007433 0.000006
# 3 -0.002533 -0.004904 0.015193 -0.000041 0.000313 0.000044
# 4 0.000010 -0.000001 -0.000041 0.062434 0.000025 -0.027762
# 5 0.001218 0.007433 0.000313 0.000025 0.028967 -0.000020
# 6 -0.000010 0.000006 0.000044 -0.027762 -0.000020 0.079708
#
#
# Mechanical properties :
#
#
# Convention : Reuss Voigt Hill
#
# Bulk Modulus (GPa) = 33.25402 50.74410 41.99906
# Shear Modulus (GPa) = 20.18809 29.42077 24.80443
#
# Velocity S-wave (km/s) = 3.13572 3.78544 3.47579
# Velocity P-wave (km/s) = 5.41358 6.61976 6.04682
#
# Compressibility (1/GPa) = 0.03007155
#
# Stress axis : x y z
#
# Youngs Moduli (GPa) = 155.09880 37.50263 65.82159
#
# Poissons Ratio (x) = 0.06297 0.16674
# Poissons Ratio (y) = 0.26041 0.32282
# Poissons Ratio (z) = 0.39291 0.18393
#
# Static dielectric constant tensor:
#      x y z
#    x 1.714600 0.000010 0.047180 
#    y 0.000010 1.823990 -0.000030 
#    z 0.047180 -0.000030 1.849050 
# 
# From -- ./inp_files/293529.got.cif
#   From: 2010.05.17/outbox.ucp.g08.bks.cvg/sg15_147_cif.got.tgz:293529.got - 2010.06.11 12:40:34.
