data_PCOD9309138
_publ_section_title
;
Structure prediction by ZEFSAII (Michael W. Deem and Ramdas Pophale) SiO2 
 PCOD9309138
Probable space group: C 2/C
;
_chemical_formula_sum "Si O2"
_cell_formula_units_Z 28
_cell_length_a 15.000000
_cell_length_b 9.000000
_cell_length_c 24.000000
_cell_angle_alpha 90.000000
_cell_angle_beta 70.000000
_cell_angle_gamma 90.000000
_cell_volume 3044.604091
_symmetry_space_group_name_H-M "C 2/C"
_symmetry_group_IT_number 15
_symmetry_cell_setting 'monoclinic'
loop_
_space_group_symop_operation_xyz
x,y,z
-x,y,1/2-z
-x,-y,-z
x,-y,1/2+z
1/2+x,1/2+y,z
1/2-x,1/2+y,1/2-z
1/2-x,1/2-y,-z
1/2+x,1/2-y,1/2+z
loop_
_atom_site_type_symbol
_atom_site_label
_atom_site_fract_x
_atom_site_fract_y
_atom_site_fract_z
Si Si1 0.132602 0.978253 0.385393
Si Si2 0.826825 0.699853 0.201227
Si Si3 0.659910 0.236463 0.477174
Si Si4 0.489739 0.002827 0.318251
Si Si5 0.279156 0.454007 0.873137
Si Si6 0.540140 0.701830 0.105637
Si Si7 0.804510 0.297955 0.839153
O O1 0.153466 0.859426 0.331509
O O2 0.138020 0.874989 0.440083
O O3 0.216143 0.098077 0.372783
O O4 0.039514 0.076372 0.390393
O O5 0.745351 0.619004 0.181886
O O6 0.805878 0.715196 0.271323
O O7 0.920446 0.596587 0.179140
O O8 0.750000 0.250000 0.500000
O O9 0.690409 0.099090 0.430961
O O10 0.573853 0.231294 0.538965
O O11 0.500000 0.971311 0.250000
O O12 0.485593 0.846076 0.351540
O O13 0.397415 0.111409 0.340668
O O14 0.372289 0.379199 0.880972
O O15 0.293865 0.630757 0.864947
#
# Coordination Sequence:
#
# PCOD9309138 Si02
#       7
#     8   8   8   8   8   8   8
#     4  11  22  37  60  85 114 152 190 232 286 341
#     4  10  21  38  57  84 117 148 188 235 281 337
#     4   9  20  40  59  81 113 149 192 240 282 334
#     4  10  22  38  59  85 116 150 190 234 283 339
#     4  10  21  37  59  85 113 150 191 234 283 335
#     4  11  22  39  59  83 115 151 189 234 285 338
#     4  11  21  37  58  85 116 150 187 233 284 338
#
# _framework density 9.1965979999999998
#
# number of rings (size 3 to 8) (size 9 to 14) (size 15 to 20)
#    0.000    1.714    0.000    5.571    0.000    4.571 
#    0.000   14.286    0.000    0.000    0.000    0.000 
#    0.000    0.000    0.000    0.000    0.000    0.000 
#
# Total GULP energy -156205.878169 kJ/mol
# GULP energy per Si atom -5578.781363 kJ/mol
# Density = 0.917567 g / cm^3
# Si number density = 9.196598 Si / 1000 Ang^3
#
#
#
# Elastic Constant Matrix: (Units=GPa)
#
#
# Indices 1 2 3 4 5 6 
#
# 1 108.5872 51.8151 29.3631 0.0000 4.4628 0.0000
# 2 51.8151 170.1541 57.0175 0.0000 -5.9652 0.0000
# 3 29.3631 57.0175 78.7492 0.0000 6.5921 0.0000
# 4 0.0000 0.0000 0.0000 26.7421 0.0000 -0.0190
# 5 4.4628 -5.9652 6.5921 0.0000 27.0898 0.0000
# 6 0.0000 0.0000 0.0000 -0.0190 0.0000 39.3605
#
#
#
# Elastic Compliance Matrix: (Units=1/GPa)
#
#
# Indices 1 2 3 4 5 6 
#
# 1 0.011162 -0.002812 -0.001961 0.000000 -0.001981 0.000000
# 2 -0.002812 0.008739 -0.005593 0.000000 0.003748 0.000000
# 3 -0.001961 -0.005593 0.017920 0.000000 -0.005269 0.000000
# 4 0.000000 0.000000 0.000000 0.037394 0.000000 0.000018
# 5 -0.001981 0.003748 -0.005269 0.000000 0.039348 0.000000
# 6 0.000000 0.000000 0.000000 0.000018 0.000000 0.025406
#
#
# Mechanical properties :
#
#
# Convention : Reuss Voigt Hill
#
# Bulk Modulus (GPa) = 58.50868 70.43131 64.46999
# Shear Modulus (GPa) = 30.04879 33.25814 31.65346
#
# Velocity S-wave (km/s) = 4.04628 4.25688 4.15291
# Velocity P-wave (km/s) = 7.32863 7.90800 7.62382
#
# Compressibility (1/GPa) = 0.01709148
#
# Stress axis : x y z
#
# Youngs Moduli (GPa) = 89.58644 114.43428 55.80405
#
# Poissons Ratio (x) = 0.32175 0.10941
# Poissons Ratio (y) = 0.25188 0.31208
# Poissons Ratio (z) = 0.17564 0.63998
#
# Static dielectric constant tensor:
#      x y z
#    x 1.648190 0.000000 -0.022650 
#    y 0.000000 1.600980 0.000000 
#    z -0.022650 0.000000 1.660580 
# 
# From -- ./inp_files/272622.got.cif
#   From: 2010.05.17/outbox.ucp.g08.bks.cvg/sg15_137_cif.got.tgz:272622.got - 2010.06.11 12:40:34.
