data_PCOD9309857
_publ_section_title
;
Structure prediction by ZEFSAII (Michael W. Deem and Ramdas Pophale) SiO2 
 PCOD9309857
Probable space group: C 2/C
;
_chemical_formula_sum "Si O2"
_cell_formula_units_Z 26
_cell_length_a 15.000000
_cell_length_b 18.000000
_cell_length_c 12.000000
_cell_angle_alpha 90.000000
_cell_angle_beta 120.000000
_cell_angle_gamma 90.000000
_cell_volume 2805.922308
_symmetry_space_group_name_H-M "C 2/C"
_symmetry_group_IT_number 15
_symmetry_cell_setting 'monoclinic'
loop_
_space_group_symop_operation_xyz
x,y,z
-x,y,1/2-z
-x,-y,-z
x,-y,1/2+z
1/2+x,1/2+y,z
1/2-x,1/2+y,1/2-z
1/2-x,1/2-y,-z
1/2+x,1/2-y,1/2+z
loop_
_atom_site_type_symbol
_atom_site_label
_atom_site_fract_x
_atom_site_fract_y
_atom_site_fract_z
Si Si1 0.695204 0.697217 0.555355
Si Si2 0.000000 0.215982 0.750000
Si Si3 0.042640 0.318647 0.562853
Si Si4 0.119110 0.065357 0.350002
Si Si5 0.783278 0.563108 0.250716
Si Si6 0.168804 0.388284 0.172208
Si Si7 0.181026 0.100348 0.945143
O O1 0.750000 0.750000 0.500000
O O2 0.603756 0.752007 0.538147
O O3 0.656145 0.624117 0.465814
O O4 0.770331 0.666106 0.701880
O O5 0.986567 0.273437 0.843916
O O6 0.906502 0.161713 0.645807
O O7 0.122747 0.384395 0.648002
O O8 0.945440 0.355139 0.432790
O O9 0.192231 0.069893 0.286259
O O10 0.000000 0.080591 0.250000
O O11 0.130164 0.980935 0.399774
O O12 0.821661 0.475081 0.275351
O O13 0.736268 0.594468 0.102920
O O14 0.231351 0.390170 0.094654
#
# Coordination Sequence:
#
# PCOD9309857 Si02
#       7
#     8   4   8   8   8   8   8
#     4  12  26  46  65 104 142 179 233 287 348 410
#     4  12  26  42  70 106 140 178 230 292 358 408
#     4  12  27  44  71 103 139 187 227 289 353 413
#     4  11  25  43  69 101 135 183 229 283 347 412
#     4  11  25  47  71  98 139 185 236 283 343 422
#     4  11  26  48  70 100 140 184 232 285 344 424
#     4  11  24  45  71 101 138 177 232 286 342 418
#
# _framework density 9.2661149999999992
#
# number of rings (size 3 to 8) (size 9 to 14) (size 15 to 20)
#    0.000    0.615    5.385    1.385    6.462    1.846 
#    0.000    1.538    0.000    0.000    0.000    0.000 
#    0.000    0.000    0.000    0.000    0.000    0.000 
#
# Total GULP energy -144972.095092 kJ/mol
# GULP energy per Si atom -5575.849811 kJ/mol
# Density = 0.924503 g / cm^3
# Si number density = 9.266115 Si / 1000 Ang^3
#
#
#
# Elastic Constant Matrix: (Units=GPa)
#
#
# Indices 1 2 3 4 5 6 
#
# 1 98.4301 56.8159 69.2006 0.0000 11.4751 0.0000
# 2 56.8159 147.5767 64.6389 0.0000 13.5289 0.0000
# 3 69.2006 64.6389 185.9257 0.0000 21.3271 0.0000
# 4 0.0000 0.0000 0.0000 52.9552 0.0000 3.4524
# 5 11.4751 13.5289 21.3271 0.0000 42.2790 0.0000
# 6 0.0000 0.0000 0.0000 3.4524 0.0000 44.5273
#
#
#
# Elastic Compliance Matrix: (Units=1/GPa)
#
#
# Indices 1 2 3 4 5 6 
#
# 1 0.015625 -0.004054 -0.004318 0.000000 -0.000765 0.000000
# 2 -0.004054 0.009105 -0.001538 0.000000 -0.001038 0.000000
# 3 -0.004318 -0.001538 0.007780 0.000000 -0.002260 0.000000
# 4 0.000000 0.000000 0.000000 0.018980 0.000000 -0.001472
# 5 -0.000765 -0.001038 -0.002260 0.000000 0.025332 0.000000
# 6 0.000000 0.000000 0.000000 -0.001472 0.000000 0.022572
#
#
# Mechanical properties :
#
#
# Convention : Reuss Voigt Hill
#
# Bulk Modulus (GPa) = 78.80211 90.36039 84.58125
# Shear Modulus (GPa) = 40.50429 44.03743 42.27086
#
# Velocity S-wave (km/s) = 4.68013 4.87998 4.78110
# Velocity P-wave (km/s) = 8.47459 8.97868 8.73027
#
# Compressibility (1/GPa) = 0.01269002
#
# Stress axis : x y z
#
# Youngs Moduli (GPa) = 64.00179 109.82385 128.54094
#
# Poissons Ratio (x) = 0.44520 0.55507
# Poissons Ratio (y) = 0.25945 0.19767
# Poissons Ratio (z) = 0.27638 0.16889
#
# Static dielectric constant tensor:
#      x y z
#    x 1.729410 0.000000 -0.040650 
#    y 0.000000 1.637910 0.000000 
#    z -0.040650 0.000000 1.654020 
# 
# From -- ./inp_files/98435.got.cif
#   From: 2010.05.17/outbox.ucp.g08.bks.cvg/sg15_50_cif.got.tgz:98435.got - 2010.06.11 12:40:34.
