data_PCOD9309445
_publ_section_title
;
Structure prediction by ZEFSAII (Michael W. Deem and Ramdas Pophale) SiO2 
 PCOD9309445
Probable space group: C 2/C
;
_chemical_formula_sum "Si O2"
_cell_formula_units_Z 24
_cell_length_a 30.000000
_cell_length_b 9.000000
_cell_length_c 18.000000
_cell_angle_alpha 90.000000
_cell_angle_beta 150.000000
_cell_angle_gamma 90.000000
_cell_volume 2430.000000
_symmetry_space_group_name_H-M "C 2/C"
_symmetry_group_IT_number 15
_symmetry_cell_setting 'monoclinic'
loop_
_space_group_symop_operation_xyz
x,y,z
-x,y,1/2-z
-x,-y,-z
x,-y,1/2+z
1/2+x,1/2+y,z
1/2-x,1/2+y,1/2-z
1/2-x,1/2-y,-z
1/2+x,1/2-y,1/2+z
loop_
_atom_site_type_symbol
_atom_site_label
_atom_site_fract_x
_atom_site_fract_y
_atom_site_fract_z
Si Si1 0.731983 0.715738 0.888161
Si Si2 0.467518 0.333198 0.464394
Si Si3 0.428933 0.280451 0.580899
Si Si4 0.369157 0.767235 0.390832
Si Si5 0.218478 0.983425 0.648958
Si Si6 0.901135 0.549943 0.072456
O O1 0.629077 0.680991 0.716192
O O2 0.753033 0.859849 0.868588
O O3 0.750000 0.750000 0.000000
O O4 0.809268 0.594930 0.981033
O O5 0.500000 0.500000 0.500000
O O6 0.460918 0.299357 0.542293
O O7 0.549816 0.238661 0.549733
O O8 0.500000 0.287652 0.750000
O O9 0.360763 0.414060 0.494914
O O10 0.386181 0.116596 0.521102
O O11 0.319003 0.610651 0.334275
O O12 0.412975 0.817692 0.530934
O O13 0.297546 0.898570 0.275572
O O14 0.000000 0.541285 0.250000
#
# Coordination Sequence:
#
# PCOD9309445 Si02
#       6
#     8   8   8   8   8   8
#     4  11  26  44  70 104 141 178 239 283 353 424
#     4  12  26  42  68 101 137 180 231 293 348 417
#     4  11  25  44  67 100 138 179 231 283 355 422
#     4  11  23  42  69  94 135 174 232 280 350 408
#     4  11  24  41  68  95 132 182 225 286 346 422
#     4  10  22  42  70  97 138 182 227 279 343 412
#
# _framework density 9.8765429999999999
#
# number of rings (size 3 to 8) (size 9 to 14) (size 15 to 20)
#    0.000    1.000    1.667    5.000    4.667    8.000 
#    0.000    1.667    0.000    0.000    0.000    0.000 
#    0.000    0.000    0.000    0.000    0.000    0.000 
#
# Total GULP energy -133798.736982 kJ/mol
# GULP energy per Si atom -5574.947374 kJ/mol
# Density = 0.985406 g / cm^3
# Si number density = 9.876543 Si / 1000 Ang^3
#
#
#
# Elastic Constant Matrix: (Units=GPa)
#
#
# Indices 1 2 3 4 5 6 
#
# 1 133.4357 54.9254 79.2272 0.0000 11.8221 0.0000
# 2 54.9254 126.7959 60.6551 0.0000 23.1973 0.0000
# 3 79.2272 60.6551 158.7020 0.0000 16.5548 0.0000
# 4 0.0000 0.0000 0.0000 45.7731 0.0000 12.1483
# 5 11.8221 23.1973 16.5548 0.0000 32.4671 0.0000
# 6 0.0000 0.0000 0.0000 12.1483 0.0000 35.8674
#
#
#
# Elastic Compliance Matrix: (Units=1/GPa)
#
#
# Indices 1 2 3 4 5 6 
#
# 1 0.011362 -0.002733 -0.004647 0.000000 0.000185 0.000000
# 2 -0.002733 0.011255 -0.002326 0.000000 -0.005861 0.000000
# 3 -0.004647 -0.002326 0.009675 0.000000 -0.001579 0.000000
# 4 0.000000 0.000000 0.000000 0.024005 0.000000 -0.008130
# 5 0.000185 -0.005861 -0.001579 0.000000 0.035726 0.000000
# 6 0.000000 0.000000 0.000000 -0.008130 0.000000 0.030634
#
#
# Mechanical properties :
#
#
# Convention : Reuss Voigt Hill
#
# Bulk Modulus (GPa) = 77.63702 89.83878 83.73790
# Shear Modulus (GPa) = 34.16200 37.76325 35.96263
#
# Velocity S-wave (km/s) = 4.16318 4.37712 4.27149
# Velocity P-wave (km/s) = 7.90560 8.43357 8.17385
#
# Compressibility (1/GPa) = 0.01288045
#
# Stress axis : x y z
#
# Youngs Moduli (GPa) = 88.01454 88.84628 103.36183
#
# Poissons Ratio (x) = 0.24278 0.48031
# Poissons Ratio (y) = 0.24050 0.24045
# Poissons Ratio (z) = 0.40900 0.20668
#
# Static dielectric constant tensor:
#      x y z
#    x 1.757640 0.000000 -0.020060 
#    y 0.000000 1.695760 0.000000 
#    z -0.020060 0.000000 1.549450 
# 
# From -- ./inp_files/224678.got.cif
#   From: 2010.05.17/outbox.ucp.g08.bks.cvg/sg15_113_cif.got.tgz:224678.got - 2010.06.11 12:40:34.
