data_PCOD9309161
_publ_section_title
;
Structure prediction by ZEFSAII (Michael W. Deem and Ramdas Pophale) SiO2 
 PCOD9309161
Probable space group: C 2/C
;
_chemical_formula_sum "Si O2"
_cell_formula_units_Z 30
_cell_length_a 9.000000
_cell_length_b 24.000000
_cell_length_c 27.000000
_cell_angle_alpha 90.000000
_cell_angle_beta 150.000000
_cell_angle_gamma 90.000000
_cell_volume 2916.000000
_symmetry_space_group_name_H-M "C 2/C"
_symmetry_group_IT_number 15
_symmetry_cell_setting 'monoclinic'
loop_
_space_group_symop_operation_xyz
x,y,z
-x,y,1/2-z
-x,-y,-z
x,-y,1/2+z
1/2+x,1/2+y,z
1/2-x,1/2+y,1/2-z
1/2-x,1/2-y,-z
1/2+x,1/2-y,1/2+z
loop_
_atom_site_type_symbol
_atom_site_label
_atom_site_fract_x
_atom_site_fract_y
_atom_site_fract_z
Si Si1 0.206615 0.599331 0.263870
Si Si2 0.359869 0.023482 0.349220
Si Si3 0.982400 0.598994 0.584522
Si Si4 0.137571 0.205154 0.508924
Si Si5 0.061293 0.279462 0.691041
Si Si6 0.500000 0.681477 0.750000
Si Si7 0.108438 0.601294 0.051132
Si Si8 0.414210 0.772292 0.912543
O O1 0.094492 0.564927 0.183816
O O2 0.203477 0.666377 0.257003
O O3 0.554636 0.586479 0.367515
O O4 0.000000 0.584285 0.250000
O O5 0.471379 0.057923 0.429118
O O6 0.000000 0.015245 0.250000
O O7 0.511017 0.962652 0.390894
O O8 0.709915 0.641554 0.514782
O O9 0.062232 0.594336 0.549363
O O10 0.230490 0.639701 0.676769
O O11 0.250000 0.250000 0.500000
O O12 0.237226 0.231239 0.590869
O O13 0.785563 0.205969 0.411549
O O14 0.197536 0.273951 0.675991
O O15 0.047810 0.223231 0.718214
O O16 0.085755 0.664856 0.064882
O O17 0.750000 0.750000 0.000000
#
# Coordination Sequence:
#
# PCOD9309161 Si02
#       8
#     8   8   8   8   8   4   8   8
#     4  11  23  40  67  96 127 159 217 269 314 377
#     4  10  23  44  66  93 127 169 218 266 313 384
#     4  12  23  41  65  95 130 168 218 260 324 382
#     4  11  21  38  62  92 128 165 207 257 320 389
#     4  11  22  39  62  93 128 166 210 265 318 374
#     4  12  24  38  66  94 130 172 206 270 322 382
#     4  11  22  41  69  94 121 175 216 264 313 384
#     4  10  21  38  61  95 130 157 210 266 315 374
#
# _framework density 10.288066000000001
#
# number of rings (size 3 to 8) (size 9 to 14) (size 15 to 20)
#    0.000    1.067    5.333    2.000    1.867    0.000 
#    0.000    4.000    5.867    0.000    0.000    0.000 
#    0.000    0.000    0.000    0.000    0.000    0.000 
#
# Total GULP energy -167344.622972 kJ/mol
# GULP energy per Si atom -5578.154099 kJ/mol
# Density = 1.026465 g / cm^3
# Si number density = 10.288066 Si / 1000 Ang^3
#
#
#
# Elastic Constant Matrix: (Units=GPa)
#
#
# Indices 1 2 3 4 5 6 
#
# 1 83.6565 1.9223 -14.3996 0.0052 13.8359 0.0219
# 2 1.9223 120.2518 -9.9730 0.0037 3.7727 0.0148
# 3 -14.3996 -9.9730 -5.2432 0.0020 22.1309 0.0269
# 4 0.0052 0.0037 0.0020 21.3426 -0.0041 31.6363
# 5 13.8359 3.7727 22.1309 -0.0041 24.3426 0.0226
# 6 0.0219 0.0148 0.0269 31.6363 0.0226 -35.4589
#
#
#
# Elastic Compliance Matrix: (Units=1/GPa)
#
#
# Indices 1 2 3 4 5 6 
#
# 1 0.009715 -0.001076 -0.009765 0.000000 0.003523 0.000000
# 2 -0.001076 0.008009 -0.003088 -0.000001 0.002178 0.000001
# 3 -0.009765 -0.003088 -0.027408 0.000010 0.030947 0.000001
# 4 0.000000 -0.000001 0.000010 0.020174 -0.000022 0.017999
# 5 0.003523 0.002178 0.030947 -0.000022 0.010605 0.000014
# 6 0.000000 0.000001 0.000001 0.017999 0.000014 -0.012143
#
#
# Mechanical properties :
#
#
# Convention : Reuss Voigt Hill
#
# Bulk Modulus (GPa) = -26.63672 17.08494 -4.77589
# Shear Modulus (GPa) = 205.80239 16.78630 111.29434
#
# Velocity S-wave (km/s) = 10.01185 2.85934 7.36250
# Velocity P-wave (km/s) = 10.98526 4.38434 8.36356
#
# Compressibility (1/GPa) = -0.03754216
#
# Stress axis : x y z
#
# Youngs Moduli (GPa) = 102.93483 124.86474 -36.48520
#
# Poissons Ratio (x) = 0.13431 -0.35628
# Poissons Ratio (y) = 0.11073 -0.11266
# Poissons Ratio (z) = 1.00517 0.38557
#
# Static dielectric constant tensor:
#      x y z
#    x 1.617920 -0.000020 -0.109700 
#    y -0.000020 1.914470 -0.000070 
#    z -0.109700 -0.000070 1.758540 
# 
# From -- ./inp_files/290270.got.cif
#   From: 2010.05.17/outbox.ucp.g08.bks.cvg/sg15_146_cif.got.tgz:290270.got - 2010.06.11 12:40:34.
