data_PCOD9309774
_publ_section_title
;
Structure prediction by ZEFSAII (Michael W. Deem and Ramdas Pophale) SiO2 
 PCOD9309774
Probable space group: C 2/C
;
_chemical_formula_sum "Si O2"
_cell_formula_units_Z 26
_cell_length_a 15.000000
_cell_length_b 18.000000
_cell_length_c 15.000000
_cell_angle_alpha 90.000000
_cell_angle_beta 140.000000
_cell_angle_gamma 90.000000
_cell_volume 2603.289819
_symmetry_space_group_name_H-M "C 2/C"
_symmetry_group_IT_number 15
_symmetry_cell_setting 'monoclinic'
loop_
_space_group_symop_operation_xyz
x,y,z
-x,y,1/2-z
-x,-y,-z
x,-y,1/2+z
1/2+x,1/2+y,z
1/2-x,1/2+y,1/2-z
1/2-x,1/2-y,-z
1/2+x,1/2-y,1/2+z
loop_
_atom_site_type_symbol
_atom_site_label
_atom_site_fract_x
_atom_site_fract_y
_atom_site_fract_z
Si Si1 0.830705 0.491527 0.846901
Si Si2 0.269942 0.907611 0.454141
Si Si3 0.185555 0.230436 0.800161
Si Si4 0.500000 0.851634 0.750000
Si Si5 0.350371 0.528636 0.466260
Si Si6 0.938335 0.907531 0.803665
Si Si7 0.536789 0.687013 0.015483
O O1 0.774535 0.561954 0.858131
O O2 0.771983 0.492011 0.699401
O O3 0.728416 0.426431 0.812337
O O4 0.000000 0.500000 0.000000
O O5 0.184854 0.831963 0.376793
O O6 0.421305 0.894672 0.611829
O O7 0.204908 0.963060 0.475352
O O8 0.113508 0.301796 0.788068
O O9 0.345389 0.250208 0.904249
O O10 0.098304 0.208770 0.645350
O O11 0.477455 0.471569 0.576642
O O12 0.403662 0.610629 0.481431
O O13 0.975545 0.833967 0.889540
O O14 0.000000 0.905013 0.750000
#
# Coordination Sequence:
#
# PCOD9309774 Si02
#       7
#     8   8   8   4   8   8   8
#     4  11  24  39  63  96 130 166 209 271 328 371
#     4  12  22  38  64  92 133 164 208 262 328 388
#     4  12  23  39  60  92 127 169 205 262 325 386
#     4  12  22  36  54  98 130 164 198 258 324 386
#     4  11  22  42  65  95 126 171 215 263 324 393
#     4  11  23  44  65  92 125 174 222 267 314 385
#     4  11  24  40  62  91 128 165 216 261 322 387
#
# _framework density 9.9873630000000002
#
# number of rings (size 3 to 8) (size 9 to 14) (size 15 to 20)
#    0.000    0.615    4.615    6.000    2.154    0.000 
#    0.000    0.769    0.000    0.000    0.000    0.000 
#    0.000    0.000    0.000    0.000    0.000    0.000 
#
# Total GULP energy -144944.142804 kJ/mol
# GULP energy per Si atom -5574.774723 kJ/mol
# Density = 0.996463 g / cm^3
# Si number density = 9.987363 Si / 1000 Ang^3
#
#
#
# Elastic Constant Matrix: (Units=GPa)
#
#
# Indices 1 2 3 4 5 6 
#
# 1 81.2301 12.3354 39.0155 0.0000 -9.4249 0.0000
# 2 12.3354 38.9020 31.3321 0.0000 -5.8382 0.0000
# 3 39.0155 31.3321 155.0958 -0.0001 0.2280 -0.0001
# 4 0.0000 0.0000 -0.0001 45.0051 -0.0001 -3.7134
# 5 -9.4249 -5.8382 0.2280 -0.0001 39.0473 -0.0001
# 6 0.0000 0.0000 -0.0001 -3.7134 -0.0001 14.0867
#
#
#
# Elastic Compliance Matrix: (Units=1/GPa)
#
#
# Indices 1 2 3 4 5 6 
#
# 1 0.014530 -0.001387 -0.003380 0.000000 0.003319 0.000000
# 2 -0.001387 0.031692 -0.006060 0.000000 0.004439 0.000000
# 3 -0.003380 -0.006060 0.008525 0.000000 -0.001772 0.000000
# 4 0.000000 0.000000 0.000000 0.022714 0.000000 0.005988
# 5 0.003319 0.004439 -0.001772 0.000000 0.027085 0.000000
# 6 0.000000 0.000000 0.000000 0.005988 0.000000 0.072568
#
#
# Mechanical properties :
#
#
# Convention : Reuss Voigt Hill
#
# Bulk Modulus (GPa) = 30.21759 48.95487 39.58623
# Shear Modulus (GPa) = 23.83244 32.46414 28.14829
#
# Velocity S-wave (km/s) = 3.45792 4.03583 3.75800
# Velocity P-wave (km/s) = 5.57707 6.80285 6.22023
#
# Compressibility (1/GPa) = 0.03309330
#
# Stress axis : x y z
#
# Youngs Moduli (GPa) = 68.82406 31.55328 117.30652
#
# Poissons Ratio (x) = 0.04376 0.39647
# Poissons Ratio (y) = 0.09546 0.71088
# Poissons Ratio (z) = 0.23261 0.19121
#
# Static dielectric constant tensor:
#      x y z
#    x 1.796360 0.000000 0.014670 
#    y 0.000000 1.747500 0.000000 
#    z 0.014670 0.000000 1.712480 
# 
# From -- ./inp_files/155551.got.cif
#   From: 2010.05.17/outbox.ucp.g08.bks.cvg/sg15_78_cif.got.tgz:155551.got - 2010.06.11 12:40:34.
