data_PCOD9309960
_publ_section_title
;
Structure prediction by ZEFSAII (Michael W. Deem and Ramdas Pophale) SiO2 
 PCOD9309960
Probable space group: P 2 2 2
;
_chemical_formula_sum "Si O2"
_cell_formula_units_Z 30
_cell_length_a 14.941773
_cell_length_b 19.377650
_cell_length_c 5.456508
_cell_angle_alpha 90.000000
_cell_angle_beta 90.000000
_cell_angle_gamma 90.000000
_cell_volume 1579.857942
_symmetry_space_group_name_H-M "P 2 2 2"
_symmetry_group_IT_number 16
_symmetry_cell_setting 'orthorhombic'
loop_
_space_group_symop_operation_xyz
x,y,z
-x,-y,z
x,-y,-z
-x,y,-z
loop_
_atom_site_type_symbol
_atom_site_label
_atom_site_fract_x
_atom_site_fract_y
_atom_site_fract_z
Si Si1 0.351069 0.182801 0.119281
Si Si2 0.104734 0.862216 0.462165
Si Si3 0.500000 0.635063 0.500000
Si Si4 0.814804 0.713522 0.581082
Si Si5 0.399347 0.424459 0.099382
Si Si6 0.608658 0.236604 0.370445
Si Si7 0.195808 0.081392 0.042536
Si Si8 0.234377 0.322087 0.080125
O O1 0.403232 0.195915 0.373105
O O2 0.294118 0.113937 0.082039
O O3 0.277620 0.245455 0.111306
O O4 0.406247 0.193396 0.872421
O O5 0.124591 0.780277 0.464659
O O6 0.148979 0.897734 0.700812
O O7 0.000000 0.875261 0.500000
O O8 0.146473 0.887705 0.201315
O O9 0.576416 0.587211 0.384382
O O10 0.445808 0.692506 0.345500
O O11 0.712888 0.741561 0.614014
O O12 0.813363 0.665990 0.340585
O O13 0.829339 0.678128 0.844069
O O14 0.318359 0.373137 0.044707
O O15 0.377972 0.500000 0.000000
O O16 0.500000 0.409007 0.000000
O O17 0.197964 0.000000 0.000000
#
# Coordination Sequence:
#
# PCOD9309960 Si02
#       8
#     4   4   2   4   4   4   4   4
#     4  10  17  36  54  78  99 143 190 241 257 309
#     4  12  23  37  56  82 117 148 182 224 279 336
#     4  12  22  35  56  86 107 158 188 228 276 331
#     4  10  17  36  56  74 101 140 186 238 260 301
#     4  11  24  36  49  79 122 154 178 217 274 341
#     4  10  19  31  60  75 105 132 194 238 266 305
#     4  12  23  37  56  80 116 155 182 217 282 342
#     4  10  18  35  58  70  99 149 185 227 260 306
#
# _framework density 18.989049000000001
#
# number of rings (size 3 to 8) (size 9 to 14) (size 15 to 20)
#    0.000    1.200    8.000    2.400    0.000    2.667 
#    0.000    0.000    0.000    0.000    0.000    2.800 
#    0.000    3.200    0.000    0.000    0.000    0.000 
#
# Total GULP energy -167053.758231 kJ/mol
# GULP energy per Si atom -5568.458608 kJ/mol
# Density = 1.894583 g / cm^3
# Si number density = 18.989049 Si / 1000 Ang^3
#
#
#
# Elastic Constant Matrix: (Units=GPa)
#
#
# Indices 1 2 3 4 5 6 
#
# 1 20.4934 23.4657 18.1125 0.0000 0.0000 0.0000
# 2 23.4657 82.7345 39.2859 0.0000 0.0000 0.0000
# 3 18.1125 39.2859 158.6023 0.0000 0.0000 0.0000
# 4 0.0000 0.0000 0.0000 14.2165 0.0000 0.0000
# 5 0.0000 0.0000 0.0000 0.0000 37.4466 0.0000
# 6 0.0000 0.0000 0.0000 0.0000 0.0000 94.5072
#
#
#
# Elastic Compliance Matrix: (Units=1/GPa)
#
#
# Indices 1 2 3 4 5 6 
#
# 1 0.074125 -0.019271 -0.003692 0.000000 0.000000 0.000000
# 2 -0.019271 0.018708 -0.002433 0.000000 0.000000 0.000000
# 3 -0.003692 -0.002433 0.007329 0.000000 0.000000 0.000000
# 4 0.000000 0.000000 0.000000 0.070341 0.000000 0.000000
# 5 0.000000 0.000000 0.000000 0.000000 0.026705 0.000000
# 6 0.000000 0.000000 0.000000 0.000000 0.000000 0.010581
#
#
# Mechanical properties :
#
#
# Convention : Reuss Voigt Hill
#
# Bulk Modulus (GPa) = 20.25500 47.06206 33.65853
# Shear Modulus (GPa) = 18.17939 41.29846 29.73892
#
# Velocity S-wave (km/s) = 3.09748 4.66860 3.96170
# Velocity P-wave (km/s) = 4.84586 7.34157 6.22017
#
# Compressibility (1/GPa) = 0.04937053
#
# Stress axis : x y z
#
# Youngs Moduli (GPa) = 13.49081 53.45320 136.43698
#
# Poissons Ratio (x) = 1.03008 0.50369
# Poissons Ratio (y) = 0.25998 0.33198
# Poissons Ratio (z) = 0.04980 0.13006
#
# Static dielectric constant tensor:
#      x y z
#    x 1.666950 0.000000 0.000000 
#    y 0.000000 1.620630 0.000000 
#    z 0.000000 0.000000 1.004820 
# 
# From -- ./inp_files/2094.got.cif
#   From: 2010.05.17/outbox.cif.g08.bks.cpg/sg16_2_cif.got.tgz:2094.got - 2010.06.03 22:28:35.
