data_PCOD9309327
_publ_section_title
;
Structure prediction by ZEFSAII (Michael W. Deem and Ramdas Pophale) SiO2 
 PCOD9309327
Probable space group: C 2/C
;
_chemical_formula_sum "Si O2"
_cell_formula_units_Z 24
_cell_length_a 9.000000
_cell_length_b 12.000000
_cell_length_c 24.000000
_cell_angle_alpha 90.000000
_cell_angle_beta 70.000000
_cell_angle_gamma 90.000000
_cell_volume 2435.683273
_symmetry_space_group_name_H-M "C 2/C"
_symmetry_group_IT_number 15
_symmetry_cell_setting 'monoclinic'
loop_
_space_group_symop_operation_xyz
x,y,z
-x,y,1/2-z
-x,-y,-z
x,-y,1/2+z
1/2+x,1/2+y,z
1/2-x,1/2+y,1/2-z
1/2-x,1/2-y,-z
1/2+x,1/2-y,1/2+z
loop_
_atom_site_type_symbol
_atom_site_label
_atom_site_fract_x
_atom_site_fract_y
_atom_site_fract_z
Si Si1 0.175807 0.051177 0.727820
Si Si2 0.840834 0.864962 0.927758
Si Si3 0.823052 0.391847 0.433166
Si Si4 0.120035 0.707235 0.184981
Si Si5 0.573908 0.917878 0.875678
Si Si6 0.645898 0.500979 0.353542
O O1 0.169310 0.165921 0.693049
O O2 0.000000 0.996578 0.750000
O O3 0.312869 0.974926 0.685431
O O4 0.187130 0.069479 0.792647
O O5 0.891365 0.734270 0.919119
O O6 0.687795 0.873154 0.908462
O O7 0.969095 0.954657 0.889145
O O8 0.782812 0.892596 0.997519
O O9 0.712943 0.429592 0.395992
O O10 0.960250 0.485321 0.414365
O O11 0.259572 0.617386 0.166416
O O12 0.000000 0.677923 0.250000
O O13 0.026986 0.681002 0.139775
#
# Coordination Sequence:
#
# PCOD9309327 Si02
#       6
#     8   8   8   8   8   8
#     4  11  22  37  60  92 120 154 198 240 303 364
#     4  11  23  42  63  88 120 161 207 248 296 352
#     4  10  25  41  62  90 119 160 208 250 293 351
#     4  10  22  37  59  90 123 153 195 239 299 364
#     4  11  22  41  63  87 123 159 195 249 301 356
#     4  11  22  41  63  89 124 159 197 252 301 357
#
# _framework density 9.8534980000000001
#
# number of rings (size 3 to 8) (size 9 to 14) (size 15 to 20)
#    0.000    1.333    3.333    2.000    4.667    0.000 
#    0.000    0.000    0.000   11.000    0.000    0.000 
#    0.000    0.000    0.000    0.000    0.000    0.000 
#
# Total GULP energy -133938.729008 kJ/mol
# GULP energy per Si atom -5580.780375 kJ/mol
# Density = 0.983107 g / cm^3
# Si number density = 9.853498 Si / 1000 Ang^3
#
#
#
# Elastic Constant Matrix: (Units=GPa)
#
#
# Indices 1 2 3 4 5 6 
#
# 1 46.4191 2.3493 5.7947 0.0000 4.1918 0.0000
# 2 2.3493 68.5354 24.6641 0.0000 -2.8584 0.0000
# 3 5.7947 24.6641 83.8800 0.0000 14.9812 0.0000
# 4 0.0000 0.0000 0.0000 31.3924 0.0000 -1.0581
# 5 4.1918 -2.8584 14.9812 0.0000 25.9450 0.0000
# 6 0.0000 0.0000 0.0000 -1.0581 0.0000 25.4552
#
#
#
# Elastic Compliance Matrix: (Units=1/GPa)
#
#
# Indices 1 2 3 4 5 6 
#
# 1 0.021956 -0.000607 -0.000773 0.000000 -0.003168 0.000000
# 2 -0.000607 0.016961 -0.005906 0.000000 0.005377 0.000000
# 3 -0.000773 -0.005906 0.015393 0.000000 -0.009414 0.000000
# 4 0.000000 0.000000 0.000000 0.031900 0.000000 0.001326
# 5 -0.003168 0.005377 -0.009414 0.000000 0.045083 0.000000
# 6 0.000000 0.000000 0.000000 0.001326 0.000000 0.039340
#
#
# Mechanical properties :
#
#
# Convention : Reuss Voigt Hill
#
# Bulk Modulus (GPa) = 25.16326 29.38342 27.27334
# Shear Modulus (GPa) = 25.19525 27.62694 26.41109
#
# Velocity S-wave (km/s) = 3.57948 3.74824 3.66483
# Velocity P-wave (km/s) = 5.46626 5.80301 5.63715
#
# Compressibility (1/GPa) = 0.03974047
#
# Stress axis : x y z
#
# Youngs Moduli (GPa) = 45.54546 58.95746 64.96424
#
# Poissons Ratio (x) = 0.03577 0.05019
# Poissons Ratio (y) = 0.02763 0.38366
# Poissons Ratio (z) = 0.03519 0.34819
#
# Static dielectric constant tensor:
#      x y z
#    x 1.743530 0.000000 0.045630 
#    y 0.000000 1.673010 0.000000 
#    z 0.045630 0.000000 1.693860 
# 
# From -- ./inp_files/263168.got.cif
#   From: 2010.05.17/outbox.ucp.g08.bks.cvg/sg15_132_cif.got.tgz:263168.got - 2010.06.11 12:40:34.
