data_PCOD9309868
_publ_section_title
;
Structure prediction by ZEFSAII (Michael W. Deem and Ramdas Pophale) SiO2 
 PCOD9309868
Probable space group: C 2/C
;
_chemical_formula_sum "Si O2"
_cell_formula_units_Z 26
_cell_length_a 27.000000
_cell_length_b 9.000000
_cell_length_c 12.000000
_cell_angle_alpha 90.000000
_cell_angle_beta 120.000000
_cell_angle_gamma 90.000000
_cell_volume 2525.330077
_symmetry_space_group_name_H-M "C 2/C"
_symmetry_group_IT_number 15
_symmetry_cell_setting 'monoclinic'
loop_
_space_group_symop_operation_xyz
x,y,z
-x,y,1/2-z
-x,-y,-z
x,-y,1/2+z
1/2+x,1/2+y,z
1/2-x,1/2+y,1/2-z
1/2-x,1/2-y,-z
1/2+x,1/2-y,1/2+z
loop_
_atom_site_type_symbol
_atom_site_label
_atom_site_fract_x
_atom_site_fract_y
_atom_site_fract_z
Si Si1 0.085826 0.744995 0.665200
Si Si2 0.500000 0.394799 0.250000
Si Si3 0.874507 0.254106 0.612146
Si Si4 0.000000 0.348870 0.250000
Si Si5 0.683488 0.748740 0.708392
Si Si6 0.689391 0.604528 0.166572
Si Si7 0.404728 0.978667 0.995750
Si Si8 0.000000 0.000000 0.500000
O O1 0.148481 0.822113 0.717397
O O2 0.089817 0.587670 0.605037
O O3 0.042191 0.854466 0.553025
O O4 0.056022 0.723167 0.752012
O O5 0.559219 0.300313 0.301974
O O6 0.503165 0.492323 0.365535
O O7 0.841236 0.251986 0.692355
O O8 0.841841 0.151805 0.484274
O O9 0.876342 0.418223 0.559649
O O10 0.032839 0.433767 0.387513
O O11 0.688864 0.574384 0.680886
O O12 0.745864 0.828257 0.764363
O O13 0.635684 0.839890 0.583365
#
# Coordination Sequence:
#
# PCOD9309868 Si02
#       8
#     8   4   8   4   8   8   8   4
#     4  11  25  44  70 102 149 185 253 294 381 440
#     4  12  24  42  76 114 158 196 252 312 386 460
#     4  11  25  47  73 105 149 198 244 310 390 456
#     4  12  26  42  70 108 146 194 242 306 376 458
#     4  12  27  47  79 100 148 190 255 312 385 449
#     4  11  25  49  71 108 138 195 247 316 370 461
#     4  11  25  45  70 108 144 195 240 309 372 458
#     4  12  24  42  72 108 150 198 244 314 368 460
#
# _framework density 10.295684
#
# number of rings (size 3 to 8) (size 9 to 14) (size 15 to 20)
#    0.000    0.615    3.077    5.538    4.308    2.462 
#    0.000    2.308    0.000    0.000    0.000    0.000 
#    0.000    0.000    0.000    0.000    0.000    0.000 
#
# Total GULP energy -144800.739499 kJ/mol
# GULP energy per Si atom -5569.259211 kJ/mol
# Density = 1.027225 g / cm^3
# Si number density = 10.295684 Si / 1000 Ang^3
#
#
#
# Elastic Constant Matrix: (Units=GPa)
#
#
# Indices 1 2 3 4 5 6 
#
# 1 171.7089 75.8290 56.2553 0.0000 -5.9799 0.0000
# 2 75.8290 130.6268 41.9632 0.0000 6.5595 0.0000
# 3 56.2553 41.9632 94.1849 0.0000 -4.1979 0.0000
# 4 0.0000 0.0000 0.0000 26.4184 0.0000 5.5022
# 5 -5.9799 6.5595 -4.1979 0.0000 51.9574 0.0000
# 6 0.0000 0.0000 0.0000 5.5022 0.0000 41.6712
#
#
#
# Elastic Compliance Matrix: (Units=1/GPa)
#
#
# Indices 1 2 3 4 5 6 
#
# 1 0.008769 -0.004071 -0.003368 0.000000 0.001251 0.000000
# 2 -0.004071 0.010935 -0.002532 0.000000 -0.002054 0.000000
# 3 -0.003368 -0.002532 0.013804 0.000000 0.001047 0.000000
# 4 0.000000 0.000000 0.000000 0.038923 0.000000 -0.005139
# 5 0.001251 -0.002054 0.001047 0.000000 0.019734 0.000000
# 6 0.000000 0.000000 0.000000 -0.005139 0.000000 0.024676
#
#
# Mechanical properties :
#
#
# Convention : Reuss Voigt Hill
#
# Bulk Modulus (GPa) = 73.71487 82.73507 78.22497
# Shear Modulus (GPa) = 35.38463 38.84094 37.11279
#
# Velocity S-wave (km/s) = 4.14988 4.34784 4.25001
# Velocity P-wave (km/s) = 7.67064 8.09145 7.88385
#
# Compressibility (1/GPa) = 0.01356578
#
# Stress axis : x y z
#
# Youngs Moduli (GPa) = 114.04350 91.44779 72.44439
#
# Poissons Ratio (x) = 0.37230 0.24397
# Poissons Ratio (y) = 0.46429 0.18343
# Poissons Ratio (z) = 0.38407 0.23154
#
# Static dielectric constant tensor:
#      x y z
#    x 1.737690 0.000000 -0.012140 
#    y 0.000000 1.778860 0.000000 
#    z -0.012140 0.000000 1.756390 
# 
# From -- ./inp_files/122087.got.cif
#   From: 2010.05.17/outbox.ucp.g08.bks.cvg/sg15_62_cif.got.tgz:122087.got - 2010.06.11 12:40:34.
