data_PCOD9309672
_publ_section_title
;
Structure prediction by ZEFSAII (Michael W. Deem and Ramdas Pophale) SiO2 
 PCOD9309672
Probable space group: C 2/C
;
_chemical_formula_sum "Si O2"
_cell_formula_units_Z 24
_cell_length_a 18.000000
_cell_length_b 15.000000
_cell_length_c 9.000000
_cell_angle_alpha 90.000000
_cell_angle_beta 90.000000
_cell_angle_gamma 90.000000
_cell_volume 2430.000000
_symmetry_space_group_name_H-M "C 2/C"
_symmetry_group_IT_number 15
_symmetry_cell_setting 'monoclinic'
loop_
_space_group_symop_operation_xyz
x,y,z
-x,y,1/2-z
-x,-y,-z
x,-y,1/2+z
1/2+x,1/2+y,z
1/2-x,1/2+y,1/2-z
1/2-x,1/2-y,-z
1/2+x,1/2-y,1/2+z
loop_
_atom_site_type_symbol
_atom_site_label
_atom_site_fract_x
_atom_site_fract_y
_atom_site_fract_z
Si Si1 0.730508 0.826503 0.889305
Si Si2 0.272756 0.993146 0.928337
Si Si3 0.059068 0.354103 0.868991
Si Si4 0.543064 0.223442 0.877782
Si Si5 0.308023 0.683118 0.079542
Si Si6 0.122909 0.546421 0.837605
O O1 0.643279 0.821113 0.847989
O O2 0.784256 0.813827 0.751289
O O3 0.750000 0.750000 0.000000
O O4 0.741114 0.919346 0.975426
O O5 0.307719 0.024729 0.771596
O O6 0.207486 0.921765 0.948472
O O7 0.343071 0.941672 0.999074
O O8 0.069452 0.461250 0.853643
O O9 0.000000 0.323116 0.750000
O O10 0.019010 0.318990 0.015908
O O11 0.500000 0.276402 0.750000
O O12 0.608970 0.281964 0.947426
O O13 0.583680 0.138213 0.801621
O O14 0.250000 0.750000 0.000000
#
# Coordination Sequence:
#
# PCOD9309672 Si02
#       6
#     8   8   8   8   8   8
#     4  11  24  41  65  91 127 169 218 261 310 376
#     4  11  21  39  61  93 121 168 213 257 306 367
#     4  11  21  37  57  92 131 159 201 254 325 385
#     4  12  23  36  60  93 128 166 204 260 325 376
#     4  12  23  41  63  90 128 168 214 256 305 381
#     4  11  20  37  60  91 130 163 203 251 326 382
#
# _framework density 9.8765429999999999
#
# number of rings (size 3 to 8) (size 9 to 14) (size 15 to 20)
#    0.000    0.667    5.000    7.000    0.000    0.000 
#    0.000    0.000    0.000    5.000    0.000    0.000 
#    0.000    0.000    0.000    0.000    0.000    0.000 
#
# Total GULP energy -133733.917312 kJ/mol
# GULP energy per Si atom -5572.246555 kJ/mol
# Density = 0.985406 g / cm^3
# Si number density = 9.876543 Si / 1000 Ang^3
#
#
#
# Elastic Constant Matrix: (Units=GPa)
#
#
# Indices 1 2 3 4 5 6 
#
# 1 -151.4983 -172.9173 -89.0776 0.0000 -1.5684 0.0000
# 2 -172.9173 -115.6066 -54.5445 0.0000 -6.2656 0.0000
# 3 -89.0776 -54.5445 29.3172 0.0000 -4.6655 0.0000
# 4 0.0000 0.0000 0.0000 84.0907 0.0000 -61.9229
# 5 -1.5684 -6.2656 -4.6655 0.0000 35.5526 0.0000
# 6 0.0000 0.0000 0.0000 -61.9229 0.0000 77.1050
#
#
#
# Elastic Compliance Matrix: (Units=1/GPa)
#
#
# Indices 1 2 3 4 5 6 
#
# 1 0.009567 -0.014786 0.001239 0.000000 -0.002021 0.000000
# 2 -0.014786 0.018376 -0.010545 0.000000 0.001202 0.000000
# 3 0.001239 -0.010545 0.018352 0.000000 0.000605 0.000000
# 4 0.000000 0.000000 0.000000 0.029103 0.000000 0.023373
# 5 -0.002021 0.001202 0.000605 0.000000 0.028329 0.000000
# 6 0.000000 0.000000 0.000000 0.023373 0.000000 0.031740
#
#
# Mechanical properties :
#
#
# Convention : Reuss Voigt Hill
#
# Bulk Modulus (GPa) = -529.67780 -96.76295 -313.22037
# Shear Modulus (GPa) = 27.31922 44.59979 35.95951
#
# Velocity S-wave (km/s) = 3.72295 4.75685 4.27130
# Velocity P-wave (km/s) = 15.81932 4.34999 11.60115
#
# Compressibility (1/GPa) = -0.00188794
#
# Stress axis : x y z
#
# Youngs Moduli (GPa) = 104.52167 54.41980 54.48959
#
# Poissons Ratio (x) = 0.80463 -0.06754
# Poissons Ratio (y) = 1.54541 0.57462
# Poissons Ratio (z) = -0.12955 0.57388
#
# Static dielectric constant tensor:
#      x y z
#    x 1.687230 0.000000 0.085720 
#    y 0.000000 2.559630 0.000000 
#    z 0.085720 0.000000 1.697080 
# 
# From -- ./inp_files/47440.got.cif
#   From: 2010.05.17/outbox.ucp.g08.bks.cvg/sg15_24_cif.got.tgz:47440.got - 2010.06.11 12:40:34.
