data_PCOD9309580
_publ_section_title
;
Structure prediction by ZEFSAII (Michael W. Deem and Ramdas Pophale) SiO2 
 PCOD9309580
Probable space group: C 2/C
;
_chemical_formula_sum "Si O2"
_cell_formula_units_Z 20
_cell_length_a 15.000000
_cell_length_b 18.000000
_cell_length_c 15.000000
_cell_angle_alpha 90.000000
_cell_angle_beta 150.000000
_cell_angle_gamma 90.000000
_cell_volume 2025.000000
_symmetry_space_group_name_H-M "C 2/C"
_symmetry_group_IT_number 15
_symmetry_cell_setting 'monoclinic'
loop_
_space_group_symop_operation_xyz
x,y,z
-x,y,1/2-z
-x,-y,-z
x,-y,1/2+z
1/2+x,1/2+y,z
1/2-x,1/2+y,1/2-z
1/2-x,1/2-y,-z
1/2+x,1/2-y,1/2+z
loop_
_atom_site_type_symbol
_atom_site_label
_atom_site_fract_x
_atom_site_fract_y
_atom_site_fract_z
Si Si1 0.707747 0.670026 0.423608
Si Si2 0.448424 0.432948 0.022191
Si Si3 0.692520 0.142425 0.680775
Si Si4 0.335688 0.958042 0.160790
Si Si5 0.698324 0.183089 0.199095
O O1 0.500000 0.658302 0.250000
O O2 0.750000 0.750000 0.500000
O O3 0.795042 0.609296 0.560164
O O4 0.766672 0.664637 0.373568
O O5 0.316809 0.479214 0.971028
O O6 0.333490 0.367149 0.874867
O O7 0.500000 0.500000 0.000000
O O8 0.636144 0.397493 0.216151
O O9 0.651808 0.086542 0.731550
O O10 0.508175 0.157159 0.467464
O O11 0.760600 0.227679 0.760154
O O12 0.500000 0.994587 0.250000
#
# Coordination Sequence:
#
# PCOD9309580 Si02
#       5
#     8   8   8   8   8
#     4  12  21  33  58  89 126 155 194 244 309 375
#     4  10  24  40  57  88 129 162 206 251 303 368
#     4  11  21  37  64  90 120 160 205 249 305 362
#     4  11  22  40  56  87 128 161 197 252 306 365
#     4  12  21  37  64  92 121 162 206 246 308 373
#
# _framework density 9.8765429999999999
#
# number of rings (size 3 to 8) (size 9 to 14) (size 15 to 20)
#    0.000    0.800    6.000    4.200    0.000    3.200 
#    3.600    0.000    0.000    1.200    0.000    0.000 
#    0.000    0.000    0.000    0.000    0.000    0.000 
#
# Total GULP energy -111391.855364 kJ/mol
# GULP energy per Si atom -5569.592768 kJ/mol
# Density = 0.985406 g / cm^3
# Si number density = 9.876543 Si / 1000 Ang^3
#
#
#
# Elastic Constant Matrix: (Units=GPa)
#
#
# Indices 1 2 3 4 5 6 
#
# 1 67.9713 25.8971 16.7731 0.0001 35.6989 0.0000
# 2 25.8971 80.8218 4.3815 0.0000 17.2071 0.0000
# 3 16.7731 4.3815 79.6617 0.0002 41.8348 0.0001
# 4 0.0001 0.0000 0.0002 40.9147 0.0001 18.2747
# 5 35.6989 17.2071 41.8348 0.0001 38.0984 0.0000
# 6 0.0000 0.0000 0.0001 18.2747 0.0000 27.4449
#
#
#
# Elastic Compliance Matrix: (Units=1/GPa)
#
#
# Indices 1 2 3 4 5 6 
#
# 1 0.051004 -0.000093 0.033878 0.000000 -0.084951 0.000000
# 2 -0.000093 0.014969 0.006380 0.000000 -0.013679 0.000000
# 3 0.033878 0.006380 0.054928 0.000000 -0.094941 0.000000
# 4 0.000000 0.000000 0.000000 0.034787 0.000000 -0.023164
# 5 -0.084951 -0.013679 -0.094941 0.000000 0.216279 0.000000
# 6 0.000000 0.000000 0.000000 -0.023164 0.000000 0.051861
#
#
# Mechanical properties :
#
#
# Convention : Reuss Voigt Hill
#
# Bulk Modulus (GPa) = 4.96940 35.83981 20.40460
# Shear Modulus (GPa) = 12.17804 33.38513 22.78158
#
# Velocity S-wave (km/s) = 2.48566 4.11557 3.39974
# Velocity P-wave (km/s) = 3.28013 6.38492 5.07575
#
# Compressibility (1/GPa) = 0.20123141
#
# Stress axis : x y z
#
# Youngs Moduli (GPa) = 19.60620 66.80364 18.20571
#
# Poissons Ratio (x) = 0.00624 -0.61678
# Poissons Ratio (y) = 0.00183 -0.11615
# Poissons Ratio (z) = -0.66423 -0.42620
#
# Static dielectric constant tensor:
#      x y z
#    x 1.711710 0.000000 0.026660 
#    y 0.000000 1.715450 0.000000 
#    z 0.026660 0.000000 1.695840 
# 
# From -- ./inp_files/37837.got.cif
#   From: 2010.05.17/outbox.ucp.g08.bks.cvg/sg15_19_cif.got.tgz:37837.got - 2010.06.11 12:40:34.
