data_PCOD9309095
_publ_section_title
;
Structure prediction by ZEFSAII (Michael W. Deem and Ramdas Pophale) SiO2 
 PCOD9309095
Probable space group: C 2/C
;
_chemical_formula_sum "Si O2"
_cell_formula_units_Z 22
_cell_length_a 15.000000
_cell_length_b 12.000000
_cell_length_c 12.000000
_cell_angle_alpha 90.000000
_cell_angle_beta 80.000000
_cell_angle_gamma 90.000000
_cell_volume 2127.184747
_symmetry_space_group_name_H-M "C 2/C"
_symmetry_group_IT_number 15
_symmetry_cell_setting 'monoclinic'
loop_
_space_group_symop_operation_xyz
x,y,z
-x,y,1/2-z
-x,-y,-z
x,-y,1/2+z
1/2+x,1/2+y,z
1/2-x,1/2+y,1/2-z
1/2-x,1/2-y,-z
1/2+x,1/2-y,1/2+z
loop_
_atom_site_type_symbol
_atom_site_label
_atom_site_fract_x
_atom_site_fract_y
_atom_site_fract_z
Si Si1 0.815325 0.253023 0.090926
Si Si2 0.593422 0.456434 0.029929
Si Si3 0.263417 0.879166 0.533155
Si Si4 0.000000 0.832119 0.250000
Si Si5 0.591161 0.046769 0.041631
Si Si6 0.651466 0.177117 0.256601
O O1 0.741551 0.247008 0.203757
O O2 0.750000 0.250000 0.000000
O O3 0.871305 0.139094 0.063111
O O4 0.872699 0.363576 0.057723
O O5 0.671417 0.548968 0.034540
O O6 0.564822 0.400459 0.153517
O O7 0.500000 0.500000 0.000000
O O8 0.250000 0.750000 0.500000
O O9 0.307028 0.889338 0.648339
O O10 0.342276 0.942968 0.449800
O O11 0.068961 0.757753 0.308918
O O12 0.605847 0.113128 0.158718
O O13 0.500000 0.000000 0.000000
#
# Coordination Sequence:
#
# PCOD9309095 Si02
#       6
#     8   8   8   4   8   8
#     4  10  20  47  68  93 138 184 226 284 354 416
#     4  12  26  43  71  99 136 179 235 292 342 420
#     4  12  27  44  67 106 143 181 232 294 346 420
#     4  12  22  42  74  98 130 182 234 280 356 424
#     4  11  23  44  73  99 137 180 233 289 345 423
#     4  11  23  44  71 100 137 186 229 287 363 412
#
# _framework density 10.342307999999999
#
# number of rings (size 3 to 8) (size 9 to 14) (size 15 to 20)
#    0.000    0.727    7.273    2.182    5.091    2.909 
#    0.000    0.000    0.000    0.000    0.000    0.000 
#    0.000    0.000    0.000    0.000    0.000    0.000 
#
# Total GULP energy -122518.161062 kJ/mol
# GULP energy per Si atom -5569.007321 kJ/mol
# Density = 1.031877 g / cm^3
# Si number density = 10.342308 Si / 1000 Ang^3
#
#
#
# Elastic Constant Matrix: (Units=GPa)
#
#
# Indices 1 2 3 4 5 6 
#
# 1 188.7894 86.9526 16.5189 0.0000 5.5833 0.0000
# 2 86.9526 143.6431 11.2096 0.0000 -10.1809 0.0000
# 3 16.5189 11.2096 38.9638 0.0000 5.2573 0.0000
# 4 0.0000 0.0000 0.0000 31.2476 0.0000 -8.7378
# 5 5.5833 -10.1809 5.2573 0.0000 38.8769 0.0000
# 6 0.0000 0.0000 0.0000 -8.7378 0.0000 65.5253
#
#
#
# Elastic Compliance Matrix: (Units=1/GPa)
#
#
# Indices 1 2 3 4 5 6 
#
# 1 0.007641 -0.004648 -0.001620 0.000000 -0.002095 0.000000
# 2 -0.004648 0.010135 -0.001419 0.000000 0.003513 0.000000
# 3 -0.001620 -0.001419 0.027276 0.000000 -0.003828 0.000000
# 4 0.000000 0.000000 0.000000 0.033242 0.000000 0.004433
# 5 -0.002095 0.003513 -0.003828 0.000000 0.027461 0.000000
# 6 0.000000 0.000000 0.000000 0.004433 0.000000 0.015852
#
#
# Mechanical properties :
#
#
# Convention : Reuss Voigt Hill
#
# Bulk Modulus (GPa) = 33.69394 66.75094 50.22244
# Shear Modulus (GPa) = 34.04277 44.24432 39.14354
#
# Velocity S-wave (km/s) = 4.06125 4.62995 4.35489
# Velocity P-wave (km/s) = 6.19002 7.80530 7.04412
#
# Compressibility (1/GPa) = 0.02967893
#
# Stress axis : x y z
#
# Youngs Moduli (GPa) = 130.86946 98.66926 36.66184
#
# Poissons Ratio (x) = 0.45858 0.05938
# Poissons Ratio (y) = 0.60823 0.05204
# Poissons Ratio (z) = 0.21197 0.14005
#
# Static dielectric constant tensor:
#      x y z
#    x 1.732210 0.000000 -0.067880 
#    y 0.000000 1.832420 0.000000 
#    z -0.067880 0.000000 1.924620 
# 
# From -- ./inp_files/94980.got.cif
#   From: 2010.05.17/outbox.ucp.g08.bks.cvg/sg15_48_cif.got.tgz:94980.got - 2010.06.11 12:40:34.
