data_PCOD9309289
_publ_section_title
;
Structure prediction by ZEFSAII (Michael W. Deem and Ramdas Pophale) SiO2 
 PCOD9309289
Probable space group: C 2/C
;
_chemical_formula_sum "Si O2"
_cell_formula_units_Z 22
_cell_length_a 30.000000
_cell_length_b 12.000000
_cell_length_c 18.000000
_cell_angle_alpha 90.000000
_cell_angle_beta 160.000000
_cell_angle_gamma 90.000000
_cell_volume 2216.290529
_symmetry_space_group_name_H-M "C 2/C"
_symmetry_group_IT_number 15
_symmetry_cell_setting 'monoclinic'
loop_
_space_group_symop_operation_xyz
x,y,z
-x,y,1/2-z
-x,-y,-z
x,-y,1/2+z
1/2+x,1/2+y,z
1/2-x,1/2+y,1/2-z
1/2-x,1/2-y,-z
1/2+x,1/2-y,1/2+z
loop_
_atom_site_type_symbol
_atom_site_label
_atom_site_fract_x
_atom_site_fract_y
_atom_site_fract_z
Si Si1 0.000000 0.077051 0.750000
Si Si2 0.135504 0.236441 0.084629
Si Si3 0.481357 0.038725 0.309910
Si Si4 0.889900 0.325198 0.910098
Si Si5 0.271284 0.017644 0.101772
Si Si6 0.842931 0.733964 0.717089
O O1 0.934571 0.149806 0.581227
O O2 0.880369 0.017880 0.608176
O O3 0.278223 0.246429 0.273100
O O4 0.163815 0.202831 0.214750
O O5 0.050628 0.348872 0.947844
O O6 0.500000 0.041340 0.250000
O O7 0.334833 0.033287 0.117862
O O8 0.557149 0.928705 0.457615
O O9 0.835610 0.383946 0.750844
O O10 0.011850 0.248630 0.083910
O O11 0.325029 0.896703 0.208641
O O12 0.750000 0.750000 0.500000
#
# Coordination Sequence:
#
# PCOD9309289 Si02
#       6
#     4   8   8   8   8   8
#     4  10  24  40  64  94 120 160 206 262 300 354
#     4  11  22  38  62  93 118 158 205 251 301 363
#     4  11  21  38  64  89 119 164 206 250 302 367
#     4  10  22  40  62  86 125 161 204 253 302 371
#     4  10  21  43  63  84 129 162 200 255 311 363
#     4  11  23  40  61  88 122 166 204 249 308 366
#
# _framework density 9.9264960000000002
#
# number of rings (size 3 to 8) (size 9 to 14) (size 15 to 20)
#    0.000    1.455    4.545    1.091    5.091    3.636 
#    0.000    0.909    0.000    0.000    0.000    0.000 
#    0.000    0.000    0.000    0.000    0.000    0.000 
#
# Total GULP energy -122482.810645 kJ/mol
# GULP energy per Si atom -5567.400484 kJ/mol
# Density = 0.990390 g / cm^3
# Si number density = 9.926496 Si / 1000 Ang^3
#
#
#
# Elastic Constant Matrix: (Units=GPa)
#
#
# Indices 1 2 3 4 5 6 
#
# 1 164.5793 8.0471 62.8126 0.0000 8.8915 0.0000
# 2 8.0471 13.9115 -12.8655 0.0000 12.3463 0.0000
# 3 62.8126 -12.8655 82.7048 0.0000 28.7444 0.0000
# 4 0.0000 0.0000 0.0000 5.9417 0.0000 -7.8898
# 5 8.8915 12.3463 28.7444 0.0000 57.7152 0.0000
# 6 0.0000 0.0000 0.0000 -7.8898 0.0000 22.6597
#
#
#
# Elastic Compliance Matrix: (Units=1/GPa)
#
#
# Indices 1 2 3 4 5 6 
#
# 1 0.033694 -0.126007 -0.063799 0.000000 0.053539 0.000000
# 2 -0.126007 0.638353 0.285057 0.000000 -0.259112 0.000000
# 3 -0.063799 0.285057 0.148344 0.000000 -0.125031 0.000000
# 4 0.000000 0.000000 0.000000 0.313031 0.000000 0.108993
# 5 0.053539 -0.259112 -0.125031 0.000000 0.126777 0.000000
# 6 0.000000 0.000000 0.000000 0.108993 0.000000 0.082081
#
#
# Mechanical properties :
#
#
# Convention : Reuss Voigt Hill
#
# Bulk Modulus (GPa) = 0.98922 41.90933 21.44928
# Shear Modulus (GPa) = 3.35854 30.81007 17.08430
#
# Velocity S-wave (km/s) = 1.30207 3.94370 2.93668
# Velocity P-wave (km/s) = 1.66128 6.47246 4.72507
#
# Compressibility (1/GPa) = 1.01089291
#
# Stress axis : x y z
#
# Youngs Moduli (GPa) = 29.67888 1.56653 6.74111
#
# Poissons Ratio (x) = 0.19739 0.43008
# Poissons Ratio (y) = 3.73975 -1.92160
# Poissons Ratio (z) = 1.89349 -0.44655
#
# Static dielectric constant tensor:
#      x y z
#    x 1.785290 0.000000 -0.007970 
#    y 0.000000 1.685590 0.000000 
#    z -0.007970 0.000000 1.745600 
# 
# From -- ./inp_files/95731.got.cif
#   From: 2010.05.17/outbox.ucp.g08.bks.cvg/sg15_48_cif.got.tgz:95731.got - 2010.06.11 12:40:34.
