data_PCOD9309967
_publ_section_title
;
Structure prediction by ZEFSAII (Michael W. Deem and Ramdas Pophale) SiO2 
 PCOD9309967
Probable space group: P 2 2 2
;
_chemical_formula_sum "Si O2"
_cell_formula_units_Z 32
_cell_length_a 14.651943
_cell_length_b 15.561769
_cell_length_c 7.154589
_cell_angle_alpha 90.000000
_cell_angle_beta 90.000000
_cell_angle_gamma 90.000000
_cell_volume 1631.318928
_symmetry_space_group_name_H-M "P 2 2 2"
_symmetry_group_IT_number 16
_symmetry_cell_setting 'orthorhombic'
loop_
_space_group_symop_operation_xyz
x,y,z
-x,-y,z
x,-y,-z
-x,y,-z
loop_
_atom_site_type_symbol
_atom_site_label
_atom_site_fract_x
_atom_site_fract_y
_atom_site_fract_z
Si Si1 0.827704 0.817061 0.773265
Si Si2 0.466256 0.878158 0.299890
Si Si3 0.621325 0.247272 0.808919
Si Si4 0.659922 0.278298 0.251222
Si Si5 0.793921 0.155060 0.801679
Si Si6 0.301669 0.018558 0.720981
Si Si7 0.507596 0.402329 0.226467
Si Si8 0.989121 0.900442 0.228264
O O1 0.765724 0.737726 0.704653
O O2 0.769532 0.903519 0.736823
O O3 0.929571 0.837590 0.709510
O O4 0.825049 0.809601 0.997901
O O5 0.500000 0.908541 0.500000
O O6 0.550935 0.832772 0.198655
O O7 0.397673 0.798720 0.342510
O O8 0.400647 0.949221 0.209768
O O9 0.717831 0.219248 0.720418
O O10 0.569295 0.330280 0.725413
O O11 0.643268 0.263520 0.027579
O O12 0.605599 0.365196 0.288244
O O13 0.739683 0.064888 0.819630
O O14 0.889802 0.131948 0.708262
O O15 0.309805 0.000000 0.500000
O O16 0.500000 0.500000 0.290359
O O17 0.500000 0.404029 0.000000
O O18 0.000000 0.000000 0.285697
O O19 0.000000 0.902440 0.000000
#
# Coordination Sequence:
#
# PCOD9309967 Si02
#       8
#     4   4   4   4   4   4   4   4
#     4   9  17  31  45  59  78 104 140 179 205 235
#     4  10  19  30  41  54  81 115 138 165 201 243
#     4   9  17  29  44  63  82 103 137 172 196 237
#     4   8  16  29  46  63  80 103 138 171 198 235
#     4  10  18  29  45  60  77 105 140 177 207 234
#     4  11  21  29  39  57  80 110 144 170 204 243
#     4   8  13  24  43  65  86 105 127 161 202 243
#     4   9  15  26  45  61  75 101 140 178 213 238
#
# _framework density 19.616029000000001
#
# number of rings (size 3 to 8) (size 9 to 14) (size 15 to 20)
#    0.000    2.750    1.250    2.250    0.000    1.750 
#    0.000    2.500    0.000   19.500    0.000    0.875 
#    0.000    7.000    0.000    0.000    0.000   31.000 
#
# Total GULP energy -178470.941371 kJ/mol
# GULP energy per Si atom -5577.216918 kJ/mol
# Density = 1.957138 g / cm^3
# Si number density = 19.616029 Si / 1000 Ang^3
#
#
#
# Elastic Constant Matrix: (Units=GPa)
#
#
# Indices 1 2 3 4 5 6 
#
# 1 190.0446 74.2027 3.9009 0.0000 0.0000 0.0000
# 2 74.2027 108.9830 3.1436 0.0000 0.0000 0.0000
# 3 3.9009 3.1436 59.6120 0.0000 0.0000 0.0000
# 4 0.0000 0.0000 0.0000 0.4280 0.0000 0.0000
# 5 0.0000 0.0000 0.0000 0.0000 0.3355 0.0000
# 6 0.0000 0.0000 0.0000 0.0000 0.0000 20.6350
#
#
#
# Elastic Compliance Matrix: (Units=1/GPa)
#
#
# Indices 1 2 3 4 5 6 
#
# 1 0.007170 -0.004876 -0.000212 0.000000 0.000000 0.000000
# 2 -0.004876 0.012505 -0.000340 0.000000 0.000000 0.000000
# 3 -0.000212 -0.000340 0.016807 0.000000 0.000000 0.000000
# 4 0.000000 0.000000 0.000000 2.336714 0.000000 0.000000
# 5 0.000000 0.000000 0.000000 0.000000 2.981065 0.000000
# 6 0.000000 0.000000 0.000000 0.000000 0.000000 0.048461
#
#
# Mechanical properties :
#
#
# Convention : Reuss Voigt Hill
#
# Bulk Modulus (GPa) = 39.02302 57.90376 48.46339
# Shear Modulus (GPa) = 0.92215 22.77249 11.84732
#
# Velocity S-wave (km/s) = 0.68638 3.41091 2.46023
# Velocity P-wave (km/s) = 4.53484 6.71529 5.72974
#
# Compressibility (1/GPa) = 0.02562590
#
# Stress axis : x y z
#
# Youngs Moduli (GPa) = 139.47051 79.96652 59.49907
#
# Poissons Ratio (x) = 0.38989 0.01262
# Poissons Ratio (y) = 0.68001 0.02025
# Poissons Ratio (z) = 0.02958 0.02722
#
# Static dielectric constant tensor:
#      x y z
#    x 1.735950 0.000000 0.000000 
#    y 0.000000 1.669900 0.000000 
#    z 0.000000 0.000000 1.781190 
# 
# From -- ./inp_files/5268.got.cif
#   From: 2010.05.17/outbox.cif.g08.bks.cpg/sg16_3_cif.got.tgz:5268.got - 2010.06.03 22:28:35.
