data_PCOD9309682
_publ_section_title
;
Structure prediction by ZEFSAII (Michael W. Deem and Ramdas Pophale) SiO2 
 PCOD9309682
Probable space group: C 2/C
;
_chemical_formula_sum "Si O2"
_cell_formula_units_Z 30
_cell_length_a 12.000000
_cell_length_b 24.000000
_cell_length_c 21.000000
_cell_angle_alpha 90.000000
_cell_angle_beta 150.000000
_cell_angle_gamma 90.000000
_cell_volume 3024.000000
_symmetry_space_group_name_H-M "C 2/C"
_symmetry_group_IT_number 15
_symmetry_cell_setting 'monoclinic'
loop_
_space_group_symop_operation_xyz
x,y,z
-x,y,1/2-z
-x,-y,-z
x,-y,1/2+z
1/2+x,1/2+y,z
1/2-x,1/2+y,1/2-z
1/2-x,1/2-y,-z
1/2+x,1/2-y,1/2+z
loop_
_atom_site_type_symbol
_atom_site_label
_atom_site_fract_x
_atom_site_fract_y
_atom_site_fract_z
Si Si1 0.500117 0.098478 0.541642
Si Si2 0.245556 0.876109 0.732734
Si Si3 0.422100 0.468028 0.636734
Si Si4 0.000000 0.752700 0.250000
Si Si5 0.815368 0.421985 0.499084
Si Si6 0.240571 0.703276 0.138968
Si Si7 0.564876 0.687864 0.018358
Si Si8 0.076775 0.846442 0.190060
O O1 0.315985 0.062371 0.485235
O O2 0.559753 0.066488 0.505650
O O3 0.375803 0.155410 0.460532
O O4 0.719206 0.113775 0.689812
O O5 0.497359 0.903049 0.856988
O O6 0.264860 0.824176 0.792491
O O7 0.127329 0.851689 0.610127
O O8 0.095999 0.926287 0.688603
O O9 0.500000 0.473972 0.750000
O O10 0.360788 0.528180 0.576004
O O11 0.195552 0.715957 0.377149
O O12 0.102926 0.789920 0.243840
O O13 0.660236 0.369915 0.404018
O O14 0.500000 0.709879 0.250000
O O15 0.106402 0.760120 0.058559
O O16 0.462710 0.658607 0.905099
#
# Coordination Sequence:
#
# PCOD9309682 Si02
#       8
#     8   8   8   4   8   8   8   8
#     4  11  20  40  62  98 127 150 209 276 318 374
#     4  11  24  44  61  98 131 165 217 263 314 394
#     4  12  22  40  71  96 123 165 213 275 327 364
#     4  12  20  42  64  94 126 164 216 266 318 364
#     4  11  23  39  69  94 124 160 212 276 330 357
#     4  11  21  41  64  93 127 169 209 264 317 373
#     4  12  26  39  65  89 135 178 204 253 321 384
#     4  12  23  40  63  98 126 161 219 261 314 390
#
# _framework density 9.9206350000000008
#
# number of rings (size 3 to 8) (size 9 to 14) (size 15 to 20)
#    0.000    0.533    6.667    4.000    1.867    1.600 
#    0.000    0.667    2.933    0.000    0.000    0.000 
#    0.000    0.000    0.000    0.000    0.000    0.000 
#
# Total GULP energy -167423.807699 kJ/mol
# GULP energy per Si atom -5580.793590 kJ/mol
# Density = 0.989806 g / cm^3
# Si number density = 9.920635 Si / 1000 Ang^3
#
#
#
# Elastic Constant Matrix: (Units=GPa)
#
#
# Indices 1 2 3 4 5 6 
#
# 1 27.2903 19.8207 33.9981 0.0032 -9.2845 -0.0001
# 2 19.8207 74.9631 33.8346 0.0013 -8.2439 0.0003
# 3 33.9981 33.8346 150.9269 0.0148 -9.7342 0.0025
# 4 0.0032 0.0013 0.0148 45.1931 0.0044 4.3714
# 5 -9.2845 -8.2439 -9.7342 0.0044 46.8546 0.0000
# 6 -0.0001 0.0003 0.0025 4.3714 0.0000 17.7626
#
#
#
# Elastic Compliance Matrix: (Units=1/GPa)
#
#
# Indices 1 2 3 4 5 6 
#
# 1 0.060109 -0.010173 -0.010751 -0.000001 0.007887 0.000002
# 2 -0.010173 0.016741 -0.001420 0.000001 0.000634 0.000000
# 3 -0.010751 -0.001420 0.009337 -0.000002 -0.000440 -0.000001
# 4 -0.000001 0.000001 -0.000002 0.022667 -0.000003 -0.005578
# 5 0.007887 0.000634 -0.000440 -0.000003 0.022926 0.000001
# 6 0.000002 0.000000 -0.000001 -0.005578 0.000001 0.057671
#
#
# Mechanical properties :
#
#
# Convention : Reuss Voigt Hill
#
# Bulk Modulus (GPa) = 24.09764 47.60967 35.85366
# Shear Modulus (GPa) = 20.16359 32.99718 26.58039
#
# Velocity S-wave (km/s) = 3.19132 4.08248 3.66410
# Velocity P-wave (km/s) = 5.07454 6.80218 6.00086
#
# Compressibility (1/GPa) = 0.04149783
#
# Stress axis : x y z
#
# Youngs Moduli (GPa) = 16.63654 59.73497 107.09511
#
# Poissons Ratio (x) = 0.60770 1.15137
# Poissons Ratio (y) = 0.16925 0.15211
# Poissons Ratio (z) = 0.17886 0.08484
#
# Static dielectric constant tensor:
#      x y z
#    x 1.747720 0.000000 0.014510 
#    y 0.000000 1.751300 0.000000 
#    z 0.014510 0.000000 1.674890 
# 
# From -- ./inp_files/240880.got.cif
#   From: 2010.05.17/outbox.ucp.g08.bks.cvg/sg15_121_cif.got.tgz:240880.got - 2010.06.11 12:40:34.
