data_PCOD9309016
_publ_section_title
;
Structure prediction by ZEFSAII (Michael W. Deem and Ramdas Pophale) SiO2 
 PCOD9309016
Probable space group: C 2/C
;
_chemical_formula_sum "Si O2"
_cell_formula_units_Z 30
_cell_length_a 9.000000
_cell_length_b 27.000000
_cell_length_c 12.000000
_cell_angle_alpha 90.000000
_cell_angle_beta 90.000000
_cell_angle_gamma 90.000000
_cell_volume 2916.000000
_symmetry_space_group_name_H-M "C 2/C"
_symmetry_group_IT_number 15
_symmetry_cell_setting 'monoclinic'
loop_
_space_group_symop_operation_xyz
x,y,z
-x,y,1/2-z
-x,-y,-z
x,-y,1/2+z
1/2+x,1/2+y,z
1/2-x,1/2+y,1/2-z
1/2-x,1/2-y,-z
1/2+x,1/2-y,1/2+z
loop_
_atom_site_type_symbol
_atom_site_label
_atom_site_fract_x
_atom_site_fract_y
_atom_site_fract_z
Si Si1 0.374672 0.963086 0.049029
Si Si2 0.775386 0.177342 0.006275
Si Si3 0.000000 0.396989 0.250000
Si Si4 0.049575 0.383785 0.622650
Si Si5 0.464789 0.239376 0.619321
Si Si6 0.984957 0.873243 0.124928
Si Si7 0.828826 0.658411 0.939609
Si Si8 0.546941 0.514261 0.626511
O O1 0.434035 0.930562 0.152147
O O2 0.225372 0.985464 0.104427
O O3 0.361299 0.927925 0.939613
O O4 0.500000 0.000000 0.000000
O O5 0.665073 0.161304 0.105271
O O6 0.900282 0.212842 0.057557
O O7 0.669407 0.201184 0.911372
O O8 0.865232 0.134858 0.943891
O O9 0.114888 0.363828 0.179509
O O10 0.000000 0.392041 0.750000
O O11 0.910018 0.370296 0.541593
O O12 0.500000 0.246485 0.750000
O O13 0.608579 0.214138 0.562959
O O14 0.845725 0.849596 0.062093
O O15 0.000000 0.852083 0.250000
O O16 0.969033 0.931924 0.136085
O O17 0.500000 0.490901 0.750000
O O18 0.500000 0.500000 0.500000
#
# Coordination Sequence:
#
# PCOD9309016 Si02
#       8
#     8   8   4   8   8   8   8   8
#     4  11  25  40  69  96 126 174 227 274 325 394
#     4  10  22  41  61  92 127 169 210 267 335 388
#     4  10  20  40  66  90 122 160 216 266 310 380
#     4  10  23  43  63  89 131 176 220 266 333 396
#     4  10  20  38  65  91 127 163 213 272 318 389
#     4  11  22  40  66  93 127 168 216 265 337 395
#     4  10  21  37  68  94 120 169 219 262 323 393
#     4  11  26  44  65  97 140 174 219 281 339 399
#
# _framework density 10.288066000000001
#
# number of rings (size 3 to 8) (size 9 to 14) (size 15 to 20)
#    0.000    1.600    2.000    2.400    8.400    1.600 
#    0.000    9.333    0.000    0.000    0.000    0.000 
#    0.000    0.000    0.000    0.000    0.000    0.000 
#
# Total GULP energy -167049.957215 kJ/mol
# GULP energy per Si atom -5568.331907 kJ/mol
# Density = 1.026465 g / cm^3
# Si number density = 10.288066 Si / 1000 Ang^3
#
#
#
# Elastic Constant Matrix: (Units=GPa)
#
#
# Indices 1 2 3 4 5 6 
#
# 1 112.7377 20.6554 47.2180 0.0000 -12.1764 0.0000
# 2 20.6554 36.8584 23.3526 0.0000 2.5619 0.0000
# 3 47.2180 23.3526 172.6610 0.0000 -14.2378 0.0000
# 4 0.0000 0.0000 0.0000 16.7788 0.0000 3.0982
# 5 -12.1764 2.5619 -14.2378 0.0000 34.7421 0.0000
# 6 0.0000 0.0000 0.0000 3.0982 0.0000 20.9041
#
#
#
# Elastic Compliance Matrix: (Units=1/GPa)
#
#
# Indices 1 2 3 4 5 6 
#
# 1 0.011033 -0.005125 -0.002043 0.000000 0.003407 0.000000
# 2 -0.005125 0.032592 -0.003470 0.000000 -0.005622 0.000000
# 3 -0.002043 -0.003470 0.007019 0.000000 0.002416 0.000000
# 4 0.000000 0.000000 0.000000 0.061276 0.000000 -0.009082
# 5 0.003407 -0.005622 0.002416 0.000000 0.031383 0.000000
# 6 0.000000 0.000000 0.000000 -0.009082 0.000000 0.049184
#
#
# Mechanical properties :
#
#
# Convention : Reuss Voigt Hill
#
# Bulk Modulus (GPa) = 34.05126 56.07879 45.06503
# Shear Modulus (GPa) = 22.36612 29.88706 26.12659
#
# Velocity S-wave (km/s) = 3.30054 3.81532 3.56722
# Velocity P-wave (km/s) = 5.57759 6.83537 6.23826
#
# Compressibility (1/GPa) = 0.02936749
#
# Stress axis : x y z
#
# Youngs Moduli (GPa) = 90.63816 30.68202 142.47053
#
# Poissons Ratio (x) = 0.15725 0.29107
# Poissons Ratio (y) = 0.46454 0.49439
# Poissons Ratio (z) = 0.18517 0.10647
#
# Static dielectric constant tensor:
#      x y z
#    x 1.786820 0.000000 0.029470 
#    y 0.000000 1.842470 0.000000 
#    z 0.029470 0.000000 1.782540 
# 
# From -- ./inp_files/81368.got.cif
#   From: 2010.05.17/outbox.ucp.g08.bks.cvg/sg15_41_cif.got.tgz:81368.got - 2010.06.11 12:40:34.
