data_PCOD9309923
_publ_section_title
;
Structure prediction by ZEFSAII (Michael W. Deem and Ramdas Pophale) SiO2 
 PCOD9309923
Probable space group: P 2 2 2
;
_chemical_formula_sum "Si O2"
_cell_formula_units_Z 28
_cell_length_a 11.280666
_cell_length_b 25.163806
_cell_length_c 5.327890
_cell_angle_alpha 90.000000
_cell_angle_beta 90.000000
_cell_angle_gamma 90.000000
_cell_volume 1512.398782
_symmetry_space_group_name_H-M "P 2 2 2"
_symmetry_group_IT_number 16
_symmetry_cell_setting 'orthorhombic'
loop_
_space_group_symop_operation_xyz
x,y,z
-x,-y,z
x,-y,-z
-x,y,-z
loop_
_atom_site_type_symbol
_atom_site_label
_atom_site_fract_x
_atom_site_fract_y
_atom_site_fract_z
Si Si1 0.865230 0.649491 0.772589
Si Si2 0.133794 0.305779 0.282908
Si Si3 0.866196 0.077161 0.553599
Si Si4 0.635588 0.174045 0.036109
Si Si5 0.217582 0.805006 0.534596
Si Si6 0.722374 0.943560 0.939348
Si Si7 0.134549 0.476891 0.755091
O O1 0.805123 0.662313 0.508240
O O2 0.872871 0.586213 0.787806
O O3 0.998956 0.673053 0.746572
O O4 0.812055 0.679438 0.013146
O O5 0.140600 0.245735 0.381826
O O6 0.857026 0.140926 0.515926
O O7 0.817536 0.064842 0.832803
O O8 0.000000 0.060567 0.500000
O O9 0.784949 0.053525 0.331905
O O10 0.706949 0.198526 0.275099
O O11 0.500000 0.190349 0.000000
O O12 0.697769 0.187132 0.773621
O O13 0.644507 0.109812 0.067350
O O14 0.662445 0.000000 0.000000
O O15 0.188328 0.500000 0.500000
O O16 0.000000 0.500000 0.753174
O O17 0.196138 0.500000 0.000000
#
# Coordination Sequence:
#
# PCOD9309923 Si02
#       7
#     4   4   4   4   4   4   4
#     4  10  19  28  42  68  94 138 175 207 243 277
#     4  10  18  30  43  64  96 124 166 209 240 281
#     4  10  21  34  50  74 103 135 163 191 231 295
#     4  10  21  39  57  74  95 120 159 208 255 314
#     4  10  21  35  52  75  97 128 165 203 253 294
#     4  10  21  36  53  77 100 123 160 199 242 299
#     4  10  16  25  39  56  87 129 182 216 231 268
#
# _framework density 18.513638
#
# number of rings (size 3 to 8) (size 9 to 14) (size 15 to 20)
#    0.000    2.000    0.000    6.429    2.000    2.000 
#    5.143    0.000    0.000    5.143    0.000    0.000 
#    0.000    0.000    0.000    0.000    0.000  486.429 
#
# Total GULP energy -155936.994022 kJ/mol
# GULP energy per Si atom -5569.178358 kJ/mol
# Density = 1.847150 g / cm^3
# Si number density = 18.513638 Si / 1000 Ang^3
#
#
#
# Elastic Constant Matrix: (Units=GPa)
#
#
# Indices 1 2 3 4 5 6 
#
# 1 35.1670 3.3340 12.7878 0.0000 0.0000 0.0000
# 2 3.3340 136.1695 24.3954 0.0000 0.0000 0.0000
# 3 12.7878 24.3954 169.0412 0.0000 0.0000 0.0000
# 4 0.0000 0.0000 0.0000 32.3373 0.0000 0.0000
# 5 0.0000 0.0000 0.0000 0.0000 6.2681 0.0000
# 6 0.0000 0.0000 0.0000 0.0000 0.0000 5.6892
#
#
#
# Elastic Compliance Matrix: (Units=1/GPa)
#
#
# Indices 1 2 3 4 5 6 
#
# 1 0.029254 -0.000328 -0.002166 0.000000 0.000000 0.000000
# 2 -0.000328 0.007542 -0.001064 0.000000 0.000000 0.000000
# 3 -0.002166 -0.001064 0.006233 0.000000 0.000000 0.000000
# 4 0.000000 0.000000 0.000000 0.030924 0.000000 0.000000
# 5 0.000000 0.000000 0.000000 0.000000 0.159537 0.000000
# 6 0.000000 0.000000 0.000000 0.000000 0.000000 0.175772
#
#
# Mechanical properties :
#
#
# Convention : Reuss Voigt Hill
#
# Bulk Modulus (GPa) = 27.84386 46.82357 37.33372
# Shear Modulus (GPa) = 11.67271 28.84964 20.26117
#
# Velocity S-wave (km/s) = 2.51369 3.95180 3.31175
# Velocity P-wave (km/s) = 4.84738 6.79475 5.90194
#
# Compressibility (1/GPa) = 0.03591455
#
# Stress axis : x y z
#
# Youngs Moduli (GPa) = 34.18295 132.58409 160.43504
#
# Poissons Ratio (x) = 0.04352 0.34745
# Poissons Ratio (y) = 0.01122 0.17065
# Poissons Ratio (z) = 0.07403 0.14102
#
# Static dielectric constant tensor:
#      x y z
#    x 1.311420 0.000000 0.000000 
#    y 0.000000 1.699800 0.000000 
#    z 0.000000 0.000000 1.681900 
# 
# From -- ./inp_files/1660.got.cif
#   From: 2010.05.17/outbox.cif.g08.bks.cpg/sg16_1_cif.got.tgz:1660.got - 2010.06.03 22:28:35.
