data_PCOD9309419
_publ_section_title
;
Structure prediction by ZEFSAII (Michael W. Deem and Ramdas Pophale) SiO2 
 PCOD9309419
Probable space group: C 2/C
;
_chemical_formula_sum "Si O2"
_cell_formula_units_Z 30
_cell_length_a 18.000000
_cell_length_b 12.000000
_cell_length_c 15.000000
_cell_angle_alpha 90.000000
_cell_angle_beta 70.000000
_cell_angle_gamma 90.000000
_cell_volume 3044.604091
_symmetry_space_group_name_H-M "C 2/C"
_symmetry_group_IT_number 15
_symmetry_cell_setting 'monoclinic'
loop_
_space_group_symop_operation_xyz
x,y,z
-x,y,1/2-z
-x,-y,-z
x,-y,1/2+z
1/2+x,1/2+y,z
1/2-x,1/2+y,1/2-z
1/2-x,1/2-y,-z
1/2+x,1/2-y,1/2+z
loop_
_atom_site_type_symbol
_atom_site_label
_atom_site_fract_x
_atom_site_fract_y
_atom_site_fract_z
Si Si1 0.000000 0.565476 0.250000
Si Si2 0.558080 0.605280 0.968287
Si Si3 0.811520 0.278108 0.115026
Si Si4 0.131639 0.386950 0.230725
Si Si5 0.670955 0.438631 0.115309
Si Si6 0.916756 0.158037 0.335001
Si Si7 0.439042 0.253201 0.407165
Si Si8 0.786494 0.979828 0.608297
O O1 0.935141 0.481211 0.237758
O O2 0.961094 0.647768 0.338484
O O3 0.514674 0.699905 0.929295
O O4 0.637831 0.553805 0.894373
O O5 0.500000 0.500000 0.000000
O O6 0.572430 0.646254 0.063118
O O7 0.858501 0.327271 0.178642
O O8 0.737411 0.360828 0.132171
O O9 0.787659 0.148645 0.140798
O O10 0.868572 0.276208 0.005199
O O11 0.112463 0.282769 0.174119
O O12 0.209809 0.452229 0.167881
O O13 0.642784 0.556716 0.167510
O O14 0.595038 0.357989 0.134803
O O15 0.703834 0.467526 0.002815
O O16 0.000000 0.142062 0.250000
#
# Coordination Sequence:
#
# PCOD9309419 Si02
#       8
#     4   8   8   8   8   8   8   8
#     4  12  28  46  62 100 134 176 228 274 334 404
#     4  11  21  42  71 101 128 175 223 275 332 401
#     4  11  23  43  70  96 134 180 212 280 341 389
#     4  12  27  43  65  96 138 179 218 283 330 400
#     4  10  22  41  69  96 128 177 219 278 336 390
#     4  11  24  42  67  97 136 171 225 279 336 394
#     4  11  23  44  71  98 135 175 222 274 334 399
#     4  10  23  43  65  98 136 165 229 277 326 400
#
# _framework density 9.8534980000000001
#
# number of rings (size 3 to 8) (size 9 to 14) (size 15 to 20)
#    0.000    1.067    4.667    4.000    2.800    4.800 
#    2.400    0.000    0.000    0.000    0.000    0.000 
#    0.000    0.000    0.000    0.000    0.000    0.000 
#
# Total GULP energy -167685.573508 kJ/mol
# GULP energy per Si atom -5589.519117 kJ/mol
# Density = 0.983107 g / cm^3
# Si number density = 9.853498 Si / 1000 Ang^3
#
#
#
# Elastic Constant Matrix: (Units=GPa)
#
#
# Indices 1 2 3 4 5 6 
#
# 1 66.1949 34.5621 18.8187 0.0000 -9.9905 0.0000
# 2 34.5621 158.5481 53.3524 0.0000 -6.9330 0.0000
# 3 18.8187 53.3524 48.6120 0.0000 -4.1258 0.0000
# 4 0.0000 0.0000 0.0000 35.0722 0.0000 1.9008
# 5 -9.9905 -6.9330 -4.1258 0.0000 36.7391 0.0000
# 6 0.0000 0.0000 0.0000 1.9008 0.0000 47.1660
#
#
#
# Elastic Compliance Matrix: (Units=1/GPa)
#
#
# Indices 1 2 3 4 5 6 
#
# 1 0.018120 -0.002424 -0.004013 0.000000 0.004019 0.000000
# 2 -0.002424 0.010341 -0.010400 0.000000 0.000124 0.000000
# 3 -0.004013 -0.010400 0.033600 0.000000 0.000719 0.000000
# 4 0.000000 0.000000 0.000000 0.028575 0.000000 -0.001152
# 5 0.004019 0.000124 0.000719 0.000000 0.028416 0.000000
# 6 0.000000 0.000000 0.000000 -0.001152 0.000000 0.021248
#
#
# Mechanical properties :
#
#
# Convention : Reuss Voigt Hill
#
# Bulk Modulus (GPa) = 35.22854 54.09129 44.65992
# Shear Modulus (GPa) = 27.25723 34.90357 31.08040
#
# Velocity S-wave (km/s) = 3.72307 4.21304 3.97561
# Velocity P-wave (km/s) = 6.03296 7.15357 6.61703
#
# Compressibility (1/GPa) = 0.02838608
#
# Stress axis : x y z
#
# Youngs Moduli (GPa) = 55.18770 96.70427 29.76158
#
# Poissons Ratio (x) = 0.23438 0.11945
# Poissons Ratio (y) = 0.13376 0.30953
# Poissons Ratio (z) = 0.22149 1.00576
#
# Static dielectric constant tensor:
#      x y z
#    x 1.752560 0.000000 0.018830 
#    y 0.000000 1.649710 0.000000 
#    z 0.018830 0.000000 1.692570 
# 
# From -- ./inp_files/161311.got.cif
#   From: 2010.05.17/outbox.ucp.g08.bks.cvg/sg15_81_cif.got.tgz:161311.got - 2010.06.11 12:40:34.
