data_PCOD9309811
_publ_section_title
;
Structure prediction by ZEFSAII (Michael W. Deem and Ramdas Pophale) SiO2 
 PCOD9309811
Probable space group: C 2/C
;
_chemical_formula_sum "Si O2"
_cell_formula_units_Z 28
_cell_length_a 21.000000
_cell_length_b 9.000000
_cell_length_c 18.000000
_cell_angle_alpha 90.000000
_cell_angle_beta 120.000000
_cell_angle_gamma 90.000000
_cell_volume 2946.218424
_symmetry_space_group_name_H-M "C 2/C"
_symmetry_group_IT_number 15
_symmetry_cell_setting 'monoclinic'
loop_
_space_group_symop_operation_xyz
x,y,z
-x,y,1/2-z
-x,-y,-z
x,-y,1/2+z
1/2+x,1/2+y,z
1/2-x,1/2+y,1/2-z
1/2-x,1/2-y,-z
1/2+x,1/2-y,1/2+z
loop_
_atom_site_type_symbol
_atom_site_label
_atom_site_fract_x
_atom_site_fract_y
_atom_site_fract_z
Si Si1 0.740025 0.390293 0.166401
Si Si2 0.159376 0.140333 0.217198
Si Si3 0.294033 0.026209 0.051638
Si Si4 0.369685 0.671821 0.559274
Si Si5 0.378061 0.778752 0.004872
Si Si6 0.528741 0.669962 0.028103
Si Si7 0.080886 0.910009 0.824612
O O1 0.786653 0.280078 0.244695
O O2 0.701244 0.514157 0.194487
O O3 0.793432 0.453770 0.133011
O O4 0.676980 0.304183 0.083478
O O5 0.084152 0.175056 0.129871
O O6 0.136856 0.097886 0.288184
O O7 0.342956 0.173133 0.076293
O O8 0.330301 0.918787 0.009661
O O9 0.207720 0.077773 0.993267
O O10 0.417991 0.697541 0.512546
O O11 0.419365 0.576653 0.643741
O O12 0.457486 0.774219 0.006754
O O13 0.395183 0.688334 0.090665
O O14 0.500000 0.500000 0.000000
O O15 0.000000 0.865806 0.750000
#
# Coordination Sequence:
#
# PCOD9309811 Si02
#       7
#     8   8   8   8   8   8   8
#     4  12  25  43  66  99 136 171 223 286 341 413
#     4  12  25  39  67 101 136 171 226 288 342 402
#     4  11  23  43  67  98 131 184 223 277 342 421
#     4  11  24  42  71  93 136 181 233 272 346 418
#     4  12  23  44  72  94 137 184 231 276 350 412
#     4  12  21  44  70  98 131 181 233 286 341 415
#     4  12  22  39  68  98 125 179 226 273 332 408
#
# _framework density 9.5037079999999996
#
# number of rings (size 3 to 8) (size 9 to 14) (size 15 to 20)
#    0.000    0.286    8.571    1.286    2.000    1.714 
#    0.000    2.143    0.000    0.000    0.000    0.000 
#    0.000    0.000    0.000    0.000    0.000    0.000 
#
# Total GULP energy -156238.098966 kJ/mol
# GULP energy per Si atom -5579.932106 kJ/mol
# Density = 0.948208 g / cm^3
# Si number density = 9.503708 Si / 1000 Ang^3
#
#
#
# Elastic Constant Matrix: (Units=GPa)
#
#
# Indices 1 2 3 4 5 6 
#
# 1 144.6139 37.6820 20.9353 0.0000 -14.1024 0.0000
# 2 37.6820 81.9657 25.4682 0.0000 8.0689 0.0000
# 3 20.9353 25.4682 77.8528 0.0000 16.1790 0.0000
# 4 0.0000 0.0000 0.0000 22.0267 0.0000 -2.0170
# 5 -14.1024 8.0689 16.1790 0.0000 31.3544 0.0000
# 6 0.0000 0.0000 0.0000 -2.0170 0.0000 40.0340
#
#
#
# Elastic Compliance Matrix: (Units=1/GPa)
#
#
# Indices 1 2 3 4 5 6 
#
# 1 0.008907 -0.003966 -0.002400 0.000000 0.006265 0.000000
# 2 -0.003966 0.015397 -0.003110 0.000000 -0.004141 0.000000
# 3 -0.002400 -0.003110 0.016315 0.000000 -0.008698 0.000000
# 4 0.000000 0.000000 0.000000 0.045610 0.000000 0.002298
# 5 0.006265 -0.004141 -0.008698 0.000000 0.040265 0.000000
# 6 0.000000 0.000000 0.000000 0.002298 0.000000 0.025095
#
#
# Mechanical properties :
#
#
# Convention : Reuss Voigt Hill
#
# Bulk Modulus (GPa) = 46.15048 52.51151 49.33099
# Shear Modulus (GPa) = 28.12754 33.37280 30.75017
#
# Velocity S-wave (km/s) = 3.85101 4.19475 4.02655
# Velocity P-wave (km/s) = 6.64129 7.15178 6.90126
#
# Compressibility (1/GPa) = 0.02166825
#
# Stress axis : x y z
#
# Youngs Moduli (GPa) = 112.27577 64.94604 61.29363
#
# Poissons Ratio (x) = 0.25756 0.14708
# Poissons Ratio (y) = 0.44526 0.19062
# Poissons Ratio (z) = 0.26943 0.20198
#
# Static dielectric constant tensor:
#      x y z
#    x 1.678540 0.000000 -0.000110 
#    y 0.000000 1.686940 0.000000 
#    z -0.000110 0.000000 1.658350 
# 
# From -- ./inp_files/214006.got.cif
#   From: 2010.05.17/outbox.ucp.g08.bks.cvg/sg15_108_cif.got.tgz:214006.got - 2010.06.11 12:40:34.
