data_PCOD9309147
_publ_section_title
;
Structure prediction by ZEFSAII (Michael W. Deem and Ramdas Pophale) SiO2 
 PCOD9309147
Probable space group: C 2/C
;
_chemical_formula_sum "Si O2"
_cell_formula_units_Z 28
_cell_length_a 12.000000
_cell_length_b 21.000000
_cell_length_c 12.000000
_cell_angle_alpha 90.000000
_cell_angle_beta 110.000000
_cell_angle_gamma 90.000000
_cell_volume 2841.630485
_symmetry_space_group_name_H-M "C 2/C"
_symmetry_group_IT_number 15
_symmetry_cell_setting 'monoclinic'
loop_
_space_group_symop_operation_xyz
x,y,z
-x,y,1/2-z
-x,-y,-z
x,-y,1/2+z
1/2+x,1/2+y,z
1/2-x,1/2+y,1/2-z
1/2-x,1/2-y,-z
1/2+x,1/2-y,1/2+z
loop_
_atom_site_type_symbol
_atom_site_label
_atom_site_fract_x
_atom_site_fract_y
_atom_site_fract_z
Si Si1 0.114766 0.591060 0.525449
Si Si2 0.410942 0.434504 0.822853
Si Si3 0.246232 0.144242 0.383007
Si Si4 0.116527 0.456039 0.427130
Si Si5 0.724719 0.431119 0.219738
Si Si6 0.012408 0.287701 0.618159
Si Si7 0.566950 0.342449 0.019631
O O1 0.117675 0.532235 0.439955
O O2 0.232330 0.585585 0.641223
O O3 0.007169 0.571701 0.571669
O O4 0.080896 0.658386 0.457867
O O5 0.500000 0.445950 0.750000
O O6 0.322376 0.380063 0.748557
O O7 0.344098 0.501449 0.818148
O O8 0.482504 0.399869 0.946479
O O9 0.291596 0.079204 0.458224
O O10 0.358373 0.185623 0.380264
O O11 0.154367 0.173839 0.443132
O O12 0.160159 0.437240 0.320434
O O13 0.646941 0.374223 0.142811
O O14 0.003377 0.219659 0.550543
O O15 0.000000 0.282532 0.750000
#
# Coordination Sequence:
#
# PCOD9309147 Si02
#       7
#     8   8   8   8   8   8   8
#     4  10  21  37  62  94 128 157 199 257 322 373
#     4  10  21  39  64  90 116 160 215 264 311 357
#     4   9  19  41  66  87 118 166 213 258 311 372
#     4   9  19  35  61  96 123 148 203 263 317 372
#     4  11  21  38  65  93 119 162 210 260 315 368
#     4  11  25  42  60  93 128 167 204 257 318 380
#     4  10  23  42  59  88 128 173 213 251 297 380
#
# _framework density 9.8534980000000001
#
# number of rings (size 3 to 8) (size 9 to 14) (size 15 to 20)
#    0.000    2.000    1.429    1.286    2.000    1.714 
#    2.571    8.571    0.000    0.000    0.000    0.000 
#    0.000    0.000    0.000    0.000    0.000    0.000 
#
# Total GULP energy -156202.390458 kJ/mol
# GULP energy per Si atom -5578.656802 kJ/mol
# Density = 0.983107 g / cm^3
# Si number density = 9.853498 Si / 1000 Ang^3
#
#
#
# Elastic Constant Matrix: (Units=GPa)
#
#
# Indices 1 2 3 4 5 6 
#
# 1 29.4066 15.8487 14.5076 0.0000 -1.4708 0.0000
# 2 15.8487 112.7026 40.5785 0.0000 -8.7619 0.0000
# 3 14.5076 40.5785 92.8324 0.0000 7.3021 0.0000
# 4 0.0000 0.0000 0.0000 15.8698 0.0000 0.6788
# 5 -1.4708 -8.7619 7.3021 0.0000 25.4037 0.0000
# 6 0.0000 0.0000 0.0000 0.6788 0.0000 35.0883
#
#
#
# Elastic Compliance Matrix: (Units=1/GPa)
#
#
# Indices 1 2 3 4 5 6 
#
# 1 0.038312 -0.003543 -0.004621 0.000000 0.002325 0.000000
# 2 -0.003543 0.011537 -0.004897 0.000000 0.005182 0.000000
# 3 -0.004621 -0.004897 0.014108 0.000000 -0.006012 0.000000
# 4 0.000000 0.000000 0.000000 0.063065 0.000000 -0.001220
# 5 0.002325 0.005182 -0.006012 0.000000 0.043014 0.000000
# 6 0.000000 0.000000 0.000000 -0.001220 0.000000 0.028523
#
#
# Mechanical properties :
#
#
# Convention : Reuss Voigt Hill
#
# Bulk Modulus (GPa) = 26.43127 41.86790 34.14958
# Shear Modulus (GPa) = 21.07101 26.20614 23.63858
#
# Velocity S-wave (km/s) = 3.27343 3.65058 3.46714
# Velocity P-wave (km/s) = 5.26578 6.24983 5.77878
#
# Compressibility (1/GPa) = 0.03783398
#
# Stress axis : x y z
#
# Youngs Moduli (GPa) = 26.10169 86.67669 70.88300
#
# Poissons Ratio (x) = 0.30709 0.32758
# Poissons Ratio (y) = 0.09248 0.34711
# Poissons Ratio (z) = 0.12063 0.42445
#
# Static dielectric constant tensor:
#      x y z
#    x 1.741090 0.000000 0.044400 
#    y 0.000000 1.658210 0.000000 
#    z 0.044400 0.000000 1.715730 
# 
# From -- ./inp_files/89663.got.cif
#   From: 2010.05.17/outbox.ucp.g08.bks.cvg/sg15_45_cif.got.tgz:89663.got - 2010.06.11 12:40:34.
