data_PCOD9309843
_publ_section_title
;
Structure prediction by ZEFSAII (Michael W. Deem and Ramdas Pophale) SiO2 
 PCOD9309843
Probable space group: C 2/C
;
_chemical_formula_sum "Si O2"
_cell_formula_units_Z 28
_cell_length_a 21.000000
_cell_length_b 21.000000
_cell_length_c 9.000000
_cell_angle_alpha 90.000000
_cell_angle_beta 50.000000
_cell_angle_gamma 90.000000
_cell_volume 3040.430395
_symmetry_space_group_name_H-M "C 2/C"
_symmetry_group_IT_number 15
_symmetry_cell_setting 'monoclinic'
loop_
_space_group_symop_operation_xyz
x,y,z
-x,y,1/2-z
-x,-y,-z
x,-y,1/2+z
1/2+x,1/2+y,z
1/2-x,1/2+y,1/2-z
1/2-x,1/2-y,-z
1/2+x,1/2-y,1/2+z
loop_
_atom_site_type_symbol
_atom_site_label
_atom_site_fract_x
_atom_site_fract_y
_atom_site_fract_z
Si Si1 0.250808 0.460124 0.574622
Si Si2 0.364069 0.653097 0.033681
Si Si3 0.546035 0.058672 0.346120
Si Si4 0.200999 0.280811 0.214358
Si Si5 0.489437 0.190573 0.589434
Si Si6 0.540137 0.335022 0.425038
Si Si7 0.805249 0.908107 0.166719
O O1 0.298357 0.406165 0.608580
O O2 0.147856 0.454113 0.714308
O O3 0.280479 0.439640 0.363460
O O4 0.282805 0.531565 0.585126
O O5 0.316933 0.719012 0.151479
O O6 0.409179 0.663271 0.806659
O O7 0.443704 0.642966 0.029295
O O8 0.500000 0.059658 0.250000
O O9 0.527240 0.128769 0.446741
O O10 0.500000 0.000000 0.500000
O O11 0.251211 0.343486 0.203977
O O12 0.108567 0.303935 0.305024
O O13 0.250000 0.250000 0.000000
O O14 0.500000 0.180515 0.750000
O O15 0.530028 0.260489 0.490368
O O16 0.599328 0.378619 0.447724
#
# Coordination Sequence:
#
# PCOD9309843 Si02
#       7
#     8   8   8   8   8   8   8
#     4  11  25  42  68  96 134 179 224 275 335 397
#     4   9  22  41  69  99 127 176 222 284 331 401
#     4  12  26  43  66  95 136 178 222 273 333 404
#     4  11  24  40  68  99 136 171 227 278 335 398
#     4  11  24  40  66  98 133 175 217 283 334 396
#     4   9  21  43  67  96 133 169 229 271 341 394
#     4  11  25  43  67  98 135 177 226 273 337 402
#
# _framework density 9.2092220000000005
#
# number of rings (size 3 to 8) (size 9 to 14) (size 15 to 20)
#    0.000    1.429    0.000    3.857   12.000    1.714 
#    0.000    0.000    0.000    0.000    0.000    0.000 
#    0.000    0.000    0.000    0.000    0.000    0.000 
#
# Total GULP energy -155929.775739 kJ/mol
# GULP energy per Si atom -5568.920562 kJ/mol
# Density = 0.918826 g / cm^3
# Si number density = 9.209222 Si / 1000 Ang^3
#
#
#
# Elastic Constant Matrix: (Units=GPa)
#
#
# Indices 1 2 3 4 5 6 
#
# 1 168.7778 78.5837 39.8355 0.0000 -9.7967 0.0000
# 2 78.5837 174.2770 44.3593 0.0000 -2.8519 0.0000
# 3 39.8355 44.3593 68.9097 0.0000 -4.7273 0.0000
# 4 0.0000 0.0000 0.0000 45.6017 0.0000 0.4033
# 5 -9.7967 -2.8519 -4.7273 0.0000 42.2871 0.0000
# 6 0.0000 0.0000 0.0000 0.4033 0.0000 60.1746
#
#
#
# Elastic Compliance Matrix: (Units=1/GPa)
#
#
# Indices 1 2 3 4 5 6 
#
# 1 0.007981 -0.002901 -0.002653 0.000000 0.001357 0.000000
# 2 -0.002901 0.007917 -0.003455 0.000000 -0.000524 0.000000
# 3 -0.002653 -0.003455 0.018352 0.000000 0.001204 0.000000
# 4 0.000000 0.000000 0.000000 0.021930 0.000000 -0.000147
# 5 0.001357 -0.000524 0.001204 0.000000 0.024061 0.000000
# 6 0.000000 0.000000 0.000000 -0.000147 0.000000 0.016619
#
#
# Mechanical properties :
#
#
# Convention : Reuss Voigt Hill
#
# Bulk Modulus (GPa) = 61.60947 81.94684 71.77815
# Shear Modulus (GPa) = 41.56623 46.22506 43.89565
#
# Velocity S-wave (km/s) = 4.75570 5.01514 4.88714
# Velocity P-wave (km/s) = 7.97986 8.83877 8.42027
#
# Compressibility (1/GPa) = 0.01623127
#
# Stress axis : x y z
#
# Youngs Moduli (GPa) = 125.30373 126.30950 54.48931
#
# Poissons Ratio (x) = 0.36644 0.14455
# Poissons Ratio (y) = 0.36352 0.18828
# Poissons Ratio (z) = 0.33241 0.43644
#
# Static dielectric constant tensor:
#      x y z
#    x 1.683020 0.000000 0.004170 
#    y 0.000000 1.637900 0.000000 
#    z 0.004170 0.000000 1.667600 
# 
# From -- ./inp_files/57802.got.cif
#   From: 2010.05.17/outbox.ucp.g08.bks.cvg/sg15_29_cif.got.tgz:57802.got - 2010.06.11 12:40:34.
