data_PCOD9309223
_publ_section_title
;
Structure prediction by ZEFSAII (Michael W. Deem and Ramdas Pophale) SiO2 
 PCOD9309223
Probable space group: C 2/C
;
_chemical_formula_sum "Si O2"
_cell_formula_units_Z 24
_cell_length_a 15.000000
_cell_length_b 21.000000
_cell_length_c 24.000000
_cell_angle_alpha 90.000000
_cell_angle_beta 20.000000
_cell_angle_gamma 90.000000
_cell_volume 2585.672284
_symmetry_space_group_name_H-M "C 2/C"
_symmetry_group_IT_number 15
_symmetry_cell_setting 'monoclinic'
loop_
_space_group_symop_operation_xyz
x,y,z
-x,y,1/2-z
-x,-y,-z
x,-y,1/2+z
1/2+x,1/2+y,z
1/2-x,1/2+y,1/2-z
1/2-x,1/2-y,-z
1/2+x,1/2-y,1/2+z
loop_
_atom_site_type_symbol
_atom_site_label
_atom_site_fract_x
_atom_site_fract_y
_atom_site_fract_z
Si Si1 0.885890 0.869144 0.410550
Si Si2 0.770324 0.910258 0.125511
Si Si3 0.679955 0.693600 0.437263
Si Si4 0.892929 0.343035 0.038802
Si Si5 0.455827 0.487847 0.115900
Si Si6 0.739918 0.454158 0.655243
O O1 0.156316 0.866823 0.217329
O O2 0.867916 0.933525 0.457639
O O3 0.887861 0.815504 0.457335
O O4 0.672031 0.862060 0.487467
O O5 0.500000 0.891044 0.250000
O O6 0.749283 0.948213 0.197944
O O7 0.989294 0.855074 0.013433
O O8 0.896388 0.963280 0.011087
O O9 0.617480 0.765942 0.454682
O O10 0.000000 0.683095 0.250000
O O11 0.146100 0.381895 0.911047
O O12 0.358375 0.528476 0.225393
O O13 0.500000 0.463298 0.750000
O O14 0.000000 0.500000 0.500000
#
# Coordination Sequence:
#
# PCOD9309223 Si02
#       6
#     8   8   8   8   8   8
#     4  10  21  40  65  93 128 169 214 274 316 386
#     4  10  25  42  65  96 129 177 214 273 323 383
#     4  11  24  41  65  95 128 173 225 264 320 385
#     4  11  23  39  66  95 127 170 217 267 325 383
#     4  10  23  41  66  93 133 165 219 268 330 385
#     4  12  26  41  65  97 129 169 208 265 334 393
#
# _framework density 9.2819190000000003
#
# number of rings (size 3 to 8) (size 9 to 14) (size 15 to 20)
#    0.000    1.333    3.333    1.500    7.000    5.333 
#    0.000    0.000    0.000    5.000    0.000    0.000 
#    0.000    0.000    0.000    0.000    0.000    0.000 
#
# Total GULP energy -133617.206707 kJ/mol
# GULP energy per Si atom -5567.383613 kJ/mol
# Density = 0.926079 g / cm^3
# Si number density = 9.281919 Si / 1000 Ang^3
#
#
#
# Elastic Constant Matrix: (Units=GPa)
#
#
# Indices 1 2 3 4 5 6 
#
# 1 156.7313 47.4687 53.3930 0.0274 -14.7748 0.0077
# 2 47.4687 121.2692 34.6716 -0.0489 -15.2419 -0.0445
# 3 53.3930 34.6716 66.7382 -0.1018 -17.7784 0.1442
# 4 0.0274 -0.0489 -0.1018 26.3129 0.0137 -3.4776
# 5 -14.7748 -15.2419 -17.7784 0.0137 45.3750 -0.0673
# 6 0.0077 -0.0445 0.1442 -3.4776 -0.0673 42.8245
#
#
#
# Elastic Compliance Matrix: (Units=1/GPa)
#
#
# Indices 1 2 3 4 5 6 
#
# 1 0.009071 -0.001741 -0.006389 -0.000035 -0.000134 0.000015
# 2 -0.001741 0.010103 -0.003464 0.000010 0.001469 0.000026
# 3 -0.006389 -0.003464 0.023482 0.000079 0.005956 -0.000066
# 4 -0.000035 0.000010 0.000079 0.038417 0.000016 0.003119
# 5 -0.000134 0.001469 0.005956 0.000016 0.024822 0.000022
# 6 0.000015 0.000026 -0.000066 0.003119 0.000022 0.023605
#
#
# Mechanical properties :
#
#
# Convention : Reuss Voigt Hill
#
# Bulk Modulus (GPa) = 51.36671 68.42282 59.89477
# Shear Modulus (GPa) = 31.41149 36.84951 34.13050
#
# Velocity S-wave (km/s) = 4.11795 4.46019 4.29248
# Velocity P-wave (km/s) = 7.09510 7.96633 7.54330
#
# Compressibility (1/GPa) = 0.01946786
#
# Stress axis : x y z
#
# Youngs Moduli (GPa) = 110.23555 98.98257 42.58608
#
# Poissons Ratio (x) = 0.17234 0.27207
# Poissons Ratio (y) = 0.19194 0.14753
# Poissons Ratio (z) = 0.70427 0.34289
#
# Static dielectric constant tensor:
#      x y z
#    x 1.646300 -0.000020 0.002020 
#    y -0.000020 1.697350 -0.000130 
#    z 0.002020 -0.000130 1.690100 
# 
# From -- ./inp_files/275054.got.cif
#   From: 2010.05.17/outbox.ucp.g08.bks.cvg/sg15_138_cif.got.tgz:275054.got - 2010.06.11 12:40:34.
