data_PCOD9309677
_publ_section_title
;
Structure prediction by ZEFSAII (Michael W. Deem and Ramdas Pophale) SiO2 
 PCOD9309677
Probable space group: C 2/C
;
_chemical_formula_sum "Si O2"
_cell_formula_units_Z 24
_cell_length_a 15.000000
_cell_length_b 27.000000
_cell_length_c 9.000000
_cell_angle_alpha 90.000000
_cell_angle_beta 140.000000
_cell_angle_gamma 90.000000
_cell_volume 2342.960837
_symmetry_space_group_name_H-M "C 2/C"
_symmetry_group_IT_number 15
_symmetry_cell_setting 'monoclinic'
loop_
_space_group_symop_operation_xyz
x,y,z
-x,y,1/2-z
-x,-y,-z
x,-y,1/2+z
1/2+x,1/2+y,z
1/2-x,1/2+y,1/2-z
1/2-x,1/2-y,-z
1/2+x,1/2-y,1/2+z
loop_
_atom_site_type_symbol
_atom_site_label
_atom_site_fract_x
_atom_site_fract_y
_atom_site_fract_z
Si Si1 0.298473 0.056889 0.416271
Si Si2 0.667110 0.054829 0.480565
Si Si3 0.261126 0.265107 0.840638
Si Si4 0.029023 0.293301 0.108998
Si Si5 0.846796 0.879533 0.989628
Si Si6 0.569483 0.094567 0.637082
O O1 0.436059 0.058336 0.485845
O O2 0.349866 0.095057 0.605495
O O3 0.282943 0.002132 0.463744
O O4 0.171677 0.081756 0.169749
O O5 0.500000 0.056273 0.250000
O O6 0.745032 0.094926 0.480359
O O7 0.679509 0.072495 0.664763
O O8 0.348011 0.233342 0.829387
O O9 0.102170 0.260596 0.596241
O O10 0.250000 0.250000 0.000000
O O11 0.305359 0.323362 0.893302
O O12 0.023783 0.349844 0.041508
O O13 0.000000 0.298551 0.250000
O O14 0.000000 0.878660 0.250000
#
# Coordination Sequence:
#
# PCOD9309677 Si02
#       6
#     8   8   8   8   8   8
#     4  11  21  39  65  95 130 159 213 266 317 370
#     4  12  21  37  69  98 120 171 218 261 318 377
#     4  12  25  44  66  95 129 175 220 270 328 384
#     4  12  23  42  67  96 130 170 217 274 328 387
#     4  12  26  44  60  91 137 169 209 266 322 389
#     4  11  20  38  65 100 125 157 217 278 311 370
#
# _framework density 10.243449
#
# number of rings (size 3 to 8) (size 9 to 14) (size 15 to 20)
#    0.000    0.333    6.667    4.500    0.000    0.667 
#    0.000    0.833    0.000    0.000    0.000    0.000 
#    0.000    0.000    0.000    0.000    0.000    0.000 
#
# Total GULP energy -133614.638876 kJ/mol
# GULP energy per Si atom -5567.276620 kJ/mol
# Density = 1.022013 g / cm^3
# Si number density = 10.243449 Si / 1000 Ang^3
#
#
#
# Elastic Constant Matrix: (Units=GPa)
#
#
# Indices 1 2 3 4 5 6 
#
# 1 63.4059 23.2077 -3.1668 0.0000 -3.2600 0.0000
# 2 23.2077 102.6975 -31.2363 0.0000 3.8162 0.0000
# 3 -3.1668 -31.2363 11.3533 0.0000 3.0595 0.0000
# 4 0.0000 0.0000 0.0000 15.0118 0.0000 -10.6025
# 5 -3.2600 3.8162 3.0595 0.0000 24.3138 0.0000
# 6 0.0000 0.0000 0.0000 -10.6025 0.0000 35.0975
#
#
#
# Elastic Compliance Matrix: (Units=1/GPa)
#
#
# Indices 1 2 3 4 5 6 
#
# 1 0.026045 -0.039494 -0.107657 0.000000 0.023238 0.000000
# 2 -0.039494 0.156178 0.441687 0.000000 -0.085387 0.000000
# 3 -0.107657 0.441687 1.341320 0.000000 -0.252541 0.000000
# 4 0.000000 0.000000 0.000000 0.084682 0.000000 0.025581
# 5 0.023238 -0.085387 -0.252541 0.000000 0.089424 0.000000
# 6 0.000000 0.000000 0.000000 0.025581 0.000000 0.036220
#
#
# Mechanical properties :
#
#
# Convention : Reuss Voigt Hill
#
# Bulk Modulus (GPa) = 0.47335 17.22953 8.85144
# Shear Modulus (GPa) = 2.70416 27.46143 15.08279
#
# Velocity S-wave (km/s) = 1.15014 3.66517 2.71627
# Velocity P-wave (km/s) = 1.41255 5.13221 3.76397
#
# Compressibility (1/GPa) = 2.11261353
#
# Stress axis : x y z
#
# Youngs Moduli (GPa) = 38.39545 6.40295 0.74553
#
# Poissons Ratio (x) = 0.25288 0.08026
# Poissons Ratio (y) = 1.51639 -0.32929
# Poissons Ratio (z) = 4.13355 -2.82810
#
# Static dielectric constant tensor:
#      x y z
#    x 1.703100 0.000000 -0.031150 
#    y 0.000000 1.695850 0.000000 
#    z -0.031150 0.000000 1.790650 
# 
# From -- ./inp_files/43941.got.cif
#   From: 2010.05.17/outbox.ucp.g08.bks.cvg/sg15_22_cif.got.tgz:43941.got - 2010.06.11 12:40:34.
