data_PCOD9309096
_publ_section_title
;
Structure prediction by ZEFSAII (Michael W. Deem and Ramdas Pophale) SiO2 
 PCOD9309096
Probable space group: C 2/C
;
_chemical_formula_sum "Si O2"
_cell_formula_units_Z 28
_cell_length_a 24.000000
_cell_length_b 18.000000
_cell_length_c 21.000000
_cell_angle_alpha 90.000000
_cell_angle_beta 20.000000
_cell_angle_gamma 90.000000
_cell_volume 3102.806740
_symmetry_space_group_name_H-M "C 2/C"
_symmetry_group_IT_number 15
_symmetry_cell_setting 'monoclinic'
loop_
_space_group_symop_operation_xyz
x,y,z
-x,y,1/2-z
-x,-y,-z
x,-y,1/2+z
1/2+x,1/2+y,z
1/2-x,1/2+y,1/2-z
1/2-x,1/2-y,-z
1/2+x,1/2-y,1/2+z
loop_
_atom_site_type_symbol
_atom_site_label
_atom_site_fract_x
_atom_site_fract_y
_atom_site_fract_z
Si Si1 0.663671 0.213031 0.729931
Si Si2 0.343715 0.945085 0.669421
Si Si3 0.502443 0.787594 0.958180
Si Si4 0.365403 0.573948 0.561079
Si Si5 0.890495 0.662426 0.929581
Si Si6 0.219859 0.974045 0.660176
Si Si7 0.807755 0.862421 0.264280
O O1 0.783197 0.143335 0.613749
O O2 0.744606 0.279017 0.601750
O O3 0.510450 0.178604 0.858999
O O4 0.596134 0.236865 0.871913
O O5 0.382890 0.859503 0.646488
O O6 0.274367 0.949193 0.672668
O O7 0.500000 0.000000 0.500000
O O8 0.225245 0.993863 0.841518
O O9 0.581956 0.712095 0.844704
O O10 0.369826 0.826553 0.055541
O O11 0.540248 0.557955 0.345452
O O12 0.365901 0.600708 0.634611
O O13 0.000000 0.678038 0.750000
O O14 0.831446 0.576615 0.994435
O O15 0.210174 0.064617 0.670930
#
# Coordination Sequence:
#
# PCOD9309096 Si02
#       7
#     8   8   8   8   8   8   8
#     4  11  21  37  54  78 111 142 180 219 275 316
#     4  11  17  33  50  76 109 146 177 208 259 333
#     4  11  20  31  51  79 112 143 172 210 265 328
#     4  10  21  31  53  78 109 150 172 211 267 329
#     4  12  24  38  57  76 103 145 191 234 269 312
#     4  11  21  36  50  74 110 142 185 225 266 312
#     4  10  21  30  49  78 110 142 176 206 264 324
#
# _framework density 9.0240880000000008
#
# number of rings (size 3 to 8) (size 9 to 14) (size 15 to 20)
#    0.000    1.143    5.714    5.571    4.000    0.000 
#    0.000    0.000    0.000    0.000    0.000    1.000 
#    0.000    0.000    0.000    0.000    0.000    0.000 
#
# Total GULP energy -156036.562637 kJ/mol
# GULP energy per Si atom -5572.734380 kJ/mol
# Density = 0.900355 g / cm^3
# Si number density = 9.024088 Si / 1000 Ang^3
#
#
#
# Elastic Constant Matrix: (Units=GPa)
#
#
# Indices 1 2 3 4 5 6 
#
# 1 3.9020 7.1546 15.0123 0.0054 -7.0612 0.0008
# 2 7.1546 140.3083 40.8026 0.0221 14.7350 -0.0045
# 3 15.0123 40.8026 74.1706 -0.0135 -2.6821 -0.0038
# 4 0.0054 0.0221 -0.0135 -19.3582 -0.0013 1.7737
# 5 -7.0612 14.7350 -2.6821 -0.0013 13.9700 0.0018
# 6 0.0008 -0.0045 -0.0038 1.7737 0.0018 19.0077
#
#
#
# Elastic Compliance Matrix: (Units=1/GPa)
#
#
# Indices 1 2 3 4 5 6 
#
# 1 -0.380517 0.025052 0.055712 -0.000097 -0.208061 0.000062
# 2 0.025052 0.008460 -0.009656 0.000023 0.001886 -0.000003
# 3 0.055712 -0.009656 0.008967 -0.000005 0.040066 -0.000006
# 4 -0.000097 0.000023 -0.000005 -0.051220 -0.000080 0.004780
# 5 -0.208061 0.001886 0.040066 -0.000080 -0.027880 0.000028
# 6 0.000062 -0.000003 -0.000006 0.004780 0.000028 0.052164
#
#
# Mechanical properties :
#
#
# Convention : Reuss Voigt Hill
#
# Bulk Modulus (GPa) = -4.52746 38.25775 16.86515
# Shear Modulus (GPa) = -8.25264 13.08466 2.41601
#
# Velocity S-wave (km/s) = -2.14067 2.69548 1.15825
# Velocity P-wave (km/s) = 2.93666 5.56157 3.33969
#
# Compressibility (1/GPa) = -0.22087434
#
# Stress axis : x y z
#
# Youngs Moduli (GPa) = -2.62800 118.20680 111.51785
#
# Poissons Ratio (x) = -2.96136 -6.21287
# Poissons Ratio (y) = 0.06584 1.07685
# Poissons Ratio (z) = 0.14641 1.14144
#
# Static dielectric constant tensor:
#      x y z
#    x 1.652640 -0.000010 -0.059330 
#    y -0.000010 1.652330 0.000020 
#    z -0.059330 0.000020 1.700470 
# 
# From -- ./inp_files/62396.got.cif
#   From: 2010.05.17/outbox.ucp.g08.bks.cvg/sg15_32_cif.got.tgz:62396.got - 2010.06.11 12:40:34.
