data_PCOD9309893
_publ_section_title
;
Structure prediction by ZEFSAII (Michael W. Deem and Ramdas Pophale) SiO2 
 PCOD9309893
Probable space group: C 2/C
;
_chemical_formula_sum "Si O2"
_cell_formula_units_Z 28
_cell_length_a 21.000000
_cell_length_b 18.000000
_cell_length_c 21.000000
_cell_angle_alpha 90.000000
_cell_angle_beta 160.000000
_cell_angle_gamma 90.000000
_cell_volume 2714.955898
_symmetry_space_group_name_H-M "C 2/C"
_symmetry_group_IT_number 15
_symmetry_cell_setting 'monoclinic'
loop_
_space_group_symop_operation_xyz
x,y,z
-x,y,1/2-z
-x,-y,-z
x,-y,1/2+z
1/2+x,1/2+y,z
1/2-x,1/2+y,1/2-z
1/2-x,1/2-y,-z
1/2+x,1/2-y,1/2+z
loop_
_atom_site_type_symbol
_atom_site_label
_atom_site_fract_x
_atom_site_fract_y
_atom_site_fract_z
Si Si1 0.655130 0.424703 0.064650
Si Si2 0.707805 0.376303 0.260114
Si Si3 0.026685 0.053785 0.850756
Si Si4 0.815737 0.686455 0.113137
Si Si5 0.024894 0.323284 0.194725
Si Si6 0.196172 0.822290 0.787830
Si Si7 0.088034 0.283902 0.643686
O O1 0.702851 0.421130 0.186804
O O2 0.810583 0.378039 0.172501
O O3 0.632289 0.499162 0.000463
O O4 0.455770 0.384595 0.870211
O O5 0.649418 0.421438 0.269401
O O6 0.567345 0.305793 0.120277
O O7 0.905299 0.334616 0.458923
O O8 0.000000 0.027302 0.750000
O O9 0.153317 0.126273 0.961181
O O10 0.855411 0.704954 0.226719
O O11 0.000000 0.656819 0.250000
O O12 0.750000 0.750000 0.000000
O O13 0.086835 0.245070 0.220522
O O14 0.000000 0.319988 0.250000
O O15 0.845154 0.345573 0.982670
O O16 0.288390 0.800451 0.805424
#
# Coordination Sequence:
#
# PCOD9309893 Si02
#       7
#     8   8   8   8   8   8   8
#     4  12  27  46  70 101 151 192 237 296 369 441
#     4  12  23  45  72 106 142 189 242 305 363 436
#     4  12  28  47  68 101 145 194 238 300 377 430
#     4  12  25  45  75 109 140 184 246 310 365 428
#     4  12  25  41  71 105 141 186 250 300 358 429
#     4  12  23  44  71 107 137 190 242 302 361 432
#     4  12  22  42  77 108 141 183 249 307 357 434
#
# _framework density 10.313243
#
# number of rings (size 3 to 8) (size 9 to 14) (size 15 to 20)
#    0.000    0.000    4.286    7.286    2.000    0.571 
#    2.571    1.429    0.000    0.000    0.000    0.000 
#    0.000    0.000    0.000    0.000    0.000    0.000 
#
# Total GULP energy -156116.149548 kJ/mol
# GULP energy per Si atom -5575.576770 kJ/mol
# Density = 1.028977 g / cm^3
# Si number density = 10.313243 Si / 1000 Ang^3
#
#
#
# Elastic Constant Matrix: (Units=GPa)
#
#
# Indices 1 2 3 4 5 6 
#
# 1 229.4069 26.5072 44.3921 -0.0003 -25.5606 0.0013
# 2 26.5072 66.6002 11.5303 0.0078 -8.2292 -0.0025
# 3 44.3921 11.5303 101.6818 0.0103 -23.4607 0.0039
# 4 -0.0003 0.0078 0.0103 28.0814 0.0022 -6.0400
# 5 -25.5606 -8.2292 -23.4607 0.0022 55.8374 0.0012
# 6 0.0013 -0.0025 0.0039 -6.0400 0.0012 45.1426
#
#
#
# Elastic Compliance Matrix: (Units=1/GPa)
#
#
# Indices 1 2 3 4 5 6 
#
# 1 0.005017 -0.001534 -0.001704 0.000001 0.001355 0.000000
# 2 -0.001534 0.015931 -0.000838 -0.000004 0.001293 0.000000
# 3 -0.001704 -0.000838 0.011588 -0.000005 0.003966 -0.000002
# 4 0.000001 -0.000004 -0.000005 0.036666 -0.000004 0.004906
# 5 0.001355 0.001293 0.003966 -0.000004 0.020386 -0.000001
# 6 0.000000 0.000000 -0.000002 0.004906 -0.000001 0.022808
#
#
# Mechanical properties :
#
#
# Convention : Reuss Voigt Hill
#
# Bulk Modulus (GPa) = 41.01176 62.50533 51.75855
# Shear Modulus (GPa) = 38.85699 46.82956 42.84327
#
# Velocity S-wave (km/s) = 4.34503 4.77000 4.56247
# Velocity P-wave (km/s) = 6.71555 7.79143 7.27341
#
# Compressibility (1/GPa) = 0.02438325
#
# Stress axis : x y z
#
# Youngs Moduli (GPa) = 199.32267 62.77233 86.29291
#
# Poissons Ratio (x) = 0.09632 0.14702
# Poissons Ratio (y) = 0.30585 0.07233
# Poissons Ratio (z) = 0.33960 0.05261
#
# Static dielectric constant tensor:
#      x y z
#    x 1.742060 -0.000010 0.013480 
#    y -0.000010 1.783260 -0.000030 
#    z 0.013480 -0.000030 1.833230 
# 
# From -- ./inp_files/253392.got.cif
#   From: 2010.05.17/outbox.ucp.g08.bks.cvg/sg15_127_cif.got.tgz:253392.got - 2010.06.11 12:40:34.
