data_PCOD9309065
_publ_section_title
;
Structure prediction by ZEFSAII (Michael W. Deem and Ramdas Pophale) SiO2 
 PCOD9309065
Probable space group: C 2/C
;
_chemical_formula_sum "Si O2"
_cell_formula_units_Z 32
_cell_length_a 21.000000
_cell_length_b 24.000000
_cell_length_c 18.000000
_cell_angle_alpha 90.000000
_cell_angle_beta 20.000000
_cell_angle_gamma 90.000000
_cell_volume 3102.806740
_symmetry_space_group_name_H-M "C 2/C"
_symmetry_group_IT_number 15
_symmetry_cell_setting 'monoclinic'
loop_
_space_group_symop_operation_xyz
x,y,z
-x,y,1/2-z
-x,-y,-z
x,-y,1/2+z
1/2+x,1/2+y,z
1/2-x,1/2+y,1/2-z
1/2-x,1/2-y,-z
1/2+x,1/2-y,1/2+z
loop_
_atom_site_type_symbol
_atom_site_label
_atom_site_fract_x
_atom_site_fract_y
_atom_site_fract_z
Si Si1 0.590356 0.439337 0.069612
Si Si2 0.180470 0.478670 0.348847
Si Si3 0.660433 0.125445 0.769669
Si Si4 0.498669 0.093956 0.340034
Si Si5 0.550328 0.329373 0.015773
Si Si6 0.479568 0.433199 0.858087
Si Si7 0.362204 0.201572 0.574618
Si Si8 0.746561 0.095410 0.322228
O O1 0.500000 0.436544 0.250000
O O2 0.563620 0.502463 0.067824
O O3 0.809287 0.430063 0.839857
O O4 0.530848 0.382424 0.092261
O O5 0.231484 0.421693 0.251066
O O6 0.292707 0.535770 0.233331
O O7 0.000000 0.500000 0.500000
O O8 0.143468 0.452446 0.471525
O O9 0.611527 0.181507 0.868464
O O10 0.829917 0.117180 0.529002
O O11 0.473623 0.103198 0.936860
O O12 0.500000 0.097038 0.250000
O O13 0.475197 0.156003 0.401285
O O14 0.619657 0.267317 0.963855
O O15 0.671907 0.354679 0.815985
O O16 0.348132 0.314508 0.209635
O O17 0.500000 0.442656 0.750000
O O18 0.660986 0.410614 0.699966
#
# Coordination Sequence:
#
# PCOD9309065 Si02
#       8
#     8   8   8   8   8   8   8   8
#     4  11  24  39  58  92 135 169 209 257 314 380
#     4   9  19  35  59  89 122 164 210 255 309 369
#     4  10  20  41  61  95 124 164 209 267 312 376
#     4  11  23  40  61  92 133 176 214 260 320 376
#     4  12  23  42  65  94 122 168 216 266 313 376
#     4  11  25  40  62  99 132 166 211 258 321 394
#     4  11  24  41  66  93 124 163 221 265 312 375
#     4  11  22  38  66  91 126 166 209 265 320 372
#
# _framework density 10.313243
#
# number of rings (size 3 to 8) (size 9 to 14) (size 15 to 20)
#    0.000    1.250    1.250    6.750    7.000    2.000 
#    0.000    2.500    0.000    0.750    0.000    0.000 
#    0.000    0.000    0.000    0.000    0.000    0.000 
#
# Total GULP energy -178214.385647 kJ/mol
# GULP energy per Si atom -5569.199551 kJ/mol
# Density = 1.028977 g / cm^3
# Si number density = 10.313243 Si / 1000 Ang^3
#
#
#
# Elastic Constant Matrix: (Units=GPa)
#
#
# Indices 1 2 3 4 5 6 
#
# 1 95.2688 32.4815 32.6382 0.0055 -4.7055 0.0097
# 2 32.4815 106.7091 14.2307 0.0756 11.4022 0.0310
# 3 32.6382 14.2307 46.4627 0.0176 -17.1099 0.0721
# 4 0.0055 0.0756 0.0176 33.5529 0.0304 -5.3809
# 5 -4.7055 11.4022 -17.1099 0.0304 29.0637 -0.0109
# 6 0.0097 0.0310 0.0721 -5.3809 -0.0109 31.0405
#
#
#
# Elastic Compliance Matrix: (Units=1/GPa)
#
#
# Indices 1 2 3 4 5 6 
#
# 1 0.014985 -0.002848 -0.010660 0.000016 -0.002733 0.000025
# 2 -0.002848 0.011630 -0.004356 -0.000018 -0.007588 -0.000006
# 3 -0.010660 -0.004356 0.038737 -0.000043 0.022788 -0.000082
# 4 0.000016 -0.000018 -0.000043 0.030656 -0.000046 0.005314
# 5 -0.002733 -0.007588 0.022788 -0.000046 0.050357 -0.000035
# 6 0.000025 -0.000006 -0.000082 0.005314 -0.000035 0.033137
#
#
# Mechanical properties :
#
#
# Convention : Reuss Voigt Hill
#
# Bulk Modulus (GPa) = 33.75669 45.23795 39.49732
# Shear Modulus (GPa) = 22.21199 30.00409 26.10804
#
# Velocity S-wave (km/s) = 3.28513 3.81811 3.56160
# Velocity P-wave (km/s) = 5.54893 6.43559 6.00864
#
# Compressibility (1/GPa) = 0.02962375
#
# Stress axis : x y z
#
# Youngs Moduli (GPa) = 66.73508 85.98613 25.81521
#
# Poissons Ratio (x) = 0.24486 0.27520
# Poissons Ratio (y) = 0.19004 0.11245
# Poissons Ratio (z) = 0.71141 0.37455
#
# Static dielectric constant tensor:
#      x y z
#    x 1.612780 0.000000 -0.028860 
#    y 0.000000 1.726050 0.000070 
#    z -0.028860 0.000070 1.870110 
# 
# From -- ./inp_files/216957.got.cif
#   From: 2010.05.17/outbox.ucp.g08.bks.cvg/sg15_109_cif.got.tgz:216957.got - 2010.06.11 12:40:34.
