data_PCOD9309293
_publ_section_title
;
Structure prediction by ZEFSAII (Michael W. Deem and Ramdas Pophale) SiO2 
 PCOD9309293
Probable space group: C 2/C
;
_chemical_formula_sum "Si O2"
_cell_formula_units_Z 28
_cell_length_a 9.000000
_cell_length_b 18.000000
_cell_length_c 27.000000
_cell_angle_alpha 90.000000
_cell_angle_beta 140.000000
_cell_angle_gamma 90.000000
_cell_volume 2811.553005
_symmetry_space_group_name_H-M "C 2/C"
_symmetry_group_IT_number 15
_symmetry_cell_setting 'monoclinic'
loop_
_space_group_symop_operation_xyz
x,y,z
-x,y,1/2-z
-x,-y,-z
x,-y,1/2+z
1/2+x,1/2+y,z
1/2-x,1/2+y,1/2-z
1/2-x,1/2-y,-z
1/2+x,1/2-y,1/2+z
loop_
_atom_site_type_symbol
_atom_site_label
_atom_site_fract_x
_atom_site_fract_y
_atom_site_fract_z
Si Si1 0.342781 0.111050 0.659564
Si Si2 0.769158 0.626934 0.435676
Si Si3 0.237938 0.978782 0.834476
Si Si4 0.999840 0.770816 0.457395
Si Si5 0.078251 0.448649 0.827826
Si Si6 0.408861 0.862183 0.383609
Si Si7 0.630707 0.306617 0.601632
O O1 0.500000 0.116199 0.750000
O O2 0.473589 0.133729 0.641330
O O3 0.127269 0.166719 0.607256
O O4 0.268518 0.024701 0.633148
O O5 0.772314 0.558746 0.397512
O O6 0.925030 0.621727 0.525845
O O7 0.525293 0.652666 0.396668
O O8 0.857163 0.695165 0.424756
O O9 0.418617 0.962185 0.835791
O O10 0.000000 0.951755 0.750000
O O11 0.236323 0.068074 0.840877
O O12 0.250000 0.750000 0.500000
O O13 0.008195 0.798156 0.516785
O O14 0.170464 0.365623 0.857836
O O15 0.000000 0.449216 0.750000
O O16 0.318048 0.777975 0.368469
#
# Coordination Sequence:
#
# PCOD9309293 Si02
#       7
#     8   8   8   8   8   8   8
#     4  10  21  43  67  92 132 177 220 274 334 394
#     4  11  21  42  68  93 132 170 216 270 338 387
#     4  11  24  42  65  95 130 171 221 271 328 400
#     4  11  22  41  64 101 132 169 226 276 327 405
#     4  10  23  43  62  94 132 171 220 267 335 398
#     4  10  21  44  66  94 128 170 219 265 332 394
#     4  11  21  42  68  91 131 171 214 276 330 388
#
# _framework density 9.9589090000000002
#
# number of rings (size 3 to 8) (size 9 to 14) (size 15 to 20)
#    0.000    1.429    2.857    3.000    0.000    1.714 
#   28.286    0.000    0.000    0.000    0.000    0.000 
#    0.000    0.000    0.000    0.000    0.000    0.000 
#
# Total GULP energy -155947.740758 kJ/mol
# GULP energy per Si atom -5569.562170 kJ/mol
# Density = 0.993624 g / cm^3
# Si number density = 9.958909 Si / 1000 Ang^3
#
#
#
# Elastic Constant Matrix: (Units=GPa)
#
#
# Indices 1 2 3 4 5 6 
#
# 1 97.5975 39.7922 24.3888 0.0004 -11.3368 -0.0001
# 2 39.7922 154.0109 48.5427 0.0001 -3.1645 0.0000
# 3 24.3888 48.5427 63.1819 0.0009 -20.5208 -0.0003
# 4 0.0004 0.0001 0.0009 3.9068 0.0006 0.7605
# 5 -11.3368 -3.1645 -20.5208 0.0006 30.0457 -0.0001
# 6 -0.0001 0.0000 -0.0003 0.7605 -0.0001 35.0990
#
#
#
# Elastic Compliance Matrix: (Units=1/GPa)
#
#
# Indices 1 2 3 4 5 6 
#
# 1 0.012060 -0.002512 -0.001714 -0.000001 0.003116 0.000000
# 2 -0.002512 0.009620 -0.008225 0.000003 -0.005552 0.000000
# 3 -0.001714 -0.008225 0.028678 -0.000009 0.018074 0.000000
# 4 -0.000001 0.000003 -0.000009 0.257047 -0.000011 -0.005569
# 5 0.003116 -0.005552 0.018074 -0.000011 0.046218 0.000001
# 6 0.000000 0.000000 0.000000 -0.005569 0.000001 0.028611
#
#
# Mechanical properties :
#
#
# Convention : Reuss Voigt Hill
#
# Bulk Modulus (GPa) = 39.28020 60.02642 49.65331
# Shear Modulus (GPa) = 12.03014 27.28142 19.65578
#
# Velocity S-wave (km/s) = 2.46029 3.70496 3.14482
# Velocity P-wave (km/s) = 5.27585 6.96454 6.17816
#
# Compressibility (1/GPa) = 0.02545812
#
# Stress axis : x y z
#
# Youngs Moduli (GPa) = 82.91558 103.94546 34.86965
#
# Poissons Ratio (x) = 0.26111 0.05975
# Poissons Ratio (y) = 0.20828 0.28680
# Poissons Ratio (z) = 0.14208 0.85495
#
# Static dielectric constant tensor:
#      x y z
#    x 1.738970 0.000000 0.055640 
#    y 0.000000 1.727250 0.000000 
#    z 0.055640 0.000000 1.789890 
# 
# From -- ./inp_files/289782.got.cif
#   From: 2010.05.17/outbox.ucp.g08.bks.cvg/sg15_145_cif.got.tgz:289782.got - 2010.06.11 12:40:34.
