data_PCOD9309195
_publ_section_title
;
Structure prediction by ZEFSAII (Michael W. Deem and Ramdas Pophale) SiO2 
 PCOD9309195
Probable space group: C 2/C
;
_chemical_formula_sum "Si O2"
_cell_formula_units_Z 26
_cell_length_a 15.000000
_cell_length_b 12.000000
_cell_length_c 15.000000
_cell_angle_alpha 90.000000
_cell_angle_beta 70.000000
_cell_angle_gamma 90.000000
_cell_volume 2537.170076
_symmetry_space_group_name_H-M "C 2/C"
_symmetry_group_IT_number 15
_symmetry_cell_setting 'monoclinic'
loop_
_space_group_symop_operation_xyz
x,y,z
-x,y,1/2-z
-x,-y,-z
x,-y,1/2+z
1/2+x,1/2+y,z
1/2-x,1/2+y,1/2-z
1/2-x,1/2-y,-z
1/2+x,1/2-y,1/2+z
loop_
_atom_site_type_symbol
_atom_site_label
_atom_site_fract_x
_atom_site_fract_y
_atom_site_fract_z
Si Si1 0.374830 0.844837 0.390183
Si Si2 0.653758 0.625754 0.596682
Si Si3 0.281339 0.383444 0.922183
Si Si4 0.000000 0.735920 0.250000
Si Si5 0.337218 0.895328 0.699999
Si Si6 0.196479 0.188142 0.388959
Si Si7 0.414736 0.870921 0.166976
O O1 0.357113 0.713593 0.412195
O O2 0.286025 0.901613 0.469096
O O3 0.388739 0.865780 0.280640
O O4 0.475014 0.885253 0.393275
O O5 0.671271 0.499619 0.621294
O O6 0.560495 0.684003 0.665995
O O7 0.735837 0.709836 0.602173
O O8 0.656640 0.628274 0.489008
O O9 0.212050 0.336880 0.867665
O O10 0.929684 0.660799 0.213256
O O11 0.258563 0.890872 0.804649
O O12 0.362089 0.017390 0.655363
O O13 0.117223 0.253855 0.361831
#
# Coordination Sequence:
#
# PCOD9309195 Si02
#       7
#     8   8   8   4   8   8   8
#     4  10  24  38  62  91 130 151 212 253 305 364
#     4  10  22  41  62  89 127 160 205 250 308 360
#     4  11  22  42  62  90 124 170 194 256 314 362
#     4  10  24  40  60  96 126 156 208 260 288 368
#     4  11  22  40  65  90 125 162 205 251 312 352
#     4  10  21  39  64  92 122 161 205 254 301 369
#     4  11  21  40  63  93 118 164 205 257 299 365
#
# _framework density 10.247638
#
# number of rings (size 3 to 8) (size 9 to 14) (size 15 to 20)
#    0.000    1.538    3.077    1.846    2.154    4.308 
#    0.000    0.769    0.000    0.000    0.000    0.000 
#    0.000    0.000    0.000    0.000    0.000    0.000 
#
# Total GULP energy -145047.438133 kJ/mol
# GULP energy per Si atom -5578.747621 kJ/mol
# Density = 1.022431 g / cm^3
# Si number density = 10.247638 Si / 1000 Ang^3
#
#
#
# Elastic Constant Matrix: (Units=GPa)
#
#
# Indices 1 2 3 4 5 6 
#
# 1 34.0638 19.5680 14.2695 0.0000 -0.7086 0.0000
# 2 19.5680 62.9335 -0.1294 0.0000 -8.8204 0.0000
# 3 14.2695 -0.1294 63.5388 0.0000 -7.1738 0.0000
# 4 0.0000 0.0000 0.0000 21.2330 0.0000 -1.4159
# 5 -0.7086 -8.8204 -7.1738 0.0000 26.4906 0.0000
# 6 0.0000 0.0000 0.0000 -1.4159 0.0000 19.2642
#
#
#
# Elastic Compliance Matrix: (Units=1/GPa)
#
#
# Indices 1 2 3 4 5 6 
#
# 1 0.041304 -0.013729 -0.010001 0.000000 -0.006175 0.000000
# 2 -0.013729 0.021259 0.004007 0.000000 0.007796 0.000000
# 3 -0.010001 0.004007 0.018684 0.000000 0.006126 0.000000
# 4 0.000000 0.000000 0.000000 0.047328 0.000000 0.003479
# 5 -0.006175 0.007796 0.006126 0.000000 0.041839 0.000000
# 6 0.000000 0.000000 0.000000 0.003479 0.000000 0.052165
#
#
# Mechanical properties :
#
#
# Convention : Reuss Voigt Hill
#
# Bulk Modulus (GPa) = 23.92251 25.32802 24.62527
# Shear Modulus (GPa) = 18.11847 21.85276 19.98562
#
# Velocity S-wave (km/s) = 2.97649 3.26887 3.12610
# Velocity P-wave (km/s) = 4.84873 5.16063 5.00711
#
# Compressibility (1/GPa) = 0.04180163
#
# Stress axis : x y z
#
# Youngs Moduli (GPa) = 24.21054 47.03794 53.52068
#
# Poissons Ratio (x) = 0.64577 0.53527
# Poissons Ratio (y) = 0.33238 -0.21444
# Poissons Ratio (z) = 0.24214 -0.18847
#
# Static dielectric constant tensor:
#      x y z
#    x 1.755610 0.000000 0.032180 
#    y 0.000000 1.708920 0.000000 
#    z 0.032180 0.000000 1.719840 
# 
# From -- ./inp_files/152567.got.cif
#   From: 2010.05.17/outbox.ucp.g08.bks.cvg/sg15_77_cif.got.tgz:152567.got - 2010.06.11 12:40:34.
