data_PCOD9309640
_publ_section_title
;
Structure prediction by ZEFSAII (Michael W. Deem and Ramdas Pophale) SiO2 
 PCOD9309640
Probable space group: C 2/C
;
_chemical_formula_sum "Si O2"
_cell_formula_units_Z 22
_cell_length_a 18.000000
_cell_length_b 6.000000
_cell_length_c 24.000000
_cell_angle_alpha 90.000000
_cell_angle_beta 60.000000
_cell_angle_gamma 90.000000
_cell_volume 2244.737847
_symmetry_space_group_name_H-M "C 2/C"
_symmetry_group_IT_number 15
_symmetry_cell_setting 'monoclinic'
loop_
_space_group_symop_operation_xyz
x,y,z
-x,y,1/2-z
-x,-y,-z
x,-y,1/2+z
1/2+x,1/2+y,z
1/2-x,1/2+y,1/2-z
1/2-x,1/2-y,-z
1/2+x,1/2-y,1/2+z
loop_
_atom_site_type_symbol
_atom_site_label
_atom_site_fract_x
_atom_site_fract_y
_atom_site_fract_z
Si Si1 0.676307 0.008820 0.972836
Si Si2 0.665705 0.085733 0.348496
Si Si3 0.352576 0.763500 0.251396
Si Si4 0.139333 0.009370 0.038665
Si Si5 0.470166 0.375199 0.161444
Si Si6 0.500000 0.045132 0.250000
O O1 0.661036 0.010064 0.912305
O O2 0.776482 0.999011 0.953449
O O3 0.643208 0.757518 0.006441
O O4 0.643299 0.257392 0.007184
O O5 0.757913 0.208463 0.309157
O O6 0.586846 0.250021 0.363727
O O7 0.660317 0.902854 0.301029
O O8 0.404730 0.539826 0.217430
O O9 0.414371 0.899958 0.270395
O O10 0.049834 0.004985 0.105261
O O11 0.506615 0.198824 0.192695
#
# Coordination Sequence:
#
# PCOD9309640 Si02
#       6
#     8   8   8   8   8   4
#     4  10  25  45  70 100 133 191 222 299 336 414
#     4  11  25  42  69  98 143 175 228 278 360 404
#     4  11  24  44  64 106 136 178 225 288 349 423
#     4  10  25  46  69  99 138 176 248 275 348 407
#     4  11  25  44  66 102 134 181 224 291 339 426
#     4  10  26  40  70 100 132 182 226 284 356 404
#
# _framework density 9.8006989999999998
#
# number of rings (size 3 to 8) (size 9 to 14) (size 15 to 20)
#    0.000    1.455    1.818    0.545   12.727    4.364 
#    0.000    0.000    0.000    0.000    0.000    0.000 
#    0.000    0.000    0.000    0.000    0.000    0.000 
#
# Total GULP energy -122730.720687 kJ/mol
# GULP energy per Si atom -5578.669122 kJ/mol
# Density = 0.977839 g / cm^3
# Si number density = 9.800699 Si / 1000 Ang^3
#
#
#
# Elastic Constant Matrix: (Units=GPa)
#
#
# Indices 1 2 3 4 5 6 
#
# 1 120.4885 37.3752 47.1369 -0.0019 19.3434 -0.0005
# 2 37.3752 102.8689 16.2699 -0.0014 15.1098 0.0062
# 3 47.1369 16.2699 55.4405 -0.0002 7.7787 0.0010
# 4 -0.0019 -0.0014 -0.0002 21.8462 0.0007 0.0950
# 5 19.3434 15.1098 7.7787 0.0007 31.5964 0.0007
# 6 -0.0005 0.0062 0.0010 0.0950 0.0007 38.3161
#
#
#
# Elastic Compliance Matrix: (Units=1/GPa)
#
#
# Indices 1 2 3 4 5 6 
#
# 1 0.013980 -0.002743 -0.010424 0.000001 -0.004680 0.000001
# 2 -0.002743 0.011326 -0.000484 0.000001 -0.003618 -0.000002
# 3 -0.010424 -0.000484 0.027049 -0.000001 -0.000046 -0.000001
# 4 0.000001 0.000001 -0.000001 0.045775 -0.000002 -0.000113
# 5 -0.004680 -0.003618 -0.000046 -0.000002 0.036256 0.000000
# 6 0.000001 -0.000002 -0.000001 -0.000113 0.000000 0.026099
#
#
# Mechanical properties :
#
#
# Convention : Reuss Voigt Hill
#
# Bulk Modulus (GPa) = 39.91737 53.37353 46.64545
# Shear Modulus (GPa) = 25.49226 30.21947 27.85587
#
# Velocity S-wave (km/s) = 3.61020 3.93071 3.77386
# Velocity P-wave (km/s) = 6.14710 6.92020 6.54508
#
# Compressibility (1/GPa) = 0.02505175
#
# Stress axis : x y z
#
# Youngs Moduli (GPa) = 71.53035 88.29508 36.97004
#
# Poissons Ratio (x) = 0.24220 0.38539
# Poissons Ratio (y) = 0.19622 0.01789
# Poissons Ratio (z) = 0.74567 0.04272
#
# Static dielectric constant tensor:
#      x y z
#    x 1.650160 0.000000 0.002570 
#    y 0.000000 1.736320 0.000000 
#    z 0.002570 0.000000 1.683240 
# 
# From -- ./inp_files/246424.got.cif
#   From: 2010.05.17/outbox.ucp.g08.bks.cvg/sg15_124_cif.got.tgz:246424.got - 2010.06.11 12:40:34.
