data_PCOD9309324
_publ_section_title
;
Structure prediction by ZEFSAII (Michael W. Deem and Ramdas Pophale) SiO2 
 PCOD9309324
Probable space group: C 2/C
;
_chemical_formula_sum "Si O2"
_cell_formula_units_Z 20
_cell_length_a 12.000000
_cell_length_b 24.000000
_cell_length_c 9.000000
_cell_angle_alpha 90.000000
_cell_angle_beta 120.000000
_cell_angle_gamma 90.000000
_cell_volume 2244.737847
_symmetry_space_group_name_H-M "C 2/C"
_symmetry_group_IT_number 15
_symmetry_cell_setting 'monoclinic'
loop_
_space_group_symop_operation_xyz
x,y,z
-x,y,1/2-z
-x,-y,-z
x,-y,1/2+z
1/2+x,1/2+y,z
1/2-x,1/2+y,1/2-z
1/2-x,1/2-y,-z
1/2+x,1/2-y,1/2+z
loop_
_atom_site_type_symbol
_atom_site_label
_atom_site_fract_x
_atom_site_fract_y
_atom_site_fract_z
Si Si1 0.524654 0.865231 0.592906
Si Si2 0.637286 0.969777 0.548536
Si Si3 0.623577 0.212618 0.921061
Si Si4 0.404867 0.467347 0.322300
Si Si5 0.814514 0.401093 0.209594
O O1 0.500000 0.858935 0.750000
O O2 0.631278 0.913099 0.639800
O O3 0.572819 0.808521 0.547207
O O4 0.402908 0.889393 0.414857
O O5 0.642403 0.950167 0.378218
O O6 0.500000 0.000000 0.500000
O O7 0.773030 0.000331 0.677975
O O8 0.500000 0.236485 0.750000
O O9 0.662359 0.155086 0.865904
O O10 0.750000 0.250000 0.000000
O O11 0.500000 0.453787 0.250000
O O12 0.500000 0.500000 0.500000
O O13 0.332921 0.414609 0.348760
#
# Coordination Sequence:
#
# PCOD9309324 Si02
#       5
#     8   8   8   8   8
#     4  10  22  36  63  94 119 153 216 251 293 370
#     4  11  22  36  63  84 119 174 208 239 295 368
#     4   9  20  44  67  87 117 156 203 260 315 366
#     4  12  25  38  53  86 132 166 205 249 305 356
#     4  10  22  42  59  88 126 164 204 252 304 370
#
# _framework density 8.9097259999999991
#
# number of rings (size 3 to 8) (size 9 to 14) (size 15 to 20)
#    0.000    1.600    4.000    1.800    5.600    0.000 
#    7.200    5.000    0.000    0.000    0.000    0.000 
#    0.000    0.000    0.000    0.000    0.000    0.000 
#
# Total GULP energy -111350.312652 kJ/mol
# GULP energy per Si atom -5567.515633 kJ/mol
# Density = 0.888945 g / cm^3
# Si number density = 8.909726 Si / 1000 Ang^3
#
#
#
# Elastic Constant Matrix: (Units=GPa)
#
#
# Indices 1 2 3 4 5 6 
#
# 1 161.9700 27.5585 66.3755 0.0000 -1.1225 0.0000
# 2 27.5585 37.4155 35.0723 0.0000 7.5611 0.0000
# 3 66.3755 35.0723 121.6015 0.0000 -6.1423 0.0000
# 4 0.0000 0.0000 0.0000 12.1026 0.0000 11.7412
# 5 -1.1225 7.5611 -6.1423 0.0000 52.3091 0.0000
# 6 0.0000 0.0000 0.0000 11.7412 0.0000 45.6963
#
#
#
# Elastic Compliance Matrix: (Units=1/GPa)
#
#
# Indices 1 2 3 4 5 6 
#
# 1 0.008121 -0.002540 -0.003695 0.000000 0.000108 0.000000
# 2 -0.002540 0.039819 -0.010454 0.000000 -0.007038 0.000000
# 3 -0.003695 -0.010454 0.013407 0.000000 0.003006 0.000000
# 4 0.000000 0.000000 0.000000 0.110062 0.000000 -0.028279
# 5 0.000108 -0.007038 0.003006 0.000000 0.020490 0.000000
# 6 0.000000 0.000000 0.000000 -0.028279 0.000000 0.029150
#
#
# Mechanical properties :
#
#
# Convention : Reuss Voigt Hill
#
# Bulk Modulus (GPa) = 35.75206 64.33331 50.04268
# Shear Modulus (GPa) = 18.95745 34.82031 26.88888
#
# Velocity S-wave (km/s) = 3.26523 4.42527 3.88875
# Velocity P-wave (km/s) = 5.85856 7.89252 6.95035
#
# Compressibility (1/GPa) = 0.02797041
#
# Stress axis : x y z
#
# Youngs Moduli (GPa) = 123.13719 25.11373 74.58628
#
# Poissons Ratio (x) = 0.06378 0.27558
# Poissons Ratio (y) = 0.31275 0.77970
# Poissons Ratio (z) = 0.45497 0.26253
#
# Static dielectric constant tensor:
#      x y z
#    x 1.625010 0.000000 -0.027370 
#    y 0.000000 1.653810 0.000000 
#    z -0.027370 0.000000 1.658450 
# 
# From -- ./inp_files/32282.got.cif
#   From: 2010.05.17/outbox.ucp.g08.bks.cvg/sg15_17_cif.got.tgz:32282.got - 2010.06.11 12:40:34.
