data_PCOD9309823
_publ_section_title
;
Structure prediction by ZEFSAII (Michael W. Deem and Ramdas Pophale) SiO2 
 PCOD9309823
Probable space group: C 2/C
;
_chemical_formula_sum "Si O2"
_cell_formula_units_Z 22
_cell_length_a 15.000000
_cell_length_b 12.000000
_cell_length_c 12.000000
_cell_angle_alpha 90.000000
_cell_angle_beta 100.000000
_cell_angle_gamma 90.000000
_cell_volume 2127.184747
_symmetry_space_group_name_H-M "C 2/C"
_symmetry_group_IT_number 15
_symmetry_cell_setting 'monoclinic'
loop_
_space_group_symop_operation_xyz
x,y,z
-x,y,1/2-z
-x,-y,-z
x,-y,1/2+z
1/2+x,1/2+y,z
1/2-x,1/2+y,1/2-z
1/2-x,1/2-y,-z
1/2+x,1/2-y,1/2+z
loop_
_atom_site_type_symbol
_atom_site_label
_atom_site_fract_x
_atom_site_fract_y
_atom_site_fract_z
Si Si1 0.617797 0.200350 0.412150
Si Si2 0.903295 0.001823 0.405974
Si Si3 0.272311 0.153626 0.592233
Si Si4 0.686943 0.742330 0.153583
Si Si5 0.000000 0.133666 0.750000
Si Si6 0.457823 0.970142 0.117989
O O1 0.631834 0.187079 0.548452
O O2 0.714477 0.224819 0.378780
O O3 0.548705 0.294952 0.356860
O O4 0.579573 0.089049 0.352695
O O5 0.814126 0.932622 0.430223
O O6 0.927587 0.941704 0.296151
O O7 0.867550 0.125281 0.366831
O O8 0.000000 0.000000 0.500000
O O9 0.250000 0.250000 0.500000
O O10 0.293695 0.203494 0.721437
O O11 0.368009 0.101650 0.575741
O O12 0.500000 0.926896 0.250000
O O13 0.500000 0.000000 0.000000
#
# Coordination Sequence:
#
# PCOD9309823 Si02
#       6
#     8   8   8   8   4   8
#     4  11  23  44  76 103 140 192 243 300 369 446
#     4  12  27  47  71 110 147 195 247 305 377 450
#     4  12  30  47  73 108 153 195 250 315 378 445
#     4  11  25  46  71 104 148 190 247 303 372 444
#     4  12  24  44  76 106 142 192 246 298 372 452
#     4  12  28  48  78 110 149 196 254 310 383 455
#
# _framework density 10.342307999999999
#
# number of rings (size 3 to 8) (size 9 to 14) (size 15 to 20)
#    0.000    0.364    6.364    1.091    7.636    2.909 
#    0.000    0.000    0.000    0.000    0.000    0.000 
#    0.000    0.000    0.000    0.000    0.000    0.000 
#
# Total GULP energy -122469.970703 kJ/mol
# GULP energy per Si atom -5566.816850 kJ/mol
# Density = 1.031877 g / cm^3
# Si number density = 10.342308 Si / 1000 Ang^3
#
#
#
# Elastic Constant Matrix: (Units=GPa)
#
#
# Indices 1 2 3 4 5 6 
#
# 1 123.2324 44.6552 45.7194 0.0000 16.1687 0.0000
# 2 44.6552 82.3589 17.9608 0.0000 14.9132 0.0000
# 3 45.7194 17.9608 141.9907 0.0000 15.8672 0.0000
# 4 0.0000 0.0000 0.0000 -7.0770 0.0000 -22.1578
# 5 16.1687 14.9132 15.8672 0.0000 42.4667 0.0000
# 6 0.0000 0.0000 0.0000 -22.1578 0.0000 26.5483
#
#
#
# Elastic Compliance Matrix: (Units=1/GPa)
#
#
# Indices 1 2 3 4 5 6 
#
# 1 0.011230 -0.005226 -0.002799 0.000000 -0.001395 0.000000
# 2 -0.005226 0.015591 0.000104 0.000000 -0.003524 0.000000
# 3 -0.002799 0.000104 0.008156 0.000000 -0.002018 0.000000
# 4 0.000000 0.000000 0.000000 -0.039108 0.000000 -0.032640
# 5 -0.001395 -0.003524 -0.002018 0.000000 0.026071 0.000000
# 6 0.000000 0.000000 0.000000 -0.032640 0.000000 0.010425
#
#
# Mechanical properties :
#
#
# Convention : Reuss Voigt Hill
#
# Bulk Modulus (GPa) = 52.25742 62.69474 57.47608
# Shear Modulus (GPa) = 91.60041 28.33736 59.96889
#
# Velocity S-wave (km/s) = 6.66187 3.70533 5.39027
# Velocity P-wave (km/s) = 9.19199 6.97722 8.16009
#
# Compressibility (1/GPa) = 0.01913604
#
# Stress axis : x y z
#
# Youngs Moduli (GPa) = 89.04835 64.13997 122.60433
#
# Poissons Ratio (x) = 0.33519 0.34317
# Poissons Ratio (y) = 0.46536 -0.01280
# Poissons Ratio (z) = 0.24925 -0.00670
#
# Static dielectric constant tensor:
#      x y z
#    x 1.615950 0.000000 -0.079330 
#    y 0.000000 1.733320 0.000000 
#    z -0.079330 0.000000 1.710870 
# 
# From -- ./inp_files/95054.got.cif
#   From: 2010.05.17/outbox.ucp.g08.bks.cvg/sg15_48_cif.got.tgz:95054.got - 2010.06.11 12:40:34.
