data_PCOD9309852
_publ_section_title
;
Structure prediction by ZEFSAII (Michael W. Deem and Ramdas Pophale) SiO2 
 PCOD9309852
Probable space group: C 2/C
;
_chemical_formula_sum "Si O2"
_cell_formula_units_Z 32
_cell_length_a 24.000000
_cell_length_b 21.000000
_cell_length_c 18.000000
_cell_angle_alpha 90.000000
_cell_angle_beta 160.000000
_cell_angle_gamma 90.000000
_cell_volume 3102.806740
_symmetry_space_group_name_H-M "C 2/C"
_symmetry_group_IT_number 15
_symmetry_cell_setting 'monoclinic'
loop_
_space_group_symop_operation_xyz
x,y,z
-x,y,1/2-z
-x,-y,-z
x,-y,1/2+z
1/2+x,1/2+y,z
1/2-x,1/2+y,1/2-z
1/2-x,1/2-y,-z
1/2+x,1/2-y,1/2+z
loop_
_atom_site_type_symbol
_atom_site_label
_atom_site_fract_x
_atom_site_fract_y
_atom_site_fract_z
Si Si1 0.308769 0.557119 0.625590
Si Si2 0.466542 0.675217 0.100665
Si Si3 0.549938 0.872958 0.600274
Si Si4 0.234134 0.925828 0.995920
Si Si5 0.202284 0.919829 0.214691
Si Si6 0.833753 0.021064 0.450827
Si Si7 0.862105 0.312636 0.640311
Si Si8 0.619482 0.811283 0.250380
O O1 0.233566 0.486322 0.517317
O O2 0.313647 0.571308 0.718497
O O3 0.219937 0.618242 0.479018
O O4 0.489374 0.552003 0.817798
O O5 0.582480 0.618620 0.278639
O O6 0.563990 0.741704 0.210323
O O7 0.395727 0.642003 0.937558
O O8 0.304127 0.690107 0.946561
O O9 0.388885 0.910724 0.423612
O O10 0.695936 0.924336 0.776485
O O11 0.576630 0.822074 0.699052
O O12 0.505100 0.835315 0.469103
O O13 0.369410 0.871161 0.178725
O O14 0.204499 0.965841 0.035757
O O15 0.148970 0.982872 0.104417
O O16 0.750000 0.250000 0.500000
O O17 0.000000 0.304607 0.750000
#
# Coordination Sequence:
#
# PCOD9309852 Si02
#       8
#     8   8   8   8   8   8   8   8
#     4  12  25  44  70 104 138 175 230 285 344 401
#     4  11  24  44  69  95 139 182 230 273 342 400
#     4  11  25  44  69  99 135 179 228 281 342 406
#     4  12  23  44  73 102 138 181 226 280 343 413
#     4  11  24  44  67  99 140 179 222 290 341 398
#     4  12  23  42  75 101 133 180 229 278 345 417
#     4  12  29  47  70  99 139 179 228 287 342 411
#     4  11  25  44  67  99 137 182 225 280 334 410
#
# _framework density 10.313243
#
# number of rings (size 3 to 8) (size 9 to 14) (size 15 to 20)
#    0.000    0.500    6.250    2.625    3.500    1.000 
#    0.000    1.250    0.000    0.000    0.000    0.000 
#    0.000    0.000    0.000    0.000    0.000    0.000 
#
# Total GULP energy -178768.913286 kJ/mol
# GULP energy per Si atom -5586.528540 kJ/mol
# Density = 1.028977 g / cm^3
# Si number density = 10.313243 Si / 1000 Ang^3
#
#
#
# Elastic Constant Matrix: (Units=GPa)
#
#
# Indices 1 2 3 4 5 6 
#
# 1 62.3519 36.8582 26.9958 0.0000 -18.6016 0.0000
# 2 36.8582 172.2819 58.2360 0.0000 2.8906 0.0000
# 3 26.9958 58.2360 85.3218 0.0000 -3.7810 0.0000
# 4 0.0000 0.0000 0.0000 50.9034 0.0000 5.2563
# 5 -18.6016 2.8906 -3.7810 0.0000 32.3679 0.0000
# 6 0.0000 0.0000 0.0000 5.2563 0.0000 32.1452
#
#
#
# Elastic Compliance Matrix: (Units=1/GPa)
#
#
# Indices 1 2 3 4 5 6 
#
# 1 0.024434 -0.003971 -0.004405 0.000000 0.013882 0.000000
# 2 -0.003971 0.008244 -0.004528 0.000000 -0.003547 0.000000
# 3 -0.004405 -0.004528 0.016194 0.000000 -0.000236 0.000000
# 4 0.000000 0.000000 0.000000 0.019982 0.000000 -0.003267
# 5 0.013882 -0.003547 -0.000236 0.000000 0.039162 0.000000
# 6 0.000000 0.000000 0.000000 -0.003267 0.000000 0.031643
#
#
# Mechanical properties :
#
#
# Convention : Reuss Voigt Hill
#
# Bulk Modulus (GPa) = 43.35741 62.68174 53.01957
# Shear Modulus (GPa) = 28.87557 36.27433 32.57495
#
# Velocity S-wave (km/s) = 3.74562 4.19815 3.97832
# Velocity P-wave (km/s) = 6.30651 7.34535 6.84567
#
# Compressibility (1/GPa) = 0.02306411
#
# Stress axis : x y z
#
# Youngs Moduli (GPa) = 40.92585 121.29950 61.75127
#
# Poissons Ratio (x) = 0.48173 0.27203
# Poissons Ratio (y) = 0.16253 0.27959
# Poissons Ratio (z) = 0.18029 0.54920
#
# Static dielectric constant tensor:
#      x y z
#    x 1.793990 0.000000 -0.113510 
#    y 0.000000 1.720770 0.000000 
#    z -0.113510 0.000000 1.922710 
# 
# From -- ./inp_files/220314.got.cif
#   From: 2010.05.17/outbox.ucp.g08.bks.cvg/sg15_111_cif.got.tgz:220314.got - 2010.06.11 12:40:34.
