data_PCOD9309300
_publ_section_title
;
Structure prediction by ZEFSAII (Michael W. Deem and Ramdas Pophale) SiO2 
 PCOD9309300
Probable space group: C 2/C
;
_chemical_formula_sum "Si O2"
_cell_formula_units_Z 28
_cell_length_a 27.000000
_cell_length_b 9.000000
_cell_length_c 12.000000
_cell_angle_alpha 90.000000
_cell_angle_beta 70.000000
_cell_angle_gamma 90.000000
_cell_volume 2740.143682
_symmetry_space_group_name_H-M "C 2/C"
_symmetry_group_IT_number 15
_symmetry_cell_setting 'monoclinic'
loop_
_space_group_symop_operation_xyz
x,y,z
-x,y,1/2-z
-x,-y,-z
x,-y,1/2+z
1/2+x,1/2+y,z
1/2-x,1/2+y,1/2-z
1/2-x,1/2-y,-z
1/2+x,1/2-y,1/2+z
loop_
_atom_site_type_symbol
_atom_site_label
_atom_site_fract_x
_atom_site_fract_y
_atom_site_fract_z
Si Si1 0.539525 0.392809 0.403331
Si Si2 0.751091 0.953687 0.098524
Si Si3 0.202414 0.215056 0.295745
Si Si4 0.365305 0.301367 0.001907
Si Si5 0.843377 0.530026 0.509755
Si Si6 0.407302 0.338334 0.726370
Si Si7 0.960764 0.634569 0.492953
O O1 0.500000 0.500000 0.500000
O O2 0.590150 0.354896 0.443749
O O3 0.562894 0.503076 0.291282
O O4 0.502117 0.251708 0.404048
O O5 0.730514 0.806337 0.176288
O O6 0.812541 0.904087 0.020213
O O7 0.761466 0.092608 0.172861
O O8 0.701757 0.002919 0.054712
O O9 0.183590 0.341873 0.396466
O O10 0.149564 0.140284 0.288302
O O11 0.395042 0.282356 0.860066
O O12 0.347526 0.136936 0.054109
O O13 0.907276 0.583733 0.463589
O O14 0.438031 0.220982 0.621716
O O15 0.000000 0.500000 0.500000
#
# Coordination Sequence:
#
# PCOD9309300 Si02
#       7
#     8   8   8   8   8   8   8
#     4  10  22  43  70  93 132 177 222 280 330 400
#     4  12  25  43  70 101 138 179 224 275 337 413
#     4  11  24  44  66 101 135 178 219 277 344 396
#     4  12  23  42  72  99 132 181 228 273 343 411
#     4  11  24  42  68 100 136 173 226 281 333 408
#     4  10  23  43  69  98 131 177 225 275 341 403
#     4  10  21  43  70  92 134 176 223 284 336 391
#
# _framework density 10.218442
#
# number of rings (size 3 to 8) (size 9 to 14) (size 15 to 20)
#    0.000    1.143    4.286    1.714    2.000    2.286 
#    0.000    1.429   12.571    0.000    0.000    0.000 
#    0.000    0.000    0.000    0.000    0.000    0.000 
#
# Total GULP energy -155967.730706 kJ/mol
# GULP energy per Si atom -5570.276097 kJ/mol
# Density = 1.019518 g / cm^3
# Si number density = 10.218442 Si / 1000 Ang^3
#
#
#
# Elastic Constant Matrix: (Units=GPa)
#
#
# Indices 1 2 3 4 5 6 
#
# 1 158.8905 31.7510 16.3819 0.0000 -9.7720 0.0000
# 2 31.7510 96.5192 11.6038 0.0000 -6.9968 0.0000
# 3 16.3819 11.6038 47.1858 0.0000 -13.5416 0.0000
# 4 0.0000 0.0000 0.0000 33.0454 0.0000 -4.6291
# 5 -9.7720 -6.9968 -13.5416 0.0000 28.8750 0.0000
# 6 0.0000 0.0000 0.0000 -4.6291 0.0000 61.0535
#
#
#
# Elastic Compliance Matrix: (Units=1/GPa)
#
#
# Indices 1 2 3 4 5 6 
#
# 1 0.006927 -0.002007 -0.001593 0.000000 0.001111 0.000000
# 2 -0.002007 0.011319 -0.001727 0.000000 0.001254 0.000000
# 3 -0.001593 -0.001727 0.025301 0.000000 0.010908 0.000000
# 4 0.000000 0.000000 0.000000 0.030586 0.000000 0.002319
# 5 0.001111 0.001254 0.010908 0.000000 0.040427 0.000000
# 6 0.000000 0.000000 0.000000 0.002319 0.000000 0.016555
#
#
# Mechanical properties :
#
#
# Convention : Reuss Voigt Hill
#
# Bulk Modulus (GPa) = 30.40026 46.89654 38.64840
# Shear Modulus (GPa) = 32.73672 40.78536 36.76104
#
# Velocity S-wave (km/s) = 4.00665 4.47214 4.24578
# Velocity P-wave (km/s) = 6.02593 7.04724 6.55650
#
# Compressibility (1/GPa) = 0.03289445
#
# Stress axis : x y z
#
# Youngs Moduli (GPa) = 144.35877 88.34469 39.52432
#
# Poissons Ratio (x) = 0.17729 0.06295
# Poissons Ratio (y) = 0.28969 0.06826
# Poissons Ratio (z) = 0.22990 0.15258
#
# Static dielectric constant tensor:
#      x y z
#    x 1.749810 0.000000 -0.015850 
#    y 0.000000 1.734780 0.000000 
#    z -0.015850 0.000000 1.769870 
# 
# From -- ./inp_files/121892.got.cif
#   From: 2010.05.17/outbox.ucp.g08.bks.cvg/sg15_61_cif.got.tgz:121892.got - 2010.06.11 12:40:34.
