data_PCOD9309123
_publ_section_title
;
Structure prediction by ZEFSAII (Michael W. Deem and Ramdas Pophale) SiO2 
 PCOD9309123
Probable space group: C 2/C
;
_chemical_formula_sum "Si O2"
_cell_formula_units_Z 32
_cell_length_a 21.000000
_cell_length_b 30.000000
_cell_length_c 15.000000
_cell_angle_alpha 90.000000
_cell_angle_beta 20.000000
_cell_angle_gamma 90.000000
_cell_volume 3232.090354
_symmetry_space_group_name_H-M "C 2/C"
_symmetry_group_IT_number 15
_symmetry_cell_setting 'monoclinic'
loop_
_space_group_symop_operation_xyz
x,y,z
-x,y,1/2-z
-x,-y,-z
x,-y,1/2+z
1/2+x,1/2+y,z
1/2-x,1/2+y,1/2-z
1/2-x,1/2-y,-z
1/2+x,1/2-y,1/2+z
loop_
_atom_site_type_symbol
_atom_site_label
_atom_site_fract_x
_atom_site_fract_y
_atom_site_fract_z
Si Si1 0.792238 0.947605 0.032419
Si Si2 0.066765 0.523150 0.255057
Si Si3 0.303596 0.589850 0.061198
Si Si4 0.880384 0.787910 0.784612
Si Si5 0.383470 0.184173 0.149921
Si Si6 0.391716 0.137658 0.800643
Si Si7 0.708536 0.241428 0.776305
Si Si8 0.174429 0.010213 0.337054
O O1 0.656863 0.906056 0.193359
O O2 0.730930 0.985959 0.042200
O O3 0.805616 0.974400 0.108009
O O4 0.000000 0.929994 0.750000
O O5 0.145366 0.561441 0.216297
O O6 0.000000 0.543593 0.250000
O O7 0.881184 0.495714 0.525109
O O8 0.227569 0.639951 0.175103
O O9 0.340890 0.559709 0.100434
O O10 0.500000 0.590160 0.750000
O O11 0.859157 0.777097 0.708137
O O12 0.099224 0.780566 0.513454
O O13 0.750000 0.750000 0.000000
O O14 0.792911 0.834821 0.928335
O O15 0.256414 0.227523 0.297490
O O16 0.484531 0.170128 0.923952
O O17 0.552092 0.203127 0.989311
O O18 0.500000 0.126674 0.750000
O O19 0.000000 0.000000 0.500000
#
# Coordination Sequence:
#
# PCOD9309123 Si02
#       8
#     8   8   8   8   8   8   8   8
#     4  11  24  36  55  92 128 168 210 257 307 369
#     4  11  21  42  67  93 128 163 203 256 323 387
#     4  11  24  45  69  92 124 168 221 270 322 385
#     4  11  18  33  55  85 123 175 205 250 311 395
#     4  11  23  39  61  90 121 168 217 268 325 380
#     4  12  22  34  55  90 136 173 210 253 316 388
#     4  10  21  36  59  84 127 164 216 258 328 381
#     4  11  22  43  69  93 126 170 206 262 323 386
#
# _framework density 9.9007129999999997
#
# number of rings (size 3 to 8) (size 9 to 14) (size 15 to 20)
#    0.000    1.000    3.750    6.750    1.750    1.000 
#    0.000    4.375    0.000    0.000    0.000    0.000 
#    0.000    0.000    0.000    0.000    0.000    0.000 
#
# Total GULP energy -178519.669614 kJ/mol
# GULP energy per Si atom -5578.739675 kJ/mol
# Density = 0.987818 g / cm^3
# Si number density = 9.900713 Si / 1000 Ang^3
#
#
#
# Elastic Constant Matrix: (Units=GPa)
#
#
# Indices 1 2 3 4 5 6 
#
# 1 99.6388 37.6433 32.5300 0.0297 -35.5179 -0.0093
# 2 37.6433 128.5993 41.1767 0.0784 -17.5281 -0.0045
# 3 32.5300 41.1767 95.7244 0.1548 -22.3517 -0.0375
# 4 0.0297 0.0784 0.1548 37.8291 -0.0803 -4.4902
# 5 -35.5179 -17.5281 -22.3517 -0.0803 30.2125 0.0259
# 6 -0.0093 -0.0045 -0.0375 -4.4902 0.0259 27.8832
#
#
#
# Elastic Compliance Matrix: (Units=1/GPa)
#
#
# Indices 1 2 3 4 5 6 
#
# 1 0.018062 -0.002468 -0.000547 0.000033 0.019397 -0.000008
# 2 -0.002468 0.009564 -0.003212 -0.000005 0.000271 -0.000005
# 3 -0.000547 -0.003212 0.013816 -0.000032 0.007714 0.000005
# 4 0.000033 -0.000005 -0.000032 0.026950 0.000080 0.004340
# 5 0.019397 0.000271 0.007714 0.000080 0.061766 -0.000028
# 6 -0.000008 -0.000005 0.000005 0.004340 -0.000028 0.036563
#
#
# Mechanical properties :
#
#
# Convention : Reuss Voigt Hill
#
# Bulk Modulus (GPa) = 34.49848 60.74026 47.61937
# Shear Modulus (GPa) = 26.47788 33.35913 29.91850
#
# Velocity S-wave (km/s) = 3.66070 4.10894 3.89128
# Velocity P-wave (km/s) = 5.94371 7.29743 6.65508
#
# Compressibility (1/GPa) = 0.02898678
#
# Stress axis : x y z
#
# Youngs Moduli (GPa) = 55.36617 104.55960 72.38185
#
# Poissons Ratio (x) = 0.25805 0.03960
# Poissons Ratio (y) = 0.13664 0.23249
# Poissons Ratio (z) = 0.03029 0.33585
#
# Static dielectric constant tensor:
#      x y z
#    x 1.759020 -0.000060 0.029020 
#    y -0.000060 1.677750 0.000160 
#    z 0.029020 0.000160 1.743030 
# 
# From -- ./inp_files/35707.got.cif
#   From: 2010.05.17/outbox.ucp.g08.bks.cvg/sg15_18_cif.got.tgz:35707.got - 2010.06.11 12:40:34.
