data_PCOD9309548
_publ_section_title
;
Structure prediction by ZEFSAII (Michael W. Deem and Ramdas Pophale) SiO2 
 PCOD9309548
Probable space group: C 2/C
;
_chemical_formula_sum "Si O2"
_cell_formula_units_Z 24
_cell_length_a 15.000000
_cell_length_b 30.000000
_cell_length_c 15.000000
_cell_angle_alpha 90.000000
_cell_angle_beta 20.000000
_cell_angle_gamma 90.000000
_cell_volume 2308.635967
_symmetry_space_group_name_H-M "C 2/C"
_symmetry_group_IT_number 15
_symmetry_cell_setting 'monoclinic'
loop_
_space_group_symop_operation_xyz
x,y,z
-x,y,1/2-z
-x,-y,-z
x,-y,1/2+z
1/2+x,1/2+y,z
1/2-x,1/2+y,1/2-z
1/2-x,1/2-y,-z
1/2+x,1/2-y,1/2+z
loop_
_atom_site_type_symbol
_atom_site_label
_atom_site_fract_x
_atom_site_fract_y
_atom_site_fract_z
Si Si1 0.500000 0.353463 0.250000
Si Si2 0.926548 0.221453 0.678886
Si Si3 0.500000 0.217371 0.750000
Si Si4 0.767629 0.395996 0.707689
Si Si5 0.219766 0.993483 0.719333
Si Si6 0.744042 0.835895 0.188814
Si Si7 0.900880 0.428024 0.935701
O O1 0.466628 0.320246 0.364818
O O2 0.264055 0.385115 0.440800
O O3 0.848802 0.203942 0.653824
O O4 0.154725 0.258036 0.468846
O O5 0.388070 0.185772 0.775280
O O6 0.750000 0.250000 0.500000
O O7 0.724551 0.441167 0.690008
O O8 0.009729 0.365097 0.451078
O O9 0.867693 0.413028 0.712634
O O10 0.499536 0.368245 0.947903
O O11 0.500000 0.000000 0.500000
O O12 0.215969 0.034511 0.654127
O O13 0.000000 0.000000 0.000000
O O14 0.000000 0.448368 0.750000
#
# Coordination Sequence:
#
# PCOD9309548 Si02
#       7
#     4   8   4   8   8   8   8
#     4  12  26  42  68 101 148 193 244 290 350 436
#     4  12  26  44  66  99 140 184 233 293 358 425
#     4  12  26  48  74 103 136 175 240 306 364 440
#     4  11  23  45  72 102 143 187 232 295 358 437
#     4  10  23  43  69  99 140 189 239 291 354 415
#     4  12  24  46  75 101 137 184 237 294 377 428
#     4  11  25  42  71 106 146 198 247 293 350 438
#
# _framework density 10.395749
#
# number of rings (size 3 to 8) (size 9 to 14) (size 15 to 20)
#    0.000    0.667    1.667    6.500    7.000    0.000 
#    1.500    0.000    0.000    0.000    0.000    0.000 
#    0.000    0.000    0.000    0.000    0.000    0.000 
#
# Total GULP energy -133969.705609 kJ/mol
# GULP energy per Si atom -5582.071067 kJ/mol
# Density = 1.037209 g / cm^3
# Si number density = 10.395749 Si / 1000 Ang^3
#
#
#
# Elastic Constant Matrix: (Units=GPa)
#
#
# Indices 1 2 3 4 5 6 
#
# 1 149.2233 54.3246 38.0872 0.0373 -8.5590 -0.1463
# 2 54.3246 93.3098 42.2333 0.0004 -0.7120 -0.0003
# 3 38.0872 42.2333 150.9637 0.0422 -15.0362 -0.0526
# 4 0.0373 0.0004 0.0422 51.4683 -0.0256 -11.0811
# 5 -8.5590 -0.7120 -15.0362 -0.0256 37.0345 0.1297
# 6 -0.1463 -0.0003 -0.0526 -11.0811 0.1297 1.1888
#
#
#
# Elastic Compliance Matrix: (Units=1/GPa)
#
#
# Indices 1 2 3 4 5 6 
#
# 1 0.008697 -0.004730 -0.000708 -0.000179 0.001634 -0.000809
# 2 -0.004730 0.014896 -0.003183 0.000100 -0.002101 0.000442
# 3 -0.000708 -0.003183 0.007994 0.000018 0.003020 0.000105
# 4 -0.000179 0.000100 0.000018 -0.019279 0.000584 -0.179790
# 5 0.001634 -0.002101 0.003020 0.000584 0.028557 0.002665
# 6 -0.000809 0.000442 0.000105 -0.179790 0.002665 -0.835080
#
#
# Mechanical properties :
#
#
# Convention : Reuss Voigt Hill
#
# Bulk Modulus (GPa) = 69.71664 73.64300 71.67982
# Shear Modulus (GPa) = -6.47508 35.19510 14.36001
#
# Velocity S-wave (km/s) = -1.76665 4.11878 2.63091
# Velocity P-wave (km/s) = 5.42611 7.62337 6.61659
#
# Compressibility (1/GPa) = 0.01434378
#
# Stress axis : x y z
#
# Youngs Moduli (GPa) = 114.97880 67.13407 125.09219
#
# Poissons Ratio (x) = 0.31757 0.08861
# Poissons Ratio (y) = 0.54390 0.39814
# Poissons Ratio (z) = 0.08145 0.21367
#
# Static dielectric constant tensor:
#      x y z
#    x 1.766630 -0.000020 0.063880 
#    y -0.000020 1.791440 0.000040 
#    z 0.063880 0.000040 1.766700 
# 
# From -- ./inp_files/157647.got.cif
#   From: 2010.05.17/outbox.ucp.g08.bks.cvg/sg15_79_cif.got.tgz:157647.got - 2010.06.11 12:40:34.
