data_PCOD9309701
_publ_section_title
;
Structure prediction by ZEFSAII (Michael W. Deem and Ramdas Pophale) SiO2 
 PCOD9309701
Probable space group: C 2/C
;
_chemical_formula_sum "Si O2"
_cell_formula_units_Z 32
_cell_length_a 15.000000
_cell_length_b 15.000000
_cell_length_c 18.000000
_cell_angle_alpha 90.000000
_cell_angle_beta 60.000000
_cell_angle_gamma 90.000000
_cell_volume 3507.402885
_symmetry_space_group_name_H-M "C 2/C"
_symmetry_group_IT_number 15
_symmetry_cell_setting 'monoclinic'
loop_
_space_group_symop_operation_xyz
x,y,z
-x,y,1/2-z
-x,-y,-z
x,-y,1/2+z
1/2+x,1/2+y,z
1/2-x,1/2+y,1/2-z
1/2-x,1/2-y,-z
1/2+x,1/2-y,1/2+z
loop_
_atom_site_type_symbol
_atom_site_label
_atom_site_fract_x
_atom_site_fract_y
_atom_site_fract_z
Si Si1 0.587531 0.713380 0.275968
Si Si2 0.737478 0.207036 0.609020
Si Si3 0.573518 0.794562 0.444132
Si Si4 0.277057 0.944775 0.055408
Si Si5 0.110642 0.004912 0.239617
Si Si6 0.119453 0.105104 0.493788
Si Si7 0.382674 0.557784 0.608609
Si Si8 0.639475 0.133339 0.509790
O O1 0.500000 0.727192 0.250000
O O2 0.686781 0.766692 0.207115
O O3 0.566047 0.752576 0.365065
O O4 0.602725 0.606833 0.270849
O O5 0.830442 0.137284 0.583263
O O6 0.652865 0.162383 0.590252
O O7 0.772464 0.302081 0.561095
O O8 0.656992 0.870003 0.429446
O O9 0.599617 0.707774 0.482135
O O10 0.461312 0.839812 0.494740
O O11 0.195474 0.993528 0.142151
O O12 0.207546 0.903679 0.018730
O O13 0.345626 0.027603 0.999233
O O14 0.146371 0.944261 0.293278
O O15 0.000000 0.980901 0.250000
O O16 0.006273 0.067529 0.561570
O O17 0.148276 0.036315 0.415728
#
# Coordination Sequence:
#
# PCOD9309701 Si02
#       8
#     8   8   8   8   8   8   8   8
#     4  11  22  37  62  89 120 155 202 257 316 363
#     4  11  21  37  63  86 121 152 196 258 304 360
#     4  12  24  42  61  87 128 168 205 250 300 375
#     4  12  24  42  61  87 128 168 205 250 300 375
#     4  11  22  37  62  89 120 155 202 257 316 363
#     4  11  23  38  62  92 113 159 210 244 306 367
#     4  11  21  37  63  86 121 152 196 258 304 360
#     4  11  23  38  62  92 113 159 210 244 306 367
#
# _framework density 9.1235599999999994
#
# number of rings (size 3 to 8) (size 9 to 14) (size 15 to 20)
#    0.000    0.750    7.500    1.500    0.000    0.000 
#    0.000    0.000    0.000    0.000    0.000    3.500 
#    0.000    0.000    0.000    0.000    0.000    0.000 
#
# Total GULP energy -178271.657533 kJ/mol
# GULP energy per Si atom -5570.989298 kJ/mol
# Density = 0.910279 g / cm^3
# Si number density = 9.123560 Si / 1000 Ang^3
#
#
#
# Elastic Constant Matrix: (Units=GPa)
#
#
# Indices 1 2 3 4 5 6 
#
# 1 104.6037 51.5073 4.3107 0.0000 18.9453 0.0000
# 2 51.5073 99.3953 4.7515 0.0000 12.6028 0.0000
# 3 4.3107 4.7515 26.6037 0.0000 14.5583 0.0000
# 4 0.0000 0.0000 0.0000 18.8740 0.0000 -0.2857
# 5 18.9453 12.6028 14.5583 0.0000 22.5432 0.0000
# 6 0.0000 0.0000 0.0000 -0.2857 0.0000 27.8545
#
#
#
# Elastic Compliance Matrix: (Units=1/GPa)
#
#
# Indices 1 2 3 4 5 6 
#
# 1 0.014676 -0.006300 0.005520 0.000000 -0.012377 0.000000
# 2 -0.006300 0.013611 -0.000222 0.000000 -0.002172 0.000000
# 3 0.005520 -0.000222 0.060632 0.000000 -0.043671 0.000000
# 4 0.000000 0.000000 0.000000 0.052991 0.000000 0.000544
# 5 -0.012377 -0.002172 -0.043671 0.000000 0.084177 0.000000
# 6 0.000000 0.000000 0.000000 0.000544 0.000000 0.035906
#
#
# Mechanical properties :
#
#
# Convention : Reuss Voigt Hill
#
# Bulk Modulus (GPa) = 11.50532 39.08239 25.29385
# Shear Modulus (GPa) = 17.06664 25.18990 21.12827
#
# Velocity S-wave (km/s) = 3.06160 3.71952 3.40648
# Velocity P-wave (km/s) = 4.33783 6.31754 5.41886
#
# Compressibility (1/GPa) = 0.08691635
#
# Stress axis : x y z
#
# Youngs Moduli (GPa) = 68.13826 73.46766 16.49295
#
# Poissons Ratio (x) = 0.46283 -0.09104
# Poissons Ratio (y) = 0.42926 0.00366
# Poissons Ratio (z) = -0.37612 0.01629
#
# Static dielectric constant tensor:
#      x y z
#    x 1.621360 0.000000 -0.008680 
#    y 0.000000 1.627320 0.000000 
#    z -0.008680 0.000000 1.669600 
# 
# From -- ./inp_files/205401.got.cif
#   From: 2010.05.17/outbox.ucp.g08.bks.cvg/sg15_103_cif.got.tgz:205401.got - 2010.06.11 12:40:34.
