data_PCOD9309330
_publ_section_title
;
Structure prediction by ZEFSAII (Michael W. Deem and Ramdas Pophale) SiO2 
 PCOD9309330
Probable space group: C 2/C
;
_chemical_formula_sum "Si O2"
_cell_formula_units_Z 28
_cell_length_a 18.000000
_cell_length_b 15.000000
_cell_length_c 12.000000
_cell_angle_alpha 90.000000
_cell_angle_beta 120.000000
_cell_angle_gamma 90.000000
_cell_volume 2805.922308
_symmetry_space_group_name_H-M "C 2/C"
_symmetry_group_IT_number 15
_symmetry_cell_setting 'monoclinic'
loop_
_space_group_symop_operation_xyz
x,y,z
-x,y,1/2-z
-x,-y,-z
x,-y,1/2+z
1/2+x,1/2+y,z
1/2-x,1/2+y,1/2-z
1/2-x,1/2-y,-z
1/2+x,1/2-y,1/2+z
loop_
_atom_site_type_symbol
_atom_site_label
_atom_site_fract_x
_atom_site_fract_y
_atom_site_fract_z
Si Si1 0.779270 0.333957 0.272628
Si Si2 0.251948 0.472057 0.444552
Si Si3 0.686122 0.629665 0.139289
Si Si4 0.565284 0.021227 0.897046
Si Si5 0.146137 0.031298 0.776345
Si Si6 0.473598 0.144501 0.998903
Si Si7 0.006443 0.828932 0.382134
O O1 0.747293 0.383985 0.134565
O O2 0.775725 0.225458 0.289324
O O3 0.721433 0.393381 0.314859
O O4 0.881465 0.349871 0.366002
O O5 0.245827 0.565069 0.370978
O O6 0.164510 0.464019 0.446654
O O7 0.334077 0.490049 0.586014
O O8 0.653478 0.558179 0.207116
O O9 0.603360 0.647958 0.996564
O O10 0.500000 0.046111 0.750000
O O11 0.548989 0.917596 0.912931
O O12 0.539446 0.085053 0.979016
O O13 0.059848 0.086338 0.674642
O O14 0.511774 0.241728 0.055745
O O15 0.000000 0.796566 0.250000
#
# Coordination Sequence:
#
# PCOD9309330 Si02
#       7
#     8   8   8   8   8   8   8
#     4  10  22  41  62  96 130 168 218 272 327 389
#     4  11  22  40  67  94 129 171 216 268 335 391
#     4  10  24  42  67  92 133 172 219 273 323 393
#     4  11  21  37  62  93 134 166 212 269 341 396
#     4  11  23  41  65  95 131 171 218 277 321 388
#     4  10  22  37  61  96 129 170 214 279 327 391
#     4  11  22  42  66  95 125 173 230 264 325 391
#
# _framework density 9.9788940000000004
#
# number of rings (size 3 to 8) (size 9 to 14) (size 15 to 20)
#    0.000    1.429    4.286    0.857    0.000    4.571 
#    0.000    1.429    3.143    0.000    0.000    0.000 
#    0.000    0.000    0.000    0.000    0.000    0.000 
#
# Total GULP energy -155873.729842 kJ/mol
# GULP energy per Si atom -5566.918923 kJ/mol
# Density = 0.995618 g / cm^3
# Si number density = 9.978894 Si / 1000 Ang^3
#
#
#
# Elastic Constant Matrix: (Units=GPa)
#
#
# Indices 1 2 3 4 5 6 
#
# 1 43.0378 13.9080 5.6738 0.0000 5.2482 0.0000
# 2 13.9080 141.2774 48.4630 0.0000 4.0516 0.0000
# 3 5.6738 48.4630 93.1956 0.0000 3.2149 0.0000
# 4 0.0000 0.0000 0.0000 40.9542 0.0000 3.4850
# 5 5.2482 4.0516 3.2149 0.0000 21.3093 0.0000
# 6 0.0000 0.0000 0.0000 3.4850 0.0000 22.7639
#
#
#
# Elastic Compliance Matrix: (Units=1/GPa)
#
#
# Indices 1 2 3 4 5 6 
#
# 1 0.024657 -0.002212 -0.000157 0.000000 -0.005629 0.000000
# 2 -0.002212 0.008833 -0.004443 0.000000 -0.000464 0.000000
# 3 -0.000157 -0.004443 0.013088 0.000000 -0.001091 0.000000
# 4 0.000000 0.000000 0.000000 0.024740 0.000000 -0.003788
# 5 -0.005629 -0.000464 -0.001091 0.000000 0.048567 0.000000
# 6 0.000000 0.000000 0.000000 -0.003788 0.000000 0.044509
#
#
# Mechanical properties :
#
#
# Convention : Reuss Voigt Hill
#
# Bulk Modulus (GPa) = 30.34437 45.95560 38.14998
# Shear Modulus (GPa) = 26.45468 30.96988 28.71228
#
# Velocity S-wave (km/s) = 3.64474 3.94352 3.79707
# Velocity P-wave (km/s) = 5.74016 6.61903 6.19520
#
# Compressibility (1/GPa) = 0.03295504
#
# Stress axis : x y z
#
# Youngs Moduli (GPa) = 40.55597 113.20664 76.40815
#
# Poissons Ratio (x) = 0.25044 0.01197
# Poissons Ratio (y) = 0.08972 0.33947
# Poissons Ratio (z) = 0.00635 0.50295
#
# Static dielectric constant tensor:
#      x y z
#    x 1.757950 0.000000 -0.057850 
#    y 0.000000 1.688490 0.000000 
#    z -0.057850 0.000000 1.746950 
# 
# From -- ./inp_files/105789.got.cif
#   From: 2010.05.17/outbox.ucp.g08.bks.cvg/sg15_53_cif.got.tgz:105789.got - 2010.06.11 12:40:34.
