data_PCOD9309077
_publ_section_title
;
Structure prediction by ZEFSAII (Michael W. Deem and Ramdas Pophale) SiO2 
 PCOD9309077
Probable space group: C 2/C
;
_chemical_formula_sum "Si O2"
_cell_formula_units_Z 28
_cell_length_a 15.000000
_cell_length_b 15.000000
_cell_length_c 24.000000
_cell_angle_alpha 90.000000
_cell_angle_beta 30.000000
_cell_angle_gamma 90.000000
_cell_volume 2700.000000
_symmetry_space_group_name_H-M "C 2/C"
_symmetry_group_IT_number 15
_symmetry_cell_setting 'monoclinic'
loop_
_space_group_symop_operation_xyz
x,y,z
-x,y,1/2-z
-x,-y,-z
x,-y,1/2+z
1/2+x,1/2+y,z
1/2-x,1/2+y,1/2-z
1/2-x,1/2-y,-z
1/2+x,1/2-y,1/2+z
loop_
_atom_site_type_symbol
_atom_site_label
_atom_site_fract_x
_atom_site_fract_y
_atom_site_fract_z
Si Si1 0.657131 0.341116 0.866501
Si Si2 0.891928 0.074458 0.359071
Si Si3 0.959528 0.254552 0.372934
Si Si4 0.385216 0.476662 0.170386
Si Si5 0.450093 0.853599 0.871446
Si Si6 0.487690 0.051374 0.891165
Si Si7 0.566588 0.296878 0.034235
O O1 0.584538 0.284243 0.853997
O O2 0.630444 0.447305 0.869421
O O3 0.554800 0.303155 0.974669
O O4 0.868968 0.330633 0.758827
O O5 0.966791 0.175329 0.324362
O O6 0.676550 0.070360 0.477475
O O7 0.000000 0.032440 0.250000
O O8 0.963736 0.019509 0.372855
O O9 0.750000 0.250000 0.500000
O O10 0.999374 0.359868 0.345819
O O11 0.188215 0.467521 0.304308
O O12 0.445221 0.377730 0.121956
O O13 0.269541 0.820262 0.941391
O O14 0.440436 0.959461 0.885655
O O15 0.472478 0.798597 0.917247
#
# Coordination Sequence:
#
# PCOD9309077 Si02
#       7
#     8   8   8   8   8   8   8
#     4  10  21  40  63  90 121 163 212 256 310 374
#     4  10  21  41  63  90 123 162 204 253 314 368
#     4   9  20  41  61  83 126 156 200 265 300 365
#     4  10  21  39  64  87 128 159 204 262 301 374
#     4  10  22  39  62  90 127 159 207 264 299 377
#     4  10  20  42  60  86 124 161 197 258 310 356
#     4  11  21  40  62  90 124 169 203 254 318 363
#
# _framework density 10.370369999999999
#
# number of rings (size 3 to 8) (size 9 to 14) (size 15 to 20)
#    0.000    2.000    1.429    1.714    0.000    0.571 
#   25.714    1.429    0.000    0.000    0.000    0.000 
#    0.000    0.000    0.000    0.000    0.000    0.000 
#
# Total GULP energy -155945.423832 kJ/mol
# GULP energy per Si atom -5569.479423 kJ/mol
# Density = 1.034677 g / cm^3
# Si number density = 10.370370 Si / 1000 Ang^3
#
#
#
# Elastic Constant Matrix: (Units=GPa)
#
#
# Indices 1 2 3 4 5 6 
#
# 1 36.1434 3.8683 35.3199 -0.0008 -3.4113 -0.0006
# 2 3.8683 118.1706 4.2849 -0.0019 5.1281 0.0004
# 3 35.3199 4.2849 82.2669 -0.0075 -10.8722 0.0001
# 4 -0.0008 -0.0019 -0.0075 20.6449 0.0012 -27.2714
# 5 -3.4113 5.1281 -10.8722 0.0012 34.8818 -0.0001
# 6 -0.0006 0.0004 0.0001 -27.2714 -0.0001 -21.6763
#
#
#
# Elastic Compliance Matrix: (Units=1/GPa)
#
#
# Indices 1 2 3 4 5 6 
#
# 1 0.047838 -0.000742 -0.020720 -0.000003 -0.001671 0.000002
# 2 -0.000742 0.008560 -0.000316 0.000000 -0.001430 0.000000
# 3 -0.020720 -0.000316 0.021700 0.000003 0.004784 -0.000003
# 4 -0.000003 0.000000 0.000003 0.018196 0.000000 -0.022893
# 5 -0.001671 -0.001430 0.004784 0.000000 0.030206 0.000000
# 6 0.000002 0.000000 -0.000003 -0.022893 0.000000 -0.017331
#
#
# Mechanical properties :
#
#
# Convention : Reuss Voigt Hill
#
# Bulk Modulus (GPa) = 28.95153 35.94746 32.44949
# Shear Modulus (GPa) = 30.44312 19.64394 25.04353
#
# Velocity S-wave (km/s) = 3.83534 3.08087 3.47862
# Velocity P-wave (km/s) = 5.79674 5.47952 5.64036
#
# Compressibility (1/GPa) = 0.03454049
#
# Stress axis : x y z
#
# Youngs Moduli (GPa) = 20.90407 116.82057 46.08255
#
# Poissons Ratio (x) = 0.08670 0.95485
# Poissons Ratio (y) = 0.01551 0.01457
# Poissons Ratio (z) = 0.43314 0.03693
#
# Static dielectric constant tensor:
#      x y z
#    x 1.757070 0.000000 0.013710 
#    y 0.000000 1.770760 0.000000 
#    z 0.013710 0.000000 1.816560 
# 
# From -- ./inp_files/274468.got.cif
#   From: 2010.05.17/outbox.ucp.g08.bks.cvg/sg15_138_cif.got.tgz:274468.got - 2010.06.11 12:40:34.
