data_PCOD9309080
_publ_section_title
;
Structure prediction by ZEFSAII (Michael W. Deem and Ramdas Pophale) SiO2 
 PCOD9309080
Probable space group: C 2/C
;
_chemical_formula_sum "Si O2"
_cell_formula_units_Z 28
_cell_length_a 9.000000
_cell_length_b 18.000000
_cell_length_c 27.000000
_cell_angle_alpha 90.000000
_cell_angle_beta 40.000000
_cell_angle_gamma 90.000000
_cell_volume 2811.553005
_symmetry_space_group_name_H-M "C 2/C"
_symmetry_group_IT_number 15
_symmetry_cell_setting 'monoclinic'
loop_
_space_group_symop_operation_xyz
x,y,z
-x,y,1/2-z
-x,-y,-z
x,-y,1/2+z
1/2+x,1/2+y,z
1/2-x,1/2+y,1/2-z
1/2-x,1/2-y,-z
1/2+x,1/2-y,1/2+z
loop_
_atom_site_type_symbol
_atom_site_label
_atom_site_fract_x
_atom_site_fract_y
_atom_site_fract_z
Si Si1 0.704472 0.991681 0.908641
Si Si2 0.470046 0.865410 0.905517
Si Si3 0.336858 0.190598 0.338103
Si Si4 0.585337 0.651228 0.671371
Si Si5 0.916995 0.905697 0.053125
Si Si6 0.761680 0.214724 0.666073
Si Si7 0.987867 0.062301 0.426041
O O1 0.612694 0.935347 0.889976
O O2 0.890796 0.954863 0.896938
O O3 0.791558 0.073294 0.871195
O O4 0.500000 0.000000 0.000000
O O5 0.477370 0.852098 0.845001
O O6 0.589148 0.786785 0.890721
O O7 0.192931 0.880519 0.986623
O O8 0.500000 0.199113 0.250000
O O9 0.260074 0.273745 0.372524
O O10 0.131300 0.135981 0.380778
O O11 0.500000 0.645632 0.750000
O O12 0.389363 0.673483 0.680364
O O13 0.769827 0.844453 0.119347
O O14 0.893008 0.985439 0.086158
O O15 0.849806 0.917766 0.012517
O O16 0.500000 0.234045 0.750000
#
# Coordination Sequence:
#
# PCOD9309080 Si02
#       7
#     8   8   8   8   8   8   8
#     4  12  23  40  62  93 125 158 207 261 313 362
#     4  10  22  40  67  90 127 166 207 261 312 366
#     4   9  21  42  65  88 123 167 210 250 307 379
#     4  10  23  43  61  87 128 167 199 253 322 369
#     4  10  20  42  63  91 125 168 209 254 309 375
#     4  11  23  41  65  95 124 164 213 258 308 377
#     4  10  21  37  66  90 120 164 213 248 305 376
#
# _framework density 9.9589090000000002
#
# number of rings (size 3 to 8) (size 9 to 14) (size 15 to 20)
#    0.000    1.714    2.857    0.429    0.000    9.143 
#    0.000    1.429    0.000    0.000    0.000    0.000 
#    0.000    0.000    0.000    0.000    0.000    0.000 
#
# Total GULP energy -155890.238306 kJ/mol
# GULP energy per Si atom -5567.508511 kJ/mol
# Density = 0.993624 g / cm^3
# Si number density = 9.958909 Si / 1000 Ang^3
#
#
#
# Elastic Constant Matrix: (Units=GPa)
#
#
# Indices 1 2 3 4 5 6 
#
# 1 52.7669 66.5593 15.6085 0.0018 15.9041 0.0015
# 2 66.5593 172.6175 48.6048 -0.0044 8.4931 0.0049
# 3 15.6085 48.6048 47.1454 -0.0085 5.8323 0.0084
# 4 0.0018 -0.0044 -0.0085 32.5616 0.0052 7.3285
# 5 15.9041 8.4931 5.8323 0.0052 18.1733 0.0003
# 6 0.0015 0.0049 0.0084 7.3285 0.0003 37.1568
#
#
#
# Elastic Compliance Matrix: (Units=1/GPa)
#
#
# Indices 1 2 3 4 5 6 
#
# 1 0.058242 -0.023115 0.009911 0.000004 -0.043348 -0.000002
# 2 -0.023115 0.017360 -0.012229 -0.000003 0.016041 0.000002
# 3 0.009911 -0.012229 0.032181 0.000010 -0.013286 -0.000008
# 4 0.000004 -0.000003 0.000010 0.032138 -0.000014 -0.006339
# 5 -0.043348 0.016041 -0.013286 -0.000014 0.089729 0.000005
# 6 -0.000002 0.000002 -0.000008 -0.006339 0.000005 0.028163
#
#
# Mechanical properties :
#
#
# Convention : Reuss Voigt Hill
#
# Bulk Modulus (GPa) = 17.56958 59.34166 38.45562
# Shear Modulus (GPa) = 15.26007 27.02882 21.14445
#
# Velocity S-wave (km/s) = 2.77095 3.68777 3.26173
# Velocity P-wave (km/s) = 4.36780 6.92754 5.79088
#
# Compressibility (1/GPa) = 0.05691657
#
# Stress axis : x y z
#
# Youngs Moduli (GPa) = 17.16972 57.60221 31.07400
#
# Poissons Ratio (x) = 1.33150 -0.30798
# Poissons Ratio (y) = 0.39689 0.38002
# Poissons Ratio (z) = -0.17017 0.70444
#
# Static dielectric constant tensor:
#      x y z
#    x 1.659200 0.000030 0.039620 
#    y 0.000030 1.713120 0.000040 
#    z 0.039620 0.000040 1.805080 
# 
# From -- ./inp_files/289715.got.cif
#   From: 2010.05.17/outbox.ucp.g08.bks.cvg/sg15_145_cif.got.tgz:289715.got - 2010.06.11 12:40:34.
