data_PCOD9309431
_publ_section_title
;
Structure prediction by ZEFSAII (Michael W. Deem and Ramdas Pophale) SiO2 
 PCOD9309431
Probable space group: C 2/C
;
_chemical_formula_sum "Si O2"
_cell_formula_units_Z 30
_cell_length_a 18.000000
_cell_length_b 9.000000
_cell_length_c 21.000000
_cell_angle_alpha 90.000000
_cell_angle_beta 110.000000
_cell_angle_gamma 90.000000
_cell_volume 3196.834296
_symmetry_space_group_name_H-M "C 2/C"
_symmetry_group_IT_number 15
_symmetry_cell_setting 'monoclinic'
loop_
_space_group_symop_operation_xyz
x,y,z
-x,y,1/2-z
-x,-y,-z
x,-y,1/2+z
1/2+x,1/2+y,z
1/2-x,1/2+y,1/2-z
1/2-x,1/2-y,-z
1/2+x,1/2-y,1/2+z
loop_
_atom_site_type_symbol
_atom_site_label
_atom_site_fract_x
_atom_site_fract_y
_atom_site_fract_z
Si Si1 0.251322 0.956340 0.704880
Si Si2 0.006117 0.260269 0.121819
Si Si3 0.672263 0.166659 0.504559
Si Si4 0.008312 0.171972 0.983381
Si Si5 0.315678 0.871639 0.342390
Si Si6 0.000000 0.731045 0.250000
Si Si7 0.072375 0.072324 0.662136
Si Si8 0.887624 0.498312 0.640136
O O1 0.285516 0.000919 0.784822
O O2 0.164158 0.032152 0.677018
O O3 0.313558 0.010989 0.668346
O O4 0.233305 0.780770 0.687742
O O5 0.092287 0.339207 0.148028
O O6 0.941346 0.353470 0.143094
O O7 0.024154 0.087061 0.146726
O O8 0.982191 0.258621 0.039561
O O9 0.750000 0.250000 0.500000
O O10 0.598274 0.278909 0.494885
O O11 0.689199 0.103660 0.581732
O O12 0.643790 0.057734 0.438649
O O13 0.957866 0.178274 0.904221
O O14 0.000000 0.000000 0.000000
O O15 0.053555 0.837816 0.221031
O O16 0.054987 0.625700 0.310522
#
# Coordination Sequence:
#
# PCOD9309431 Si02
#       8
#     8   8   8   8   8   4   8   8
#     4  11  23  41  64  93 131 168 211 269 327 383
#     4   9  22  41  65  91 130 167 210 269 326 375
#     4  11  22  41  68  94 129 171 215 270 329 388
#     4   9  19  40  66  87 121 170 213 257 319 396
#     4  10  22  42  65  92 128 173 211 264 327 389
#     4  12  24  40  68  98 122 170 222 264 312 406
#     4  10  22  42  66  91 124 173 215 258 325 396
#     4  12  24  42  65 101 131 165 218 275 325 382
#
# _framework density 9.3842839999999992
#
# number of rings (size 3 to 8) (size 9 to 14) (size 15 to 20)
#    0.000    1.600    2.667    2.400    0.000    4.800 
#    4.800    2.000    0.000    0.000    0.000    0.000 
#    0.000    0.000    0.000    0.000    0.000    0.000 
#
# Total GULP energy -167425.000232 kJ/mol
# GULP energy per Si atom -5580.833341 kJ/mol
# Density = 0.936292 g / cm^3
# Si number density = 9.384284 Si / 1000 Ang^3
#
#
#
# Elastic Constant Matrix: (Units=GPa)
#
#
# Indices 1 2 3 4 5 6 
#
# 1 136.6211 43.5901 36.5884 0.0000 -18.5466 0.0000
# 2 43.5901 67.0244 42.8789 0.0000 -4.9323 0.0000
# 3 36.5884 42.8789 152.5152 0.0000 -6.9310 0.0000
# 4 0.0000 0.0000 0.0000 41.7401 0.0000 -1.3408
# 5 -18.5466 -4.9323 -6.9310 0.0000 35.7039 0.0000
# 6 0.0000 0.0000 0.0000 -1.3408 0.0000 36.6060
#
#
#
# Elastic Compliance Matrix: (Units=1/GPa)
#
#
# Indices 1 2 3 4 5 6 
#
# 1 0.009880 -0.005756 -0.000560 0.000000 0.004228 0.000000
# 2 -0.005756 0.021629 -0.004742 0.000000 -0.000923 0.000000
# 3 -0.000560 -0.004742 0.008052 0.000000 0.000617 0.000000
# 4 0.000000 0.000000 0.000000 0.023986 0.000000 0.000879
# 5 0.004228 -0.000923 0.000617 0.000000 0.030197 0.000000
# 6 0.000000 0.000000 0.000000 0.000879 0.000000 0.027350
#
#
# Mechanical properties :
#
#
# Convention : Reuss Voigt Hill
#
# Bulk Modulus (GPa) = 57.32098 66.91950 62.12024
# Shear Modulus (GPa) = 33.55119 38.35024 35.95071
#
# Velocity S-wave (km/s) = 4.23262 4.52522 4.38136
# Velocity P-wave (km/s) = 7.38201 7.93952 7.66583
#
# Compressibility (1/GPa) = 0.01744562
#
# Stress axis : x y z
#
# Youngs Moduli (GPa) = 101.21422 46.23328 124.18920
#
# Poissons Ratio (x) = 0.26614 0.06951
# Poissons Ratio (y) = 0.58263 0.58890
# Poissons Ratio (z) = 0.05665 0.21924
#
# Static dielectric constant tensor:
#      x y z
#    x 1.635440 0.000000 0.009220 
#    y 0.000000 1.655340 0.000000 
#    z 0.009220 0.000000 1.693230 
# 
# From -- ./inp_files/247540.got.cif
#   From: 2010.05.17/outbox.ucp.g08.bks.cvg/sg15_124_cif.got.tgz:247540.got - 2010.06.11 12:40:34.
