data_PCOD9309007
_publ_section_title
;
Structure prediction by ZEFSAII (Michael W. Deem and Ramdas Pophale) SiO2 
 PCOD9309007
Probable space group: C 2/C
;
_chemical_formula_sum "Si O2"
_cell_formula_units_Z 24
_cell_length_a 12.000000
_cell_length_b 12.000000
_cell_length_c 18.000000
_cell_angle_alpha 90.000000
_cell_angle_beta 110.000000
_cell_angle_gamma 90.000000
_cell_volume 2435.683273
_symmetry_space_group_name_H-M "C 2/C"
_symmetry_group_IT_number 15
_symmetry_cell_setting 'monoclinic'
loop_
_space_group_symop_operation_xyz
x,y,z
-x,y,1/2-z
-x,-y,-z
x,-y,1/2+z
1/2+x,1/2+y,z
1/2-x,1/2+y,1/2-z
1/2-x,1/2-y,-z
1/2+x,1/2-y,1/2+z
loop_
_atom_site_type_symbol
_atom_site_label
_atom_site_fract_x
_atom_site_fract_y
_atom_site_fract_z
Si Si1 0.093131 0.654596 0.834981
Si Si2 0.468238 0.569544 0.657904
Si Si3 0.625794 0.299081 0.492990
Si Si4 0.830674 0.027040 0.909481
Si Si5 0.463348 0.114045 0.526151
Si Si6 0.816413 0.123153 0.063936
O O1 0.207698 0.576164 0.849806
O O2 0.136065 0.769577 0.882499
O O3 0.000000 0.676987 0.750000
O O4 0.021056 0.595764 0.883318
O O5 0.500000 0.589706 0.750000
O O6 0.436682 0.674089 0.599586
O O7 0.579635 0.521599 0.638090
O O8 0.360873 0.482924 0.620860
O O9 0.750000 0.250000 0.500000
O O10 0.658365 0.407935 0.548451
O O11 0.545693 0.213197 0.518686
O O12 0.861215 0.105368 0.988649
O O13 0.324705 0.131081 0.476087
O O14 0.500000 0.000000 0.500000
#
# Coordination Sequence:
#
# PCOD9309007 Si02
#       6
#     8   8   8   8   8   8
#     4  11  22  37  60  89 117 150 197 252 297 344
#     4  11  22  38  59  89 120 153 198 247 298 355
#     4  11  22  40  62  85 117 161 200 241 303 368
#     4  10  21  39  60  83 119 159 197 241 296 368
#     4  11  22  40  62  85 115 156 201 242 297 373
#     4  10  20  38  62  85 114 157 199 239 293 360
#
# _framework density 9.8534980000000001
#
# number of rings (size 3 to 8) (size 9 to 14) (size 15 to 20)
#    0.000    1.333    0.000   10.500    0.000    2.667 
#    0.000    5.000    0.000    0.000    0.000    0.000 
#    0.000    0.000    0.000    0.000    0.000    0.000 
#
# Total GULP energy -133754.863100 kJ/mol
# GULP energy per Si atom -5573.119296 kJ/mol
# Density = 0.983107 g / cm^3
# Si number density = 9.853498 Si / 1000 Ang^3
#
#
#
# Elastic Constant Matrix: (Units=GPa)
#
#
# Indices 1 2 3 4 5 6 
#
# 1 74.8111 20.5380 11.4643 0.0000 -5.9503 0.0000
# 2 20.5380 47.0467 -22.3728 0.0000 3.6145 0.0000
# 3 11.4643 -22.3728 68.2721 0.0000 9.6617 0.0000
# 4 0.0000 0.0000 0.0000 -12.7962 0.0000 5.9049
# 5 -5.9503 3.6145 9.6617 0.0000 21.7914 0.0000
# 6 0.0000 0.0000 0.0000 5.9049 0.0000 30.4502
#
#
#
# Elastic Compliance Matrix: (Units=1/GPa)
#
#
# Indices 1 2 3 4 5 6 
#
# 1 0.019649 -0.014060 -0.009599 0.000000 0.011953 0.000000
# 2 -0.014060 0.036754 0.016870 0.000000 -0.017415 0.000000
# 3 -0.009599 0.016870 0.024064 0.000000 -0.016089 0.000000
# 4 0.000000 0.000000 0.000000 -0.071729 0.000000 0.013910
# 5 0.011953 -0.017415 -0.016089 0.000000 0.059175 0.000000
# 6 0.000000 0.000000 0.000000 0.013910 0.000000 0.030143
#
#
# Mechanical properties :
#
#
# Convention : Reuss Voigt Hill
#
# Bulk Modulus (GPa) = 14.95029 23.26543 19.10786
# Shear Modulus (GPa) = 37.33284 19.92244 28.62764
#
# Velocity S-wave (km/s) = 4.35719 3.18297 3.81552
# Velocity P-wave (km/s) = 5.73726 5.03385 5.39703
#
# Compressibility (1/GPa) = 0.06688831
#
# Stress axis : x y z
#
# Youngs Moduli (GPa) = 50.89399 27.20802 41.55557
#
# Poissons Ratio (x) = 0.38256 0.39888
# Poissons Ratio (y) = 0.71559 -0.70104
# Poissons Ratio (z) = 0.48851 -0.45900
#
# Static dielectric constant tensor:
#      x y z
#    x 1.742780 0.000000 0.001080 
#    y 0.000000 1.710170 0.000000 
#    z 0.001080 0.000000 1.660410 
# 
# From -- ./inp_files/196475.got.cif
#   From: 2010.05.17/outbox.ucp.g08.bks.cvg/sg15_99_cif.got.tgz:196475.got - 2010.06.11 12:40:34.
