data_PCOD9309193
_publ_section_title
;
Structure prediction by ZEFSAII (Michael W. Deem and Ramdas Pophale) SiO2 
 PCOD9309193
Probable space group: C 2/C
;
_chemical_formula_sum "Si O2"
_cell_formula_units_Z 32
_cell_length_a 18.000000
_cell_length_b 18.000000
_cell_length_c 15.000000
_cell_angle_alpha 90.000000
_cell_angle_beta 40.000000
_cell_angle_gamma 90.000000
_cell_volume 3123.947783
_symmetry_space_group_name_H-M "C 2/C"
_symmetry_group_IT_number 15
_symmetry_cell_setting 'monoclinic'
loop_
_space_group_symop_operation_xyz
x,y,z
-x,y,1/2-z
-x,-y,-z
x,-y,1/2+z
1/2+x,1/2+y,z
1/2-x,1/2+y,1/2-z
1/2-x,1/2-y,-z
1/2+x,1/2-y,1/2+z
loop_
_atom_site_type_symbol
_atom_site_label
_atom_site_fract_x
_atom_site_fract_y
_atom_site_fract_z
Si Si1 0.370483 0.175961 0.128368
Si Si2 0.780148 0.353837 0.056678
Si Si3 0.731730 0.026977 0.226962
Si Si4 0.229854 0.790542 0.421269
Si Si5 0.101732 0.385276 0.358377
Si Si6 0.135897 0.001948 0.713297
Si Si7 0.605914 0.776952 0.704211
Si Si8 0.124088 0.058431 0.048868
O O1 0.291385 0.113591 0.247098
O O2 0.305284 0.231307 0.122326
O O3 0.431535 0.209863 0.159591
O O4 0.468684 0.135497 0.981560
O O5 0.842696 0.366501 0.094751
O O6 0.681511 0.417442 0.140119
O O7 0.715938 0.275186 0.117143
O O8 0.860083 0.345359 0.894207
O O9 0.807517 0.009920 0.244045
O O10 0.620288 0.973522 0.331187
O O11 0.799757 0.994276 0.081956
O O12 0.250000 0.750000 0.500000
O O13 0.334190 0.838516 0.279265
O O14 0.130332 0.854755 0.518253
O O15 0.176882 0.945549 0.599327
O O16 0.001097 0.980447 0.841881
O O17 0.500000 0.738786 0.750000
#
# Coordination Sequence:
#
# PCOD9309193 Si02
#       8
#     8   8   8   8   8   8   8   8
#     4  12  23  40  65  94 117 172 208 255 323 383
#     4  10  21  40  59  94 131 161 203 265 315 382
#     4  10  22  40  62  88 125 163 213 256 313 377
#     4  11  25  44  64  90 132 164 218 270 319 374
#     4  10  22  42  61  89 127 164 209 268 310 374
#     4  10  21  39  64  89 122 166 206 261 313 377
#     4  11  22  37  63  94 128 166 202 256 323 386
#     4  10  22  41  61  94 124 164 208 264 317 375
#
# _framework density 10.243449
#
# number of rings (size 3 to 8) (size 9 to 14) (size 15 to 20)
#    0.000    1.500    2.500    2.250    1.750    3.500 
#    2.250    0.000    0.000    0.000    0.000    0.000 
#    0.000    0.000    0.000    0.000    0.000    0.000 
#
# Total GULP energy -178171.111084 kJ/mol
# GULP energy per Si atom -5567.847221 kJ/mol
# Density = 1.022013 g / cm^3
# Si number density = 10.243449 Si / 1000 Ang^3
#
#
#
# Elastic Constant Matrix: (Units=GPa)
#
#
# Indices 1 2 3 4 5 6 
#
# 1 53.8262 5.0406 0.2323 0.0000 22.7118 0.0000
# 2 5.0406 79.1247 9.0186 0.0000 1.2739 0.0000
# 3 0.2323 9.0186 75.2264 0.0000 6.1724 0.0000
# 4 0.0000 0.0000 0.0000 23.3369 0.0000 -0.9986
# 5 22.7118 1.2739 6.1724 0.0000 33.6215 0.0000
# 6 0.0000 0.0000 0.0000 -0.9986 0.0000 18.5851
#
#
#
# Elastic Compliance Matrix: (Units=1/GPa)
#
#
# Indices 1 2 3 4 5 6 
#
# 1 0.026317 -0.001567 0.001584 0.000000 -0.018009 0.000000
# 2 -0.001567 0.012908 -0.001614 0.000000 0.000866 0.000000
# 3 0.001584 -0.001614 0.013772 0.000000 -0.003537 0.000000
# 4 0.000000 0.000000 0.000000 0.042949 0.000000 0.002308
# 5 -0.018009 0.000866 -0.003537 0.000000 0.042525 0.000000
# 6 0.000000 0.000000 0.000000 0.002308 0.000000 0.053931
#
#
# Mechanical properties :
#
#
# Convention : Reuss Voigt Hill
#
# Bulk Modulus (GPa) = 20.07867 26.30669 23.19268
# Shear Modulus (GPa) = 23.56308 28.03444 25.79876
#
# Velocity S-wave (km/s) = 3.39507 3.70321 3.55248
# Velocity P-wave (km/s) = 5.01903 5.58155 5.30775
#
# Compressibility (1/GPa) = 0.04980410
#
# Stress axis : x y z
#
# Youngs Moduli (GPa) = 37.99811 77.47075 72.61098
#
# Poissons Ratio (x) = 0.12141 -0.11504
# Poissons Ratio (y) = 0.05955 0.11717
# Poissons Ratio (z) = -0.06020 0.12501
#
# Static dielectric constant tensor:
#      x y z
#    x 1.814080 0.000000 -0.006890 
#    y 0.000000 1.757400 0.000000 
#    z -0.006890 0.000000 1.828050 
# 
# From -- ./inp_files/163248.got.cif
#   From: 2010.05.17/outbox.ucp.g08.bks.cvg/sg15_82_cif.got.tgz:163248.got - 2010.06.11 12:40:34.
