data_PCOD9309718
_publ_section_title
;
Structure prediction by ZEFSAII (Michael W. Deem and Ramdas Pophale) SiO2 
 PCOD9309718
Probable space group: C 2/C
;
_chemical_formula_sum "Si O2"
_cell_formula_units_Z 26
_cell_length_a 15.000000
_cell_length_b 9.000000
_cell_length_c 30.000000
_cell_angle_alpha 90.000000
_cell_angle_beta 140.000000
_cell_angle_gamma 90.000000
_cell_volume 2603.289819
_symmetry_space_group_name_H-M "C 2/C"
_symmetry_group_IT_number 15
_symmetry_cell_setting 'monoclinic'
loop_
_space_group_symop_operation_xyz
x,y,z
-x,y,1/2-z
-x,-y,-z
x,-y,1/2+z
1/2+x,1/2+y,z
1/2-x,1/2+y,1/2-z
1/2-x,1/2-y,-z
1/2+x,1/2-y,1/2+z
loop_
_atom_site_type_symbol
_atom_site_label
_atom_site_fract_x
_atom_site_fract_y
_atom_site_fract_z
Si Si1 0.242966 0.898281 0.625509
Si Si2 0.517955 0.918658 0.141357
Si Si3 0.259596 0.592164 0.480126
Si Si4 0.500000 0.314589 0.250000
Si Si5 0.519759 0.596661 0.111768
Si Si6 0.184085 0.019969 0.258671
Si Si7 0.370251 0.836473 0.226253
O O1 0.211973 0.896112 0.561597
O O2 0.373421 0.789457 0.684801
O O3 0.105761 0.859161 0.600876
O O4 0.283690 0.062325 0.659481
O O5 0.476547 0.747599 0.119894
O O6 0.559415 0.940832 0.209052
O O7 0.391589 0.015357 0.075637
O O8 0.666065 0.948729 0.175617
O O9 0.250000 0.750000 0.500000
O O10 0.385047 0.499445 0.549761
O O11 0.569531 0.423874 0.240528
O O12 0.630609 0.518227 0.187185
O O13 0.199832 0.193605 0.278135
O O14 0.500000 0.768363 0.250000
#
# Coordination Sequence:
#
# PCOD9309718 Si02
#       7
#     8   8   8   4   8   8   8
#     4  12  23  41  67  94 130 168 217 266 320 385
#     4  11  23  44  67  94 129 171 211 271 322 385
#     4  12  27  44  64  92 133 177 221 265 319 385
#     4  12  22  40  66 100 128 164 216 276 332 374
#     4  11  25  43  66  96 131 173 214 266 327 388
#     4  11  24  40  69  98 131 161 218 270 329 389
#     4  11  21  39  67  99 124 165 207 269 321 381
#
# _framework density 9.9873630000000002
#
# number of rings (size 3 to 8) (size 9 to 14) (size 15 to 20)
#    0.000    0.615    6.154    1.846    2.154    0.000 
#    0.000    0.769    0.000    0.000    0.000    0.000 
#    0.000    0.000    0.000    0.000    0.000    0.000 
#
# Total GULP energy -145168.790240 kJ/mol
# GULP energy per Si atom -5583.415009 kJ/mol
# Density = 0.996463 g / cm^3
# Si number density = 9.987363 Si / 1000 Ang^3
#
#
#
# Elastic Constant Matrix: (Units=GPa)
#
#
# Indices 1 2 3 4 5 6 
#
# 1 88.2524 24.1111 41.0328 0.0000 2.8397 0.0000
# 2 24.1111 99.1594 64.4795 0.0000 -4.3674 0.0000
# 3 41.0328 64.4795 128.3192 0.0000 2.6245 0.0000
# 4 0.0000 0.0000 0.0000 32.4794 0.0000 3.0614
# 5 2.8397 -4.3674 2.6245 0.0000 36.1991 0.0000
# 6 0.0000 0.0000 0.0000 3.0614 0.0000 28.3283
#
#
#
# Elastic Compliance Matrix: (Units=1/GPa)
#
#
# Indices 1 2 3 4 5 6 
#
# 1 0.013369 -0.000773 -0.003869 0.000000 -0.000861 0.000000
# 2 -0.000773 0.015227 -0.007454 0.000000 0.002438 0.000000
# 3 -0.003869 -0.007454 0.012807 0.000000 -0.001524 0.000000
# 4 0.000000 0.000000 0.000000 0.031106 0.000000 -0.003362
# 5 -0.000861 0.002438 -0.001524 0.000000 0.028097 0.000000
# 6 0.000000 0.000000 0.000000 -0.003362 0.000000 0.035664
#
#
# Mechanical properties :
#
#
# Convention : Reuss Voigt Hill
#
# Bulk Modulus (GPa) = 58.10217 63.88641 60.99429
# Shear Modulus (GPa) = 30.08433 31.80854 30.94644
#
# Velocity S-wave (km/s) = 3.88509 3.99487 3.94036
# Velocity P-wave (km/s) = 7.01970 7.30285 7.16268
#
# Compressibility (1/GPa) = 0.01721106
#
# Stress axis : x y z
#
# Youngs Moduli (GPa) = 74.80053 65.67120 78.08082
#
# Poissons Ratio (x) = 0.05075 0.30210
# Poissons Ratio (y) = 0.05780 0.58205
# Poissons Ratio (z) = 0.28941 0.48954
#
# Static dielectric constant tensor:
#      x y z
#    x 1.772160 0.000000 -0.013380 
#    y 0.000000 1.688820 0.000000 
#    z -0.013380 0.000000 1.674930 
# 
# From -- ./inp_files/242521.got.cif
#   From: 2010.05.17/outbox.ucp.g08.bks.cvg/sg15_122_cif.got.tgz:242521.got - 2010.06.11 12:40:34.
