data_PCOD9309114
_publ_section_title
;
Structure prediction by ZEFSAII (Michael W. Deem and Ramdas Pophale) SiO2 
 PCOD9309114
Probable space group: C 2/C
;
_chemical_formula_sum "Si O2"
_cell_formula_units_Z 24
_cell_length_a 15.000000
_cell_length_b 9.000000
_cell_length_c 18.000000
_cell_angle_alpha 90.000000
_cell_angle_beta 90.000000
_cell_angle_gamma 90.000000
_cell_volume 2430.000000
_symmetry_space_group_name_H-M "C 2/C"
_symmetry_group_IT_number 15
_symmetry_cell_setting 'monoclinic'
loop_
_space_group_symop_operation_xyz
x,y,z
-x,y,1/2-z
-x,-y,-z
x,-y,1/2+z
1/2+x,1/2+y,z
1/2-x,1/2+y,1/2-z
1/2-x,1/2-y,-z
1/2+x,1/2-y,1/2+z
loop_
_atom_site_type_symbol
_atom_site_label
_atom_site_fract_x
_atom_site_fract_y
_atom_site_fract_z
Si Si1 0.065318 0.033171 0.648822
Si Si2 0.216194 0.192807 0.579425
Si Si3 0.029220 0.686874 0.662741
Si Si4 0.117891 0.154479 0.815396
Si Si5 0.198177 0.498992 0.669879
Si Si6 0.858877 0.500918 0.157473
O O1 0.065442 0.853670 0.648313
O O2 0.119216 0.117553 0.584884
O O3 0.101818 0.105640 0.727858
O O4 0.961874 0.071429 0.644404
O O5 0.250000 0.250000 0.500000
O O6 0.215133 0.335009 0.636172
O O7 0.278454 0.057359 0.607272
O O8 0.108840 0.576179 0.639639
O O9 0.000000 0.688281 0.750000
O O10 0.938526 0.610781 0.633382
O O11 0.110110 0.327544 0.838130
O O12 0.213411 0.095548 0.840623
O O13 0.178141 0.509587 0.758038
#
# Coordination Sequence:
#
# PCOD9309114 Si02
#       6
#     8   8   8   8   8   8
#     4  11  21  38  60  98 131 161 212 267 324 376
#     4  12  26  43  64  96 137 173 211 267 331 388
#     4  10  21  35  65  98 130 156 215 277 317 370
#     4  11  21  35  66  96 124 163 219 271 313 370
#     4  11  21  38  63  95 125 169 218 262 317 377
#     4  11  21  39  63  94 126 170 214 265 318 381
#
# _framework density 9.8765429999999999
#
# number of rings (size 3 to 8) (size 9 to 14) (size 15 to 20)
#    0.000    1.000    5.000    3.000    7.000    0.000 
#    0.000   10.000    0.000    0.000    0.000    0.000 
#    0.000    0.000    0.000    0.000    0.000    0.000 
#
# Total GULP energy -133673.196815 kJ/mol
# GULP energy per Si atom -5569.716534 kJ/mol
# Density = 0.985406 g / cm^3
# Si number density = 9.876543 Si / 1000 Ang^3
#
#
#
# Elastic Constant Matrix: (Units=GPa)
#
#
# Indices 1 2 3 4 5 6 
#
# 1 96.7991 -4.7986 14.0369 0.0000 -18.4867 0.0000
# 2 -4.7986 79.9162 -1.0217 0.0000 3.5577 0.0000
# 3 14.0369 -1.0217 24.0506 0.0000 -9.1571 0.0000
# 4 0.0000 0.0000 0.0000 105.0214 0.0000 49.6664
# 5 -18.4867 3.5577 -9.1571 0.0000 13.9328 0.0000
# 6 0.0000 0.0000 0.0000 49.6664 0.0000 75.6211
#
#
#
# Elastic Compliance Matrix: (Units=1/GPa)
#
#
# Indices 1 2 3 4 5 6 
#
# 1 0.013875 0.000038 -0.001455 0.000000 0.017444 0.000000
# 2 0.000038 0.012673 -0.000929 0.000000 -0.003796 0.000000
# 3 -0.001455 -0.000929 0.055676 0.000000 0.034899 0.000000
# 4 0.000000 0.000000 0.000000 0.013812 0.000000 -0.009071
# 5 0.017444 -0.003796 0.034899 0.000000 0.118825 0.000000
# 6 0.000000 0.000000 0.000000 -0.009071 0.000000 0.019182
#
#
# Mechanical properties :
#
#
# Convention : Reuss Voigt Hill
#
# Bulk Modulus (GPa) = 12.89795 24.13325 18.51560
# Shear Modulus (GPa) = 18.89805 51.75168 35.32487
#
# Velocity S-wave (km/s) = 3.09644 5.12408 4.23344
# Velocity P-wave (km/s) = 4.39632 6.87402 5.76974
#
# Compressibility (1/GPa) = 0.07753172
#
# Stress axis : x y z
#
# Youngs Moduli (GPa) = 72.07209 78.91099 17.96107
#
# Poissons Ratio (x) = -0.00299 0.02613
# Poissons Ratio (y) = -0.00273 0.01669
# Poissons Ratio (z) = 0.10484 0.07332
#
# Static dielectric constant tensor:
#      x y z
#    x 1.705850 0.000000 0.008840 
#    y 0.000000 1.713190 0.000000 
#    z 0.008840 0.000000 1.718040 
# 
# From -- ./inp_files/202973.got.cif
#   From: 2010.05.17/outbox.ucp.g08.bks.cvg/sg15_102_cif.got.tgz:202973.got - 2010.06.11 12:40:34.
