data_PCOD9309312
_publ_section_title
;
Structure prediction by ZEFSAII (Michael W. Deem and Ramdas Pophale) SiO2 
 PCOD9309312
Probable space group: C 2/C
;
_chemical_formula_sum "Si O2"
_cell_formula_units_Z 22
_cell_length_a 15.000000
_cell_length_b 30.000000
_cell_length_c 15.000000
_cell_angle_alpha 90.000000
_cell_angle_beta 160.000000
_cell_angle_gamma 90.000000
_cell_volume 2308.635967
_symmetry_space_group_name_H-M "C 2/C"
_symmetry_group_IT_number 15
_symmetry_cell_setting 'monoclinic'
loop_
_space_group_symop_operation_xyz
x,y,z
-x,y,1/2-z
-x,-y,-z
x,-y,1/2+z
1/2+x,1/2+y,z
1/2-x,1/2+y,1/2-z
1/2-x,1/2-y,-z
1/2+x,1/2-y,1/2+z
loop_
_atom_site_type_symbol
_atom_site_label
_atom_site_fract_x
_atom_site_fract_y
_atom_site_fract_z
Si Si1 0.596434 0.036035 0.017950
Si Si2 0.788468 0.719489 0.862382
Si Si3 0.699190 0.400213 0.571242
Si Si4 0.000000 0.172820 0.750000
Si Si5 0.645194 0.880270 0.123052
Si Si6 0.137549 0.004261 0.473174
O O1 0.419683 0.022535 0.766723
O O2 0.507996 0.086832 0.954087
O O3 0.500000 0.000000 0.000000
O O4 0.906822 0.027215 0.314502
O O5 0.539707 0.748615 0.597954
O O6 0.694084 0.701938 0.871367
O O7 0.852588 0.673598 0.868984
O O8 0.658178 0.360787 0.462111
O O9 0.666938 0.450684 0.507579
O O10 0.981631 0.392915 0.880175
O O11 0.448711 0.393502 0.400792
O O12 0.000000 0.013660 0.250000
#
# Coordination Sequence:
#
# PCOD9309312 Si02
#       6
#     8   8   8   4   8   8
#     4  12  22  38  60  82 115 152 201 236 286 351
#     4  11  23  39  54  77 111 149 198 244 285 328
#     4  11  20  34  51  79 109 147 195 232 262 327
#     4  10  22  34  54  78 112 158 196 236 280 326
#     4  11  23  36  56  79 103 147 195 237 277 326
#     4  12  23  37  55  86 121 152 190 238 287 342
#
# _framework density 9.5294369999999997
#
# number of rings (size 3 to 8) (size 9 to 14) (size 15 to 20)
#    0.000    0.727    4.545    4.909    0.000    5.818 
#    0.000    0.000    0.000    0.000    0.000    0.000 
#    0.000   14.545    0.000    0.000    0.000    0.000 
#
# Total GULP energy -122692.663296 kJ/mol
# GULP energy per Si atom -5576.939241 kJ/mol
# Density = 0.950775 g / cm^3
# Si number density = 9.529437 Si / 1000 Ang^3
#
#
#
# Elastic Constant Matrix: (Units=GPa)
#
#
# Indices 1 2 3 4 5 6 
#
# 1 30.4945 26.9862 15.1116 -0.0012 -6.2470 -0.0001
# 2 26.9862 122.9257 23.5504 -0.0050 0.8618 -0.0010
# 3 15.1116 23.5504 102.7036 -0.0128 -0.5270 -0.0084
# 4 -0.0012 -0.0050 -0.0128 36.6917 -0.0024 -7.9780
# 5 -6.2470 0.8618 -0.5270 -0.0024 28.7361 -0.0016
# 6 -0.0001 -0.0010 -0.0084 -7.9780 -0.0016 -5.7660
#
#
#
# Elastic Compliance Matrix: (Units=1/GPa)
#
#
# Indices 1 2 3 4 5 6 
#
# 1 0.045141 -0.009118 -0.004500 0.000000 0.010004 0.000004
# 2 -0.009118 0.010353 -0.001044 0.000001 -0.002312 0.000000
# 3 -0.004500 -0.001044 0.010634 0.000000 -0.000752 -0.000015
# 4 0.000000 0.000001 0.000000 0.020951 0.000000 -0.028988
# 5 0.010004 -0.002312 -0.000752 0.000000 0.037030 -0.000009
# 6 0.000004 0.000000 -0.000015 -0.028988 -0.000009 -0.133321
#
#
# Mechanical properties :
#
#
# Convention : Reuss Voigt Hill
#
# Bulk Modulus (GPa) = 27.17070 43.04668 35.10869
# Shear Modulus (GPa) = 154.41320 24.63074 89.52197
#
# Velocity S-wave (km/s) = 9.01082 3.59883 6.86100
# Velocity P-wave (km/s) = 11.07010 6.31696 9.01252
#
# Compressibility (1/GPa) = 0.03680435
#
# Stress axis : x y z
#
# Youngs Moduli (GPa) = 22.15281 96.59086 94.03413
#
# Poissons Ratio (x) = 0.88071 0.42314
# Poissons Ratio (y) = 0.20199 0.09819
# Poissons Ratio (z) = 0.09968 0.10086
#
# Static dielectric constant tensor:
#      x y z
#    x 2.148270 0.000010 -0.147760 
#    y 0.000010 1.650250 -0.000010 
#    z -0.147760 -0.000010 1.766900 
# 
# From -- ./inp_files/157567.got.cif
#   From: 2010.05.17/outbox.ucp.g08.bks.cvg/sg15_79_cif.got.tgz:157567.got - 2010.06.11 12:40:34.
