data_PCOD9309081
_publ_section_title
;
Structure prediction by ZEFSAII (Michael W. Deem and Ramdas Pophale) SiO2 
 PCOD9309081
Probable space group: C 2/C
;
_chemical_formula_sum "Si O2"
_cell_formula_units_Z 28
_cell_length_a 27.000000
_cell_length_b 9.000000
_cell_length_c 18.000000
_cell_angle_alpha 90.000000
_cell_angle_beta 140.000000
_cell_angle_gamma 90.000000
_cell_volume 2811.553005
_symmetry_space_group_name_H-M "C 2/C"
_symmetry_group_IT_number 15
_symmetry_cell_setting 'monoclinic'
loop_
_space_group_symop_operation_xyz
x,y,z
-x,y,1/2-z
-x,-y,-z
x,-y,1/2+z
1/2+x,1/2+y,z
1/2-x,1/2+y,1/2-z
1/2-x,1/2-y,-z
1/2+x,1/2-y,1/2+z
loop_
_atom_site_type_symbol
_atom_site_label
_atom_site_fract_x
_atom_site_fract_y
_atom_site_fract_z
Si Si1 0.167159 0.225951 0.443321
Si Si2 0.949945 0.274355 0.989932
Si Si3 0.063279 0.482424 0.387453
Si Si4 0.668528 0.392568 0.689893
Si Si5 0.789028 0.146556 0.849914
Si Si6 0.066093 0.051717 0.206885
Si Si7 0.531179 0.724372 0.930162
O O1 0.250000 0.250000 0.500000
O O2 0.134334 0.383589 0.437228
O O3 0.181416 0.125525 0.532419
O O4 0.104694 0.144793 0.318330
O O5 0.957813 0.407972 0.057509
O O6 0.002139 0.148731 0.089843
O O7 0.861021 0.224189 0.890642
O O8 0.981036 0.292152 0.941886
O O9 0.066359 0.655046 0.414139
O O10 0.000000 0.466507 0.250000
O O11 0.713629 0.246655 0.765816
O O12 0.726887 0.498874 0.714001
O O13 0.632515 0.467834 0.721269
O O14 0.600913 0.355579 0.554071
O O15 0.023650 0.896168 0.173395
#
# Coordination Sequence:
#
# PCOD9309081 Si02
#       7
#     8   8   8   8   8   8   8
#     4  11  24  43  66  96 136 184 221 266 345 409
#     4  10  20  42  65  97 127 170 219 272 335 395
#     4  11  24  41  64  99 132 170 220 276 333 397
#     4  11  23  40  64  99 130 173 222 273 335 401
#     4  11  23  39  65  97 131 171 223 272 332 401
#     4  11  20  44  70  89 130 177 222 275 328 412
#     4  11  23  41  70  98 132 166 229 281 333 393
#
# _framework density 9.9589090000000002
#
# number of rings (size 3 to 8) (size 9 to 14) (size 15 to 20)
#    0.000    1.143    5.714    1.286    4.000    1.143 
#    2.571    0.000    0.000    2.571    0.000    0.000 
#    0.000    0.000    0.000    0.000    0.000    0.000 
#
# Total GULP energy -156226.745374 kJ/mol
# GULP energy per Si atom -5579.526621 kJ/mol
# Density = 0.993624 g / cm^3
# Si number density = 9.958909 Si / 1000 Ang^3
#
#
#
# Elastic Constant Matrix: (Units=GPa)
#
#
# Indices 1 2 3 4 5 6 
#
# 1 68.9019 36.8719 19.4556 0.0000 -9.1986 0.0000
# 2 36.8719 94.5232 27.0673 0.0000 -11.4992 0.0000
# 3 19.4556 27.0673 69.0729 0.0000 -0.4851 0.0000
# 4 0.0000 0.0000 0.0000 17.0852 0.0000 -0.0150
# 5 -9.1986 -11.4992 -0.4851 0.0000 13.9189 0.0000
# 6 0.0000 0.0000 0.0000 -0.0150 0.0000 31.4914
#
#
#
# Elastic Compliance Matrix: (Units=1/GPa)
#
#
# Indices 1 2 3 4 5 6 
#
# 1 0.019565 -0.005730 -0.003209 0.000000 0.008085 0.000000
# 2 -0.005730 0.015060 -0.004228 0.000000 0.008508 0.000000
# 3 -0.003209 -0.004228 0.017003 0.000000 -0.005021 0.000000
# 4 0.000000 0.000000 0.000000 0.058530 0.000000 0.000028
# 5 0.008085 0.008508 -0.005021 0.000000 0.084042 0.000000
# 6 0.000000 0.000000 0.000000 0.000028 0.000000 0.031755
#
#
# Mechanical properties :
#
#
# Convention : Reuss Voigt Hill
#
# Bulk Modulus (GPa) = 39.53317 44.36527 41.94922
# Shear Modulus (GPa) = 19.17775 22.43932 20.80853
#
# Velocity S-wave (km/s) = 3.10634 3.36012 3.23572
# Velocity P-wave (km/s) = 5.72337 6.11362 5.92171
#
# Compressibility (1/GPa) = 0.02529521
#
# Stress axis : x y z
#
# Youngs Moduli (GPa) = 51.11209 66.40032 58.81379
#
# Poissons Ratio (x) = 0.38044 0.18872
# Poissons Ratio (y) = 0.29285 0.24866
# Poissons Ratio (z) = 0.16401 0.28074
#
# Static dielectric constant tensor:
#      x y z
#    x 1.710540 0.000000 -0.000900 
#    y 0.000000 1.760210 0.000000 
#    z -0.000900 0.000000 1.675570 
# 
# From -- ./inp_files/218688.got.cif
#   From: 2010.05.17/outbox.ucp.g08.bks.cvg/sg15_110_cif.got.tgz:218688.got - 2010.06.11 12:40:34.
