data_PCOD9309447
_publ_section_title
;
Structure prediction by ZEFSAII (Michael W. Deem and Ramdas Pophale) SiO2 
 PCOD9309447
Probable space group: C 2/C
;
_chemical_formula_sum "Si O2"
_cell_formula_units_Z 28
_cell_length_a 18.000000
_cell_length_b 9.000000
_cell_length_c 18.000000
_cell_angle_alpha 90.000000
_cell_angle_beta 110.000000
_cell_angle_gamma 90.000000
_cell_volume 2740.143682
_symmetry_space_group_name_H-M "C 2/C"
_symmetry_group_IT_number 15
_symmetry_cell_setting 'monoclinic'
loop_
_space_group_symop_operation_xyz
x,y,z
-x,y,1/2-z
-x,-y,-z
x,-y,1/2+z
1/2+x,1/2+y,z
1/2-x,1/2+y,1/2-z
1/2-x,1/2-y,-z
1/2+x,1/2-y,1/2+z
loop_
_atom_site_type_symbol
_atom_site_label
_atom_site_fract_x
_atom_site_fract_y
_atom_site_fract_z
Si Si1 0.903886 0.555873 0.555815
Si Si2 0.417057 0.021873 0.889421
Si Si3 0.960564 0.932227 0.816002
Si Si4 0.610067 0.610691 0.482728
Si Si5 0.872158 0.804183 0.338620
Si Si6 0.796114 0.242956 0.299697
Si Si7 0.247914 0.610333 0.444127
O O1 0.912369 0.477212 0.477791
O O2 0.870001 0.721544 0.534873
O O3 0.839206 0.465252 0.580700
O O4 0.996761 0.577114 0.609248
O O5 0.410119 0.855732 0.859441
O O6 0.338197 0.103525 0.835821
O O7 0.876601 0.843185 0.799519
O O8 0.000000 0.892163 0.750000
O O9 0.028824 0.924283 0.906281
O O10 0.924115 0.097808 0.800654
O O11 0.609773 0.622283 0.573513
O O12 0.682894 0.496882 0.498942
O O13 0.780050 0.778693 0.280071
O O14 0.766913 0.160265 0.365503
O O15 0.250000 0.750000 0.500000
#
# Coordination Sequence:
#
# PCOD9309447 Si02
#       7
#     8   8   8   8   8   8   8
#     4  10  22  43  69 105 136 190 230 301 353 437
#     4  10  22  42  71  99 143 179 244 288 363 426
#     4  12  28  48  75 107 146 194 250 304 371 447
#     4  11  25  48  75 103 144 194 245 293 373 435
#     4  11  26  45  76  99 147 191 242 303 362 427
#     4  12  25  49  68 111 144 196 240 307 364 434
#     4  12  26  40  75 107 147 182 248 301 366 435
#
# _framework density 10.218442
#
# number of rings (size 3 to 8) (size 9 to 14) (size 15 to 20)
#    0.000    0.857    4.286    1.714    4.000    3.429 
#    0.000    0.714    0.000    0.000    0.000    0.000 
#    0.000    0.000    0.000    0.000    0.000    0.000 
#
# Total GULP energy -156017.800483 kJ/mol
# GULP energy per Si atom -5572.064303 kJ/mol
# Density = 1.019518 g / cm^3
# Si number density = 10.218442 Si / 1000 Ang^3
#
#
#
# Elastic Constant Matrix: (Units=GPa)
#
#
# Indices 1 2 3 4 5 6 
#
# 1 156.9195 49.6132 59.2625 0.0000 3.6104 0.0000
# 2 49.6132 63.6874 7.3650 0.0000 -14.1085 0.0000
# 3 59.2625 7.3650 116.3113 0.0000 18.8515 0.0000
# 4 0.0000 0.0000 0.0000 25.9812 0.0000 11.4513
# 5 3.6104 -14.1085 18.8515 0.0000 45.2921 0.0000
# 6 0.0000 0.0000 0.0000 11.4513 0.0000 50.8862
#
#
#
# Elastic Compliance Matrix: (Units=1/GPa)
#
#
# Indices 1 2 3 4 5 6 
#
# 1 0.010778 -0.008164 -0.004743 0.000000 -0.001428 0.000000
# 2 -0.008164 0.023522 0.001477 0.000000 0.007363 0.000000
# 3 -0.004743 0.001477 0.011565 0.000000 -0.003976 0.000000
# 4 0.000000 0.000000 0.000000 0.042727 0.000000 -0.009615
# 5 -0.001428 0.007363 -0.003976 0.000000 0.026141 0.000000
# 6 0.000000 0.000000 0.000000 -0.009615 0.000000 0.021815
#
#
# Mechanical properties :
#
#
# Convention : Reuss Voigt Hill
#
# Bulk Modulus (GPa) = 43.46993 63.26662 53.36828
# Shear Modulus (GPa) = 29.92614 39.14373 34.53494
#
# Velocity S-wave (km/s) = 3.83079 4.38122 4.11522
# Velocity P-wave (km/s) = 6.39399 7.52447 6.98215
#
# Compressibility (1/GPa) = 0.02300441
#
# Stress axis : x y z
#
# Youngs Moduli (GPa) = 92.78060 42.51347 86.46639
#
# Poissons Ratio (x) = 0.34708 0.41013
# Poissons Ratio (y) = 0.75747 -0.12770
# Poissons Ratio (z) = 0.44008 -0.06279
#
# Static dielectric constant tensor:
#      x y z
#    x 1.716430 0.000000 -0.017170 
#    y 0.000000 1.811090 0.000000 
#    z -0.017170 0.000000 1.746460 
# 
# From -- ./inp_files/209635.got.cif
#   From: 2010.05.17/outbox.ucp.g08.bks.cvg/sg15_105_cif.got.tgz:209635.got - 2010.06.11 12:40:34.
