data_PCOD9309064
_publ_section_title
;
Structure prediction by ZEFSAII (Michael W. Deem and Ramdas Pophale) SiO2 
 PCOD9309064
Probable space group: C 2/C
;
_chemical_formula_sum "Si O2"
_cell_formula_units_Z 28
_cell_length_a 9.000000
_cell_length_b 24.000000
_cell_length_c 15.000000
_cell_angle_alpha 90.000000
_cell_angle_beta 110.000000
_cell_angle_gamma 90.000000
_cell_volume 3044.604091
_symmetry_space_group_name_H-M "C 2/C"
_symmetry_group_IT_number 15
_symmetry_cell_setting 'monoclinic'
loop_
_space_group_symop_operation_xyz
x,y,z
-x,y,1/2-z
-x,-y,-z
x,-y,1/2+z
1/2+x,1/2+y,z
1/2-x,1/2+y,1/2-z
1/2-x,1/2-y,-z
1/2+x,1/2-y,1/2+z
loop_
_atom_site_type_symbol
_atom_site_label
_atom_site_fract_x
_atom_site_fract_y
_atom_site_fract_z
Si Si1 0.500000 0.406272 0.750000
Si Si2 0.096419 0.450014 0.858741
Si Si3 0.910075 0.090170 0.637629
Si Si4 0.500000 0.773371 0.750000
Si Si5 0.850655 0.038444 0.942093
Si Si6 0.276681 0.025484 0.398028
Si Si7 0.808420 0.846508 0.867221
Si Si8 0.883763 0.206301 0.558789
O O1 0.353002 0.445267 0.691540
O O2 0.424680 0.370357 0.815049
O O3 0.217305 0.501117 0.866661
O O4 0.211464 0.396988 0.896304
O O5 0.000000 0.437627 0.750000
O O6 0.956781 0.464982 0.901141
O O7 0.834287 0.150346 0.602480
O O8 0.000000 0.087991 0.750000
O O9 0.057956 0.082556 0.599261
O O10 0.782995 0.039176 0.605708
O O11 0.664227 0.809219 0.794663
O O12 0.495486 0.737534 0.655574
O O13 0.760082 0.054100 0.014075
O O14 0.000000 0.000000 0.000000
O O15 0.917271 0.817313 0.965454
O O16 0.750000 0.250000 0.500000
#
# Coordination Sequence:
#
# PCOD9309064 Si02
#       8
#     4   8   8   4   8   8   8   8
#     4  12  20  37  60  96 126 163 196 240 316 384
#     4  12  21  37  58  92 127 161 207 243 298 373
#     4  11  19  36  58  88 122 163 199 244 304 360
#     4  10  20  41  60  88 110 153 214 270 304 360
#     4  10  22  35  54  85 128 162 199 235 297 370
#     4  11  21  34  58  89 130 164 197 242 294 371
#     4  11  21  38  62  89 122 160 200 260 310 371
#     4  10  22  38  64  87 113 155 216 260 306 351
#
# _framework density 9.1965979999999998
#
# number of rings (size 3 to 8) (size 9 to 14) (size 15 to 20)
#    0.000    1.143    3.571    5.571    0.000    0.000 
#    0.000    0.714    0.000    6.857    0.000    0.000 
#    0.000    0.000    0.000    0.000    0.000    0.000 
#
# Total GULP energy -155869.963551 kJ/mol
# GULP energy per Si atom -5566.784413 kJ/mol
# Density = 0.917567 g / cm^3
# Si number density = 9.196598 Si / 1000 Ang^3
#
#
#
# Elastic Constant Matrix: (Units=GPa)
#
#
# Indices 1 2 3 4 5 6 
#
# 1 118.8813 36.5083 18.7945 0.0000 -13.0585 0.0000
# 2 36.5083 93.0038 35.8832 0.0000 -7.3372 0.0000
# 3 18.7945 35.8832 93.8147 0.0000 -2.2773 0.0000
# 4 0.0000 0.0000 0.0000 41.9009 0.0000 3.2567
# 5 -13.0585 -7.3372 -2.2773 0.0000 36.1397 0.0000
# 6 0.0000 0.0000 0.0000 3.2567 0.0000 19.8246
#
#
#
# Elastic Compliance Matrix: (Units=1/GPa)
#
#
# Indices 1 2 3 4 5 6 
#
# 1 0.009868 -0.003418 -0.000601 0.000000 0.002834 0.000000
# 2 -0.003418 0.013985 -0.004632 0.000000 0.001312 0.000000
# 3 -0.000601 -0.004632 0.012543 0.000000 -0.000367 0.000000
# 4 0.000000 0.000000 0.000000 0.024174 0.000000 -0.003971
# 5 0.002834 0.001312 -0.000367 0.000000 0.028938 0.000000
# 6 0.000000 0.000000 0.000000 -0.003971 0.000000 0.051095
#
#
# Mechanical properties :
#
#
# Convention : Reuss Voigt Hill
#
# Bulk Modulus (GPa) = 52.37638 54.23022 53.30330
# Shear Modulus (GPa) = 30.43791 33.87396 32.15593
#
# Velocity S-wave (km/s) = 4.07239 4.29611 4.18575
# Velocity P-wave (km/s) = 7.11690 7.35912 7.23902
#
# Compressibility (1/GPa) = 0.01909258
#
# Stress axis : x y z
#
# Youngs Moduli (GPa) = 101.34053 71.50567 79.72836
#
# Poissons Ratio (x) = 0.24442 0.04789
# Poissons Ratio (y) = 0.34641 0.36934
# Poissons Ratio (z) = 0.06087 0.33125
#
# Static dielectric constant tensor:
#      x y z
#    x 1.600440 0.000000 -0.021840 
#    y 0.000000 1.696400 0.000000 
#    z -0.021840 0.000000 1.728870 
# 
# From -- ./inp_files/137488.got.cif
#   From: 2010.05.17/outbox.ucp.g08.bks.cvg/sg15_69_cif.got.tgz:137488.got - 2010.06.11 12:40:34.
