data_PCOD9309584
_publ_section_title
;
Structure prediction by ZEFSAII (Michael W. Deem and Ramdas Pophale) SiO2 
 PCOD9309584
Probable space group: C 2/C
;
_chemical_formula_sum "Si O2"
_cell_formula_units_Z 32
_cell_length_a 18.000000
_cell_length_b 24.000000
_cell_length_c 21.000000
_cell_angle_alpha 90.000000
_cell_angle_beta 160.000000
_cell_angle_gamma 90.000000
_cell_volume 3102.806740
_symmetry_space_group_name_H-M "C 2/C"
_symmetry_group_IT_number 15
_symmetry_cell_setting 'monoclinic'
loop_
_space_group_symop_operation_xyz
x,y,z
-x,y,1/2-z
-x,-y,-z
x,-y,1/2+z
1/2+x,1/2+y,z
1/2-x,1/2+y,1/2-z
1/2-x,1/2-y,-z
1/2+x,1/2-y,1/2+z
loop_
_atom_site_type_symbol
_atom_site_label
_atom_site_fract_x
_atom_site_fract_y
_atom_site_fract_z
Si Si1 0.756414 0.693051 0.543979
Si Si2 0.758167 0.092901 0.057158
Si Si3 0.579698 0.413790 0.575000
Si Si4 0.433640 0.708190 0.393544
Si Si5 0.477739 0.836799 0.015757
Si Si6 0.946838 0.006346 0.853525
Si Si7 0.588504 0.069605 0.504747
Si Si8 0.319668 0.975573 0.553491
O O1 0.750000 0.750000 0.500000
O O2 0.673917 0.642021 0.436917
O O3 0.646689 0.704080 0.522364
O O4 0.000000 0.676438 0.750000
O O5 0.000000 0.064819 0.250000
O O6 0.621075 0.125963 0.003579
O O7 0.622018 0.038666 0.924692
O O8 0.546165 0.346620 0.543142
O O9 0.501272 0.444523 0.577279
O O10 0.480277 0.449134 0.437305
O O11 0.833641 0.429811 0.783372
O O12 0.402196 0.775674 0.378242
O O13 0.236744 0.686137 0.191973
O O14 0.601825 0.878164 0.065861
O O15 0.704317 0.016914 0.632031
O O16 0.105835 0.021618 0.924427
O O17 0.690334 0.065690 0.515375
O O18 0.500000 0.957570 0.750000
#
# Coordination Sequence:
#
# PCOD9309584 Si02
#       8
#     8   8   8   8   8   8   8   8
#     4  12  22  35  55  83 128 178 218 263 309 384
#     4  12  24  39  60  95 133 178 222 262 324 397
#     4  10  24  41  68  98 137 168 223 274 329 404
#     4  11  23  42  59  91 132 174 221 271 324 388
#     4  11  26  40  66  94 131 178 220 273 323 399
#     4  11  23  43  70  99 132 174 214 278 341 396
#     4  11  25  43  67  98 130 175 223 275 333 395
#     4  12  26  45  67  98 132 173 222 279 343 402
#
# _framework density 10.313243
#
# number of rings (size 3 to 8) (size 9 to 14) (size 15 to 20)
#    0.000    0.750    3.750    3.750    8.750    0.000 
#    0.000    0.000    0.000    0.750    3.250    0.000 
#    0.000    0.000    0.000    0.000    0.000    0.000 
#
# Total GULP energy -178142.522128 kJ/mol
# GULP energy per Si atom -5566.953816 kJ/mol
# Density = 1.028977 g / cm^3
# Si number density = 10.313243 Si / 1000 Ang^3
#
#
#
# Elastic Constant Matrix: (Units=GPa)
#
#
# Indices 1 2 3 4 5 6 
#
# 1 127.4898 38.2635 14.5631 -0.0264 7.0192 -0.0120
# 2 38.2635 79.0577 -3.1651 0.0608 -5.5618 0.0052
# 3 14.5631 -3.1651 62.2024 0.1255 -1.6299 -0.0126
# 4 -0.0264 0.0608 0.1255 21.7315 -0.0282 -12.6080
# 5 7.0192 -5.5618 -1.6299 -0.0282 31.2639 -0.0246
# 6 -0.0120 0.0052 -0.0126 -12.6080 -0.0246 27.3695
#
#
#
# Elastic Compliance Matrix: (Units=1/GPa)
#
#
# Indices 1 2 3 4 5 6 
#
# 1 0.009859 -0.005108 -0.002654 0.000052 -0.003260 0.000025
# 2 -0.005108 0.015487 0.002089 -0.000077 0.004011 -0.000036
# 3 -0.002654 0.002089 0.016853 -0.000136 0.001846 -0.000055
# 4 0.000052 -0.000077 -0.000136 0.062802 0.000047 0.028930
# 5 -0.003260 0.004011 0.001846 0.000047 0.033528 0.000050
# 6 0.000025 -0.000036 -0.000055 0.028930 0.000050 0.049864
#
#
# Mechanical properties :
#
#
# Convention : Reuss Voigt Hill
#
# Bulk Modulus (GPa) = 32.41011 40.89699 36.65355
# Shear Modulus (GPa) = 23.80703 30.67886 27.24294
#
# Velocity S-wave (km/s) = 3.40103 3.86081 3.63819
# Velocity P-wave (km/s) = 5.58298 6.30435 5.95460
#
# Compressibility (1/GPa) = 0.03085457
#
# Stress axis : x y z
#
# Youngs Moduli (GPa) = 101.42664 64.57090 59.33740
#
# Poissons Ratio (x) = 0.32980 0.15747
# Poissons Ratio (y) = 0.51804 -0.12396
# Poissons Ratio (z) = 0.26916 -0.13489
#
# Static dielectric constant tensor:
#      x y z
#    x 1.752730 0.000350 -0.053780 
#    y 0.000350 1.774770 -0.000090 
#    z -0.053780 -0.000090 1.901590 
# 
# From -- ./inp_files/250303.got.cif
#   From: 2010.05.17/outbox.ucp.g08.bks.cvg/sg15_126_cif.got.tgz:250303.got - 2010.06.11 12:40:34.
