data_PCOD9309809
_publ_section_title
;
Structure prediction by ZEFSAII (Michael W. Deem and Ramdas Pophale) SiO2 
 PCOD9309809
Probable space group: C 2/C
;
_chemical_formula_sum "Si O2"
_cell_formula_units_Z 32
_cell_length_a 12.000000
_cell_length_b 18.000000
_cell_length_c 30.000000
_cell_angle_alpha 90.000000
_cell_angle_beta 30.000000
_cell_angle_gamma 90.000000
_cell_volume 3240.000000
_symmetry_space_group_name_H-M "C 2/C"
_symmetry_group_IT_number 15
_symmetry_cell_setting 'monoclinic'
loop_
_space_group_symop_operation_xyz
x,y,z
-x,y,1/2-z
-x,-y,-z
x,-y,1/2+z
1/2+x,1/2+y,z
1/2-x,1/2+y,1/2-z
1/2-x,1/2-y,-z
1/2+x,1/2-y,1/2+z
loop_
_atom_site_type_symbol
_atom_site_label
_atom_site_fract_x
_atom_site_fract_y
_atom_site_fract_z
Si Si1 0.655987 0.620841 0.842358
Si Si2 0.272494 0.400456 0.806675
Si Si3 0.056739 0.236735 0.002179
Si Si4 0.750763 0.696079 0.680638
Si Si5 0.924790 0.247564 0.208699
Si Si6 0.667598 0.820523 0.499898
Si Si7 0.879860 0.548973 0.683097
Si Si8 0.129665 0.076875 0.953880
O O1 0.812654 0.693725 0.781753
O O2 0.395360 0.632093 0.919963
O O3 0.757984 0.563704 0.772027
O O4 0.670488 0.596669 0.888176
O O5 0.500000 0.433191 0.750000
O O6 0.384072 0.333292 0.741257
O O7 0.164595 0.466403 0.816518
O O8 0.056288 0.363872 0.906538
O O9 0.317140 0.242375 0.896131
O O10 0.007278 0.148782 0.016872
O O11 0.963936 0.272159 0.079662
O O12 0.908005 0.283114 0.019420
O O13 0.500000 0.706135 0.750000
O O14 0.768661 0.739228 0.720618
O O15 0.790565 0.609654 0.678732
O O16 0.750000 0.750000 0.500000
O O17 0.138442 0.566304 0.601079
O O18 0.000000 0.000000 0.000000
#
# Coordination Sequence:
#
# PCOD9309809 Si02
#       8
#     8   8   8   8   8   8   8   8
#     4  11  23  44  68  97 132 179 222 272 336 402
#     4  12  25  45  66  99 132 170 227 281 331 398
#     4  12  23  43  70 100 130 177 226 274 330 411
#     4  11  25  43  67  96 136 178 223 274 342 401
#     4  11  23  42  72  95 128 179 224 277 333 395
#     4  12  23  38  72  99 128 164 228 276 319 400
#     4  11  26  44  65  91 140 180 216 277 338 402
#     4  12  25  40  68 101 138 175 221 277 342 397
#
# _framework density 9.8765429999999999
#
# number of rings (size 3 to 8) (size 9 to 14) (size 15 to 20)
#    0.000    0.500    6.250    3.375    0.000    1.000 
#    2.250    1.250    0.000    0.000    0.000    0.000 
#    0.000    0.000    0.000    0.000    0.000    0.000 
#
# Total GULP energy -178470.418962 kJ/mol
# GULP energy per Si atom -5577.200593 kJ/mol
# Density = 0.985406 g / cm^3
# Si number density = 9.876543 Si / 1000 Ang^3
#
#
#
# Elastic Constant Matrix: (Units=GPa)
#
#
# Indices 1 2 3 4 5 6 
#
# 1 104.0690 -3.3582 16.8178 -0.0148 -21.0026 -0.0020
# 2 -3.3582 138.1439 27.2872 -0.0248 35.9312 0.0021
# 3 16.8178 27.2872 87.9400 0.0081 -8.6936 0.0152
# 4 -0.0148 -0.0248 0.0081 24.4456 0.0123 -14.3896
# 5 -21.0026 35.9312 -8.6936 0.0123 43.6551 0.0047
# 6 -0.0020 0.0021 0.0152 -14.3896 0.0047 57.5328
#
#
#
# Elastic Compliance Matrix: (Units=1/GPa)
#
#
# Indices 1 2 3 4 5 6 
#
# 1 0.010955 -0.001026 -0.001196 0.000004 0.005877 0.000001
# 2 -0.001026 0.010644 -0.004102 0.000020 -0.010071 0.000007
# 3 -0.001196 -0.004102 0.013414 -0.000017 0.005472 -0.000008
# 4 0.000004 0.000020 -0.000017 0.047970 -0.000033 0.011998
# 5 0.005877 -0.010071 0.005472 -0.000033 0.035113 -0.000012
# 6 0.000001 0.000007 -0.000008 0.011998 -0.000012 0.020382
#
#
# Mechanical properties :
#
#
# Convention : Reuss Voigt Hill
#
# Bulk Modulus (GPa) = 44.71267 45.73848 45.22558
# Shear Modulus (GPa) = 31.52978 44.42042 37.97510
#
# Velocity S-wave (km/s) = 3.99958 4.74728 4.38938
# Velocity P-wave (km/s) = 6.63428 7.29755 6.97381
#
# Compressibility (1/GPa) = 0.02236503
#
# Stress axis : x y z
#
# Youngs Moduli (GPa) = 91.28091 93.95301 74.54968
#
# Poissons Ratio (x) = 0.09641 0.08914
# Poissons Ratio (y) = 0.09366 0.30580
# Poissons Ratio (z) = 0.10914 0.38540
#
# Static dielectric constant tensor:
#      x y z
#    x 1.661840 -0.000010 0.011710 
#    y -0.000010 1.725060 0.000000 
#    z 0.011710 0.000000 1.686750 
# 
# From -- ./inp_files/311635.got.cif
#   From: 2010.05.17/outbox.ucp.g08.bks.cvg/sg15_156_cif.got.tgz:311635.got - 2010.06.11 12:40:34.
