data_PCOD9309279
_publ_section_title
;
Structure prediction by ZEFSAII (Michael W. Deem and Ramdas Pophale) SiO2 
 PCOD9309279
Probable space group: C 2/C
;
_chemical_formula_sum "Si O2"
_cell_formula_units_Z 24
_cell_length_a 9.000000
_cell_length_b 12.000000
_cell_length_c 24.000000
_cell_angle_alpha 90.000000
_cell_angle_beta 110.000000
_cell_angle_gamma 90.000000
_cell_volume 2435.683273
_symmetry_space_group_name_H-M "C 2/C"
_symmetry_group_IT_number 15
_symmetry_cell_setting 'monoclinic'
loop_
_space_group_symop_operation_xyz
x,y,z
-x,y,1/2-z
-x,-y,-z
x,-y,1/2+z
1/2+x,1/2+y,z
1/2-x,1/2+y,1/2-z
1/2-x,1/2-y,-z
1/2+x,1/2-y,1/2+z
loop_
_atom_site_type_symbol
_atom_site_label
_atom_site_fract_x
_atom_site_fract_y
_atom_site_fract_z
Si Si1 0.765557 0.116810 0.939824
Si Si2 0.931791 0.845190 0.578752
Si Si3 0.699265 0.886367 0.869354
Si Si4 0.182885 0.542813 0.762445
Si Si5 0.098204 0.218532 0.650812
Si Si6 0.654697 0.582165 0.310272
O O1 0.638234 0.218837 0.924844
O O2 0.890578 0.161489 0.909084
O O3 0.692890 0.999112 0.907932
O O4 0.848832 0.108097 0.011345
O O5 0.893115 0.919103 0.629829
O O6 0.122052 0.842170 0.598821
O O7 0.685932 0.935764 0.804632
O O8 0.564609 0.790033 0.861104
O O9 0.330830 0.621209 0.800105
O O10 0.229056 0.508239 0.705081
O O11 0.000000 0.586802 0.750000
O O12 0.237467 0.308312 0.676276
O O13 0.500000 0.589445 0.250000
#
# Coordination Sequence:
#
# PCOD9309279 Si02
#       6
#     8   8   8   8   8   8
#     4   9  22  43  66  95 134 173 215 272 328 380
#     4  10  21  42  68  97 136 168 220 273 321 393
#     4  11  21  42  67  94 128 176 213 270 326 386
#     4  11  22  43  64  94 131 169 218 275 329 391
#     4  10  23  41  66  92 129 171 219 268 327 389
#     4  11  21  41  63  94 129 170 212 266 331 391
#
# _framework density 9.8534980000000001
#
# number of rings (size 3 to 8) (size 9 to 14) (size 15 to 20)
#    0.000    1.667    3.333    1.000    0.000    0.667 
#    6.000    7.500    0.000    0.000    0.000    0.000 
#    0.000    0.000    0.000    0.000    0.000    0.000 
#
# Total GULP energy -133784.311280 kJ/mol
# GULP energy per Si atom -5574.346303 kJ/mol
# Density = 0.983107 g / cm^3
# Si number density = 9.853498 Si / 1000 Ang^3
#
#
#
# Elastic Constant Matrix: (Units=GPa)
#
#
# Indices 1 2 3 4 5 6 
#
# 1 129.2692 50.4930 49.3232 0.0000 10.1133 0.0000
# 2 50.4930 85.5235 41.8579 0.0000 -7.8544 0.0000
# 3 49.3232 41.8579 133.7236 0.0000 -8.5323 0.0000
# 4 0.0000 0.0000 0.0000 32.8617 0.0000 5.8360
# 5 10.1133 -7.8544 -8.5323 0.0000 37.0119 0.0000
# 6 0.0000 0.0000 0.0000 5.8360 0.0000 41.9108
#
#
#
# Elastic Compliance Matrix: (Units=1/GPa)
#
#
# Indices 1 2 3 4 5 6 
#
# 1 0.011465 -0.005908 -0.002699 0.000000 -0.005009 0.000000
# 2 -0.005908 0.016994 -0.002849 0.000000 0.004564 0.000000
# 3 -0.002699 -0.002849 0.009514 0.000000 0.002326 0.000000
# 4 0.000000 0.000000 0.000000 0.031202 0.000000 -0.004345
# 5 -0.005009 0.004564 0.002326 0.000000 0.029892 0.000000
# 6 0.000000 0.000000 0.000000 -0.004345 0.000000 0.024465
#
#
# Mechanical properties :
#
#
# Convention : Reuss Voigt Hill
#
# Bulk Modulus (GPa) = 66.39741 70.20716 68.30228
# Shear Modulus (GPa) = 33.01074 36.14635 34.57854
#
# Velocity S-wave (km/s) = 4.09721 4.28739 4.19338
# Velocity P-wave (km/s) = 7.49322 7.75963 7.62758
#
# Compressibility (1/GPa) = 0.01506083
#
# Stress axis : x y z
#
# Youngs Moduli (GPa) = 87.22026 58.84284 105.10876
#
# Poissons Ratio (x) = 0.34764 0.28371
# Poissons Ratio (y) = 0.51530 0.29948
# Poissons Ratio (z) = 0.23542 0.16766
#
# Static dielectric constant tensor:
#      x y z
#    x 1.729060 0.000000 -0.031170 
#    y 0.000000 1.726270 0.000000 
#    z -0.031170 0.000000 1.712260 
# 
# From -- ./inp_files/263160.got.cif
#   From: 2010.05.17/outbox.ucp.g08.bks.cvg/sg15_132_cif.got.tgz:263160.got - 2010.06.11 12:40:34.
