data_PCOD9309885
_publ_section_title
;
Structure prediction by ZEFSAII (Michael W. Deem and Ramdas Pophale) SiO2 
 PCOD9309885
Probable space group: C 2/C
;
_chemical_formula_sum "Si O2"
_cell_formula_units_Z 22
_cell_length_a 12.000000
_cell_length_b 24.000000
_cell_length_c 9.000000
_cell_angle_alpha 90.000000
_cell_angle_beta 120.000000
_cell_angle_gamma 90.000000
_cell_volume 2244.737847
_symmetry_space_group_name_H-M "C 2/C"
_symmetry_group_IT_number 15
_symmetry_cell_setting 'monoclinic'
loop_
_space_group_symop_operation_xyz
x,y,z
-x,y,1/2-z
-x,-y,-z
x,-y,1/2+z
1/2+x,1/2+y,z
1/2-x,1/2+y,1/2-z
1/2-x,1/2-y,-z
1/2+x,1/2-y,1/2+z
loop_
_atom_site_type_symbol
_atom_site_label
_atom_site_fract_x
_atom_site_fract_y
_atom_site_fract_z
Si Si1 0.713731 0.281273 0.819984
Si Si2 0.000000 0.873298 0.750000
Si Si3 0.781100 0.069542 0.934127
Si Si4 0.353309 0.980497 0.864171
Si Si5 0.070829 0.362656 0.653616
Si Si6 0.387635 0.830450 0.289010
O O1 0.605606 0.329359 0.759294
O O2 0.833410 0.315501 0.838903
O O3 0.670221 0.227862 0.693887
O O4 0.750000 0.250000 0.000000
O O5 0.926131 0.913023 0.580856
O O6 0.714782 0.129045 0.855632
O O7 0.737384 0.026946 0.774123
O O8 0.713914 0.041523 0.031586
O O9 0.366860 0.923312 0.777761
O O10 0.500000 0.000000 0.000000
O O11 0.000000 0.341860 0.750000
O O12 0.960185 0.368055 0.456879
O O13 0.500000 0.813743 0.250000
#
# Coordination Sequence:
#
# PCOD9309885 Si02
#       6
#     8   4   8   8   8   8
#     4  12  21  41  72  98 126 178 223 272 330 413
#     4  12  22  42  64 102 134 170 228 266 336 418
#     4  12  25  39  67  99 129 177 221 277 333 397
#     4  12  22  42  66  96 129 171 228 280 327 386
#     4  12  25  41  66 100 133 165 221 290 335 382
#     4  12  20  40  68  98 124 168 228 270 326 398
#
# _framework density 9.8006989999999998
#
# number of rings (size 3 to 8) (size 9 to 14) (size 15 to 20)
#    0.000    0.000   10.000    1.636    0.000    1.455 
#    0.000    0.000    0.000    0.000    0.000    0.000 
#    0.000    0.000    0.000    0.000    0.000    0.000 
#
# Total GULP energy -122681.178828 kJ/mol
# GULP energy per Si atom -5576.417219 kJ/mol
# Density = 0.977839 g / cm^3
# Si number density = 9.800699 Si / 1000 Ang^3
#
#
#
# Elastic Constant Matrix: (Units=GPa)
#
#
# Indices 1 2 3 4 5 6 
#
# 1 79.2760 38.1131 39.7397 0.0000 -0.1201 0.0000
# 2 38.1131 150.8846 45.6944 0.0000 14.0086 0.0000
# 3 39.7397 45.6944 74.2750 0.0000 27.1868 0.0000
# 4 0.0000 0.0000 0.0000 -132.0065 0.0000 -77.2901
# 5 -0.1201 14.0086 27.1868 0.0000 28.1138 0.0000
# 6 0.0000 0.0000 0.0000 -77.2901 0.0000 -20.2137
#
#
#
# Elastic Compliance Matrix: (Units=1/GPa)
#
#
# Indices 1 2 3 4 5 6 
#
# 1 0.022175 -0.002079 -0.017026 0.000000 0.017595 0.000000
# 2 -0.002079 0.008367 -0.003879 0.000000 -0.000427 0.000000
# 3 -0.017026 -0.003879 0.037580 0.000000 -0.034481 0.000000
# 4 0.000000 0.000000 0.000000 0.006115 0.000000 -0.023383
# 5 0.017595 -0.000427 -0.034481 0.000000 0.069202 0.000000
# 6 0.000000 0.000000 0.000000 -0.023383 0.000000 0.039936
#
#
# Mechanical properties :
#
#
# Convention : Reuss Voigt Hill
#
# Bulk Modulus (GPa) = 45.13588 61.28111 53.20850
# Shear Modulus (GPa) = 21.12136 -12.76206 4.17965
#
# Velocity S-wave (km/s) = 3.28616 -2.55439 1.46183
# Velocity P-wave (km/s) = 6.12171 4.75727 5.48210
#
# Compressibility (1/GPa) = 0.02215532
#
# Stress axis : x y z
#
# Youngs Moduli (GPa) = 45.09605 119.51667 26.60979
#
# Poissons Ratio (x) = 0.24845 0.45305
# Poissons Ratio (y) = 0.09374 0.10322
# Poissons Ratio (z) = 0.76779 0.46360
#
# Static dielectric constant tensor:
#      x y z
#    x 1.705470 0.000000 0.014500 
#    y 0.000000 1.699460 0.000000 
#    z 0.014500 0.000000 1.772010 
# 
# From -- ./inp_files/32754.got.cif
#   From: 2010.05.17/outbox.ucp.g08.bks.cvg/sg15_17_cif.got.tgz:32754.got - 2010.06.11 12:40:34.
