data_PCOD9309513
_publ_section_title
;
Structure prediction by ZEFSAII (Michael W. Deem and Ramdas Pophale) SiO2 
 PCOD9309513
Probable space group: C 2/C
;
_chemical_formula_sum "Si O2"
_cell_formula_units_Z 30
_cell_length_a 15.000000
_cell_length_b 24.000000
_cell_length_c 9.000000
_cell_angle_alpha 90.000000
_cell_angle_beta 110.000000
_cell_angle_gamma 90.000000
_cell_volume 3044.604091
_symmetry_space_group_name_H-M "C 2/C"
_symmetry_group_IT_number 15
_symmetry_cell_setting 'monoclinic'
loop_
_space_group_symop_operation_xyz
x,y,z
-x,y,1/2-z
-x,-y,-z
x,-y,1/2+z
1/2+x,1/2+y,z
1/2-x,1/2+y,1/2-z
1/2-x,1/2-y,-z
1/2+x,1/2-y,1/2+z
loop_
_atom_site_type_symbol
_atom_site_label
_atom_site_fract_x
_atom_site_fract_y
_atom_site_fract_z
Si Si1 0.207161 0.056093 0.898628
Si Si2 0.000000 0.105132 0.750000
Si Si3 0.787797 0.333924 0.431184
Si Si4 0.613220 0.745951 0.806386
Si Si5 0.550672 0.362581 0.939500
Si Si6 0.767204 0.940878 0.428758
Si Si7 0.643216 0.758046 0.497296
Si Si8 0.603628 0.133892 0.809335
O O1 0.263417 0.108636 0.000172
O O2 0.244873 0.049991 0.753336
O O3 0.096225 0.069995 0.818407
O O4 0.221626 0.999919 0.992000
O O5 0.004726 0.131879 0.581535
O O6 0.681921 0.308271 0.344431
O O7 0.849444 0.286819 0.545312
O O8 0.844967 0.350058 0.315934
O O9 0.500000 0.736665 0.750000
O O10 0.640503 0.774145 0.667452
O O11 0.500000 0.373724 0.750000
O O12 0.587768 0.299555 0.951228
O O13 0.639801 0.403797 0.995103
O O14 0.677852 0.905791 0.433985
O O15 0.750000 0.750000 0.500000
O O16 0.594028 0.807423 0.384034
O O17 0.500000 0.107482 0.750000
#
# Coordination Sequence:
#
# PCOD9309513 Si02
#       8
#     8   4   8   8   8   8   8   8
#     4  10  23  40  64  92 132 168 222 282 335 398
#     4  10  24  42  66 100 138 180 224 280 340 422
#     4  10  23  42  61  94 129 167 222 268 337 402
#     4  11  23  39  65  93 130 174 212 267 338 408
#     4  11  25  41  66  99 140 179 225 269 348 412
#     4  10  23  42  62  95 129 171 223 281 334 403
#     4  12  22  40  61  95 133 168 220 274 328 403
#     4  11  22  44  66  88 130 176 220 281 337 397
#
# _framework density 9.8534980000000001
#
# number of rings (size 3 to 8) (size 9 to 14) (size 15 to 20)
#    0.000    1.333    2.667    2.800    6.533    3.200 
#    0.000    3.333    0.000    0.000    0.000    0.000 
#    0.000    0.000    0.000    0.000    0.000    0.000 
#
# Total GULP energy -167173.907436 kJ/mol
# GULP energy per Si atom -5572.463581 kJ/mol
# Density = 0.983107 g / cm^3
# Si number density = 9.853498 Si / 1000 Ang^3
#
#
#
# Elastic Constant Matrix: (Units=GPa)
#
#
# Indices 1 2 3 4 5 6 
#
# 1 84.2307 53.0256 51.2657 0.0000 2.7300 0.0000
# 2 53.0256 110.2866 31.3028 0.0000 -3.0303 0.0000
# 3 51.2657 31.3028 79.1566 0.0000 -4.2258 0.0000
# 4 0.0000 0.0000 0.0000 10.0845 0.0000 -1.2678
# 5 2.7300 -3.0303 -4.2258 0.0000 24.7924 0.0000
# 6 0.0000 0.0000 0.0000 -1.2678 0.0000 21.1463
#
#
#
# Elastic Compliance Matrix: (Units=1/GPa)
#
#
# Indices 1 2 3 4 5 6 
#
# 1 0.025877 -0.008743 -0.013635 0.000000 -0.006242 0.000000
# 2 -0.008743 0.013176 0.000595 0.000000 0.002675 0.000000
# 3 -0.013635 0.000595 0.021508 0.000000 0.005240 0.000000
# 4 0.000000 0.000000 0.000000 0.099915 0.000000 0.005990
# 5 -0.006242 0.002675 0.005240 0.000000 0.042242 0.000000
# 6 0.000000 0.000000 0.000000 0.005990 0.000000 0.047649
#
#
# Mechanical properties :
#
#
# Convention : Reuss Voigt Hill
#
# Bulk Modulus (GPa) = 58.84211 60.54023 59.69117
# Shear Modulus (GPa) = 16.68895 20.40996 18.54946
#
# Velocity S-wave (km/s) = 2.91323 3.22168 3.07133
# Velocity P-wave (km/s) = 6.42178 6.68025 6.55229
#
# Compressibility (1/GPa) = 0.01699463
#
# Stress axis : x y z
#
# Youngs Moduli (GPa) = 38.64369 75.89771 46.49329
#
# Poissons Ratio (x) = 0.66359 0.63395
# Poissons Ratio (y) = 0.33787 -0.02766
# Poissons Ratio (z) = 0.52691 -0.04516
#
# Static dielectric constant tensor:
#      x y z
#    x 1.653030 0.000000 0.015440 
#    y 0.000000 1.725100 0.000000 
#    z 0.015440 0.000000 1.726760 
# 
# From -- ./inp_files/42683.got.cif
#   From: 2010.05.17/outbox.ucp.g08.bks.cvg/sg15_22_cif.got.tgz:42683.got - 2010.06.11 12:40:34.
