data_PCOD9309010
_publ_section_title
;
Structure prediction by ZEFSAII (Michael W. Deem and Ramdas Pophale) SiO2 
 PCOD9309010
Probable space group: C 2/C
;
_chemical_formula_sum "Si O2"
_cell_formula_units_Z 32
_cell_length_a 18.000000
_cell_length_b 21.000000
_cell_length_c 18.000000
_cell_angle_alpha 90.000000
_cell_angle_beta 30.000000
_cell_angle_gamma 90.000000
_cell_volume 3402.000000
_symmetry_space_group_name_H-M "C 2/C"
_symmetry_group_IT_number 15
_symmetry_cell_setting 'monoclinic'
loop_
_space_group_symop_operation_xyz
x,y,z
-x,y,1/2-z
-x,-y,-z
x,-y,1/2+z
1/2+x,1/2+y,z
1/2-x,1/2+y,1/2-z
1/2-x,1/2-y,-z
1/2+x,1/2-y,1/2+z
loop_
_atom_site_type_symbol
_atom_site_label
_atom_site_fract_x
_atom_site_fract_y
_atom_site_fract_z
Si Si1 0.143404 0.056673 0.317395
Si Si2 0.295637 0.439772 0.132333
Si Si3 0.669723 0.706034 0.127841
Si Si4 0.297823 0.797797 0.256624
Si Si5 0.258985 0.156336 0.341415
Si Si6 0.171876 0.463740 0.620197
Si Si7 0.498883 0.758067 0.554037
Si Si8 0.825312 0.939495 0.878602
O O1 0.207014 0.112015 0.316218
O O2 0.205256 0.055233 0.181874
O O3 0.967040 0.069953 0.459211
O O4 0.176872 0.986450 0.321177
O O5 0.216862 0.371332 0.205622
O O6 0.203672 0.485071 0.157437
O O7 0.500000 0.703351 0.250000
O O8 0.680958 0.742997 0.197974
O O9 0.727865 0.633790 0.063722
O O10 0.750000 0.750000 0.000000
O O11 0.139331 0.783131 0.355875
O O12 0.424964 0.791397 0.083628
O O13 0.273943 0.105170 0.395672
O O14 0.413967 0.192241 0.183492
O O15 0.130522 0.209849 0.467521
O O16 0.252970 0.500063 0.482282
O O17 0.000000 0.457640 0.750000
O O18 0.000000 0.941271 0.750000
#
# Coordination Sequence:
#
# PCOD9309010 Si02
#       8
#     8   8   8   8   8   8   8   8
#     4  10  20  38  63  91 120 157 214 261 303 381
#     4  10  21  37  62  88 123 163 207 258 317 365
#     4  11  24  35  51  84 130 172 205 244 304 382
#     4  11  21  35  59  91 125 166 207 257 313 374
#     4  10  22  43  66  94 126 160 208 269 320 381
#     4  11  25  42  62  90 129 167 209 267 314 369
#     4  10  21  37  64  93 121 155 207 264 323 374
#     4  11  22  38  62  89 125 172 216 250 310 379
#
# _framework density 9.4062319999999993
#
# number of rings (size 3 to 8) (size 9 to 14) (size 15 to 20)
#    0.000    1.500    2.500    3.000    1.750    5.000 
#    0.000    4.375    0.000    0.000    0.000    0.000 
#    0.000    0.000    0.000    0.000    0.000    0.000 
#
# Total GULP energy -178282.578535 kJ/mol
# GULP energy per Si atom -5571.330579 kJ/mol
# Density = 0.938482 g / cm^3
# Si number density = 9.406232 Si / 1000 Ang^3
#
#
#
# Elastic Constant Matrix: (Units=GPa)
#
#
# Indices 1 2 3 4 5 6 
#
# 1 61.8759 33.6665 29.9720 0.0138 -4.5365 -0.0244
# 2 33.6665 140.1608 54.8657 0.0264 6.7404 -0.0503
# 3 29.9720 54.8657 92.1073 0.0070 1.8495 -0.0203
# 4 0.0138 0.0264 0.0070 22.9040 -0.0081 18.8539
# 5 -4.5365 6.7404 1.8495 -0.0081 26.4097 0.0113
# 6 -0.0244 -0.0503 -0.0203 18.8539 0.0113 -29.6154
#
#
#
# Elastic Compliance Matrix: (Units=1/GPa)
#
#
# Indices 1 2 3 4 5 6 
#
# 1 0.020648 -0.003286 -0.004857 0.000000 0.004726 -0.000006
# 2 -0.003286 0.009933 -0.004792 0.000001 -0.002764 -0.000012
# 3 -0.004857 -0.004792 0.015305 0.000002 -0.000683 0.000002
# 4 0.000000 0.000001 0.000002 0.028648 0.000001 0.018238
# 5 0.004726 -0.002764 -0.000683 0.000001 0.039430 0.000017
# 6 -0.000006 -0.000012 0.000002 0.018238 0.000017 -0.022156
#
#
# Mechanical properties :
#
#
# Convention : Reuss Voigt Hill
#
# Bulk Modulus (GPa) = 49.95620 59.01696 54.48658
# Shear Modulus (GPa) = 40.20944 15.64899 27.92922
#
# Velocity S-wave (km/s) = 4.62820 2.88730 3.85725
# Velocity P-wave (km/s) = 7.42784 6.52339 6.99026
#
# Compressibility (1/GPa) = 0.02001753
#
# Stress axis : x y z
#
# Youngs Moduli (GPa) = 48.43060 100.67866 65.33670
#
# Poissons Ratio (x) = 0.33081 0.31731
# Poissons Ratio (y) = 0.15913 0.31308
# Poissons Ratio (z) = 0.23521 0.48244
#
# Static dielectric constant tensor:
#      x y z
#    x 1.649030 0.000000 0.042740 
#    y 0.000000 1.688860 0.000000 
#    z 0.042740 0.000000 1.665780 
# 
# From -- ./inp_files/211962.got.cif
#   From: 2010.05.17/outbox.ucp.g08.bks.cvg/sg15_106_cif.got.tgz:211962.got - 2010.06.11 12:40:34.
