data_PCOD9309911
_publ_section_title
;
Structure prediction by ZEFSAII (Michael W. Deem and Ramdas Pophale) SiO2 
 PCOD9309911
Probable space group: C 2/C
;
_chemical_formula_sum "Si O2"
_cell_formula_units_Z 24
_cell_length_a 12.000000
_cell_length_b 15.000000
_cell_length_c 27.000000
_cell_angle_alpha 90.000000
_cell_angle_beta 30.000000
_cell_angle_gamma 90.000000
_cell_volume 2430.000000
_symmetry_space_group_name_H-M "C 2/C"
_symmetry_group_IT_number 15
_symmetry_cell_setting 'monoclinic'
loop_
_space_group_symop_operation_xyz
x,y,z
-x,y,1/2-z
-x,-y,-z
x,-y,1/2+z
1/2+x,1/2+y,z
1/2-x,1/2+y,1/2-z
1/2-x,1/2-y,-z
1/2+x,1/2-y,1/2+z
loop_
_atom_site_type_symbol
_atom_site_label
_atom_site_fract_x
_atom_site_fract_y
_atom_site_fract_z
Si Si1 0.020644 0.064080 0.445030
Si Si2 0.074335 0.063133 0.613728
Si Si3 0.000000 0.666449 0.250000
Si Si4 0.923136 0.358974 0.578282
Si Si5 0.827221 0.245230 0.712459
Si Si6 0.214558 0.266346 0.071972
Si Si7 0.000000 0.013889 0.250000
O O1 0.832054 0.137643 0.530204
O O2 0.270781 0.108651 0.346685
O O3 0.965298 0.011755 0.414181
O O4 0.000000 0.000000 0.500000
O O5 0.333393 0.094941 0.518722
O O6 0.994982 0.035332 0.699232
O O7 0.923132 0.148929 0.661066
O O8 0.931642 0.722780 0.225930
O O9 0.911055 0.307025 0.635187
O O10 0.849208 0.297566 0.559160
O O11 0.725215 0.429716 0.658773
O O12 0.554479 0.242917 0.816865
O O13 0.250000 0.250000 0.000000
#
# Coordination Sequence:
#
# PCOD9309911 Si02
#       7
#     8   8   4   8   8   8   4
#     4  12  27  45  71 107 144 184 234 302 357 416
#     4  12  28  43  74 107 143 182 234 301 357 417
#     4  12  25  48  71 102 146 192 240 284 357 430
#     4  12  25  50  71 104 142 188 238 290 354 428
#     4  12  25  47  74 102 140 192 242 285 352 433
#     4  12  25  46  75 102 141 188 242 284 354 430
#     4  12  25  44  69 106 142 178 228 292 357 412
#
# _framework density 9.8765429999999999
#
# number of rings (size 3 to 8) (size 9 to 14) (size 15 to 20)
#    0.000    0.000    3.333    6.500    7.000    0.000 
#    0.000    0.000    0.000    0.000    0.000    0.000 
#    0.000    0.000    0.000    0.000    0.000    0.000 
#
# Total GULP energy -134033.444567 kJ/mol
# GULP energy per Si atom -5584.726857 kJ/mol
# Density = 0.985406 g / cm^3
# Si number density = 9.876543 Si / 1000 Ang^3
#
#
#
# Elastic Constant Matrix: (Units=GPa)
#
#
# Indices 1 2 3 4 5 6 
#
# 1 131.1638 27.3292 33.7545 0.0150 -8.5505 -0.0028
# 2 27.3292 69.0313 31.2603 0.0178 -15.7878 -0.0040
# 3 33.7545 31.2603 120.1844 0.0132 -17.2633 -0.0061
# 4 0.0150 0.0178 0.0132 106.1029 0.0121 -11.2044
# 5 -8.5505 -15.7878 -17.2633 0.0121 46.4981 -0.0032
# 6 -0.0028 -0.0040 -0.0061 -11.2044 -0.0032 61.3119
#
#
#
# Elastic Compliance Matrix: (Units=1/GPa)
#
#
# Indices 1 2 3 4 5 6 
#
# 1 0.008618 -0.002615 -0.001733 -0.000001 0.000054 0.000000
# 2 -0.002615 0.018035 -0.003323 -0.000003 0.004409 0.000000
# 3 -0.001733 -0.003323 0.009997 -0.000001 0.002265 0.000001
# 4 -0.000001 -0.000003 -0.000001 0.009610 -0.000004 0.001756
# 5 0.000054 0.004409 0.002265 -0.000004 0.023854 0.000001
# 6 0.000000 0.000000 0.000001 0.001756 0.000001 0.016631
#
#
# Mechanical properties :
#
#
# Convention : Reuss Voigt Hill
#
# Bulk Modulus (GPa) = 46.93048 56.11860 51.52454
# Shear Modulus (GPa) = 45.79208 57.98495 51.88852
#
# Velocity S-wave (km/s) = 4.82002 5.42389 5.13085
# Velocity P-wave (km/s) = 7.40182 8.22779 7.82571
#
# Compressibility (1/GPa) = 0.02130811
#
# Stress axis : x y z
#
# Youngs Moduli (GPa) = 116.03202 55.44881 100.03202
#
# Poissons Ratio (x) = 0.14500 0.17332
# Poissons Ratio (y) = 0.30343 0.33242
# Poissons Ratio (z) = 0.20104 0.18426
#
# Static dielectric constant tensor:
#      x y z
#    x 1.995560 0.000000 0.107570 
#    y 0.000000 1.825360 0.000000 
#    z 0.107570 0.000000 1.829720 
# 
# From -- ./inp_files/293025.got.cif
#   From: 2010.05.17/outbox.ucp.g08.bks.cvg/sg15_147_cif.got.tgz:293025.got - 2010.06.11 12:40:34.
