data_PCOD9309758
_publ_section_title
;
Structure prediction by ZEFSAII (Michael W. Deem and Ramdas Pophale) SiO2 
 PCOD9309758
Probable space group: C 2/C
;
_chemical_formula_sum "Si O2"
_cell_formula_units_Z 26
_cell_length_a 9.000000
_cell_length_b 12.000000
_cell_length_c 27.000000
_cell_angle_alpha 90.000000
_cell_angle_beta 60.000000
_cell_angle_gamma 90.000000
_cell_volume 2525.330077
_symmetry_space_group_name_H-M "C 2/C"
_symmetry_group_IT_number 15
_symmetry_cell_setting 'monoclinic'
loop_
_space_group_symop_operation_xyz
x,y,z
-x,y,1/2-z
-x,-y,-z
x,-y,1/2+z
1/2+x,1/2+y,z
1/2-x,1/2+y,1/2-z
1/2-x,1/2-y,-z
1/2+x,1/2-y,1/2+z
loop_
_atom_site_type_symbol
_atom_site_label
_atom_site_fract_x
_atom_site_fract_y
_atom_site_fract_z
Si Si1 0.666267 0.829288 0.836607
Si Si2 0.528085 0.859013 0.055322
Si Si3 0.042510 0.476093 0.151629
Si Si4 0.000000 0.693196 0.750000
Si Si5 0.451418 0.498929 0.566780
Si Si6 0.788751 0.841000 0.928311
Si Si7 0.672717 0.292196 0.065346
O O1 0.819450 0.762119 0.783113
O O2 0.751815 0.852654 0.876595
O O3 0.478359 0.778656 0.883481
O O4 0.596674 0.928230 0.813531
O O5 0.493898 0.950665 0.102366
O O6 0.671698 0.785615 0.061597
O O7 0.342722 0.810399 0.070395
O O8 0.629328 0.886172 0.987660
O O9 0.010439 0.380958 0.198012
O O10 0.248704 0.498447 0.113080
O O11 0.500000 0.500000 0.500000
O O12 0.538476 0.396096 0.580109
O O13 0.562626 0.599125 0.570579
O O14 0.750000 0.250000 0.000000
#
# Coordination Sequence:
#
# PCOD9309758 Si02
#       7
#     8   8   8   4   8   8   8
#     4  12  26  49  75 101 140 191 243 298 366 432
#     4  11  22  40  68 110 144 180 230 292 366 433
#     4  12  26  49  75 101 141 194 239 305 363 436
#     4  12  28  56  72  98 152 194 258 304 356 442
#     4  12  23  39  69 109 148 184 233 295 376 434
#     4  11  22  39  71 107 146 182 227 294 368 437
#     4  12  23  40  68 110 146 182 230 295 362 442
#
# _framework density 10.295684
#
# number of rings (size 3 to 8) (size 9 to 14) (size 15 to 20)
#    0.000    0.308    6.154    3.692    0.000    2.462 
#    5.538    0.000    0.000    0.000    0.000    0.000 
#    0.000    0.000    0.000    0.000    0.000    0.000 
#
# Total GULP energy -144946.711315 kJ/mol
# GULP energy per Si atom -5574.873512 kJ/mol
# Density = 1.027225 g / cm^3
# Si number density = 10.295684 Si / 1000 Ang^3
#
#
#
# Elastic Constant Matrix: (Units=GPa)
#
#
# Indices 1 2 3 4 5 6 
#
# 1 168.5459 36.4149 55.3404 0.0000 -27.2277 0.0000
# 2 36.4149 61.4976 28.9192 0.0000 -15.1220 0.0000
# 3 55.3404 28.9192 120.7917 0.0000 -33.0534 0.0000
# 4 0.0000 0.0000 0.0000 29.7721 0.0000 -5.9973
# 5 -27.2277 -15.1220 -33.0534 0.0000 41.3075 0.0000
# 6 0.0000 0.0000 0.0000 -5.9973 0.0000 57.1971
#
#
#
# Elastic Compliance Matrix: (Units=1/GPa)
#
#
# Indices 1 2 3 4 5 6 
#
# 1 0.007648 -0.002955 -0.002193 0.000000 0.002204 0.000000
# 2 -0.002955 0.020023 -0.002519 0.000000 0.003367 0.000000
# 3 -0.002193 -0.002519 0.011829 0.000000 0.007097 0.000000
# 4 0.000000 0.000000 0.000000 0.034313 0.000000 0.003598
# 5 0.002204 0.003367 0.007097 0.000000 0.032573 0.000000
# 6 0.000000 0.000000 0.000000 0.003598 0.000000 0.017861
#
#
# Mechanical properties :
#
#
# Convention : Reuss Voigt Hill
#
# Bulk Modulus (GPa) = 41.38116 65.79824 53.58970
# Shear Modulus (GPa) = 33.86722 40.99938 37.43330
#
# Velocity S-wave (km/s) = 4.05993 4.46701 4.26832
# Velocity P-wave (km/s) = 6.48979 7.65697 7.09741
#
# Compressibility (1/GPa) = 0.02416559
#
# Stress axis : x y z
#
# Youngs Moduli (GPa) = 130.75735 49.94276 84.54092
#
# Poissons Ratio (x) = 0.14759 0.18541
# Poissons Ratio (y) = 0.38641 0.21292
# Poissons Ratio (z) = 0.28677 0.12578
#
# Static dielectric constant tensor:
#      x y z
#    x 1.683090 0.000000 0.009480 
#    y 0.000000 0.880610 0.000000 
#    z 0.009480 0.000000 1.705060 
# 
# From -- ./inp_files/287913.got.cif
#   From: 2010.05.17/outbox.ucp.g08.bks.cvg/sg15_144_cif.got.tgz:287913.got - 2010.06.11 12:40:34.
