data_PCOD9309122
_publ_section_title
;
Structure prediction by ZEFSAII (Michael W. Deem and Ramdas Pophale) SiO2 
 PCOD9309122
Probable space group: C 2/C
;
_chemical_formula_sum "Si O2"
_cell_formula_units_Z 28
_cell_length_a 12.000000
_cell_length_b 27.000000
_cell_length_c 15.000000
_cell_angle_alpha 90.000000
_cell_angle_beta 140.000000
_cell_angle_gamma 90.000000
_cell_volume 3123.947783
_symmetry_space_group_name_H-M "C 2/C"
_symmetry_group_IT_number 15
_symmetry_cell_setting 'monoclinic'
loop_
_space_group_symop_operation_xyz
x,y,z
-x,y,1/2-z
-x,-y,-z
x,-y,1/2+z
1/2+x,1/2+y,z
1/2-x,1/2+y,1/2-z
1/2-x,1/2-y,-z
1/2+x,1/2-y,1/2+z
loop_
_atom_site_type_symbol
_atom_site_label
_atom_site_fract_x
_atom_site_fract_y
_atom_site_fract_z
Si Si1 0.328236 0.542235 0.485437
Si Si2 0.294270 0.464311 0.615843
Si Si3 0.822418 0.350194 0.580225
Si Si4 0.109470 0.687003 0.565969
Si Si5 0.491271 0.725966 0.852689
Si Si6 0.763743 0.022112 0.774009
Si Si7 0.486579 0.109066 0.633329
O O1 0.276689 0.512240 0.541883
O O2 0.255026 0.597333 0.437951
O O3 0.538037 0.541637 0.612184
O O4 0.257612 0.509883 0.360255
O O5 0.500000 0.452287 0.750000
O O6 0.230237 0.483854 0.672548
O O7 0.188433 0.419558 0.505519
O O8 0.864646 0.351495 0.500187
O O9 0.657866 0.310388 0.477504
O O10 0.000000 0.341988 0.750000
O O11 0.293908 0.703734 0.725714
O O12 0.009980 0.658113 0.585118
O O13 0.019461 0.731634 0.448399
O O14 0.500000 0.739675 0.750000
O O15 0.636322 0.068832 0.701129
O O16 0.500000 0.117814 0.750000
#
# Coordination Sequence:
#
# PCOD9309122 Si02
#       7
#     8   8   8   8   8   8   8
#     4  10  21  36  58  91 125 159 205 245 294 361
#     4  10  22  40  59  85 125 166 206 253 295 354
#     4  11  22  34  62  99 124 154 198 249 314 378
#     4  11  23  41  65  90 117 161 198 257 322 364
#     4  10  21  43  65  91 127 147 195 267 321 368
#     4  10  21  38  58  83 126 168 203 246 295 344
#     4  12  24  40  61  88 123 166 209 249 301 362
#
# _framework density 8.9630179999999999
#
# number of rings (size 3 to 8) (size 9 to 14) (size 15 to 20)
#    0.000    1.429    1.429    5.143    4.000    4.000 
#    0.000    0.714    0.000    0.000    0.000    0.000 
#    0.000    0.000    0.000    0.000    0.000    0.000 
#
# Total GULP energy -155919.623201 kJ/mol
# GULP energy per Si atom -5568.557971 kJ/mol
# Density = 0.894262 g / cm^3
# Si number density = 8.963018 Si / 1000 Ang^3
#
#
#
# Elastic Constant Matrix: (Units=GPa)
#
#
# Indices 1 2 3 4 5 6 
#
# 1 56.5274 30.5556 37.5970 0.0000 -17.5518 0.0000
# 2 30.5556 107.0118 56.5201 0.0000 3.2532 0.0000
# 3 37.5970 56.5201 158.6042 0.0000 -9.0867 0.0000
# 4 0.0000 0.0000 0.0000 27.8237 0.0000 -2.3569
# 5 -17.5518 3.2532 -9.0867 0.0000 33.7198 0.0000
# 6 0.0000 0.0000 0.0000 -2.3569 0.0000 26.5818
#
#
#
# Elastic Compliance Matrix: (Units=1/GPa)
#
#
# Indices 1 2 3 4 5 6 
#
# 1 0.027994 -0.006596 -0.003468 0.000000 0.014273 0.000000
# 2 -0.006596 0.013236 -0.003477 0.000000 -0.005647 0.000000
# 3 -0.003468 -0.003477 0.008412 0.000000 0.000797 0.000000
# 4 0.000000 0.000000 0.000000 0.036213 0.000000 0.003211
# 5 0.014273 -0.005647 0.000797 0.000000 0.037845 0.000000
# 6 0.000000 0.000000 0.000000 0.003211 0.000000 0.037904
#
#
# Mechanical properties :
#
#
# Convention : Reuss Voigt Hill
#
# Bulk Modulus (GPa) = 44.32363 63.49876 53.91119
# Shear Modulus (GPa) = 25.48348 30.78975 28.13662
#
# Velocity S-wave (km/s) = 3.77449 4.14889 3.96611
# Velocity P-wave (km/s) = 6.61628 7.64530 7.14933
#
# Compressibility (1/GPa) = 0.02256133
#
# Stress axis : x y z
#
# Youngs Moduli (GPa) = 35.72173 75.55106 118.88165
#
# Poissons Ratio (x) = 0.49831 0.41226
# Poissons Ratio (y) = 0.23561 0.41333
# Poissons Ratio (z) = 0.12388 0.26268
#
# Static dielectric constant tensor:
#      x y z
#    x 1.644360 0.000000 0.018860 
#    y 0.000000 1.631440 0.000000 
#    z 0.018860 0.000000 1.625210 
# 
# From -- ./inp_files/148573.got.cif
#   From: 2010.05.17/outbox.ucp.g08.bks.cvg/sg15_75_cif.got.tgz:148573.got - 2010.06.11 12:40:34.
