data_PCOD9309153
_publ_section_title
;
Structure prediction by ZEFSAII (Michael W. Deem and Ramdas Pophale) SiO2 
 PCOD9309153
Probable space group: C 2/C
;
_chemical_formula_sum "Si O2"
_cell_formula_units_Z 32
_cell_length_a 30.000000
_cell_length_b 18.000000
_cell_length_c 9.000000
_cell_angle_alpha 90.000000
_cell_angle_beta 40.000000
_cell_angle_gamma 90.000000
_cell_volume 3123.947783
_symmetry_space_group_name_H-M "C 2/C"
_symmetry_group_IT_number 15
_symmetry_cell_setting 'monoclinic'
loop_
_space_group_symop_operation_xyz
x,y,z
-x,y,1/2-z
-x,-y,-z
x,-y,1/2+z
1/2+x,1/2+y,z
1/2-x,1/2+y,1/2-z
1/2-x,1/2-y,-z
1/2+x,1/2-y,1/2+z
loop_
_atom_site_type_symbol
_atom_site_label
_atom_site_fract_x
_atom_site_fract_y
_atom_site_fract_z
Si Si1 0.220055 0.582428 0.754490
Si Si2 0.928396 0.609871 0.009648
Si Si3 0.930002 0.610197 0.349227
Si Si4 0.929549 0.210187 0.849033
Si Si5 0.928208 0.210251 0.508165
Si Si6 0.217067 0.582731 0.269424
Si Si7 0.719595 0.326584 0.641064
Si Si8 0.277076 0.327566 0.363548
O O1 0.232952 0.500314 0.781944
O O2 0.274441 0.607900 0.493632
O O3 0.227038 0.646242 0.860236
O O4 0.141736 0.585370 0.892774
O O5 0.000000 0.587331 0.750000
O O6 0.927477 0.585779 0.183767
O O7 0.925786 0.699893 0.012009
O O8 0.860679 0.584034 0.095023
O O9 0.930343 0.699864 0.351285
O O10 0.000000 0.584889 0.250000
O O11 0.928064 0.187570 0.680765
O O12 0.000000 0.184904 0.750000
O O13 0.858472 0.184457 0.105761
O O14 0.857096 0.182019 0.615894
O O15 0.000000 0.186800 0.250000
O O16 0.229936 0.645576 0.357763
O O17 0.267869 0.607964 0.007919
O O18 0.750000 0.250000 0.500000
O O19 0.250000 0.250000 0.500000
#
# Coordination Sequence:
#
# PCOD9309153 Si02
#       8
#     8   8   8   8   8   8   8   8
#     4  12  26  41  64  99 132 176 214 266 338 386
#     4  10  22  38  63  92 127 175 219 260 320 388
#     4  10  21  40  60  91 133 172 217 263 318 390
#     4  10  21  39  62  98 132 160 214 280 324 376
#     4  10  21  37  66  97 124 167 221 272 322 376
#     4  12  25  43  64  95 138 172 216 273 326 392
#     4  12  25  40  68 100 128 172 222 274 327 381
#     4  12  21  44  71  92 126 172 225 272 311 387
#
# _framework density 10.243449
#
# number of rings (size 3 to 8) (size 9 to 14) (size 15 to 20)
#    0.000    1.000    5.000    2.250    3.500    1.500 
#    0.000    1.250    0.000    4.500    0.000    0.000 
#    0.000    0.000    0.000    0.000    0.000    0.000 
#
# Total GULP energy -178814.635635 kJ/mol
# GULP energy per Si atom -5587.957364 kJ/mol
# Density = 1.022013 g / cm^3
# Si number density = 10.243449 Si / 1000 Ang^3
#
#
#
# Elastic Constant Matrix: (Units=GPa)
#
#
# Indices 1 2 3 4 5 6 
#
# 1 116.1473 48.6858 46.5171 0.0000 -19.3206 0.0000
# 2 48.6858 67.9680 42.5955 0.0000 -11.0275 0.0000
# 3 46.5171 42.5955 146.8220 0.0000 -25.3177 0.0000
# 4 0.0000 0.0000 0.0000 9.8369 0.0000 8.7590
# 5 -19.3206 -11.0275 -25.3177 0.0000 33.1400 0.0000
# 6 0.0000 0.0000 0.0000 8.7590 0.0000 10.7272
#
#
#
# Elastic Compliance Matrix: (Units=1/GPa)
#
#
# Indices 1 2 3 4 5 6 
#
# 1 0.013103 -0.008019 -0.001115 0.000000 0.004119 0.000000
# 2 -0.008019 0.023043 -0.004179 0.000000 -0.000200 0.000000
# 3 -0.001115 -0.004179 0.009242 0.000000 0.005020 0.000000
# 4 0.000000 0.000000 0.000000 0.372435 0.000000 -0.304099
# 5 0.004119 -0.000200 0.005020 0.000000 0.036345 0.000000
# 6 0.000000 0.000000 0.000000 -0.304099 0.000000 0.341523
#
#
# Mechanical properties :
#
#
# Convention : Reuss Voigt Hill
#
# Bulk Modulus (GPa) = 53.29575 67.39268 60.34422
# Shear Modulus (GPa) = 6.03449 23.61674 14.82562
#
# Velocity S-wave (km/s) = 1.71812 3.39893 2.69302
# Velocity P-wave (km/s) = 5.47786 6.95490 6.26009
#
# Compressibility (1/GPa) = 0.01876322
#
# Stress axis : x y z
#
# Youngs Moduli (GPa) = 76.32131 43.39675 108.19885
#
# Poissons Ratio (x) = 0.34798 0.12060
# Poissons Ratio (y) = 0.61199 0.45218
# Poissons Ratio (z) = 0.08507 0.18136
#
# Static dielectric constant tensor:
#      x y z
#    x 1.822040 0.000000 0.045160 
#    y 0.000000 1.708060 0.000000 
#    z 0.045160 0.000000 1.764180 
# 
# From -- ./inp_files/70593.got.cif
#   From: 2010.05.17/outbox.ucp.g08.bks.cvg/sg15_36_cif.got.tgz:70593.got - 2010.06.11 12:40:34.
