data_PCOD9309754
_publ_section_title
;
Structure prediction by ZEFSAII (Michael W. Deem and Ramdas Pophale) SiO2 
 PCOD9309754
Probable space group: C 2/C
;
_chemical_formula_sum "Si O2"
_cell_formula_units_Z 28
_cell_length_a 30.000000
_cell_length_b 15.000000
_cell_length_c 9.000000
_cell_angle_alpha 90.000000
_cell_angle_beta 50.000000
_cell_angle_gamma 90.000000
_cell_volume 3102.479995
_symmetry_space_group_name_H-M "C 2/C"
_symmetry_group_IT_number 15
_symmetry_cell_setting 'monoclinic'
loop_
_space_group_symop_operation_xyz
x,y,z
-x,y,1/2-z
-x,-y,-z
x,-y,1/2+z
1/2+x,1/2+y,z
1/2-x,1/2+y,1/2-z
1/2-x,1/2-y,-z
1/2+x,1/2-y,1/2+z
loop_
_atom_site_type_symbol
_atom_site_label
_atom_site_fract_x
_atom_site_fract_y
_atom_site_fract_z
Si Si1 0.683947 0.119741 0.481201
Si Si2 0.302237 0.264905 0.664501
Si Si3 0.707831 0.054366 0.763536
Si Si4 0.838051 0.954158 0.077764
Si Si5 0.380893 0.290585 0.791898
Si Si6 0.624710 0.610266 0.688620
Si Si7 0.500509 0.601319 0.430221
O O1 0.739913 0.184036 0.320024
O O2 0.698409 0.073481 0.609277
O O3 0.630628 0.190794 0.617055
O O4 0.673449 0.034263 0.395151
O O5 0.299004 0.156593 0.657223
O O6 0.342652 0.287495 0.722225
O O7 0.335273 0.309946 0.455534
O O8 0.772809 0.025163 0.668986
O O9 0.845959 0.939656 0.234724
O O10 0.853611 0.862467 0.962683
O O11 0.877934 0.035117 0.934523
O O12 0.445833 0.333814 0.635083
O O13 0.561070 0.639311 0.879194
O O14 0.500000 0.596899 0.250000
O O15 0.500000 0.500000 0.500000
#
# Coordination Sequence:
#
# PCOD9309754 Si02
#       7
#     8   8   8   8   8   8   8
#     4  11  22  39  60  88 122 160 194 246 300 351
#     4  11  23  38  60  89 121 157 197 246 295 357
#     4  11  22  38  60  90 123 160 197 236 302 357
#     4  12  20  35  58  87 124 154 194 240 290 356
#     4  11  22  40  59  82 124 159 193 243 299 350
#     4  12  24  35  56  89 121 157 198 242 292 352
#     4  12  25  39  59  88 121 158 197 239 300 355
#
# _framework density 9.0250380000000003
#
# number of rings (size 3 to 8) (size 9 to 14) (size 15 to 20)
#    0.000    0.571    7.143    2.571    2.000    1.714 
#    0.000    0.000    0.000    0.857    0.000    0.000 
#    0.000    0.000    0.000    0.000    0.000    0.000 
#
# Total GULP energy -156259.058029 kJ/mol
# GULP energy per Si atom -5580.680644 kJ/mol
# Density = 0.900450 g / cm^3
# Si number density = 9.025038 Si / 1000 Ang^3
#
#
#
# Elastic Constant Matrix: (Units=GPa)
#
#
# Indices 1 2 3 4 5 6 
#
# 1 49.9131 15.3438 21.5534 0.0000 -13.5633 0.0000
# 2 15.3438 131.8857 45.8982 0.0000 -8.8937 0.0000
# 3 21.5534 45.8982 100.8992 0.0000 -7.6092 0.0000
# 4 0.0000 0.0000 0.0000 45.2985 0.0000 0.7647
# 5 -13.5633 -8.8937 -7.6092 0.0000 23.6144 0.0000
# 6 0.0000 0.0000 0.0000 0.7647 0.0000 29.2527
#
#
#
# Elastic Compliance Matrix: (Units=1/GPa)
#
#
# Indices 1 2 3 4 5 6 
#
# 1 0.025604 -0.000636 -0.004191 0.000000 0.013116 0.000000
# 2 -0.000636 0.009129 -0.003880 0.000000 0.001823 0.000000
# 3 -0.004191 -0.003880 0.012585 0.000000 0.000187 0.000000
# 4 0.000000 0.000000 0.000000 0.022086 0.000000 -0.000577
# 5 0.013116 0.001823 0.000187 0.000000 0.050628 0.000000
# 6 0.000000 0.000000 0.000000 -0.000577 0.000000 0.034200
#
#
# Mechanical properties :
#
#
# Convention : Reuss Voigt Hill
#
# Bulk Modulus (GPa) = 33.43829 49.80989 41.62409
# Shear Modulus (GPa) = 27.53105 32.95996 30.24550
#
# Velocity S-wave (km/s) = 3.90969 4.27784 4.09790
# Velocity P-wave (km/s) = 6.24071 7.21493 6.74543
#
# Compressibility (1/GPa) = 0.02990583
#
# Stress axis : x y z
#
# Youngs Moduli (GPa) = 39.05598 109.53640 79.45949
#
# Poissons Ratio (x) = 0.06964 0.33302
# Poissons Ratio (y) = 0.02483 0.30827
# Poissons Ratio (z) = 0.16369 0.42496
#
# Static dielectric constant tensor:
#      x y z
#    x 1.644280 0.000000 -0.009720 
#    y 0.000000 1.629250 0.000000 
#    z -0.009720 0.000000 1.681500 
# 
# From -- ./inp_files/69886.got.cif
#   From: 2010.05.17/outbox.ucp.g08.bks.cvg/sg15_35_cif.got.tgz:69886.got - 2010.06.11 12:40:34.
