data_PCOD9309237
_publ_section_title
;
Structure prediction by ZEFSAII (Michael W. Deem and Ramdas Pophale) SiO2 
 PCOD9309237
Probable space group: C 2/C
;
_chemical_formula_sum "Si O2"
_cell_formula_units_Z 22
_cell_length_a 9.000000
_cell_length_b 21.000000
_cell_length_c 12.000000
_cell_angle_alpha 90.000000
_cell_angle_beta 100.000000
_cell_angle_gamma 90.000000
_cell_volume 2233.543984
_symmetry_space_group_name_H-M "C 2/C"
_symmetry_group_IT_number 15
_symmetry_cell_setting 'monoclinic'
loop_
_space_group_symop_operation_xyz
x,y,z
-x,y,1/2-z
-x,-y,-z
x,-y,1/2+z
1/2+x,1/2+y,z
1/2-x,1/2+y,1/2-z
1/2-x,1/2-y,-z
1/2+x,1/2-y,1/2+z
loop_
_atom_site_type_symbol
_atom_site_label
_atom_site_fract_x
_atom_site_fract_y
_atom_site_fract_z
Si Si1 0.414688 0.293476 0.121840
Si Si2 0.500000 0.689174 0.250000
Si Si3 0.261842 0.490269 0.523282
Si Si4 0.465076 0.066234 0.873416
Si Si5 0.446183 0.598188 0.434317
Si Si6 0.055755 0.285754 0.077603
O O1 0.500000 0.301710 0.250000
O O2 0.237498 0.277665 0.119778
O O3 0.435981 0.354287 0.040690
O O4 0.475443 0.235551 0.053084
O O5 0.410058 0.639830 0.319178
O O6 0.458228 0.740557 0.147468
O O7 0.194079 0.532769 0.615658
O O8 0.333140 0.540646 0.445801
O O9 0.389827 0.436236 0.559540
O O10 0.109665 0.460373 0.456684
O O11 0.500000 0.056475 0.750000
O O12 0.465287 0.140687 0.901566
#
# Coordination Sequence:
#
# PCOD9309237 Si02
#       6
#     8   4   8   8   8   8
#     4  10  22  39  66  91 126 169 210 266 322 372
#     4  10  22  38  64  88 128 166 206 272 316 364
#     4  10  24  41  60  95 125 166 217 258 318 384
#     4  11  23  41  64  90 130 172 204 264 324 380
#     4  10  22  41  64  94 125 163 219 267 312 383
#     4  10  21  41  61  95 127 164 216 260 319 384
#
# _framework density 9.8498169999999998
#
# number of rings (size 3 to 8) (size 9 to 14) (size 15 to 20)
#    0.000    1.818    2.727    0.000    5.091    1.455 
#    3.273    7.273    0.000    0.000    0.000    0.000 
#    0.000    0.000    0.000    0.000    0.000    0.000 
#
# Total GULP energy -122476.764351 kJ/mol
# GULP energy per Si atom -5567.125652 kJ/mol
# Density = 0.982740 g / cm^3
# Si number density = 9.849817 Si / 1000 Ang^3
#
#
#
# Elastic Constant Matrix: (Units=GPa)
#
#
# Indices 1 2 3 4 5 6 
#
# 1 82.2979 19.3184 16.3364 0.0000 -19.1295 0.0000
# 2 19.3184 52.6204 11.3533 0.0000 -20.8242 0.0000
# 3 16.3364 11.3533 90.7207 0.0000 -27.5550 0.0000
# 4 0.0000 0.0000 0.0000 27.0615 0.0000 -8.8622
# 5 -19.1295 -20.8242 -27.5550 0.0000 23.2802 0.0000
# 6 0.0000 0.0000 0.0000 -8.8622 0.0000 19.4577
#
#
#
# Elastic Compliance Matrix: (Units=1/GPa)
#
#
# Indices 1 2 3 4 5 6 
#
# 1 0.015180 -0.000375 0.001562 0.000000 0.013987 0.000000
# 2 -0.000375 0.032318 0.007354 0.000000 0.037305 0.000000
# 3 0.001562 0.007354 0.019062 0.000000 0.030423 0.000000
# 4 0.000000 0.000000 0.000000 0.043431 0.000000 0.019781
# 5 0.013987 0.037305 0.030423 0.000000 0.123826 0.000000
# 6 0.000000 0.000000 0.000000 0.019781 0.000000 0.060403
#
#
# Mechanical properties :
#
#
# Convention : Reuss Voigt Hill
#
# Bulk Modulus (GPa) = 11.95585 35.51724 23.73655
# Shear Modulus (GPa) = 16.39239 25.86861 21.13050
#
# Velocity S-wave (km/s) = 2.88777 3.62768 3.27866
# Velocity P-wave (km/s) = 4.14744 5.96785 5.13889
#
# Compressibility (1/GPa) = 0.08364104
#
# Stress axis : x y z
#
# Youngs Moduli (GPa) = 65.87590 30.94240 52.46063
#
# Poissons Ratio (x) = 0.01160 -0.08192
# Poissons Ratio (y) = 0.02469 -0.38578
# Poissons Ratio (z) = -0.10287 -0.22754
#
# Static dielectric constant tensor:
#      x y z
#    x 1.685980 0.000000 -0.022850 
#    y 0.000000 1.730180 0.000000 
#    z -0.022850 0.000000 1.701870 
# 
# From -- ./inp_files/78178.got.cif
#   From: 2010.05.17/outbox.ucp.g08.bks.cvg/sg15_40_cif.got.tgz:78178.got - 2010.06.11 12:40:34.
