data_PCOD9309572
_publ_section_title
;
Structure prediction by ZEFSAII (Michael W. Deem and Ramdas Pophale) SiO2 
 PCOD9309572
Probable space group: C 2/C
;
_chemical_formula_sum "Si O2"
_cell_formula_units_Z 24
_cell_length_a 30.000000
_cell_length_b 6.000000
_cell_length_c 27.000000
_cell_angle_alpha 90.000000
_cell_angle_beta 150.000000
_cell_angle_gamma 90.000000
_cell_volume 2430.000000
_symmetry_space_group_name_H-M "C 2/C"
_symmetry_group_IT_number 15
_symmetry_cell_setting 'monoclinic'
loop_
_space_group_symop_operation_xyz
x,y,z
-x,y,1/2-z
-x,-y,-z
x,-y,1/2+z
1/2+x,1/2+y,z
1/2-x,1/2+y,1/2-z
1/2-x,1/2-y,-z
1/2+x,1/2-y,1/2+z
loop_
_atom_site_type_symbol
_atom_site_label
_atom_site_fract_x
_atom_site_fract_y
_atom_site_fract_z
Si Si1 0.683515 0.842989 0.306253
Si Si2 0.729109 0.421599 0.705513
Si Si3 0.476353 0.086724 0.286308
Si Si4 0.881837 0.663695 0.509044
Si Si5 0.052239 0.660652 0.511572
Si Si6 0.464806 0.473603 0.351205
O O1 0.778540 0.739093 0.417180
O O2 0.620186 0.639300 0.225533
O O3 0.717756 0.012174 0.295010
O O4 0.614677 0.958777 0.280432
O O5 0.733584 0.675072 0.736662
O O6 0.625009 0.343435 0.600252
O O7 0.500000 0.089756 0.250000
O O8 0.464322 0.331898 0.299454
O O9 0.563538 0.970919 0.395770
O O10 0.891384 0.503986 0.470273
O O11 0.945518 0.876868 0.561877
O O12 0.000000 0.500000 0.500000
O O13 0.979360 0.792032 0.408454
#
# Coordination Sequence:
#
# PCOD9309572 Si02
#       6
#     8   8   8   8   8   8
#     4  11  25  46  74 102 149 194 248 312 369 458
#     4  12  29  46  74 114 153 204 260 303 374 452
#     4  10  25  45  73 109 142 186 253 320 389 451
#     4  10  23  46  71 101 146 197 246 306 381 450
#     4  11  26  44  70 104 151 199 254 310 373 447
#     4  10  24  45  71  98 146 191 246 309 382 439
#
# _framework density 9.8765429999999999
#
# number of rings (size 3 to 8) (size 9 to 14) (size 15 to 20)
#    0.000    1.333    1.667    1.000   11.667    5.333 
#    0.000    2.500    0.000    0.000    0.000    0.000 
#    0.000    0.000    0.000    0.000    0.000    0.000 
#
# Total GULP energy -133842.028323 kJ/mol
# GULP energy per Si atom -5576.751180 kJ/mol
# Density = 0.985406 g / cm^3
# Si number density = 9.876543 Si / 1000 Ang^3
#
#
#
# Elastic Constant Matrix: (Units=GPa)
#
#
# Indices 1 2 3 4 5 6 
#
# 1 152.4046 56.5521 57.1974 0.0007 2.3847 0.0006
# 2 56.5521 137.1349 49.2767 -0.0011 -2.1725 0.0006
# 3 57.1974 49.2767 135.2469 -0.0009 27.2656 -0.0003
# 4 0.0007 -0.0011 -0.0009 54.6811 -0.0002 11.2055
# 5 2.3847 -2.1725 27.2656 -0.0002 44.4115 0.0001
# 6 0.0006 0.0006 -0.0003 11.2055 0.0001 40.9032
#
#
#
# Elastic Compliance Matrix: (Units=1/GPa)
#
#
# Indices 1 2 3 4 5 6 
#
# 1 0.008569 -0.002440 -0.002988 0.000000 0.001255 0.000000
# 2 -0.002440 0.009359 -0.002849 0.000000 0.002338 0.000000
# 3 -0.002988 -0.002849 0.011060 0.000000 -0.006769 0.000000
# 4 0.000000 0.000000 0.000000 0.019376 0.000000 -0.005308
# 5 0.001255 0.002338 -0.006769 0.000000 0.026720 0.000000
# 6 0.000000 0.000000 0.000000 -0.005308 0.000000 0.025902
#
#
# Mechanical properties :
#
#
# Convention : Reuss Voigt Hill
#
# Bulk Modulus (GPa) = 80.42681 83.42654 81.92667
# Shear Modulus (GPa) = 41.08996 45.44984 43.26990
#
# Velocity S-wave (km/s) = 4.56585 4.80197 4.68540
# Velocity P-wave (km/s) = 8.28254 8.54819 8.41641
#
# Compressibility (1/GPa) = 0.01243367
#
# Stress axis : x y z
#
# Youngs Moduli (GPa) = 116.70592 106.84578 90.41391
#
# Poissons Ratio (x) = 0.26071 0.27012
# Poissons Ratio (y) = 0.28477 0.25763
# Poissons Ratio (z) = 0.34868 0.30445
#
# Static dielectric constant tensor:
#      x y z
#    x 1.701400 0.000000 -0.035710 
#    y 0.000000 1.744260 0.000000 
#    z -0.035710 0.000000 1.748160 
# 
# From -- ./inp_files/304128.got.cif
#   From: 2010.05.17/outbox.ucp.g08.bks.cvg/sg15_153_cif.got.tgz:304128.got - 2010.06.11 12:40:34.
