data_PCOD9309588
_publ_section_title
;
Structure prediction by ZEFSAII (Michael W. Deem and Ramdas Pophale) SiO2 
 PCOD9309588
Probable space group: C 2/C
;
_chemical_formula_sum "Si O2"
_cell_formula_units_Z 30
_cell_length_a 15.000000
_cell_length_b 21.000000
_cell_length_c 15.000000
_cell_angle_alpha 90.000000
_cell_angle_beta 40.000000
_cell_angle_gamma 90.000000
_cell_volume 3037.171456
_symmetry_space_group_name_H-M "C 2/C"
_symmetry_group_IT_number 15
_symmetry_cell_setting 'monoclinic'
loop_
_space_group_symop_operation_xyz
x,y,z
-x,y,1/2-z
-x,-y,-z
x,-y,1/2+z
1/2+x,1/2+y,z
1/2-x,1/2+y,1/2-z
1/2-x,1/2-y,-z
1/2+x,1/2-y,1/2+z
loop_
_atom_site_type_symbol
_atom_site_label
_atom_site_fract_x
_atom_site_fract_y
_atom_site_fract_z
Si Si1 0.436154 0.429971 0.051955
Si Si2 0.500000 0.637756 0.750000
Si Si3 0.351761 0.130399 0.313741
Si Si4 0.073417 0.554347 0.552635
Si Si5 0.928324 0.805564 0.484222
Si Si6 0.687643 0.979143 0.152687
Si Si7 0.999370 0.661112 0.024610
Si Si8 0.252704 0.431517 0.368448
O O1 0.324848 0.437623 0.059916
O O2 0.347086 0.429861 0.209679
O O3 0.500000 0.500000 0.000000
O O4 0.529705 0.366577 0.985336
O O5 0.489757 0.682448 0.671054
O O6 0.634489 0.591318 0.644159
O O7 0.500000 0.138494 0.250000
O O8 0.230360 0.181300 0.424761
O O9 0.305869 0.056226 0.362613
O O10 0.385845 0.144123 0.185189
O O11 0.124543 0.552924 0.614116
O O12 0.174772 0.499434 0.435820
O O13 0.916349 0.528526 0.683910
O O14 0.057096 0.622998 0.519016
O O15 0.964606 0.736795 0.499170
O O16 0.136306 0.622645 0.950272
#
# Coordination Sequence:
#
# PCOD9309588 Si02
#       8
#     8   4   8   8   8   8   8   8
#     4  11  23  40  65  92 128 170 211 265 325 385
#     4  10  24  42  58  96 132 168 202 268 336 406
#     4  12  23  39  66  98 128 163 216 266 320 393
#     4  11  22  39  65  94 119 162 220 272 307 371
#     4  11  27  41  61  92 136 173 209 258 333 400
#     4  11  20  40  67  95 119 160 223 275 315 366
#     4  12  25  40  61  92 132 172 209 260 324 392
#     4  11  22  39  63  93 129 162 212 259 330 382
#
# _framework density 9.8776119999999992
#
# number of rings (size 3 to 8) (size 9 to 14) (size 15 to 20)
#    0.000    0.800    5.333    2.800    6.533    1.067 
#    0.000    0.667    0.000    0.000    0.000    0.000 
#    0.000    0.000    0.000    0.000    0.000    0.000 
#
# Total GULP energy -167015.020371 kJ/mol
# GULP energy per Si atom -5567.167346 kJ/mol
# Density = 0.985513 g / cm^3
# Si number density = 9.877612 Si / 1000 Ang^3
#
#
#
# Elastic Constant Matrix: (Units=GPa)
#
#
# Indices 1 2 3 4 5 6 
#
# 1 92.1836 62.9637 19.4420 -0.0003 -0.1069 -0.0002
# 2 62.9637 172.8690 32.0270 -0.0004 -6.9008 0.0000
# 3 19.4420 32.0270 69.8728 -0.0007 0.4420 0.0001
# 4 -0.0003 -0.0004 -0.0007 23.0148 0.0003 -1.6913
# 5 -0.1069 -6.9008 0.4420 0.0003 19.9839 0.0001
# 6 -0.0002 0.0000 0.0001 -1.6913 0.0001 42.7310
#
#
#
# Elastic Compliance Matrix: (Units=1/GPa)
#
#
# Indices 1 2 3 4 5 6 
#
# 1 0.014693 -0.005094 -0.001743 0.000000 -0.001642 0.000000
# 2 -0.005094 0.008190 -0.002355 0.000000 0.002853 0.000000
# 3 -0.001743 -0.002355 0.015883 0.000000 -0.001174 0.000000
# 4 0.000000 0.000000 0.000000 0.043577 -0.000001 0.001725
# 5 -0.001642 0.002853 -0.001174 -0.000001 0.051043 0.000000
# 6 0.000000 0.000000 0.000000 0.001725 0.000000 0.023470
#
#
# Mechanical properties :
#
#
# Convention : Reuss Voigt Hill
#
# Bulk Modulus (GPa) = 49.06038 62.64344 55.85191
# Shear Modulus (GPa) = 27.46719 31.84545 29.65632
#
# Velocity S-wave (km/s) = 3.73282 4.01933 3.87872
# Velocity P-wave (km/s) = 6.59292 7.30196 6.95648
#
# Compressibility (1/GPa) = 0.02038305
#
# Stress axis : x y z
#
# Youngs Moduli (GPa) = 68.05906 122.09485 62.95868
#
# Poissons Ratio (x) = 0.62199 0.10973
# Poissons Ratio (y) = 0.34671 0.14825
# Poissons Ratio (z) = 0.11862 0.28750
#
# Static dielectric constant tensor:
#      x y z
#    x 1.917640 0.000000 -0.077940 
#    y 0.000000 1.707810 0.000000 
#    z -0.077940 0.000000 1.867270 
# 
# From -- ./inp_files/156364.got.cif
#   From: 2010.05.17/outbox.ucp.g08.bks.cvg/sg15_79_cif.got.tgz:156364.got - 2010.06.11 12:40:34.
