data_PCOD9309107
_publ_section_title
;
Structure prediction by ZEFSAII (Michael W. Deem and Ramdas Pophale) SiO2 
 PCOD9309107
Probable space group: C 2/C
;
_chemical_formula_sum "Si O2"
_cell_formula_units_Z 28
_cell_length_a 24.000000
_cell_length_b 21.000000
_cell_length_c 18.000000
_cell_angle_alpha 90.000000
_cell_angle_beta 20.000000
_cell_angle_gamma 90.000000
_cell_volume 3102.806740
_symmetry_space_group_name_H-M "C 2/C"
_symmetry_group_IT_number 15
_symmetry_cell_setting 'monoclinic'
loop_
_space_group_symop_operation_xyz
x,y,z
-x,y,1/2-z
-x,-y,-z
x,-y,1/2+z
1/2+x,1/2+y,z
1/2-x,1/2+y,1/2-z
1/2-x,1/2-y,-z
1/2+x,1/2-y,1/2+z
loop_
_atom_site_type_symbol
_atom_site_label
_atom_site_fract_x
_atom_site_fract_y
_atom_site_fract_z
Si Si1 0.680236 0.511389 0.057605
Si Si2 0.572092 0.169925 0.440490
Si Si3 0.775966 0.263626 0.265544
Si Si4 0.993782 0.027004 0.426167
Si Si5 0.876981 0.360551 0.334007
Si Si6 0.067687 0.175111 0.302688
Si Si7 0.671277 0.966759 0.767757
O O1 0.500000 0.529854 0.250000
O O2 0.627349 0.492244 0.206413
O O3 0.804681 0.570150 0.905564
O O4 0.771108 0.462526 0.890136
O O5 0.708544 0.224084 0.279918
O O6 0.425686 0.187523 0.567515
O O7 0.476689 0.164795 0.638986
O O8 0.657453 0.103359 0.318094
O O9 0.854397 0.213995 0.226051
O O10 0.608761 0.298379 0.501289
O O11 0.037072 0.101657 0.364509
O O12 0.813413 0.010649 0.623570
O O13 0.000000 0.000000 0.500000
O O14 0.711144 0.323282 0.562092
O O15 0.000000 0.361789 0.250000
O O16 0.500000 0.000000 0.000000
#
# Coordination Sequence:
#
# PCOD9309107 Si02
#       7
#     8   8   8   8   8   8   8
#     4   9  21  36  53  83 113 146 181 230 284 340
#     4  11  22  35  53  77 110 148 193 227 280 327
#     4  10  22  36  50  75 110 154 191 224 262 344
#     4  10  21  36  58  83 112 142 180 235 294 334
#     4  11  21  32  51  77 115 145 186 230 273 333
#     4  10  21  35  50  75 110 147 184 220 276 327
#     4  11  20  35  58  83 107 146 188 231 280 329
#
# _framework density 9.0240880000000008
#
# number of rings (size 3 to 8) (size 9 to 14) (size 15 to 20)
#    0.000    1.714    2.857    1.714    6.000    3.429 
#    0.000    0.000    0.000    0.000    0.000   27.000 
#    0.000    0.000    0.000    0.000    0.000    0.000 
#
# Total GULP energy -156057.597668 kJ/mol
# GULP energy per Si atom -5573.485631 kJ/mol
# Density = 0.900355 g / cm^3
# Si number density = 9.024088 Si / 1000 Ang^3
#
#
#
# Elastic Constant Matrix: (Units=GPa)
#
#
# Indices 1 2 3 4 5 6 
#
# 1 59.9255 22.4616 38.0342 -0.0007 2.4405 -0.0012
# 2 22.4616 74.1782 34.9497 0.0016 2.4969 -0.0024
# 3 38.0342 34.9497 92.8945 0.0040 -4.8448 -0.0029
# 4 -0.0007 0.0016 0.0040 34.6096 -0.0028 -8.4377
# 5 2.4405 2.4969 -4.8448 -0.0028 34.2711 0.0024
# 6 -0.0012 -0.0024 -0.0029 -8.4377 0.0024 23.0215
#
#
#
# Elastic Compliance Matrix: (Units=1/GPa)
#
#
# Indices 1 2 3 4 5 6 
#
# 1 0.023351 -0.002930 -0.008597 0.000002 -0.002665 0.000001
# 2 -0.002930 0.016902 -0.005251 0.000000 -0.001765 0.000001
# 3 -0.008597 -0.005251 0.016434 -0.000002 0.003318 0.000000
# 4 0.000002 0.000000 -0.000002 0.031729 0.000001 0.011629
# 5 -0.002665 -0.001765 0.003318 0.000001 0.029966 -0.000002
# 6 0.000001 0.000001 0.000000 0.011629 -0.000002 0.047700
#
#
# Mechanical properties :
#
#
# Convention : Reuss Voigt Hill
#
# Bulk Modulus (GPa) = 43.23622 46.43215 44.83419
# Shear Modulus (GPa) = 24.11395 27.15062 25.63228
#
# Velocity S-wave (km/s) = 3.65922 3.88279 3.77266
# Velocity P-wave (km/s) = 6.47002 6.77378 6.62364
#
# Compressibility (1/GPa) = 0.02312876
#
# Stress axis : x y z
#
# Youngs Moduli (GPa) = 42.82506 59.16454 60.85110
#
# Poissons Ratio (x) = 0.17338 0.52314
# Poissons Ratio (y) = 0.12550 0.31955
# Poissons Ratio (z) = 0.36817 0.31069
#
# Static dielectric constant tensor:
#      x y z
#    x 1.697220 0.000000 -0.012000 
#    y 0.000000 1.661670 0.000000 
#    z -0.012000 0.000000 1.608100 
# 
# From -- ./inp_files/220155.got.cif
#   From: 2010.05.17/outbox.ucp.g08.bks.cvg/sg15_111_cif.got.tgz:220155.got - 2010.06.11 12:40:34.
