data_PCOD9309133
_publ_section_title
;
Structure prediction by ZEFSAII (Michael W. Deem and Ramdas Pophale) SiO2 
 PCOD9309133
Probable space group: C 2/C
;
_chemical_formula_sum "Si O2"
_cell_formula_units_Z 24
_cell_length_a 9.000000
_cell_length_b 21.000000
_cell_length_c 27.000000
_cell_angle_alpha 90.000000
_cell_angle_beta 30.000000
_cell_angle_gamma 90.000000
_cell_volume 2551.500000
_symmetry_space_group_name_H-M "C 2/C"
_symmetry_group_IT_number 15
_symmetry_cell_setting 'monoclinic'
loop_
_space_group_symop_operation_xyz
x,y,z
-x,y,1/2-z
-x,-y,-z
x,-y,1/2+z
1/2+x,1/2+y,z
1/2-x,1/2+y,1/2-z
1/2-x,1/2-y,-z
1/2+x,1/2-y,1/2+z
loop_
_atom_site_type_symbol
_atom_site_label
_atom_site_fract_x
_atom_site_fract_y
_atom_site_fract_z
Si Si1 0.344564 0.817372 0.345299
Si Si2 0.789769 0.547640 0.415700
Si Si3 0.172523 0.444707 0.252328
Si Si4 0.708455 0.391510 0.041744
Si Si5 0.110981 0.291408 0.983300
Si Si6 0.798961 0.823615 0.628025
O O1 0.500000 0.794394 0.250000
O O2 0.540472 0.876647 0.309764
O O3 0.285004 0.760142 0.399333
O O4 0.035877 0.847736 0.415921
O O5 0.500000 0.500000 0.500000
O O6 0.839998 0.567940 0.458293
O O7 0.738277 0.612752 0.396900
O O8 0.062490 0.504306 0.316450
O O9 0.514078 0.433013 0.137403
O O10 0.000000 0.453872 0.250000
O O11 0.939222 0.345404 0.002245
O O12 0.376760 0.325630 0.937867
O O13 0.862332 0.245086 0.081956
O O14 0.500000 0.821175 0.750000
#
# Coordination Sequence:
#
# PCOD9309133 Si02
#       6
#     8   8   8   8   8   8
#     4   9  18  33  65  94 123 164 206 260 309 375
#     4  12  20  40  68  90 123 171 219 254 314 374
#     4   9  18  34  61  97 119 166 215 252 310 378
#     4  10  21  36  69  92 123 169 209 266 305 382
#     4  11  23  44  60 100 132 160 213 256 334 376
#     4  11  27  40  66  94 134 169 200 272 320 385
#
# _framework density 9.4062319999999993
#
# number of rings (size 3 to 8) (size 9 to 14) (size 15 to 20)
#    0.000    2.000    5.000    1.000    4.667    0.000 
#    0.000    0.833    3.667    0.000    0.000    0.000 
#    0.000    0.000    0.000    0.000    0.000    0.000 
#
# Total GULP energy -133689.841292 kJ/mol
# GULP energy per Si atom -5570.410054 kJ/mol
# Density = 0.938482 g / cm^3
# Si number density = 9.406232 Si / 1000 Ang^3
#
#
#
# Elastic Constant Matrix: (Units=GPa)
#
#
# Indices 1 2 3 4 5 6 
#
# 1 63.2026 58.4152 42.3998 0.0397 5.9931 0.0114
# 2 58.4152 128.8048 77.2960 0.0054 12.6936 -0.0608
# 3 42.3998 77.2960 132.7488 -0.0148 21.7412 -0.1326
# 4 0.0397 0.0054 -0.0148 36.6921 -0.0500 13.5218
# 5 5.9931 12.6936 21.7412 -0.0500 18.6284 0.0649
# 6 0.0114 -0.0608 -0.1326 13.5218 0.0649 35.3195
#
#
#
# Elastic Compliance Matrix: (Units=1/GPa)
#
#
# Indices 1 2 3 4 5 6 
#
# 1 0.027759 -0.011173 -0.002652 -0.000014 0.001778 -0.000036
# 2 -0.011173 0.016431 -0.005877 0.000003 -0.000743 0.000010
# 3 -0.002652 -0.005877 0.013607 -0.000033 -0.011024 0.000075
# 4 -0.000014 0.000003 -0.000033 0.031731 0.000169 -0.012148
# 5 0.001778 -0.000743 -0.011024 0.000169 0.066483 -0.000230
# 6 -0.000036 0.000010 0.000075 -0.012148 -0.000230 0.032965
#
#
# Mechanical properties :
#
#
# Convention : Reuss Voigt Hill
#
# Bulk Modulus (GPa) = 54.36511 75.66426 65.01469
# Shear Modulus (GPa) = 21.32095 27.90436 24.61265
#
# Velocity S-wave (km/s) = 3.37017 3.85553 3.62099
# Velocity P-wave (km/s) = 6.64118 7.75421 7.21917
#
# Compressibility (1/GPa) = 0.01839415
#
# Stress axis : x y z
#
# Youngs Moduli (GPa) = 36.02387 60.86090 73.48936
#
# Poissons Ratio (x) = 0.68002 0.19486
# Poissons Ratio (y) = 0.40251 0.43189
# Poissons Ratio (z) = 0.09552 0.35767
#
# Static dielectric constant tensor:
#      x y z
#    x 1.661740 0.000030 0.039090 
#    y 0.000030 1.661500 -0.000040 
#    z 0.039090 -0.000040 1.702820 
# 
# From -- ./inp_files/290074.got.cif
#   From: 2010.05.17/outbox.ucp.g08.bks.cvg/sg15_146_cif.got.tgz:290074.got - 2010.06.11 12:40:34.
