data_PCOD9309943
_publ_section_title
;
Structure prediction by ZEFSAII (Michael W. Deem and Ramdas Pophale) SiO2 
 PCOD9309943
Probable space group: P 2 2 2
;
_chemical_formula_sum "Si O2"
_cell_formula_units_Z 14
_cell_length_a 5.544928
_cell_length_b 7.268307
_cell_length_c 16.444546
_cell_angle_alpha 90.000000
_cell_angle_beta 90.000000
_cell_angle_gamma 90.000000
_cell_volume 662.752023
_symmetry_space_group_name_H-M "P 2 2 2"
_symmetry_group_IT_number 16
_symmetry_cell_setting 'orthorhombic'
loop_
_space_group_symop_operation_xyz
x,y,z
-x,-y,z
x,-y,-z
-x,y,-z
loop_
_atom_site_type_symbol
_atom_site_label
_atom_site_fract_x
_atom_site_fract_y
_atom_site_fract_z
Si Si1 0.000000 0.000000 0.000000
Si Si2 0.249281 0.614219 0.716294
Si Si3 0.500000 0.500000 0.000000
Si Si4 0.366961 0.809934 0.881371
Si Si5 0.249674 0.713593 0.532980
O O1 0.157401 0.132759 0.056489
O O2 0.500000 0.500000 0.715044
O O3 0.263064 0.731993 0.798041
O O4 0.246873 0.717743 0.630219
O O5 0.000000 0.500000 0.718443
O O6 0.531333 0.660108 0.928642
O O7 0.500000 0.000000 0.864426
O O8 0.249712 0.500000 0.500000
O O9 0.500000 0.792094 0.500000
O O10 0.000000 0.792776 0.500000
#
# Coordination Sequence:
#
# PCOD9309943 Si02
#       5
#     1   4   1   4   4
#     4  12  26  50  68  94 144 184 222 306 354 412
#     4  12  24  39  68 108 138 184 239 285 347 416
#     4  12  22  50  72  90 136 184 232 276 366 422
#     4  12  28  47  68 103 141 180 234 298 349 422
#     4  10  16  33  59  98 140 174 230 288 331 405
#
# _framework density 21.124039
#
# number of rings (size 3 to 8) (size 9 to 14) (size 15 to 20)
#    0.000    0.571   10.000    0.000    8.000    0.000 
#    0.000    0.000    0.000    0.857    0.000    0.000 
#    0.000    0.000    0.000    0.000    0.000    0.000 
#
# Total GULP energy -77942.649740 kJ/mol
# GULP energy per Si atom -5567.332124 kJ/mol
# Density = 2.107596 g / cm^3
# Si number density = 21.124039 Si / 1000 Ang^3
#
#
#
# Elastic Constant Matrix: (Units=GPa)
#
#
# Indices 1 2 3 4 5 6 
#
# 1 184.7964 30.9823 67.6749 0.0000 0.0000 0.0000
# 2 30.9823 77.3203 37.3072 0.0000 0.0000 0.0000
# 3 67.6749 37.3072 225.0700 0.0000 0.0000 0.0000
# 4 0.0000 0.0000 0.0000 -46.7001 0.0000 0.0000
# 5 0.0000 0.0000 0.0000 0.0000 29.9625 0.0000
# 6 0.0000 0.0000 0.0000 0.0000 0.0000 -9.8643
#
#
#
# Elastic Compliance Matrix: (Units=1/GPa)
#
#
# Indices 1 2 3 4 5 6 
#
# 1 0.006291 -0.001748 -0.001602 0.000000 0.000000 0.000000
# 2 -0.001748 0.014543 -0.001885 0.000000 0.000000 0.000000
# 3 -0.001602 -0.001885 0.005237 0.000000 0.000000 0.000000
# 4 0.000000 0.000000 0.000000 -0.021413 0.000000 0.000000
# 5 0.000000 0.000000 0.000000 0.000000 0.033375 0.000000
# 6 0.000000 0.000000 0.000000 0.000000 0.000000 -0.101375
#
#
# Mechanical properties :
#
#
# Convention : Reuss Voigt Hill
#
# Bulk Modulus (GPa) = 64.09584 84.34616 74.22100
# Shear Modulus (GPa) = -104.88383 18.09442 -43.39471
#
# Velocity S-wave (km/s) = -7.05402 2.92991 -4.53733
# Velocity P-wave (km/s) = 5.99476 7.17367 2.78607
#
# Compressibility (1/GPa) = 0.01560164
#
# Stress axis : x y z
#
# Youngs Moduli (GPa) = 158.95615 68.76087 190.94210
#
# Poissons Ratio (x) = 0.12019 0.30587
# Poissons Ratio (y) = 0.27784 0.35994
# Poissons Ratio (z) = 0.25463 0.12962
#
# Static dielectric constant tensor:
#      x y z
#    x 1.840590 0.000000 0.000000 
#    y 0.000000 1.758430 0.000000 
#    z 0.000000 0.000000 1.743880 
# 
# From -- ./inp_files/7414.got.cif
#   From: 2010.05.17/outbox.cif.g08.bks.cpg/sg16_4_cif.got.tgz:7414.got - 2010.06.03 22:28:35.
