data_PCOD9309705
_publ_section_title
;
Structure prediction by ZEFSAII (Michael W. Deem and Ramdas Pophale) SiO2 
 PCOD9309705
Probable space group: C 2/C
;
_chemical_formula_sum "Si O2"
_cell_formula_units_Z 32
_cell_length_a 15.000000
_cell_length_b 21.000000
_cell_length_c 30.000000
_cell_angle_alpha 90.000000
_cell_angle_beta 160.000000
_cell_angle_gamma 90.000000
_cell_volume 3232.090354
_symmetry_space_group_name_H-M "C 2/C"
_symmetry_group_IT_number 15
_symmetry_cell_setting 'monoclinic'
loop_
_space_group_symop_operation_xyz
x,y,z
-x,y,1/2-z
-x,-y,-z
x,-y,1/2+z
1/2+x,1/2+y,z
1/2-x,1/2+y,1/2-z
1/2-x,1/2-y,-z
1/2+x,1/2-y,1/2+z
loop_
_atom_site_type_symbol
_atom_site_label
_atom_site_fract_x
_atom_site_fract_y
_atom_site_fract_z
Si Si1 0.693245 0.973412 0.796740
Si Si2 0.722304 0.146068 0.673028
Si Si3 0.093125 0.123495 0.515572
Si Si4 0.341948 0.153565 0.960492
Si Si5 0.937368 0.631813 0.342359
Si Si6 0.430272 0.696888 0.527671
Si Si7 0.531931 0.722497 0.118914
Si Si8 0.348960 0.110316 0.763712
O O1 0.500000 0.975651 0.750000
O O2 0.602656 0.926413 0.712540
O O3 0.956825 0.942972 0.940263
O O4 0.749423 0.042464 0.801439
O O5 0.602672 0.138734 0.566455
O O6 0.684283 0.218988 0.669354
O O7 0.605373 0.107750 0.661058
O O8 0.034255 0.137158 0.818889
O O9 0.397880 0.120457 0.648167
O O10 0.995226 0.152518 0.515698
O O11 0.995120 0.173044 0.433372
O O12 0.479770 0.117406 0.067299
O O13 0.402500 0.229151 0.999542
O O14 0.166981 0.674476 0.428244
O O15 0.687883 0.679440 0.227663
O O16 0.663283 0.671976 0.669280
O O17 0.250000 0.750000 0.000000
#
# Coordination Sequence:
#
# PCOD9309705 Si02
#       8
#     8   8   8   8   8   8   8   8
#     4  11  25  43  66  89 128 173 214 259 319 386
#     4  11  22  40  62  91 125 167 211 264 327 372
#     4  11  24  38  62  94 133 168 200 264 332 379
#     4  11  23  39  68  93 122 165 217 267 312 383
#     4  11  23  40  64  95 125 170 218 259 310 383
#     4  12  21  38  63  98 126 160 214 260 316 395
#     4  11  21  38  61  91 135 167 199 258 333 385
#     4  12  26  40  62  95 129 168 214 271 318 378
#
# _framework density 9.9007129999999997
#
# number of rings (size 3 to 8) (size 9 to 14) (size 15 to 20)
#    0.000    0.750    6.250    2.250    1.750    1.000 
#    0.000    1.250    0.000    0.000    0.000    0.000 
#    0.000    0.000    0.000    0.000    0.000    0.000 
#
# Total GULP energy -178406.615181 kJ/mol
# GULP energy per Si atom -5575.206724 kJ/mol
# Density = 0.987818 g / cm^3
# Si number density = 9.900713 Si / 1000 Ang^3
#
#
#
# Elastic Constant Matrix: (Units=GPa)
#
#
# Indices 1 2 3 4 5 6 
#
# 1 128.3976 21.8324 33.0913 -0.0006 -29.3069 0.0001
# 2 21.8324 69.6054 4.0182 0.0010 -6.0500 0.0021
# 3 33.0913 4.0182 72.9002 0.0053 -9.1613 0.0032
# 4 -0.0006 0.0010 0.0053 28.3408 0.0009 -3.7450
# 5 -29.3069 -6.0500 -9.1613 0.0009 41.5621 -0.0026
# 6 0.0001 0.0021 0.0032 -3.7450 -0.0026 23.9579
#
#
#
# Elastic Compliance Matrix: (Units=1/GPa)
#
#
# Indices 1 2 3 4 5 6 
#
# 1 0.010669 -0.002574 -0.003911 0.000001 0.006286 0.000002
# 2 -0.002574 0.015193 0.000392 -0.000001 0.000483 -0.000001
# 3 -0.003911 0.000392 0.015563 -0.000003 0.000730 -0.000003
# 4 0.000001 -0.000001 -0.000003 0.036029 -0.000001 0.005632
# 5 0.006286 0.000483 0.000730 -0.000001 0.028724 0.000003
# 6 0.000002 -0.000001 -0.000003 0.005632 0.000003 0.042620
#
#
# Mechanical properties :
#
#
# Convention : Reuss Voigt Hill
#
# Bulk Modulus (GPa) = 34.20192 43.19855 38.70023
# Shear Modulus (GPa) = 29.28575 32.90290 31.09433
#
# Velocity S-wave (km/s) = 3.84991 4.08075 3.96701
# Velocity P-wave (km/s) = 6.08871 6.63827 6.36942
#
# Compressibility (1/GPa) = 0.02923813
#
# Stress axis : x y z
#
# Youngs Moduli (GPa) = 93.73125 65.81767 64.25581
#
# Poissons Ratio (x) = 0.16943 0.25130
# Poissons Ratio (y) = 0.24128 -0.02517
# Poissons Ratio (z) = 0.36658 -0.02578
#
# Static dielectric constant tensor:
#      x y z
#    x 1.718580 0.000010 -0.074230 
#    y 0.000010 1.687130 -0.000010 
#    z -0.074230 -0.000010 1.759460 
# 
# From -- ./inp_files/314548.got.cif
#   From: 2010.05.17/outbox.ucp.g08.bks.cvg/sg15_158_cif.got.tgz:314548.got - 2010.06.11 12:40:34.
