data_PCOD9309777
_publ_section_title
;
Structure prediction by ZEFSAII (Michael W. Deem and Ramdas Pophale) SiO2 
 PCOD9309777
Probable space group: C 2/C
;
_chemical_formula_sum "Si O2"
_cell_formula_units_Z 32
_cell_length_a 30.000000
_cell_length_b 12.000000
_cell_length_c 18.000000
_cell_angle_alpha 90.000000
_cell_angle_beta 150.000000
_cell_angle_gamma 90.000000
_cell_volume 3240.000000
_symmetry_space_group_name_H-M "C 2/C"
_symmetry_group_IT_number 15
_symmetry_cell_setting 'monoclinic'
loop_
_space_group_symop_operation_xyz
x,y,z
-x,y,1/2-z
-x,-y,-z
x,-y,1/2+z
1/2+x,1/2+y,z
1/2-x,1/2+y,1/2-z
1/2-x,1/2-y,-z
1/2+x,1/2-y,1/2+z
loop_
_atom_site_type_symbol
_atom_site_label
_atom_site_fract_x
_atom_site_fract_y
_atom_site_fract_z
Si Si1 0.783450 0.344477 0.153847
Si Si2 0.933782 0.812254 0.938160
Si Si3 0.658990 0.018397 0.143313
Si Si4 0.844021 0.471420 0.096614
Si Si5 0.108896 0.240359 0.598746
Si Si6 0.496366 0.137445 0.154686
Si Si7 0.098419 0.738683 0.907288
Si Si8 0.694323 0.489073 0.263326
O O1 0.847083 0.249733 0.279615
O O2 0.791490 0.439199 0.227184
O O3 0.823557 0.395208 0.137502
O O4 0.683613 0.301655 0.996523
O O5 0.896672 0.939775 0.882323
O O6 0.969786 0.748032 0.066073
O O7 0.014593 0.792585 0.997944
O O8 0.629553 0.129561 0.144797
O O9 0.734690 0.041001 0.191770
O O10 0.577657 0.951893 0.984365
O O11 0.907601 0.574024 0.213839
O O12 0.896478 0.388014 0.116117
O O13 0.750041 0.503093 0.921129
O O14 0.109099 0.247509 0.510374
O O15 0.175475 0.141742 0.720123
O O16 0.500000 0.160099 0.250000
O O17 0.000000 0.783897 0.750000
#
# Coordination Sequence:
#
# PCOD9309777 Si02
#       8
#     8   8   8   8   8   8   8   8
#     4  11  23  42  68  99 129 168 223 285 336 391
#     4  11  25  43  67  98 135 175 218 279 340 402
#     4  11  22  43  69  96 130 179 225 274 334 400
#     4  12  23  40  67 102 126 170 224 282 333 391
#     4  12  24  44  65  95 135 178 223 268 334 412
#     4  11  22  42  70 102 130 172 231 284 326 390
#     4  12  23  37  65  97 132 164 218 281 335 390
#     4  12  25  42  67  93 135 179 219 264 346 409
#
# _framework density 9.8765429999999999
#
# number of rings (size 3 to 8) (size 9 to 14) (size 15 to 20)
#    0.000    0.500    5.000    4.125    3.500    2.000 
#    0.000    4.375    0.000    0.000    0.000    0.000 
#    0.000    0.000    0.000    0.000    0.000    0.000 
#
# Total GULP energy -178443.275470 kJ/mol
# GULP energy per Si atom -5576.352358 kJ/mol
# Density = 0.985406 g / cm^3
# Si number density = 9.876543 Si / 1000 Ang^3
#
#
#
# Elastic Constant Matrix: (Units=GPa)
#
#
# Indices 1 2 3 4 5 6 
#
# 1 50.8211 -20.4400 0.3336 0.0000 0.2692 0.0000
# 2 -20.4400 38.4231 16.0330 0.0000 -0.2391 0.0000
# 3 0.3336 16.0330 99.8433 0.0000 1.9823 0.0000
# 4 0.0000 0.0000 0.0000 26.1405 0.0000 -0.6362
# 5 0.2692 -0.2391 1.9823 0.0000 39.8099 0.0000
# 6 0.0000 0.0000 0.0000 -0.6362 0.0000 14.7241
#
#
#
# Elastic Compliance Matrix: (Units=1/GPa)
#
#
# Indices 1 2 3 4 5 6 
#
# 1 0.025573 0.014620 -0.002434 0.000000 0.000036 0.000000
# 2 0.014620 0.036259 -0.005880 0.000000 0.000412 0.000000
# 3 -0.002434 -0.005880 0.010979 0.000000 -0.000566 0.000000
# 4 0.000000 0.000000 0.000000 0.038295 0.000000 0.001655
# 5 0.000036 0.000412 -0.000566 0.000000 0.025150 0.000000
# 6 0.000000 0.000000 0.000000 0.001655 0.000000 0.067988
#
#
# Mechanical properties :
#
#
# Convention : Reuss Voigt Hill
#
# Bulk Modulus (GPa) = 11.70638 20.10453 15.90545
# Shear Modulus (GPa) = 22.71640 29.01229 25.86434
#
# Velocity S-wave (km/s) = 3.39487 3.83658 3.62246
# Velocity P-wave (km/s) = 4.61585 5.46130 5.05628
#
# Compressibility (1/GPa) = 0.08542354
#
# Stress axis : x y z
#
# Youngs Moduli (GPa) = 39.10439 27.57920 91.08129
#
# Poissons Ratio (x) = -0.40320 0.22167
# Poissons Ratio (y) = -0.57169 0.53552
# Poissons Ratio (z) = 0.09517 0.16215
#
# Static dielectric constant tensor:
#      x y z
#    x 1.729400 0.000000 -0.006760 
#    y 0.000000 1.757970 0.000000 
#    z -0.006760 0.000000 1.691140 
# 
# From -- ./inp_files/225210.got.cif
#   From: 2010.05.17/outbox.ucp.g08.bks.cvg/sg15_113_cif.got.tgz:225210.got - 2010.06.11 12:40:34.
