data_PCOD9309525
_publ_section_title
;
Structure prediction by ZEFSAII (Michael W. Deem and Ramdas Pophale) SiO2 
 PCOD9309525
Probable space group: C 2/C
;
_chemical_formula_sum "Si O2"
_cell_formula_units_Z 28
_cell_length_a 15.000000
_cell_length_b 15.000000
_cell_length_c 12.000000
_cell_angle_alpha 90.000000
_cell_angle_beta 90.000000
_cell_angle_gamma 90.000000
_cell_volume 2700.000000
_symmetry_space_group_name_H-M "C 2/C"
_symmetry_group_IT_number 15
_symmetry_cell_setting 'monoclinic'
loop_
_space_group_symop_operation_xyz
x,y,z
-x,y,1/2-z
-x,-y,-z
x,-y,1/2+z
1/2+x,1/2+y,z
1/2-x,1/2+y,1/2-z
1/2-x,1/2-y,-z
1/2+x,1/2-y,1/2+z
loop_
_atom_site_type_symbol
_atom_site_label
_atom_site_fract_x
_atom_site_fract_y
_atom_site_fract_z
Si Si1 0.098551 0.754120 0.988686
Si Si2 0.978956 0.596765 0.381208
Si Si3 0.795298 0.883988 0.133883
Si Si4 0.545510 0.407231 0.535073
Si Si5 0.247586 0.261669 0.683963
Si Si6 0.797073 0.949985 0.798218
Si Si7 0.155434 0.475669 0.990762
O O1 0.030690 0.680521 0.035995
O O2 0.170454 0.755328 0.090876
O O3 0.160256 0.736647 0.880179
O O4 0.037117 0.838839 0.960346
O O5 0.887542 0.542658 0.415153
O O6 0.000000 0.616262 0.250000
O O7 0.067383 0.546052 0.420969
O O8 0.777329 0.802251 0.214768
O O9 0.706692 0.899510 0.059704
O O10 0.809202 0.973528 0.206510
O O11 0.882513 0.874377 0.057095
O O12 0.500000 0.500000 0.500000
O O13 0.609005 0.423029 0.643092
O O14 0.257568 0.361416 0.736638
O O15 0.731996 0.992486 0.895375
#
# Coordination Sequence:
#
# PCOD9309525 Si02
#       7
#     8   8   8   8   8   8   8
#     4  11  25  42  64  97 133 172 229 281 327 418
#     4  11  23  40  67  97 134 177 222 282 346 398
#     4  11  24  42  69  95 134 179 228 277 349 411
#     4  11  26  43  67 100 136 175 232 285 338 409
#     4  11  25  43  67  95 135 182 227 275 356 399
#     4  11  24  45  69  96 139 182 225 287 349 407
#     4  10  23  41  65  97 132 170 226 273 340 413
#
# _framework density 10.370369999999999
#
# number of rings (size 3 to 8) (size 9 to 14) (size 15 to 20)
#    0.000    1.143    0.000    5.143    6.000   10.286 
#    0.000    0.000    0.000    0.000    0.000    0.000 
#    0.000    0.000    0.000    0.000    0.000    0.000 
#
# Total GULP energy -156250.471759 kJ/mol
# GULP energy per Si atom -5580.373991 kJ/mol
# Density = 1.034677 g / cm^3
# Si number density = 10.370370 Si / 1000 Ang^3
#
#
#
# Elastic Constant Matrix: (Units=GPa)
#
#
# Indices 1 2 3 4 5 6 
#
# 1 105.5680 13.6827 12.4698 0.0000 7.1163 0.0000
# 2 13.6827 61.6591 -1.3256 0.0000 1.9031 0.0000
# 3 12.4698 -1.3256 72.4359 0.0000 -6.5452 0.0000
# 4 0.0000 0.0000 0.0000 33.5808 0.0000 -6.5877
# 5 7.1163 1.9031 -6.5452 0.0000 44.9519 0.0000
# 6 0.0000 0.0000 0.0000 -6.5877 0.0000 34.6691
#
#
#
# Elastic Compliance Matrix: (Units=1/GPa)
#
#
# Indices 1 2 3 4 5 6 
#
# 1 0.010112 -0.002230 -0.001943 0.000000 -0.001789 0.000000
# 2 -0.002230 0.016735 0.000667 0.000000 -0.000258 0.000000
# 3 -0.001943 0.000667 0.014366 0.000000 0.002371 0.000000
# 4 0.000000 0.000000 0.000000 0.030932 0.000000 0.005878
# 5 -0.001789 -0.000258 0.002371 0.000000 0.022885 0.000000
# 6 0.000000 0.000000 0.000000 0.005878 0.000000 0.029961
#
#
# Mechanical properties :
#
#
# Convention : Reuss Voigt Hill
#
# Bulk Modulus (GPa) = 29.23979 32.14633 30.69306
# Shear Modulus (GPa) = 34.86616 36.96277 35.91447
#
# Velocity S-wave (km/s) = 4.10451 4.22611 4.16575
# Velocity P-wave (km/s) = 6.04905 6.27265 6.16186
#
# Compressibility (1/GPa) = 0.03419997
#
# Stress axis : x y z
#
# Youngs Moduli (GPa) = 98.89420 59.75334 69.60737
#
# Poissons Ratio (x) = 0.13328 0.13526
# Poissons Ratio (y) = 0.22058 -0.04642
# Poissons Ratio (z) = 0.19218 -0.03985
#
# Static dielectric constant tensor:
#      x y z
#    x 1.729870 0.000000 0.003670 
#    y 0.000000 1.782870 0.000000 
#    z 0.003670 0.000000 1.745510 
# 
# From -- ./inp_files/97006.got.cif
#   From: 2010.05.17/outbox.ucp.g08.bks.cvg/sg15_49_cif.got.tgz:97006.got - 2010.06.11 12:40:34.
