data_PCOD9309690
_publ_section_title
;
Structure prediction by ZEFSAII (Michael W. Deem and Ramdas Pophale) SiO2 
 PCOD9309690
Probable space group: C 2/C
;
_chemical_formula_sum "Si O2"
_cell_formula_units_Z 30
_cell_length_a 12.000000
_cell_length_b 18.000000
_cell_length_c 21.000000
_cell_angle_alpha 90.000000
_cell_angle_beta 40.000000
_cell_angle_gamma 90.000000
_cell_volume 2915.684598
_symmetry_space_group_name_H-M "C 2/C"
_symmetry_group_IT_number 15
_symmetry_cell_setting 'monoclinic'
loop_
_space_group_symop_operation_xyz
x,y,z
-x,y,1/2-z
-x,-y,-z
x,-y,1/2+z
1/2+x,1/2+y,z
1/2-x,1/2+y,1/2-z
1/2-x,1/2-y,-z
1/2+x,1/2-y,1/2+z
loop_
_atom_site_type_symbol
_atom_site_label
_atom_site_fract_x
_atom_site_fract_y
_atom_site_fract_z
Si Si1 0.679253 0.290010 0.307008
Si Si2 0.789190 0.470464 0.668458
Si Si3 0.756803 0.138750 0.429526
Si Si4 0.509240 0.556249 0.403555
Si Si5 0.898326 0.105319 0.998140
Si Si6 0.648445 0.144002 0.889295
Si Si7 0.500000 0.246516 0.750000
Si Si8 0.069882 0.351998 0.568184
O O1 0.551896 0.346588 0.399225
O O2 0.728170 0.310727 0.212766
O O3 0.863549 0.293266 0.263296
O O4 0.577809 0.210968 0.356702
O O5 0.740372 0.426588 0.625169
O O6 0.648055 0.455912 0.785725
O O7 0.814614 0.557081 0.642059
O O8 0.968293 0.430443 0.609937
O O9 0.557566 0.158727 0.530795
O O10 0.871660 0.203889 0.349347
O O11 0.856333 0.109039 0.446772
O O12 0.590146 0.593442 0.431119
O O13 0.425254 0.477075 0.457736
O O14 0.718519 0.142761 0.055666
O O15 0.664390 0.158970 0.958122
#
# Coordination Sequence:
#
# PCOD9309690 Si02
#       8
#     8   8   8   8   8   8   4   8
#     4  12  26  45  66 104 144 183 234 286 353 421
#     4  11  20  43  71 102 133 172 242 286 339 408
#     4  11  21  43  72 102 131 170 234 292 337 408
#     4  11  22  42  70 102 138 185 224 291 349 396
#     4  11  26  44  65 102 147 183 233 279 345 424
#     4  11  24  42  73 101 133 183 228 293 345 400
#     4  12  24  44  68 100 138 172 230 286 344 424
#     4  11  24  47  69 101 140 184 237 282 345 417
#
# _framework density 10.289179000000001
#
# number of rings (size 3 to 8) (size 9 to 14) (size 15 to 20)
#    0.000    0.800    5.333    3.600    1.867    3.733 
#    0.000    2.667    0.000    0.000    0.000    0.000 
#    0.000    0.000    0.000    0.000    0.000    0.000 
#
# Total GULP energy -167802.067597 kJ/mol
# GULP energy per Si atom -5593.402253 kJ/mol
# Density = 1.026576 g / cm^3
# Si number density = 10.289179 Si / 1000 Ang^3
#
#
#
# Elastic Constant Matrix: (Units=GPa)
#
#
# Indices 1 2 3 4 5 6 
#
# 1 92.7954 7.5890 21.0087 0.0004 -1.7513 -0.0008
# 2 7.5890 48.7730 18.0904 0.0002 9.3090 -0.0007
# 3 21.0087 18.0904 102.2683 -0.0001 12.5301 -0.0015
# 4 0.0004 0.0002 -0.0001 133.9201 0.0005 -57.0207
# 5 -1.7513 9.3090 12.5301 0.0005 29.8523 0.0002
# 6 -0.0008 -0.0007 -0.0015 -57.0207 0.0002 43.6642
#
#
#
# Elastic Compliance Matrix: (Units=1/GPa)
#
#
# Indices 1 2 3 4 5 6 
#
# 1 0.011460 -0.001297 -0.002379 0.000000 0.002075 0.000000
# 2 -0.001297 0.022980 -0.003069 0.000000 -0.005954 0.000001
# 3 -0.002379 -0.003069 0.011290 0.000000 -0.003921 0.000001
# 4 0.000000 0.000000 0.000000 0.016819 -0.000001 0.021964
# 5 0.002075 -0.005954 -0.003921 -0.000001 0.037123 -0.000001
# 6 0.000000 0.000001 0.000001 0.021964 -0.000001 0.051584
#
#
# Mechanical properties :
#
#
# Convention : Reuss Voigt Hill
#
# Bulk Modulus (GPa) = 31.01724 37.46811 34.24268
# Shear Modulus (GPa) = 28.49128 54.63058 41.56093
#
# Velocity S-wave (km/s) = 3.72496 5.15802 4.49892
# Velocity P-wave (km/s) = 5.79706 7.32944 6.60782
#
# Compressibility (1/GPa) = 0.03224013
#
# Stress axis : x y z
#
# Youngs Moduli (GPa) = 87.25815 43.51682 88.57169
#
# Poissons Ratio (x) = 0.05644 0.21072
# Poissons Ratio (y) = 0.11316 0.27183
# Poissons Ratio (z) = 0.20760 0.13355
#
# Static dielectric constant tensor:
#      x y z
#    x 1.764600 0.000000 0.011480 
#    y 0.000000 1.741780 0.000000 
#    z 0.011480 0.000000 1.694370 
# 
# From -- ./inp_files/239945.got.cif
#   From: 2010.05.17/outbox.ucp.g08.bks.cvg/sg15_120_cif.got.tgz:239945.got - 2010.06.11 12:40:34.
