data_PCOD9309196
_publ_section_title
;
Structure prediction by ZEFSAII (Michael W. Deem and Ramdas Pophale) SiO2 
 PCOD9309196
Probable space group: C 2/C
;
_chemical_formula_sum "Si O2"
_cell_formula_units_Z 28
_cell_length_a 15.000000
_cell_length_b 12.000000
_cell_length_c 30.000000
_cell_angle_alpha 90.000000
_cell_angle_beta 30.000000
_cell_angle_gamma 90.000000
_cell_volume 2700.000000
_symmetry_space_group_name_H-M "C 2/C"
_symmetry_group_IT_number 15
_symmetry_cell_setting 'monoclinic'
loop_
_space_group_symop_operation_xyz
x,y,z
-x,y,1/2-z
-x,-y,-z
x,-y,1/2+z
1/2+x,1/2+y,z
1/2-x,1/2+y,1/2-z
1/2-x,1/2-y,-z
1/2+x,1/2-y,1/2+z
loop_
_atom_site_type_symbol
_atom_site_label
_atom_site_fract_x
_atom_site_fract_y
_atom_site_fract_z
Si Si1 0.549504 0.756166 0.104741
Si Si2 0.140807 0.149594 0.905427
Si Si3 0.154651 0.679729 0.003933
Si Si4 0.605548 0.338826 0.743385
Si Si5 0.102476 0.521658 0.867084
Si Si6 0.799181 0.179220 0.850695
Si Si7 0.907431 0.109307 0.089255
O O1 0.530209 0.710170 0.162293
O O2 0.442667 0.667696 0.120791
O O3 0.458762 0.878981 0.139673
O O4 0.750000 0.750000 0.000000
O O5 0.301844 0.229556 0.819829
O O6 0.984792 0.230702 0.955301
O O7 0.140673 0.021927 0.887121
O O8 0.084496 0.126949 0.981467
O O9 0.061726 0.563718 0.056797
O O10 0.250000 0.750000 0.000000
O O11 0.289320 0.651968 0.906576
O O12 0.500000 0.399593 0.750000
O O13 0.739068 0.430009 0.707359
O O14 0.163629 0.596780 0.883174
O O15 0.740676 0.308296 0.867967
O O16 0.000000 0.165244 0.750000
#
# Coordination Sequence:
#
# PCOD9309196 Si02
#       7
#     8   8   8   8   8   8   8
#     4  11  25  41  66  97 130 170 222 264 327 388
#     4   9  20  40  63  89 130 169 213 268 324 377
#     4  10  22  39  63  93 126 163 215 260 318 378
#     4  11  24  43  65  96 131 171 217 268 326 386
#     4  10  24  44  64  91 126 174 213 267 316 384
#     4  10  21  39  64  93 123 168 210 259 317 380
#     4   9  20  40  63  91 128 170 214 267 322 383
#
# _framework density 10.370369999999999
#
# number of rings (size 3 to 8) (size 9 to 14) (size 15 to 20)
#    0.000    2.000    0.000    1.714    4.000    9.714 
#    2.571    0.000    0.000    0.000    0.000    0.000 
#    0.000    0.000    0.000    0.000    0.000    0.000 
#
# Total GULP energy -155919.760011 kJ/mol
# GULP energy per Si atom -5568.562858 kJ/mol
# Density = 1.034677 g / cm^3
# Si number density = 10.370370 Si / 1000 Ang^3
#
#
#
# Elastic Constant Matrix: (Units=GPa)
#
#
# Indices 1 2 3 4 5 6 
#
# 1 42.5821 -2.8836 32.4736 0.0016 16.0422 0.0027
# 2 -2.8836 150.9829 19.4476 0.0042 6.1669 0.0075
# 3 32.4736 19.4476 101.5616 0.0098 2.8025 0.0186
# 4 0.0016 0.0042 0.0098 105.2714 -0.0013 140.3646
# 5 16.0422 6.1669 2.8025 -0.0013 15.2819 -0.0022
# 6 0.0027 0.0075 0.0186 140.3646 -0.0022 278.3316
#
#
#
# Elastic Compliance Matrix: (Units=1/GPa)
#
#
# Indices 1 2 3 4 5 6 
#
# 1 0.064019 0.006487 -0.019886 -0.000001 -0.066174 0.000000
# 2 0.006487 0.007546 -0.003264 0.000000 -0.009256 0.000000
# 3 -0.019886 -0.003264 0.016300 0.000000 0.019203 -0.000001
# 4 -0.000001 0.000000 0.000000 0.028999 0.000001 -0.014624
# 5 -0.066174 -0.009256 0.019203 0.000001 0.135117 0.000000
# 6 0.000000 0.000000 -0.000001 -0.014624 0.000000 0.010968
#
#
# Mechanical properties :
#
#
# Convention : Reuss Voigt Hill
#
# Bulk Modulus (GPa) = 18.33541 43.68908 31.01225
# Shear Modulus (GPa) = 15.90071 96.18291 56.04181
#
# Velocity S-wave (km/s) = 2.77183 6.81723 5.20373
# Velocity P-wave (km/s) = 4.37076 9.11462 7.14772
#
# Compressibility (1/GPa) = 0.05453927
#
# Stress axis : x y z
#
# Youngs Moduli (GPa) = 15.62048 132.52741 61.35137
#
# Poissons Ratio (x) = -0.85970 1.22001
# Poissons Ratio (y) = -0.10133 0.20023
# Poissons Ratio (z) = 0.31062 0.43252
#
# Static dielectric constant tensor:
#      x y z
#    x 1.805020 0.000000 -0.038950 
#    y 0.000000 1.696390 0.000000 
#    z -0.038950 0.000000 1.722540 
# 
# From -- ./inp_files/313723.got.cif
#   From: 2010.05.17/outbox.ucp.g08.bks.cvg/sg15_157_cif.got.tgz:313723.got - 2010.06.11 12:40:34.
