data_PCOD9309952
_publ_section_title
;
Structure prediction by ZEFSAII (Michael W. Deem and Ramdas Pophale) SiO2 
 PCOD9309952
Probable space group: P 2 2 2
;
_chemical_formula_sum "Si O2"
_cell_formula_units_Z 32
_cell_length_a 12.075810
_cell_length_b 15.019317
_cell_length_c 8.049878
_cell_angle_alpha 90.000000
_cell_angle_beta 90.000000
_cell_angle_gamma 90.000000
_cell_volume 1460.009741
_symmetry_space_group_name_H-M "P 2 2 2"
_symmetry_group_IT_number 16
_symmetry_cell_setting 'orthorhombic'
loop_
_space_group_symop_operation_xyz
x,y,z
-x,-y,z
x,-y,-z
-x,y,-z
loop_
_atom_site_type_symbol
_atom_site_label
_atom_site_fract_x
_atom_site_fract_y
_atom_site_fract_z
Si Si1 0.582640 0.756234 0.275940
Si Si2 0.657163 0.278592 0.369481
Si Si3 0.154886 0.976674 0.814131
Si Si4 0.805934 0.783843 0.094547
Si Si5 0.145551 0.837312 0.282075
Si Si6 0.159660 0.405356 0.584423
Si Si7 0.610382 0.036894 0.685796
Si Si8 0.967633 0.682530 0.285709
O O1 0.451707 0.735112 0.255662
O O2 0.618743 0.704406 0.441606
O O3 0.681502 0.752541 0.140339
O O4 0.589594 0.859069 0.326941
O O5 0.742442 0.194516 0.374119
O O6 0.735068 0.361984 0.326459
O O7 0.152327 0.869405 0.793501
O O8 0.286086 0.990108 0.794419
O O9 0.110775 0.058964 0.702013
O O10 0.117606 0.000000 0.000000
O O11 0.892350 0.705467 0.129266
O O12 0.819006 0.818828 0.908993
O O13 0.045269 0.769548 0.314798
O O14 0.177729 0.500000 0.500000
O O15 0.055469 0.397893 0.708961
O O16 0.118649 0.341539 0.432235
O O17 0.500000 0.000000 0.764938
O O18 0.624559 0.000000 0.500000
#
# Coordination Sequence:
#
# PCOD9309952 Si02
#       8
#     4   4   4   4   4   4   4   4
#     4  10  19  32  53  79 115 149 188 229 276 333
#     4  10  19  35  58  82 111 143 185 229 287 339
#     4   9  19  32  45  71 110 156 197 230 262 307
#     4  10  20  34  53  80 118 157 192 232 272 325
#     4  10  20  33  54  80 114 156 200 235 270 317
#     4  10  21  39  65  87 109 132 176 242 292 352
#     4  10  17  27  44  69 103 149 193 235 270 303
#     4  10  19  35  57  80 109 140 183 232 286 335
#
# _framework density 21.917663999999998
#
# number of rings (size 3 to 8) (size 9 to 14) (size 15 to 20)
#    0.000    2.125    1.250    4.125    0.000    1.250 
#    0.000    6.875    0.000   15.750    0.000    0.000 
#   15.000    0.000    0.000    0.000    0.000    0.000 
#
# Total GULP energy -178243.649304 kJ/mol
# GULP energy per Si atom -5570.114041 kJ/mol
# Density = 2.186778 g / cm^3
# Si number density = 21.917664 Si / 1000 Ang^3
#
#
#
# Elastic Constant Matrix: (Units=GPa)
#
#
# Indices 1 2 3 4 5 6 
#
# 1 143.3653 45.2517 32.1163 0.0000 0.0000 0.0000
# 2 45.2517 82.9808 10.7636 0.0000 0.0000 0.0000
# 3 32.1163 10.7636 33.9360 0.0000 0.0000 0.0000
# 4 0.0000 0.0000 0.0000 23.4214 0.0000 0.0000
# 5 0.0000 0.0000 0.0000 0.0000 11.2062 0.0000
# 6 0.0000 0.0000 0.0000 0.0000 0.0000 21.5628
#
#
#
# Elastic Compliance Matrix: (Units=1/GPa)
#
#
# Indices 1 2 3 4 5 6 
#
# 1 0.010255 -0.004519 -0.008271 0.000000 0.000000 0.000000
# 2 -0.004519 0.014560 -0.000341 0.000000 0.000000 0.000000
# 3 -0.008271 -0.000341 0.037403 0.000000 0.000000 0.000000
# 4 0.000000 0.000000 0.000000 0.042696 0.000000 0.000000
# 5 0.000000 0.000000 0.000000 0.000000 0.089236 0.000000
# 6 0.000000 0.000000 0.000000 0.000000 0.000000 0.046376
#
#
# Mechanical properties :
#
#
# Convention : Reuss Voigt Hill
#
# Bulk Modulus (GPa) = 27.81308 48.50504 38.15906
# Shear Modulus (GPa) = 17.93567 22.71477 20.32522
#
# Velocity S-wave (km/s) = 2.86373 3.22276 3.04854
# Velocity P-wave (km/s) = 4.86333 6.00224 5.46255
#
# Compressibility (1/GPa) = 0.03595430
#
# Stress axis : x y z
#
# Youngs Moduli (GPa) = 97.51762 68.68293 26.73564
#
# Poissons Ratio (x) = 0.31039 0.22114
# Poissons Ratio (y) = 0.44070 0.00912
# Poissons Ratio (z) = 0.80660 0.02342
#
# Static dielectric constant tensor:
#      x y z
#    x 1.836900 0.000000 0.000000 
#    y 0.000000 1.869000 0.000000 
#    z 0.000000 0.000000 1.881470 
# 
# From -- ./inp_files/4878.got.cif
#   From: 2010.05.17/outbox.cif.g08.bks.cpg/sg16_3_cif.got.tgz:4878.got - 2010.06.03 22:28:35.
