data_PCOD9309724
_publ_section_title
;
Structure prediction by ZEFSAII (Michael W. Deem and Ramdas Pophale) SiO2 
 PCOD9309724
Probable space group: C 2/C
;
_chemical_formula_sum "Si O2"
_cell_formula_units_Z 24
_cell_length_a 21.000000
_cell_length_b 15.000000
_cell_length_c 12.000000
_cell_angle_alpha 90.000000
_cell_angle_beta 140.000000
_cell_angle_gamma 90.000000
_cell_volume 2429.737165
_symmetry_space_group_name_H-M "C 2/C"
_symmetry_group_IT_number 15
_symmetry_cell_setting 'monoclinic'
loop_
_space_group_symop_operation_xyz
x,y,z
-x,y,1/2-z
-x,-y,-z
x,-y,1/2+z
1/2+x,1/2+y,z
1/2-x,1/2+y,1/2-z
1/2-x,1/2-y,-z
1/2+x,1/2-y,1/2+z
loop_
_atom_site_type_symbol
_atom_site_label
_atom_site_fract_x
_atom_site_fract_y
_atom_site_fract_z
Si Si1 0.032136 0.766764 0.170547
Si Si2 0.604810 0.080855 0.830728
Si Si3 0.664124 0.207256 0.704192
Si Si4 0.180678 0.395800 0.861528
Si Si5 0.226248 0.090174 0.258897
Si Si6 0.326586 0.394162 0.266411
O O1 0.120078 0.694895 0.297498
O O2 0.074006 0.840341 0.138212
O O3 0.000000 0.803262 0.250000
O O4 0.937924 0.709593 0.002226
O O5 0.500000 0.099334 0.750000
O O6 0.639952 0.154094 0.786292
O O7 0.610964 0.983186 0.781239
O O8 0.682618 0.075991 0.035535
O O9 0.683105 0.313939 0.739284
O O10 0.756179 0.159343 0.761756
O O11 0.233160 0.398247 0.811895
O O12 0.263452 0.398313 0.067933
O O13 0.162504 0.997942 0.180208
#
# Coordination Sequence:
#
# PCOD9309724 Si02
#       6
#     8   8   8   8   8   8
#     4  12  23  38  68  98 128 161 214 264 313 371
#     4  11  25  40  64  97 128 163 214 259 319 374
#     4  12  24  43  65  92 131 169 210 258 313 381
#     4  11  21  40  67  97 127 158 211 271 315 363
#     4  11  24  43  65  89 130 171 208 257 312 380
#     4  11  24  42  64  97 127 168 209 260 319 367
#
# _framework density 9.8776119999999992
#
# number of rings (size 3 to 8) (size 9 to 14) (size 15 to 20)
#    0.000    0.667    5.000    3.500    2.333    2.000 
#    0.000    0.833    0.000    0.000    0.000    0.000 
#    0.000    0.000    0.000    0.000    0.000    0.000 
#
# Total GULP energy -134034.089675 kJ/mol
# GULP energy per Si atom -5584.753736 kJ/mol
# Density = 0.985513 g / cm^3
# Si number density = 9.877612 Si / 1000 Ang^3
#
#
#
# Elastic Constant Matrix: (Units=GPa)
#
#
# Indices 1 2 3 4 5 6 
#
# 1 153.6969 54.2524 -2.1883 0.0000 -8.1347 0.0000
# 2 54.2524 142.5004 -15.8840 0.0000 1.5587 0.0000
# 3 -2.1883 -15.8840 22.3888 0.0000 -6.4810 0.0000
# 4 0.0000 0.0000 0.0000 26.1699 0.0000 -1.6963
# 5 -8.1347 1.5587 -6.4810 0.0000 23.4850 0.0000
# 6 0.0000 0.0000 0.0000 -1.6963 0.0000 13.0615
#
#
#
# Elastic Compliance Matrix: (Units=1/GPa)
#
#
# Indices 1 2 3 4 5 6 
#
# 1 0.007712 -0.003034 -0.000617 0.000000 0.002702 0.000000
# 2 -0.003034 0.008839 0.005978 0.000000 0.000012 0.000000
# 3 -0.000617 0.005978 0.052895 0.000000 0.013987 0.000000
# 4 0.000000 0.000000 0.000000 0.038536 0.000000 0.005005
# 5 0.002702 0.000012 0.013987 0.000000 0.047376 0.000000
# 6 0.000000 0.000000 0.000000 0.005005 0.000000 0.077211
#
#
# Mechanical properties :
#
#
# Convention : Reuss Voigt Hill
#
# Bulk Modulus (GPa) = 13.49545 43.43848 28.46697
# Shear Modulus (GPa) = 19.79304 31.37033 25.58168
#
# Velocity S-wave (km/s) = 3.16874 3.98923 3.60242
# Velocity P-wave (km/s) = 4.49822 6.57683 5.63421
#
# Compressibility (1/GPa) = 0.07409903
#
# Stress axis : x y z
#
# Youngs Moduli (GPa) = 129.67488 113.13621 18.90545
#
# Poissons Ratio (x) = 0.34328 0.01166
# Poissons Ratio (y) = 0.39346 -0.11301
# Poissons Ratio (z) = 0.07997 -0.67631
#
# Static dielectric constant tensor:
#      x y z
#    x 1.683750 0.000000 0.012830 
#    y 0.000000 1.731930 0.000000 
#    z 0.012830 0.000000 1.717050 
# 
# From -- ./inp_files/96545.got.cif
#   From: 2010.05.17/outbox.ucp.g08.bks.cvg/sg15_49_cif.got.tgz:96545.got - 2010.06.11 12:40:34.
