data_PCOD9309629
_publ_section_title
;
Structure prediction by ZEFSAII (Michael W. Deem and Ramdas Pophale) SiO2 
 PCOD9309629
Probable space group: C 2/C
;
_chemical_formula_sum "Si O2"
_cell_formula_units_Z 30
_cell_length_a 12.000000
_cell_length_b 9.000000
_cell_length_c 27.000000
_cell_angle_alpha 90.000000
_cell_angle_beta 90.000000
_cell_angle_gamma 90.000000
_cell_volume 2916.000000
_symmetry_space_group_name_H-M "C 2/C"
_symmetry_group_IT_number 15
_symmetry_cell_setting 'monoclinic'
loop_
_space_group_symop_operation_xyz
x,y,z
-x,y,1/2-z
-x,-y,-z
x,-y,1/2+z
1/2+x,1/2+y,z
1/2-x,1/2+y,1/2-z
1/2-x,1/2-y,-z
1/2+x,1/2-y,1/2+z
loop_
_atom_site_type_symbol
_atom_site_label
_atom_site_fract_x
_atom_site_fract_y
_atom_site_fract_z
Si Si1 0.216278 0.085074 0.486047
Si Si2 0.471594 0.314499 0.586204
Si Si3 0.454121 0.986828 0.945392
Si Si4 0.000000 0.079016 0.750000
Si Si5 0.127180 0.726477 0.174617
Si Si6 0.692106 0.497350 0.100374
Si Si7 0.840494 0.970728 0.664885
Si Si8 0.401627 0.801261 0.624918
O O1 0.250000 0.250000 0.500000
O O2 0.096013 0.106317 0.459438
O O3 0.318638 0.027100 0.450777
O O4 0.213818 0.011930 0.540668
O O5 0.580006 0.406245 0.601781
O O6 0.384812 0.339258 0.630013
O O7 0.506860 0.142941 0.579007
O O8 0.522300 0.844997 0.923305
O O9 0.500000 0.000000 0.000000
O O10 0.902353 0.175120 0.777133
O O11 0.928328 0.987174 0.709896
O O12 0.216620 0.591519 0.178654
O O13 0.001459 0.668089 0.163571
O O14 0.165646 0.844266 0.130862
O O15 0.796731 0.587217 0.123463
O O16 0.856107 0.132257 0.635933
#
# Coordination Sequence:
#
# PCOD9309629 Si02
#       8
#     8   8   8   4   8   8   8   8
#     4  12  24  41  66  97 146 201 242 293 342 409
#     4  12  26  42  68 104 145 197 241 289 360 419
#     4  12  24  42  65 100 149 192 247 288 336 413
#     4  10  24  50  76 112 134 170 238 306 376 440
#     4  11  25  49  77 103 144 183 232 303 366 432
#     4  12  25  43  68 103 148 191 245 292 348 427
#     4  11  25  50  79 104 142 191 232 303 372 426
#     4  11  24  44  69 102 145 189 239 290 346 420
#
# _framework density 10.288066000000001
#
# number of rings (size 3 to 8) (size 9 to 14) (size 15 to 20)
#    0.000    0.533    5.333    3.600    3.733    3.733 
#    0.000    0.000    0.000    0.800    0.000    0.000 
#    0.000    0.000    0.000    0.000    0.000    0.000 
#
# Total GULP energy -167221.222805 kJ/mol
# GULP energy per Si atom -5574.040760 kJ/mol
# Density = 1.026465 g / cm^3
# Si number density = 10.288066 Si / 1000 Ang^3
#
#
#
# Elastic Constant Matrix: (Units=GPa)
#
#
# Indices 1 2 3 4 5 6 
#
# 1 157.7976 57.2087 17.2413 0.0000 2.5720 0.0000
# 2 57.2087 102.8930 31.6056 0.0000 3.8771 0.0000
# 3 17.2413 31.6056 79.6897 0.0000 0.1505 0.0000
# 4 0.0000 0.0000 0.0000 29.4167 0.0000 -9.0516
# 5 2.5720 3.8771 0.1505 0.0000 37.3573 0.0000
# 6 0.0000 0.0000 0.0000 -9.0516 0.0000 60.4721
#
#
#
# Elastic Compliance Matrix: (Units=1/GPa)
#
#
# Indices 1 2 3 4 5 6 
#
# 1 0.007938 -0.004421 0.000036 0.000000 -0.000088 0.000000
# 2 -0.004421 0.013578 -0.004426 0.000000 -0.001087 0.000000
# 3 0.000036 -0.004426 0.014296 0.000000 0.000399 0.000000
# 4 0.000000 0.000000 0.000000 0.035636 0.000000 0.005334
# 5 -0.000088 -0.001087 0.000399 0.000000 0.026886 0.000000
# 6 0.000000 0.000000 0.000000 0.005334 0.000000 0.017335
#
#
# Mechanical properties :
#
#
# Convention : Reuss Voigt Hill
#
# Bulk Modulus (GPa) = 54.98045 61.38795 58.18420
# Shear Modulus (GPa) = 35.88025 41.07086 38.47556
#
# Velocity S-wave (km/s) = 4.18039 4.47256 4.32894
# Velocity P-wave (km/s) = 7.07668 7.52137 7.30241
#
# Compressibility (1/GPa) = 0.01818828
#
# Stress axis : x y z
#
# Youngs Moduli (GPa) = 125.98329 73.65065 69.95155
#
# Poissons Ratio (x) = 0.32562 -0.00254
# Poissons Ratio (y) = 0.55699 0.30963
# Poissons Ratio (z) = -0.00457 0.32601
#
# Static dielectric constant tensor:
#      x y z
#    x 1.768160 0.000000 0.018360 
#    y 0.000000 1.655370 0.000000 
#    z 0.018360 0.000000 1.672470 
# 
# From -- ./inp_files/291585.got.cif
#   From: 2010.05.17/outbox.ucp.g08.bks.cvg/sg15_146_cif.got.tgz:291585.got - 2010.06.11 12:40:34.
