data_PCOD9309075
_publ_section_title
;
Structure prediction by ZEFSAII (Michael W. Deem and Ramdas Pophale) SiO2 
 PCOD9309075
Probable space group: C 2/C
;
_chemical_formula_sum "Si O2"
_cell_formula_units_Z 30
_cell_length_a 27.000000
_cell_length_b 9.000000
_cell_length_c 24.000000
_cell_angle_alpha 90.000000
_cell_angle_beta 30.000000
_cell_angle_gamma 90.000000
_cell_volume 2916.000000
_symmetry_space_group_name_H-M "C 2/C"
_symmetry_group_IT_number 15
_symmetry_cell_setting 'monoclinic'
loop_
_space_group_symop_operation_xyz
x,y,z
-x,y,1/2-z
-x,-y,-z
x,-y,1/2+z
1/2+x,1/2+y,z
1/2-x,1/2+y,1/2-z
1/2-x,1/2-y,-z
1/2+x,1/2-y,1/2+z
loop_
_atom_site_type_symbol
_atom_site_label
_atom_site_fract_x
_atom_site_fract_y
_atom_site_fract_z
Si Si1 0.725453 0.884817 0.565047
Si Si2 0.888786 0.482854 0.581764
Si Si3 0.896412 0.953633 0.487609
Si Si4 0.199361 0.092963 0.097013
Si Si5 0.000000 0.740348 0.750000
Si Si6 0.239044 0.217596 0.298562
Si Si7 0.110328 0.813799 0.251353
Si Si8 0.390877 0.197759 0.967195
O O1 0.750000 0.750000 0.500000
O O2 0.817506 0.905553 0.517228
O O3 0.627875 0.829973 0.693624
O O4 0.731330 0.029843 0.520596
O O5 0.830862 0.639920 0.646146
O O6 0.811371 0.361970 0.683446
O O7 0.903285 0.423907 0.504125
O O8 0.000000 0.500000 0.500000
O O9 0.838250 0.903053 0.600100
O O10 0.999345 0.863304 0.377058
O O11 0.912355 0.132161 0.466813
O O12 0.099071 0.166686 0.170841
O O13 0.159208 0.954400 0.172217
O O14 0.275695 0.189184 0.059362
O O15 0.962724 0.665490 0.844102
O O16 0.318802 0.276144 0.266057
#
# Coordination Sequence:
#
# PCOD9309075 Si02
#       8
#     8   8   8   8   4   8   8   8
#     4   9  20  35  63  97 140 190 230 294 348 433
#     4  12  28  52  78 109 148 195 260 317 382 448
#     4  11  22  42  70 105 143 193 242 295 377 442
#     4  11  20  43  63 100 146 185 242 291 360 439
#     4  12  24  40  70 106 150 194 236 292 372 466
#     4  11  25  48  74 107 143 186 244 321 364 445
#     4  10  20  41  70  97 141 186 239 292 367 438
#     4  12  26  44  72 104 149 195 243 308 368 451
#
# _framework density 10.288066000000001
#
# number of rings (size 3 to 8) (size 9 to 14) (size 15 to 20)
#    0.000    1.067    4.000    2.000    0.000    4.800 
#    4.800    2.667    0.000    0.000    0.000    0.000 
#    0.000    0.000    0.000    0.000    0.000    0.000 
#
# Total GULP energy -167448.963837 kJ/mol
# GULP energy per Si atom -5581.632128 kJ/mol
# Density = 1.026465 g / cm^3
# Si number density = 10.288066 Si / 1000 Ang^3
#
#
#
# Elastic Constant Matrix: (Units=GPa)
#
#
# Indices 1 2 3 4 5 6 
#
# 1 76.2754 35.1164 40.4696 0.0005 -1.3695 -0.0004
# 2 35.1164 73.9254 48.4173 0.0006 -4.1144 -0.0003
# 3 40.4696 48.4173 161.9781 -0.0005 5.0803 0.0006
# 4 0.0005 0.0006 -0.0005 44.4227 -0.0004 0.0510
# 5 -1.3695 -4.1144 5.0803 -0.0004 40.1590 0.0002
# 6 -0.0004 -0.0003 0.0006 0.0510 0.0002 38.3896
#
#
#
# Elastic Compliance Matrix: (Units=1/GPa)
#
#
# Indices 1 2 3 4 5 6 
#
# 1 0.017468 -0.006744 -0.002355 0.000000 0.000203 0.000000
# 2 -0.006744 0.019651 -0.004262 0.000000 0.002322 0.000000
# 3 -0.002355 -0.004262 0.008084 0.000000 -0.001540 0.000000
# 4 0.000000 0.000000 0.000000 0.022511 0.000000 -0.000030
# 5 0.000203 0.002322 -0.001540 0.000000 0.025341 0.000000
# 6 0.000000 0.000000 0.000000 -0.000030 0.000000 0.026049
#
#
# Mechanical properties :
#
#
# Convention : Reuss Voigt Hill
#
# Bulk Modulus (GPa) = 54.10658 62.24284 58.17471
# Shear Modulus (GPa) = 32.89745 37.13930 35.01837
#
# Velocity S-wave (km/s) = 4.00286 4.25310 4.12988
# Velocity P-wave (km/s) = 6.90773 7.37795 7.14671
#
# Compressibility (1/GPa) = 0.01848204
#
# Stress axis : x y z
#
# Youngs Moduli (GPa) = 57.24593 50.88674 123.69779
#
# Poissons Ratio (x) = 0.34320 0.29128
# Poissons Ratio (y) = 0.38609 0.52718
# Poissons Ratio (z) = 0.13480 0.21687
#
# Static dielectric constant tensor:
#      x y z
#    x 1.756320 0.000000 0.057330 
#    y 0.000000 1.763120 0.000000 
#    z 0.057330 0.000000 1.728350 
# 
# From -- ./inp_files/283366.got.cif
#   From: 2010.05.17/outbox.ucp.g08.bks.cvg/sg15_142_cif.got.tgz:283366.got - 2010.06.11 12:40:34.
