data_PCOD9309377
_publ_section_title
;
Structure prediction by ZEFSAII (Michael W. Deem and Ramdas Pophale) SiO2 
 PCOD9309377
Probable space group: C 2/C
;
_chemical_formula_sum "Si O2"
_cell_formula_units_Z 28
_cell_length_a 9.000000
_cell_length_b 27.000000
_cell_length_c 15.000000
_cell_angle_alpha 90.000000
_cell_angle_beta 120.000000
_cell_angle_gamma 90.000000
_cell_volume 3156.662597
_symmetry_space_group_name_H-M "C 2/C"
_symmetry_group_IT_number 15
_symmetry_cell_setting 'monoclinic'
loop_
_space_group_symop_operation_xyz
x,y,z
-x,y,1/2-z
-x,-y,-z
x,-y,1/2+z
1/2+x,1/2+y,z
1/2-x,1/2+y,1/2-z
1/2-x,1/2-y,-z
1/2+x,1/2-y,1/2+z
loop_
_atom_site_type_symbol
_atom_site_label
_atom_site_fract_x
_atom_site_fract_y
_atom_site_fract_z
Si Si1 0.724847 0.833983 0.678009
Si Si2 0.194206 0.437588 0.772924
Si Si3 0.940222 0.905215 0.009334
Si Si4 0.488554 0.686868 0.093723
Si Si5 0.654113 0.543498 0.724164
Si Si6 0.809169 0.862761 0.154879
Si Si7 0.592720 0.777765 0.006513
O O1 0.711570 0.892349 0.705222
O O2 0.832838 0.812621 0.795153
O O3 0.542128 0.807384 0.599187
O O4 0.842714 0.823785 0.625193
O O5 0.321192 0.429124 0.896405
O O6 0.241061 0.492422 0.750425
O O7 0.000000 0.436086 0.750000
O O8 0.018383 0.858341 0.979419
O O9 0.833556 0.884439 0.062101
O O10 0.075337 0.940502 0.103543
O O11 0.490715 0.736786 0.034871
O O12 0.500000 0.535197 0.750000
O O13 0.745590 0.592351 0.794899
O O14 0.681598 0.817131 0.101002
O O15 0.000000 0.848105 0.250000
O O16 0.750000 0.750000 0.000000
#
# Coordination Sequence:
#
# PCOD9309377 Si02
#       7
#     8   8   8   8   8   8   8
#     4  10  25  41  58  95 123 157 204 262 299 367
#     4  11  22  38  63  90 123 151 207 258 311 353
#     4   9  18  38  61  88 118 165 201 239 295 384
#     4  10  22  40  64  86 128 160 207 246 306 359
#     4   9  21  39  63  85 123 161 202 242 312 367
#     4   9  20  39  58  93 123 155 206 252 296 370
#     4  12  23  37  66  89 122 166 207 249 313 361
#
# _framework density 8.8701279999999993
#
# number of rings (size 3 to 8) (size 9 to 14) (size 15 to 20)
#    0.000    2.286    1.429    1.714    8.000    0.000 
#    2.571    3.571    0.000    0.000    0.000    0.000 
#    0.000    0.000    0.000    0.000    0.000    0.000 
#
# Total GULP energy -155966.724019 kJ/mol
# GULP energy per Si atom -5570.240144 kJ/mol
# Density = 0.884994 g / cm^3
# Si number density = 8.870128 Si / 1000 Ang^3
#
#
#
# Elastic Constant Matrix: (Units=GPa)
#
#
# Indices 1 2 3 4 5 6 
#
# 1 68.4940 50.1765 33.2256 0.0000 -3.6927 0.0000
# 2 50.1765 142.3934 58.2134 0.0000 2.7407 0.0000
# 3 33.2256 58.2134 119.9307 0.0000 -1.8482 0.0000
# 4 0.0000 0.0000 0.0000 42.0935 0.0000 0.1561
# 5 -3.6927 2.7407 -1.8482 0.0000 32.5917 0.0000
# 6 0.0000 0.0000 0.0000 0.1561 0.0000 28.7450
#
#
#
# Elastic Compliance Matrix: (Units=1/GPa)
#
#
# Indices 1 2 3 4 5 6 
#
# 1 0.020588 -0.006228 -0.002639 0.000000 0.002707 0.000000
# 2 -0.006228 0.010677 -0.003485 0.000000 -0.001801 0.000000
# 3 -0.002639 -0.003485 0.010770 0.000000 0.000605 0.000000
# 4 0.000000 0.000000 0.000000 0.023757 0.000000 -0.000129
# 5 0.002707 -0.001801 0.000605 0.000000 0.031175 0.000000
# 6 0.000000 0.000000 0.000000 -0.000129 0.000000 0.034789
#
#
# Mechanical properties :
#
#
# Convention : Reuss Voigt Hill
#
# Bulk Modulus (GPa) = 57.69854 68.22769 62.96311
# Shear Modulus (GPa) = 30.81896 33.29955 32.05926
#
# Velocity S-wave (km/s) = 4.17253 4.33721 4.25567
# Velocity P-wave (km/s) = 7.47048 7.97650 7.72763
#
# Compressibility (1/GPa) = 0.01733146
#
# Stress axis : x y z
#
# Youngs Moduli (GPa) = 48.57091 93.66139 92.85019
#
# Poissons Ratio (x) = 0.58334 0.24503
# Poissons Ratio (y) = 0.30251 0.32356
# Poissons Ratio (z) = 0.12818 0.32638
#
# Static dielectric constant tensor:
#      x y z
#    x 1.619930 0.000000 0.016930 
#    y 0.000000 1.639230 0.000000 
#    z 0.016930 0.000000 1.597750 
# 
# From -- ./inp_files/138688.got.cif
#   From: 2010.05.17/outbox.ucp.g08.bks.cvg/sg15_70_cif.got.tgz:138688.got - 2010.06.11 12:40:34.
