data_PCOD9309785
_publ_section_title
;
Structure prediction by ZEFSAII (Michael W. Deem and Ramdas Pophale) SiO2 
 PCOD9309785
Probable space group: C 2/C
;
_chemical_formula_sum "Si O2"
_cell_formula_units_Z 24
_cell_length_a 9.000000
_cell_length_b 18.000000
_cell_length_c 30.000000
_cell_angle_alpha 90.000000
_cell_angle_beta 30.000000
_cell_angle_gamma 90.000000
_cell_volume 2430.000000
_symmetry_space_group_name_H-M "C 2/C"
_symmetry_group_IT_number 15
_symmetry_cell_setting 'monoclinic'
loop_
_space_group_symop_operation_xyz
x,y,z
-x,y,1/2-z
-x,-y,-z
x,-y,1/2+z
1/2+x,1/2+y,z
1/2-x,1/2+y,1/2-z
1/2-x,1/2-y,-z
1/2+x,1/2-y,1/2+z
loop_
_atom_site_type_symbol
_atom_site_label
_atom_site_fract_x
_atom_site_fract_y
_atom_site_fract_z
Si Si1 0.643982 0.186143 0.428426
Si Si2 0.372318 0.360427 0.073904
Si Si3 0.478895 0.099621 0.379512
Si Si4 0.547781 0.360566 0.130240
Si Si5 0.753511 0.560167 0.717647
Si Si6 0.149983 0.284515 0.759665
O O1 0.555722 0.273352 0.452759
O O2 0.601706 0.143658 0.391744
O O3 0.403711 0.148762 0.525745
O O4 0.002489 0.194425 0.339932
O O5 0.398180 0.365656 0.120576
O O6 0.048621 0.388647 0.143010
O O7 0.630108 0.407095 0.982395
O O8 0.522687 0.150580 0.324583
O O9 0.638708 0.021258 0.327012
O O10 0.426092 0.432108 0.189021
O O11 0.423283 0.290063 0.191639
O O12 0.500000 0.588195 0.750000
O O13 0.000000 0.278791 0.750000
#
# Coordination Sequence:
#
# PCOD9309785 Si02
#       6
#     8   8   8   8   8   8
#     4  11  22  43  73  98 133 184 241 284 327 418
#     4  11  22  43  75  97 130 185 244 279 332 420
#     4  11  24  47  67  99 138 187 229 283 346 412
#     4  11  23  42  66 101 130 178 236 274 341 404
#     4  12  26  42  65 103 146 177 218 295 358 398
#     4  12  24  38  66 104 138 176 226 290 344 403
#
# _framework density 9.8765429999999999
#
# number of rings (size 3 to 8) (size 9 to 14) (size 15 to 20)
#    0.000    0.667    5.000    4.000    0.000    3.333 
#    0.000    7.500    0.000    0.000    0.000    0.000 
#    0.000    0.000    0.000    0.000    0.000    0.000 
#
# Total GULP energy -133890.521027 kJ/mol
# GULP energy per Si atom -5578.771709 kJ/mol
# Density = 0.985406 g / cm^3
# Si number density = 9.876543 Si / 1000 Ang^3
#
#
#
# Elastic Constant Matrix: (Units=GPa)
#
#
# Indices 1 2 3 4 5 6 
#
# 1 103.0590 35.6275 82.0998 0.0574 -18.1981 -0.0002
# 2 35.6275 96.1666 50.0478 -0.0185 7.8659 -0.0013
# 3 82.0998 50.0478 192.1129 -0.1711 -4.1453 0.0127
# 4 0.0574 -0.0185 -0.1711 54.1980 0.0722 8.8008
# 5 -18.1981 7.8659 -4.1453 0.0722 32.3073 0.0106
# 6 -0.0002 -0.0013 0.0127 8.8008 0.0106 23.3782
#
#
#
# Elastic Compliance Matrix: (Units=1/GPa)
#
#
# Indices 1 2 3 4 5 6 
#
# 1 0.018111 -0.004222 -0.006415 -0.000058 0.010407 0.000020
# 2 -0.004222 0.013384 -0.001809 0.000011 -0.005869 0.000000
# 3 -0.006415 -0.001809 0.008373 0.000038 -0.002099 -0.000018
# 4 -0.000058 0.000011 0.000038 0.019652 -0.000072 -0.007398
# 5 0.010407 -0.005869 -0.002099 -0.000072 0.037974 0.000011
# 6 0.000020 0.000000 -0.000018 -0.007398 0.000011 0.045560
#
#
# Mechanical properties :
#
#
# Convention : Reuss Voigt Hill
#
# Bulk Modulus (GPa) = 66.77741 80.76540 73.77141
# Shear Modulus (GPa) = 28.91172 36.88093 32.89633
#
# Velocity S-wave (km/s) = 3.82993 4.32568 4.08533
# Velocity P-wave (km/s) = 7.31008 8.11942 7.72535
#
# Compressibility (1/GPa) = 0.01497512
#
# Stress axis : x y z
#
# Youngs Moduli (GPa) = 55.21474 74.71382 119.43258
#
# Poissons Ratio (x) = 0.31546 0.76621
# Poissons Ratio (y) = 0.23313 0.21606
# Poissons Ratio (z) = 0.35422 0.13516
#
# Static dielectric constant tensor:
#      x y z
#    x 1.719340 -0.000020 -0.024510 
#    y -0.000020 1.727530 0.000000 
#    z -0.024510 0.000000 1.713970 
# 
# From -- ./inp_files/308695.got.cif
#   From: 2010.05.17/outbox.ucp.g08.bks.cvg/sg15_155_cif.got.tgz:308695.got - 2010.06.11 12:40:34.
