data_PCOD9309104
_publ_section_title
;
Structure prediction by ZEFSAII (Michael W. Deem and Ramdas Pophale) SiO2 
 PCOD9309104
Probable space group: C 2/C
;
_chemical_formula_sum "Si O2"
_cell_formula_units_Z 28
_cell_length_a 24.000000
_cell_length_b 15.000000
_cell_length_c 9.000000
_cell_angle_alpha 90.000000
_cell_angle_beta 120.000000
_cell_angle_gamma 90.000000
_cell_volume 2805.922308
_symmetry_space_group_name_H-M "C 2/C"
_symmetry_group_IT_number 15
_symmetry_cell_setting 'monoclinic'
loop_
_space_group_symop_operation_xyz
x,y,z
-x,y,1/2-z
-x,-y,-z
x,-y,1/2+z
1/2+x,1/2+y,z
1/2-x,1/2+y,1/2-z
1/2-x,1/2-y,-z
1/2+x,1/2-y,1/2+z
loop_
_atom_site_type_symbol
_atom_site_label
_atom_site_fract_x
_atom_site_fract_y
_atom_site_fract_z
Si Si1 0.218265 0.656479 0.996887
Si Si2 0.892450 0.897453 0.208131
Si Si3 0.955873 0.958903 0.572526
Si Si4 0.856328 0.406985 0.835885
Si Si5 0.842454 0.597142 0.871250
Si Si6 0.429956 0.197921 0.208840
Si Si7 0.744935 0.539661 0.957449
O O1 0.164734 0.632998 0.802858
O O2 0.250000 0.750000 0.000000
O O3 0.182127 0.655992 0.104579
O O4 0.263523 0.567484 0.062169
O O5 0.902155 0.914843 0.397619
O O6 0.922586 0.802365 0.219629
O O7 0.817411 0.908180 0.076318
O O8 0.925864 0.966583 0.139696
O O9 0.000000 0.904638 0.750000
O O10 0.000000 0.000000 0.500000
O O11 0.876596 0.501066 0.933986
O O12 0.912722 0.354250 0.834719
O O13 0.804418 0.438906 0.644256
O O14 0.770458 0.576792 0.834700
O O15 0.877966 0.668029 0.018595
O O16 0.500000 0.173734 0.250000
#
# Coordination Sequence:
#
# PCOD9309104 Si02
#       7
#     8   8   8   8   8   8   8
#     4  10  21  34  59  92 126 149 200 251 305 371
#     4  11  23  36  64  90 121 165 213 249 304 377
#     4   9  20  39  55  79 124 167 202 249 292 349
#     4   9  21  41  59  86 125 155 196 263 311 372
#     4   9  21  41  60  85 125 154 195 263 312 371
#     4  11  24  41  64  88 118 167 220 252 302 376
#     4   9  21  37  58  86 124 161 194 243 324 369
#
# _framework density 9.9788940000000004
#
# number of rings (size 3 to 8) (size 9 to 14) (size 15 to 20)
#    0.000    2.286    0.000    2.143   10.000    1.714 
#    0.000    3.571    0.000    0.000    0.000    0.000 
#    0.000    0.000    0.000    0.000    0.000    0.000 
#
# Total GULP energy -155888.484641 kJ/mol
# GULP energy per Si atom -5567.445880 kJ/mol
# Density = 0.995618 g / cm^3
# Si number density = 9.978894 Si / 1000 Ang^3
#
#
#
# Elastic Constant Matrix: (Units=GPa)
#
#
# Indices 1 2 3 4 5 6 
#
# 1 94.6150 39.2075 11.6089 0.0000 -23.7457 0.0000
# 2 39.2075 66.9326 21.6654 0.0000 -6.6643 0.0000
# 3 11.6089 21.6654 55.9858 0.0000 -20.1291 0.0000
# 4 0.0000 0.0000 0.0000 -80.4262 0.0000 3.1511
# 5 -23.7457 -6.6643 -20.1291 0.0000 7.9257 0.0000
# 6 0.0000 0.0000 0.0000 3.1511 0.0000 17.3859
#
#
#
# Elastic Compliance Matrix: (Units=1/GPa)
#
#
# Indices 1 2 3 4 5 6 
#
# 1 -0.001843 0.002168 -0.020566 0.000000 -0.055931 0.000000
# 2 0.002168 0.015084 0.007004 0.000000 0.036967 0.000000
# 3 -0.020566 0.007004 -0.007145 0.000000 -0.073873 0.000000
# 4 0.000000 0.000000 0.000000 -0.012346 0.000000 0.002238
# 5 -0.055931 0.036967 -0.073873 0.000000 -0.197933 0.000000
# 6 0.000000 0.000000 0.000000 0.002238 0.000000 0.057112
#
#
# Mechanical properties :
#
#
# Convention : Reuss Voigt Hill
#
# Bulk Modulus (GPa) = -59.91107 40.27744 -9.81681
# Shear Modulus (GPa) = -38.50701 -1.35284 -19.92992
#
# Velocity S-wave (km/s) = -4.39728 -0.82421 -3.16350
# Velocity P-wave (km/s) = 7.47433 4.39538 4.27470
#
# Compressibility (1/GPa) = -0.01669141
#
# Stress axis : x y z
#
# Youngs Moduli (GPa) = -542.68395 66.29489 -139.96033
#
# Poissons Ratio (x) = -0.14370 -2.87843
# Poissons Ratio (y) = 1.17632 0.98035
# Poissons Ratio (z) = -11.16085 -0.46436
#
# Static dielectric constant tensor:
#      x y z
#    x 1.746270 0.000000 0.010480 
#    y 0.000000 1.719970 0.000000 
#    z 0.010480 0.000000 1.756780 
# 
# From -- ./inp_files/61988.got.cif
#   From: 2010.05.17/outbox.ucp.g08.bks.cvg/sg15_31_cif.got.tgz:61988.got - 2010.06.11 12:40:34.
