data_PCOD9309202
_publ_section_title
;
Structure prediction by ZEFSAII (Michael W. Deem and Ramdas Pophale) SiO2 
 PCOD9309202
Probable space group: C 2/C
;
_chemical_formula_sum "Si O2"
_cell_formula_units_Z 24
_cell_length_a 21.000000
_cell_length_b 27.000000
_cell_length_c 12.000000
_cell_angle_alpha 90.000000
_cell_angle_beta 160.000000
_cell_angle_gamma 90.000000
_cell_volume 2327.105055
_symmetry_space_group_name_H-M "C 2/C"
_symmetry_group_IT_number 15
_symmetry_cell_setting 'monoclinic'
loop_
_space_group_symop_operation_xyz
x,y,z
-x,y,1/2-z
-x,-y,-z
x,-y,1/2+z
1/2+x,1/2+y,z
1/2-x,1/2+y,1/2-z
1/2-x,1/2-y,-z
1/2+x,1/2-y,1/2+z
loop_
_atom_site_type_symbol
_atom_site_label
_atom_site_fract_x
_atom_site_fract_y
_atom_site_fract_z
Si Si1 0.957206 0.229908 0.809264
Si Si2 0.013737 0.152698 0.098306
Si Si3 0.873357 0.490096 0.935874
Si Si4 0.413851 0.549972 0.904052
Si Si5 0.821278 0.669569 0.781764
Si Si6 0.387316 0.920834 0.768715
O O1 0.750000 0.250000 0.500000
O O2 0.000000 0.216560 0.750000
O O3 0.998110 0.183686 0.958710
O O4 0.086318 0.277522 0.044923
O O5 0.181877 0.173946 0.448332
O O6 0.055554 0.093702 0.163988
O O7 0.817023 0.156417 0.842466
O O8 0.702365 0.525795 0.687320
O O9 0.823766 0.440465 0.785923
O O10 0.000000 0.475243 0.250000
O O11 0.997272 0.531339 0.079397
O O12 0.281386 0.577807 0.596423
O O13 0.500000 0.500000 0.000000
O O14 0.982143 0.627720 0.026784
#
# Coordination Sequence:
#
# PCOD9309202 Si02
#       6
#     8   8   8   8   8   8
#     4  12  25  48  78 104 139 180 237 292 358 425
#     4  11  25  45  69 106 139 179 236 286 353 420
#     4   9  20  37  61  90 129 173 225 274 328 396
#     4  11  24  40  64  95 138 179 229 281 338 409
#     4  11  24  44  75 100 138 184 227 292 353 421
#     4  10  21  39  66  93 129 174 230 271 338 403
#
# _framework density 10.313243
#
# number of rings (size 3 to 8) (size 9 to 14) (size 15 to 20)
#    0.000    1.333    3.333    1.500    7.000    0.667 
#    6.000    0.000    0.000    0.000    0.000    0.000 
#    0.000    0.000    0.000    0.000    0.000    0.000 
#
# Total GULP energy -133818.906325 kJ/mol
# GULP energy per Si atom -5575.787764 kJ/mol
# Density = 1.028977 g / cm^3
# Si number density = 10.313243 Si / 1000 Ang^3
#
#
#
# Elastic Constant Matrix: (Units=GPa)
#
#
# Indices 1 2 3 4 5 6 
#
# 1 102.6759 41.7953 31.3095 0.0000 -24.5674 0.0000
# 2 41.7953 86.3785 37.5708 0.0000 -17.8836 0.0000
# 3 31.3095 37.5708 57.0919 0.0000 -3.1621 0.0000
# 4 0.0000 0.0000 0.0000 42.6038 0.0000 -2.7203
# 5 -24.5674 -17.8836 -3.1621 0.0000 9.8674 0.0000
# 6 0.0000 0.0000 0.0000 -2.7203 0.0000 40.7217
#
#
#
# Elastic Compliance Matrix: (Units=1/GPa)
#
#
# Indices 1 2 3 4 5 6 
#
# 1 0.040737 0.018204 -0.027361 0.000000 0.125650 0.000000
# 2 0.018204 0.035999 -0.028047 0.000000 0.101579 0.000000
# 3 -0.027361 -0.028047 0.045191 0.000000 -0.104472 0.000000
# 4 0.000000 0.000000 0.000000 0.023573 0.000000 0.001575
# 5 0.125650 0.101579 -0.104472 0.000000 0.564806 0.000000
# 6 0.000000 0.000000 0.000000 0.001575 0.000000 0.024662
#
#
# Mechanical properties :
#
#
# Convention : Reuss Voigt Hill
#
# Bulk Modulus (GPa) = 21.04407 51.94417 36.49412
# Shear Modulus (GPa) = 6.05903 27.66996 16.86450
#
# Velocity S-wave (km/s) = 1.71577 3.66659 2.86250
# Velocity P-wave (km/s) = 3.76162 6.56986 5.35317
#
# Compressibility (1/GPa) = 0.04751933
#
# Stress axis : x y z
#
# Youngs Moduli (GPa) = 24.54763 27.77887 22.12825
#
# Poissons Ratio (x) = -0.50568 0.60544
# Poissons Ratio (y) = -0.44686 0.62063
# Poissons Ratio (z) = 0.67164 0.77911
#
# Static dielectric constant tensor:
#      x y z
#    x 2.213030 0.000000 0.112920 
#    y 0.000000 1.689360 0.000000 
#    z 0.112920 0.000000 1.884820 
# 
# From -- ./inp_files/115069.got.cif
#   From: 2010.05.17/outbox.ucp.g08.bks.cvg/sg15_58_cif.got.tgz:115069.got - 2010.06.11 12:40:34.
