data_PCOD9309462
_publ_section_title
;
Structure prediction by ZEFSAII (Michael W. Deem and Ramdas Pophale) SiO2 
 PCOD9309462
Probable space group: C 2/C
;
_chemical_formula_sum "Si O2"
_cell_formula_units_Z 24
_cell_length_a 15.000000
_cell_length_b 15.000000
_cell_length_c 30.000000
_cell_angle_alpha 90.000000
_cell_angle_beta 160.000000
_cell_angle_gamma 90.000000
_cell_volume 2308.635967
_symmetry_space_group_name_H-M "C 2/C"
_symmetry_group_IT_number 15
_symmetry_cell_setting 'monoclinic'
loop_
_space_group_symop_operation_xyz
x,y,z
-x,y,1/2-z
-x,-y,-z
x,-y,1/2+z
1/2+x,1/2+y,z
1/2-x,1/2+y,1/2-z
1/2-x,1/2-y,-z
1/2+x,1/2-y,1/2+z
loop_
_atom_site_type_symbol
_atom_site_label
_atom_site_fract_x
_atom_site_fract_y
_atom_site_fract_z
Si Si1 0.256586 0.381392 0.901919
Si Si2 0.464072 0.700699 0.678485
Si Si3 0.605685 0.026043 0.500379
Si Si4 0.692524 0.082599 0.883351
Si Si5 0.531711 0.220012 0.651927
Si Si6 0.936772 0.894630 0.774059
O O1 0.257414 0.478910 0.925386
O O2 0.000000 0.384770 0.750000
O O3 0.199148 0.293303 0.904222
O O4 0.527575 0.375225 0.001003
O O5 0.500000 0.693592 0.750000
O O6 0.283444 0.615453 0.582446
O O7 0.734961 0.705133 0.775899
O O8 0.330488 0.047268 0.346587
O O9 0.500000 0.000000 0.500000
O O10 0.811894 0.946460 0.587005
O O11 0.500000 0.084578 0.750000
O O12 0.543811 0.134214 0.853084
O O13 0.605595 0.300860 0.720665
O O14 0.250000 0.250000 0.500000
O O15 0.000000 0.883142 0.750000
#
# Coordination Sequence:
#
# PCOD9309462 Si02
#       6
#     8   8   8   8   8   8
#     4   9  20  41  69  95 133 180 218 273 345 412
#     4  11  24  42  69  97 144 182 232 286 354 428
#     4  10  23  43  74 101 138 186 232 291 363 417
#     4  10  22  43  71  97 133 176 227 284 343 416
#     4  12  27  41  70 106 140 186 236 294 357 417
#     4  10  24  44  72 104 141 185 237 288 358 428
#
# _framework density 10.395749
#
# number of rings (size 3 to 8) (size 9 to 14) (size 15 to 20)
#    0.000    1.667    0.000    4.000   14.000    2.000 
#    0.000    0.000    0.000    0.000    0.000    0.000 
#    0.000    0.000    0.000    0.000    0.000    0.000 
#
# Total GULP energy -133992.013143 kJ/mol
# GULP energy per Si atom -5583.000548 kJ/mol
# Density = 1.037209 g / cm^3
# Si number density = 10.395749 Si / 1000 Ang^3
#
#
#
# Elastic Constant Matrix: (Units=GPa)
#
#
# Indices 1 2 3 4 5 6 
#
# 1 123.3163 53.4088 36.8625 -0.0010 42.4374 0.0003
# 2 53.4088 119.9147 9.0343 0.0000 26.5543 0.0019
# 3 36.8625 9.0343 108.1261 -0.0096 38.3745 -0.0050
# 4 -0.0010 0.0000 -0.0096 42.9653 -0.0101 14.3519
# 5 42.4374 26.5543 38.3745 -0.0101 51.3450 -0.0020
# 6 0.0003 0.0019 -0.0050 14.3519 -0.0020 30.0943
#
#
#
# Elastic Compliance Matrix: (Units=1/GPa)
#
#
# Indices 1 2 3 4 5 6 
#
# 1 0.012816 -0.003936 -0.001366 -0.000002 -0.007536 0.000000
# 2 -0.003936 0.010759 0.001719 0.000000 -0.003596 0.000000
# 3 -0.001366 0.001719 0.012910 0.000000 -0.009409 0.000001
# 4 -0.000002 0.000000 0.000000 0.027685 0.000007 -0.013203
# 5 -0.007536 -0.003596 -0.009409 0.000007 0.034596 -0.000002
# 6 0.000000 0.000000 0.000001 -0.013203 -0.000002 0.039525
#
#
# Mechanical properties :
#
#
# Convention : Reuss Voigt Hill
#
# Bulk Modulus (GPa) = 34.10781 61.10761 47.60771
# Shear Modulus (GPa) = 32.21040 41.68437 36.94738
#
# Velocity S-wave (km/s) = 3.94027 4.48244 4.22007
# Velocity P-wave (km/s) = 6.09436 7.49961 6.83321
#
# Compressibility (1/GPa) = 0.02931880
#
# Stress axis : x y z
#
# Youngs Moduli (GPa) = 78.02959 92.94366 77.46139
#
# Poissons Ratio (x) = 0.36586 0.10579
# Poissons Ratio (y) = 0.30715 -0.13317
# Poissons Ratio (z) = 0.10657 -0.15979
#
# Static dielectric constant tensor:
#      x y z
#    x 1.738800 0.000000 -0.036230 
#    y 0.000000 1.803100 0.000000 
#    z -0.036230 0.000000 1.760700 
# 
# From -- ./inp_files/314158.got.cif
#   From: 2010.05.17/outbox.ucp.g08.bks.cvg/sg15_158_cif.got.tgz:314158.got - 2010.06.11 12:40:34.
