data_PCOD9309165
_publ_section_title
;
Structure prediction by ZEFSAII (Michael W. Deem and Ramdas Pophale) SiO2 
 PCOD9309165
Probable space group: C 2/C
;
_chemical_formula_sum "Si O2"
_cell_formula_units_Z 32
_cell_length_a 15.000000
_cell_length_b 18.000000
_cell_length_c 18.000000
_cell_angle_alpha 90.000000
_cell_angle_beta 40.000000
_cell_angle_gamma 90.000000
_cell_volume 3123.947783
_symmetry_space_group_name_H-M "C 2/C"
_symmetry_group_IT_number 15
_symmetry_cell_setting 'monoclinic'
loop_
_space_group_symop_operation_xyz
x,y,z
-x,y,1/2-z
-x,-y,-z
x,-y,1/2+z
1/2+x,1/2+y,z
1/2-x,1/2+y,1/2-z
1/2-x,1/2-y,-z
1/2+x,1/2-y,1/2+z
loop_
_atom_site_type_symbol
_atom_site_label
_atom_site_fract_x
_atom_site_fract_y
_atom_site_fract_z
Si Si1 0.144530 0.441116 0.698187
Si Si2 0.254134 0.631248 0.883887
Si Si3 0.736749 0.122518 0.288357
Si Si4 0.106797 0.130353 0.546494
Si Si5 0.427057 0.505813 0.221454
Si Si6 0.881710 0.610463 0.765550
Si Si7 0.494618 0.915730 0.477050
Si Si8 0.837721 0.208077 0.679990
O O1 0.148314 0.419803 0.781844
O O2 0.265310 0.392239 0.585833
O O3 0.169038 0.529485 0.674220
O O4 0.000000 0.424789 0.750000
O O5 0.325324 0.651874 0.916530
O O6 0.302653 0.547553 0.830409
O O7 0.090152 0.630223 0.974508
O O8 0.309939 0.681073 0.781762
O O9 0.877232 0.075056 0.204526
O O10 0.661772 0.110986 0.415033
O O11 0.723255 0.209300 0.283526
O O12 0.002823 0.188557 0.572689
O O13 0.021066 0.054164 0.617802
O O14 0.500000 0.532320 0.250000
O O15 0.952834 0.595777 0.639827
O O16 0.750812 0.661773 0.825163
O O17 0.000000 0.636286 0.750000
O O18 0.500000 0.000000 0.500000
#
# Coordination Sequence:
#
# PCOD9309165 Si02
#       8
#     8   8   8   8   8   8   8   8
#     4  11  23  38  62  93 119 153 210 268 309 373
#     4   9  18  38  62  85 117 159 206 253 312 371
#     4  12  23  37  59  90 122 159 217 250 299 382
#     4  10  21  38  63  89 123 162 205 259 329 367
#     4   9  19  35  59  87 111 153 209 263 295 356
#     4  10  23  41  62  89 124 160 203 262 316 358
#     4  11  19  37  65  87 115 158 208 255 307 362
#     4  10  23  40  57  87 129 170 196 251 317 376
#
# _framework density 10.243449
#
# number of rings (size 3 to 8) (size 9 to 14) (size 15 to 20)
#    0.000    1.750    2.500    3.375    1.750    5.500 
#    0.000    2.500    0.000    0.000    0.000    0.000 
#    0.000    0.000    0.000    0.000    0.000    0.000 
#
# Total GULP energy -178323.095799 kJ/mol
# GULP energy per Si atom -5572.596744 kJ/mol
# Density = 1.022013 g / cm^3
# Si number density = 10.243449 Si / 1000 Ang^3
#
#
#
# Elastic Constant Matrix: (Units=GPa)
#
#
# Indices 1 2 3 4 5 6 
#
# 1 122.7361 41.5050 9.1578 -0.0001 6.5971 0.0001
# 2 41.5050 91.1807 -0.7665 -0.0001 1.0401 0.0001
# 3 9.1578 -0.7665 40.9919 -0.0002 -0.0997 0.0001
# 4 -0.0001 -0.0001 -0.0002 0.5918 0.0001 -0.6370
# 5 6.5971 1.0401 -0.0997 0.0001 15.5986 -0.0001
# 6 0.0001 0.0001 0.0001 -0.6370 -0.0001 16.1243
#
#
#
# Elastic Compliance Matrix: (Units=1/GPa)
#
#
# Indices 1 2 3 4 5 6 
#
# 1 0.010079 -0.004562 -0.002347 0.000002 -0.003974 0.000000
# 2 -0.004562 0.013042 0.001266 0.000001 0.001068 0.000000
# 3 -0.002347 0.001266 0.024946 0.000007 0.001067 0.000000
# 4 0.000002 0.000001 0.000007 1.764956 -0.000016 0.069730
# 5 -0.003974 0.001068 0.001067 -0.000016 0.065724 0.000000
# 6 0.000000 0.000000 0.000000 0.069730 0.000000 0.064773
#
#
# Mechanical properties :
#
#
# Convention : Reuss Voigt Hill
#
# Bulk Modulus (GPa) = 27.18831 39.41125 33.29978
# Shear Modulus (GPa) = 2.54185 20.13042 11.33614
#
# Velocity S-wave (km/s) = 1.11509 3.13805 2.35486
# Velocity P-wave (km/s) = 3.86753 5.69288 4.86655
#
# Compressibility (1/GPa) = 0.03678051
#
# Stress axis : x y z
#
# Youngs Moduli (GPa) = 99.21561 76.67268 40.08725
#
# Poissons Ratio (x) = 0.34981 0.09407
# Poissons Ratio (y) = 0.45266 -0.05074
# Poissons Ratio (z) = 0.23283 -0.09705
#
# Static dielectric constant tensor:
#      x y z
#    x 1.747650 0.000000 -0.051120 
#    y 0.000000 1.751900 0.000000 
#    z -0.051120 0.000000 1.811250 
# 
# From -- ./inp_files/206457.got.cif
#   From: 2010.05.17/outbox.ucp.g08.bks.cvg/sg15_104_cif.got.tgz:206457.got - 2010.06.11 12:40:34.
