data_PCOD9309680
_publ_section_title
;
Structure prediction by ZEFSAII (Michael W. Deem and Ramdas Pophale) SiO2 
 PCOD9309680
Probable space group: C 2/C
;
_chemical_formula_sum "Si O2"
_cell_formula_units_Z 22
_cell_length_a 9.000000
_cell_length_b 18.000000
_cell_length_c 15.000000
_cell_angle_alpha 90.000000
_cell_angle_beta 60.000000
_cell_angle_gamma 90.000000
_cell_volume 2104.441731
_symmetry_space_group_name_H-M "C 2/C"
_symmetry_group_IT_number 15
_symmetry_cell_setting 'monoclinic'
loop_
_space_group_symop_operation_xyz
x,y,z
-x,y,1/2-z
-x,-y,-z
x,-y,1/2+z
1/2+x,1/2+y,z
1/2-x,1/2+y,1/2-z
1/2-x,1/2-y,-z
1/2+x,1/2-y,1/2+z
loop_
_atom_site_type_symbol
_atom_site_label
_atom_site_fract_x
_atom_site_fract_y
_atom_site_fract_z
Si Si1 0.957845 0.299622 0.111864
Si Si2 0.500000 0.954887 0.750000
Si Si3 0.896754 0.141271 0.370094
Si Si4 0.532549 0.827626 0.894143
Si Si5 0.593699 0.669571 0.806406
Si Si6 0.753714 0.417956 0.412077
O O1 0.785355 0.310123 0.218410
O O2 0.016654 0.213325 0.106952
O O3 0.101017 0.355053 0.110413
O O4 0.925194 0.325470 0.019003
O O5 0.526060 0.896760 0.826152
O O6 0.648459 0.011468 0.664747
O O7 0.722351 0.172298 0.379339
O O8 0.844646 0.080178 0.461467
O O9 0.000000 0.116125 0.250000
O O10 0.503443 0.748196 0.856166
O O11 0.500000 0.633980 0.750000
O O12 0.617655 0.616011 0.883262
#
# Coordination Sequence:
#
# PCOD9309680 Si02
#       6
#     8   4   8   8   8   8
#     4  11  20  40  74 100 131 176 242 282 331 406
#     4  12  26  46  66 100 152 176 224 278 364 410
#     4  11  20  39  74 104 129 175 247 281 326 405
#     4  11  23  39  68 105 134 181 225 284 344 407
#     4  12  22  40  69 106 135 174 236 287 336 401
#     4  11  22  44  71  96 136 189 227 277 342 413
#
# _framework density 10.454079
#
# number of rings (size 3 to 8) (size 9 to 14) (size 15 to 20)
#    0.000    0.727    8.182    1.091    0.000    3.636 
#    3.273    1.818    0.000    0.000    0.000    0.000 
#    0.000    0.000    0.000    0.000    0.000    0.000 
#
# Total GULP energy -122731.306799 kJ/mol
# GULP energy per Si atom -5578.695764 kJ/mol
# Density = 1.043028 g / cm^3
# Si number density = 10.454079 Si / 1000 Ang^3
#
#
#
# Elastic Constant Matrix: (Units=GPa)
#
#
# Indices 1 2 3 4 5 6 
#
# 1 57.0849 15.9885 15.4850 0.0000 30.7074 0.0000
# 2 15.9885 87.8738 43.7668 0.0000 19.3215 0.0000
# 3 15.4850 43.7668 162.0440 0.0000 29.0173 0.0000
# 4 0.0000 0.0000 0.0000 35.7692 0.0000 9.4236
# 5 30.7074 19.3215 29.0173 0.0000 43.3555 0.0000
# 6 0.0000 0.0000 0.0000 9.4236 0.0000 17.2369
#
#
#
# Elastic Compliance Matrix: (Units=1/GPa)
#
#
# Indices 1 2 3 4 5 6 
#
# 1 0.028574 -0.001338 0.001304 0.000000 -0.020515 0.000000
# 2 -0.001338 0.013837 -0.003039 0.000000 -0.003185 0.000000
# 3 0.001304 -0.003039 0.007715 0.000000 -0.004733 0.000000
# 4 0.000000 0.000000 0.000000 0.032661 0.000000 -0.017856
# 5 -0.020515 -0.003185 -0.004733 0.000000 0.042182 0.000000
# 6 0.000000 0.000000 0.000000 -0.017856 0.000000 0.067777
#
#
# Mechanical properties :
#
#
# Convention : Reuss Voigt Hill
#
# Bulk Modulus (GPa) = 22.73705 50.83149 36.78427
# Shear Modulus (GPa) = 23.41336 34.72314 29.06825
#
# Velocity S-wave (km/s) = 3.35000 4.07965 3.73269
# Velocity P-wave (km/s) = 5.08544 6.82319 6.01737
#
# Compressibility (1/GPa) = 0.04398108
#
# Stress axis : x y z
#
# Youngs Moduli (GPa) = 34.99668 72.26788 129.61920
#
# Poissons Ratio (x) = 0.09669 -0.16908
# Poissons Ratio (y) = 0.04682 0.39394
# Poissons Ratio (z) = -0.04565 0.21964
#
# Static dielectric constant tensor:
#      x y z
#    x 1.770550 0.000000 -0.023720 
#    y 0.000000 1.730000 0.000000 
#    z -0.023720 0.000000 1.852670 
# 
# From -- ./inp_files/134727.got.cif
#   From: 2010.05.17/outbox.ucp.g08.bks.cvg/sg15_68_cif.got.tgz:134727.got - 2010.06.11 12:40:34.
