data_PCOD9309849
_publ_section_title
;
Structure prediction by ZEFSAII (Michael W. Deem and Ramdas Pophale) SiO2 
 PCOD9309849
Probable space group: C 2/C
;
_chemical_formula_sum "Si O2"
_cell_formula_units_Z 18
_cell_length_a 12.000000
_cell_length_b 21.000000
_cell_length_c 15.000000
_cell_angle_alpha 90.000000
_cell_angle_beta 150.000000
_cell_angle_gamma 90.000000
_cell_volume 1890.000000
_symmetry_space_group_name_H-M "C 2/C"
_symmetry_group_IT_number 15
_symmetry_cell_setting 'monoclinic'
loop_
_space_group_symop_operation_xyz
x,y,z
-x,y,1/2-z
-x,-y,-z
x,-y,1/2+z
1/2+x,1/2+y,z
1/2-x,1/2+y,1/2-z
1/2-x,1/2-y,-z
1/2+x,1/2-y,1/2+z
loop_
_atom_site_type_symbol
_atom_site_label
_atom_site_fract_x
_atom_site_fract_y
_atom_site_fract_z
Si Si1 0.237349 0.046211 0.087800
Si Si2 0.872532 0.319899 0.400645
Si Si3 0.269944 0.103643 0.644358
Si Si4 0.329924 0.668054 0.324544
Si Si5 0.500000 0.396320 0.250000
O O1 0.500000 0.046683 0.250000
O O2 0.204391 0.109850 0.127020
O O3 0.201651 0.972642 0.100411
O O4 0.096361 0.061003 0.899263
O O5 0.819129 0.359922 0.272724
O O6 0.842825 0.242439 0.367776
O O7 0.696307 0.350355 0.348690
O O8 0.122226 0.332561 0.611852
O O9 0.500000 0.105652 0.750000
O O10 0.075066 0.145312 0.461643
#
# Coordination Sequence:
#
# PCOD9309849 Si02
#       5
#     8   8   8   8   4
#     4  11  24  43  70 104 138 174 218 280 341 403
#     4  12  26  43  73 102 133 179 223 277 344 396
#     4  11  27  47  66  99 138 180 233 269 326 402
#     4  12  24  45  70 102 136 178 221 282 336 397
#     4  12  24  42  74 106 136 170 218 280 352 400
#
# _framework density 9.5238099999999992
#
# number of rings (size 3 to 8) (size 9 to 14) (size 15 to 20)
#    0.000    0.444    6.667    0.667    1.556    8.000 
#    0.000    0.000    0.000    0.000    0.000    0.000 
#    0.000    0.000    0.000    0.000    0.000    0.000 
#
# Total GULP energy -100366.178001 kJ/mol
# GULP energy per Si atom -5575.898778 kJ/mol
# Density = 0.950213 g / cm^3
# Si number density = 9.523810 Si / 1000 Ang^3
#
#
#
# Elastic Constant Matrix: (Units=GPa)
#
#
# Indices 1 2 3 4 5 6 
#
# 1 73.9887 52.7421 35.7889 0.0003 9.4918 0.0001
# 2 52.7421 210.6389 64.7285 0.0002 -8.1300 0.0001
# 3 35.7889 64.7285 189.2611 0.0009 2.9346 0.0007
# 4 0.0003 0.0002 0.0009 47.7336 0.0006 1.6936
# 5 9.4918 -8.1300 2.9346 0.0006 43.3611 0.0004
# 6 0.0001 0.0001 0.0007 1.6936 0.0004 36.9921
#
#
#
# Elastic Compliance Matrix: (Units=1/GPa)
#
#
# Indices 1 2 3 4 5 6 
#
# 1 0.017938 -0.004075 -0.001928 0.000000 -0.004560 0.000000
# 2 -0.004075 0.006286 -0.001413 0.000000 0.002166 0.000000
# 3 -0.001928 -0.001413 0.006135 0.000000 -0.000258 0.000000
# 4 0.000000 0.000000 0.000000 0.020984 0.000000 -0.000961
# 5 -0.004560 0.002166 -0.000258 0.000000 0.024484 0.000000
# 6 0.000000 0.000000 0.000000 -0.000961 0.000000 0.027077
#
#
# Mechanical properties :
#
#
# Convention : Reuss Voigt Hill
#
# Bulk Modulus (GPa) = 64.39988 86.71195 75.55591
# Shear Modulus (GPa) = 40.68011 46.99265 43.83638
#
# Velocity S-wave (km/s) = 4.62638 4.97239 4.80251
# Velocity P-wave (km/s) = 7.90071 8.86504 8.39673
#
# Compressibility (1/GPa) = 0.01552798
#
# Stress axis : x y z
#
# Youngs Moduli (GPa) = 55.74782 159.09469 162.98974
#
# Poissons Ratio (x) = 0.64834 0.31418
# Poissons Ratio (y) = 0.22718 0.23025
# Poissons Ratio (z) = 0.10746 0.22475
#
# Static dielectric constant tensor:
#      x y z
#    x 1.729080 0.000000 0.031610 
#    y 0.000000 1.654210 0.000000 
#    z 0.031610 0.000000 1.669340 
# 
# From -- ./inp_files/146952.got.cif
#   From: 2010.05.17/outbox.ucp.g08.bks.cvg/sg15_74_cif.got.tgz:146952.got - 2010.06.11 12:40:34.
