data_PCOD9309919
_publ_section_title
;
Structure prediction by ZEFSAII (Michael W. Deem and Ramdas Pophale) SiO2 
 PCOD9309919
Probable space group: P 2 2 2
;
_chemical_formula_sum "Si O2"
_cell_formula_units_Z 18
_cell_length_a 19.958078
_cell_length_b 5.266761
_cell_length_c 8.930804
_cell_angle_alpha 90.000000
_cell_angle_beta 90.000000
_cell_angle_gamma 90.000000
_cell_volume 938.756344
_symmetry_space_group_name_H-M "P 2 2 2"
_symmetry_group_IT_number 16
_symmetry_cell_setting 'orthorhombic'
loop_
_space_group_symop_operation_xyz
x,y,z
-x,-y,z
x,-y,-z
-x,y,-z
loop_
_atom_site_type_symbol
_atom_site_label
_atom_site_fract_x
_atom_site_fract_y
_atom_site_fract_z
Si Si1 0.500000 0.500000 0.500000
Si Si2 0.500000 0.500000 0.000000
Si Si3 0.675100 0.109817 0.827681
Si Si4 0.029670 0.746745 0.827021
Si Si5 0.597342 0.635813 0.753989
Si Si6 0.817676 0.250072 0.899018
O O1 0.549931 0.645472 0.610117
O O2 0.547110 0.669266 0.894368
O O3 0.630297 0.357978 0.787872
O O4 0.751524 0.198010 0.802237
O O5 0.650556 0.860887 0.741084
O O6 0.672019 0.000000 0.000000
O O7 0.109445 0.725787 0.826620
O O8 0.000000 0.500000 0.752136
O O9 0.000000 0.000000 0.758518
O O10 0.000000 0.747108 0.000000
O O11 0.805189 0.500000 0.000000
O O12 0.824693 0.000000 0.000000
#
# Coordination Sequence:
#
# PCOD9309919 Si02
#       6
#     1   1   4   4   4   4
#     4  10  28  44  64  84 104 144 182 232 292 340
#     4  10  20  36  56  80 100 132 162 224 268 332
#     4  11  21  35  55  81 108 145 181 224 270 332
#     4  10  15  24  36  60  96 147 185 219 245 310
#     4  11  23  40  59  81 109 137 180 228 279 335
#     4  11  18  27  44  68 103 143 194 213 261 315
#
# _framework density 19.174305
#
# number of rings (size 3 to 8) (size 9 to 14) (size 15 to 20)
#    0.000    1.333    6.667    2.667    0.000    6.222 
#    0.000    0.000    0.000    0.000    0.000    0.000 
#    0.000    0.000    0.000   15.000    0.000    0.889 
#
# Total GULP energy -100269.240878 kJ/mol
# GULP energy per Si atom -5570.513382 kJ/mol
# Density = 1.913066 g / cm^3
# Si number density = 19.174305 Si / 1000 Ang^3
#
#
#
# Elastic Constant Matrix: (Units=GPa)
#
#
# Indices 1 2 3 4 5 6 
#
# 1 168.4571 62.0401 37.7214 0.0000 0.0000 0.0000
# 2 62.0401 170.1554 13.9091 0.0000 0.0000 0.0000
# 3 37.7214 13.9091 45.1844 0.0000 0.0000 0.0000
# 4 0.0000 0.0000 0.0000 2.6352 0.0000 0.0000
# 5 0.0000 0.0000 0.0000 0.0000 13.5905 0.0000
# 6 0.0000 0.0000 0.0000 0.0000 0.0000 33.9944
#
#
#
# Elastic Compliance Matrix: (Units=1/GPa)
#
#
# Indices 1 2 3 4 5 6 
#
# 1 0.008221 -0.002499 -0.006094 0.000000 0.000000 0.000000
# 2 -0.002499 0.006789 -0.000003 0.000000 0.000000 0.000000
# 3 -0.006094 -0.000003 0.027220 0.000000 0.000000 0.000000
# 4 0.000000 0.000000 0.000000 0.379473 0.000000 0.000000
# 5 0.000000 0.000000 0.000000 0.000000 0.073581 0.000000
# 6 0.000000 0.000000 0.000000 0.000000 0.000000 0.029417
#
#
# Mechanical properties :
#
#
# Convention : Reuss Voigt Hill
#
# Bulk Modulus (GPa) = 39.94133 67.90424 53.92278
# Shear Modulus (GPa) = 9.08696 28.05244 18.56970
#
# Velocity S-wave (km/s) = 2.17932 3.82910 3.11540
# Velocity P-wave (km/s) = 5.21617 7.41892 6.41283
#
# Compressibility (1/GPa) = 0.02503672
#
# Stress axis : x y z
#
# Youngs Moduli (GPa) = 121.63500 147.30696 36.73769
#
# Poissons Ratio (x) = 0.36818 0.22388
# Poissons Ratio (y) = 0.30402 0.00011
# Poissons Ratio (z) = 0.74125 0.00046
#
# Static dielectric constant tensor:
#      x y z
#    x 1.726100 0.000000 0.000000 
#    y 0.000000 1.692120 0.000000 
#    z 0.000000 0.000000 1.677680 
# 
# From -- ./inp_files/5339.got.cif
#   From: 2010.05.17/outbox.cif.g08.bks.cpg/sg16_3_cif.got.tgz:5339.got - 2010.06.03 22:28:35.
