data_PCOD9309201
_publ_section_title
;
Structure prediction by ZEFSAII (Michael W. Deem and Ramdas Pophale) SiO2 
 PCOD9309201
Probable space group: C 2/C
;
_chemical_formula_sum "Si O2"
_cell_formula_units_Z 32
_cell_length_a 9.000000
_cell_length_b 30.000000
_cell_length_c 24.000000
_cell_angle_alpha 90.000000
_cell_angle_beta 30.000000
_cell_angle_gamma 90.000000
_cell_volume 3240.000000
_symmetry_space_group_name_H-M "C 2/C"
_symmetry_group_IT_number 15
_symmetry_cell_setting 'monoclinic'
loop_
_space_group_symop_operation_xyz
x,y,z
-x,y,1/2-z
-x,-y,-z
x,-y,1/2+z
1/2+x,1/2+y,z
1/2-x,1/2+y,1/2-z
1/2-x,1/2-y,-z
1/2+x,1/2-y,1/2+z
loop_
_atom_site_type_symbol
_atom_site_label
_atom_site_fract_x
_atom_site_fract_y
_atom_site_fract_z
Si Si1 0.077335 0.087584 0.791990
Si Si2 0.183981 0.944889 0.006876
Si Si3 0.063362 0.361679 0.642153
Si Si4 0.795518 0.545513 0.938301
Si Si5 0.486510 0.375255 0.901522
Si Si6 0.436905 0.205847 0.951860
Si Si7 0.164991 0.679149 0.755803
Si Si8 0.614887 0.245030 0.105211
O O1 0.395067 0.063841 0.685003
O O2 0.114738 0.137863 0.803491
O O3 0.000000 0.089522 0.750000
O O4 0.898855 0.062597 0.900580
O O5 0.918404 0.949680 0.046738
O O6 0.352102 0.899373 0.931526
O O7 0.325861 0.994522 0.951081
O O8 0.320068 0.364014 0.606057
O O9 0.064617 0.308177 0.629642
O O10 0.744035 0.376653 0.771025
O O11 0.677047 0.578814 0.026207
O O12 0.256476 0.335400 0.960634
O O13 0.509580 0.185206 0.866824
O O14 0.693022 0.227234 0.909627
O O15 0.250000 0.250000 0.000000
O O16 0.312683 0.727264 0.700767
O O17 0.000000 0.669299 0.750000
O O18 0.750000 0.250000 0.000000
#
# Coordination Sequence:
#
# PCOD9309201 Si02
#       8
#     8   8   8   8   8   8   8   8
#     4  12  25  43  70  99 136 179 227 282 349 414
#     4  10  23  42  73 100 135 174 232 284 341 408
#     4  10  22  41  64  99 133 178 222 280 339 409
#     4  10  22  42  70 103 131 175 227 288 342 408
#     4  10  21  39  65  96 134 172 222 276 343 409
#     4  12  22  39  66  93 132 181 223 279 345 405
#     4  12  26  42  65  97 132 175 231 289 341 412
#     4  12  25  40  64  95 138 179 231 279 342 416
#
# _framework density 9.8765429999999999
#
# number of rings (size 3 to 8) (size 9 to 14) (size 15 to 20)
#    0.000    1.000    2.500    4.500    5.250    0.500 
#    0.000    0.000    0.000    0.000    0.000    0.000 
#    0.000    0.000    0.000    0.000    0.000    0.000 
#
# Total GULP energy -178215.125498 kJ/mol
# GULP energy per Si atom -5569.222672 kJ/mol
# Density = 0.985406 g / cm^3
# Si number density = 9.876543 Si / 1000 Ang^3
#
#
#
# Elastic Constant Matrix: (Units=GPa)
#
#
# Indices 1 2 3 4 5 6 
#
# 1 79.4679 12.0022 16.1583 0.0037 23.3908 0.0009
# 2 12.0022 152.3913 39.8900 0.0016 8.1735 0.0009
# 3 16.1583 39.8900 97.5811 -0.0018 25.8019 -0.0012
# 4 0.0037 0.0016 -0.0018 38.3992 -0.0003 2.6771
# 5 23.3908 8.1735 25.8019 -0.0003 30.4706 0.0000
# 6 0.0009 0.0009 -0.0012 2.6771 0.0000 33.4335
#
#
#
# Elastic Compliance Matrix: (Units=1/GPa)
#
#
# Indices 1 2 3 4 5 6 
#
# 1 0.016409 -0.000884 0.001175 -0.000002 -0.013355 0.000000
# 2 -0.000884 0.007409 -0.003268 0.000000 0.001458 0.000000
# 3 0.001175 -0.003268 0.014684 0.000001 -0.012459 0.000001
# 4 -0.000002 0.000000 0.000001 0.026188 0.000001 -0.002097
# 5 -0.013355 0.001458 -0.012459 0.000001 0.053229 0.000000
# 6 0.000000 0.000000 0.000001 -0.002097 0.000000 0.030078
#
#
# Mechanical properties :
#
#
# Convention : Reuss Voigt Hill
#
# Bulk Modulus (GPa) = 30.72316 51.72682 41.22499
# Shear Modulus (GPa) = 30.33988 37.88663 34.11325
#
# Velocity S-wave (km/s) = 3.92338 4.38426 4.16021
# Velocity P-wave (km/s) = 6.00926 7.20226 6.63264
#
# Compressibility (1/GPa) = 0.03254874
#
# Stress axis : x y z
#
# Youngs Moduli (GPa) = 60.94209 134.97373 68.10328
#
# Poissons Ratio (x) = 0.11928 -0.08004
# Poissons Ratio (y) = 0.05386 0.22255
# Poissons Ratio (z) = -0.07162 0.44108
#
# Static dielectric constant tensor:
#      x y z
#    x 1.769230 0.000050 0.076900 
#    y 0.000050 1.936330 0.000140 
#    z 0.076900 0.000140 1.995830 
# 
# From -- ./inp_files/266733.got.cif
#   From: 2010.05.17/outbox.ucp.g08.bks.cvg/sg15_134_cif.got.tgz:266733.got - 2010.06.11 12:40:34.
