data_PCOD9309385
_publ_section_title
;
Structure prediction by ZEFSAII (Michael W. Deem and Ramdas Pophale) SiO2 
 PCOD9309385
Probable space group: C 2/C
;
_chemical_formula_sum "Si O2"
_cell_formula_units_Z 30
_cell_length_a 9.000000
_cell_length_b 24.000000
_cell_length_c 27.000000
_cell_angle_alpha 90.000000
_cell_angle_beta 150.000000
_cell_angle_gamma 90.000000
_cell_volume 2916.000000
_symmetry_space_group_name_H-M "C 2/C"
_symmetry_group_IT_number 15
_symmetry_cell_setting 'monoclinic'
loop_
_space_group_symop_operation_xyz
x,y,z
-x,y,1/2-z
-x,-y,-z
x,-y,1/2+z
1/2+x,1/2+y,z
1/2-x,1/2+y,1/2-z
1/2-x,1/2-y,-z
1/2+x,1/2-y,1/2+z
loop_
_atom_site_type_symbol
_atom_site_label
_atom_site_fract_x
_atom_site_fract_y
_atom_site_fract_z
Si Si1 0.020741 0.849675 0.696572
Si Si2 0.619296 0.418765 0.474432
Si Si3 0.018698 0.923506 0.177961
Si Si4 0.765878 0.965101 0.637290
Si Si5 0.500000 0.677707 0.750000
Si Si6 0.509435 0.724751 0.107224
Si Si7 0.911262 0.502351 0.667237
Si Si8 0.796704 0.369324 0.619563
O O1 0.894229 0.800727 0.625983
O O2 0.368957 0.847987 0.786283
O O3 0.000000 0.843640 0.750000
O O4 0.884964 0.910328 0.642286
O O5 0.507478 0.405395 0.386828
O O6 0.384154 0.462916 0.426682
O O7 0.648086 0.368791 0.522070
O O8 0.940953 0.448141 0.562018
O O9 0.981141 0.867720 0.199604
O O10 0.320559 0.959171 0.277930
O O11 0.778330 0.973818 0.116465
O O12 0.000000 0.966933 0.750000
O O13 0.767956 0.722544 0.821633
O O14 0.638514 0.670521 0.113980
O O15 0.250000 0.750000 0.000000
O O16 0.843041 0.436441 0.640530
O O17 0.000000 0.504619 0.750000
#
# Coordination Sequence:
#
# PCOD9309385 Si02
#       8
#     8   8   8   8   4   8   8   8
#     4  11  22  46  77 101 133 181 247 294 345 406
#     4  11  24  38  64 111 136 179 232 288 358 425
#     4  11  24  42  67  99 152 182 221 287 370 429
#     4  11  20  40  69 103 142 177 229 295 358 410
#     4  12  28  48  66  98 144 192 226 286 360 426
#     4  12  30  50  72 103 138 195 246 291 347 414
#     4  10  22  40  67 103 142 185 221 286 362 418
#     4  12  22  45  74 100 143 182 246 292 339 421
#
# _framework density 10.288066000000001
#
# number of rings (size 3 to 8) (size 9 to 14) (size 15 to 20)
#    0.000    0.800    6.000    1.600    5.600    1.067 
#    2.400    1.333    0.000    0.000    0.000    0.000 
#    0.000    0.000    0.000    0.000    0.000    0.000 
#
# Total GULP energy -167237.407507 kJ/mol
# GULP energy per Si atom -5574.580250 kJ/mol
# Density = 1.026465 g / cm^3
# Si number density = 10.288066 Si / 1000 Ang^3
#
#
#
# Elastic Constant Matrix: (Units=GPa)
#
#
# Indices 1 2 3 4 5 6 
#
# 1 70.5685 35.5150 20.4702 0.0085 -16.7336 0.0038
# 2 35.5150 128.7798 16.9907 0.0030 -22.9356 0.0002
# 3 20.4702 16.9907 74.1997 0.0238 -10.9001 0.0092
# 4 0.0085 0.0030 0.0238 36.1506 0.0082 -9.8255
# 5 -16.7336 -22.9356 -10.9001 0.0082 37.9028 0.0061
# 6 0.0038 0.0002 0.0092 -9.8255 0.0061 37.8663
#
#
#
# Elastic Compliance Matrix: (Units=1/GPa)
#
#
# Indices 1 2 3 4 5 6 
#
# 1 0.018174 -0.003702 -0.003463 -0.000004 0.004787 -0.000003
# 2 -0.003702 0.009574 -0.000585 -0.000001 0.003991 0.000000
# 3 -0.003463 -0.000585 0.014920 -0.000011 0.002408 -0.000007
# 4 -0.000004 -0.000001 -0.000011 0.029761 -0.000013 0.007722
# 5 0.004787 0.003991 0.002408 -0.000013 0.031604 -0.000010
# 6 -0.000003 0.000000 -0.000007 0.007722 -0.000010 0.028413
#
#
# Mechanical properties :
#
#
# Convention : Reuss Voigt Hill
#
# Bulk Modulus (GPa) = 36.80773 46.61108 41.70941
# Shear Modulus (GPa) = 31.84690 35.75540 33.80115
#
# Velocity S-wave (km/s) = 3.93843 4.17311 4.05746
# Velocity P-wave (km/s) = 6.21361 6.77657 6.50119
#
# Compressibility (1/GPa) = 0.02716821
#
# Stress axis : x y z
#
# Youngs Moduli (GPa) = 55.02501 104.44785 67.02376
#
# Poissons Ratio (x) = 0.38672 0.23208
# Poissons Ratio (y) = 0.20373 0.03919
# Poissons Ratio (z) = 0.19053 0.06107
#
# Static dielectric constant tensor:
#      x y z
#    x 1.847420 0.000000 -0.008330 
#    y 0.000000 1.708740 -0.000010 
#    z -0.008330 -0.000010 1.815680 
# 
# From -- ./inp_files/290272.got.cif
#   From: 2010.05.17/outbox.ucp.g08.bks.cvg/sg15_146_cif.got.tgz:290272.got - 2010.06.11 12:40:34.
