data_PCOD9309593
_publ_section_title
;
Structure prediction by ZEFSAII (Michael W. Deem and Ramdas Pophale) SiO2 
 PCOD9309593
Probable space group: C 2/C
;
_chemical_formula_sum "Si O2"
_cell_formula_units_Z 24
_cell_length_a 21.000000
_cell_length_b 12.000000
_cell_length_c 27.000000
_cell_angle_alpha 90.000000
_cell_angle_beta 20.000000
_cell_angle_gamma 90.000000
_cell_volume 2327.105055
_symmetry_space_group_name_H-M "C 2/C"
_symmetry_group_IT_number 15
_symmetry_cell_setting 'monoclinic'
loop_
_space_group_symop_operation_xyz
x,y,z
-x,y,1/2-z
-x,-y,-z
x,-y,1/2+z
1/2+x,1/2+y,z
1/2-x,1/2+y,1/2-z
1/2-x,1/2-y,-z
1/2+x,1/2-y,1/2+z
loop_
_atom_site_type_symbol
_atom_site_label
_atom_site_fract_x
_atom_site_fract_y
_atom_site_fract_z
Si Si1 0.131968 0.185764 0.467653
Si Si2 0.544865 0.206258 0.130178
Si Si3 0.626225 0.546305 0.033606
Si Si4 0.347658 0.612725 0.320251
Si Si5 0.164390 0.174622 0.907768
Si Si6 0.933507 0.553953 0.887821
O O1 0.338629 0.235064 0.303266
O O2 0.039956 0.266234 0.575560
O O3 0.990782 0.169774 0.523252
O O4 0.153239 0.070469 0.484296
O O5 0.547391 0.075514 0.136841
O O6 0.750000 0.250000 0.000000
O O7 0.467241 0.539867 0.192884
O O8 0.581960 0.629463 0.020441
O O9 0.806657 0.591539 0.932946
O O10 0.500000 0.655087 0.250000
O O11 0.243315 0.703482 0.362893
O O12 0.189215 0.563960 0.472421
O O13 0.360259 0.106434 0.756408
#
# Coordination Sequence:
#
# PCOD9309593 Si02
#       6
#     8   8   8   8   8   8
#     4  12  29  44  71 105 139 185 235 297 358 414
#     4  12  27  48  74 100 137 183 242 291 347 421
#     4  11  23  45  70  99 139 186 236 285 352 421
#     4  10  24  42  70 105 139 186 235 288 346 424
#     4  12  25  44  69 102 148 182 231 290 359 419
#     4  11  24  44  75 102 139 187 241 289 346 420
#
# _framework density 10.313243
#
# number of rings (size 3 to 8) (size 9 to 14) (size 15 to 20)
#    0.000    0.667    3.333    3.500    7.000    4.000 
#    0.000    1.667    0.000    0.000    0.000    0.000 
#    0.000    0.000    0.000    0.000    0.000    0.000 
#
# Total GULP energy -133826.694581 kJ/mol
# GULP energy per Si atom -5576.112274 kJ/mol
# Density = 1.028977 g / cm^3
# Si number density = 10.313243 Si / 1000 Ang^3
#
#
#
# Elastic Constant Matrix: (Units=GPa)
#
#
# Indices 1 2 3 4 5 6 
#
# 1 175.5503 16.8862 61.0657 0.0047 -2.2749 0.0016
# 2 16.8862 23.6007 6.7316 0.0160 -4.1547 0.0029
# 3 61.0657 6.7316 148.4574 0.0111 8.5736 -0.0030
# 4 0.0047 0.0160 0.0111 32.8542 -0.0023 7.3938
# 5 -2.2749 -4.1547 8.5736 -0.0023 45.8615 0.0005
# 6 0.0016 0.0029 -0.0030 7.3938 0.0005 38.5467
#
#
#
# Elastic Compliance Matrix: (Units=1/GPa)
#
#
# Indices 1 2 3 4 5 6 
#
# 1 0.007059 -0.004183 -0.002742 0.000002 0.000484 -0.000001
# 2 -0.004183 0.046261 -0.000614 -0.000022 0.004098 0.000001
# 3 -0.002742 -0.000614 0.007989 -0.000002 -0.001685 0.000001
# 4 0.000002 -0.000022 -0.000002 0.031811 0.000000 -0.006102
# 5 0.000484 0.004098 -0.001685 0.000000 0.022515 -0.000001
# 6 -0.000001 0.000001 0.000001 -0.006102 -0.000001 0.027113
#
#
# Mechanical properties :
#
#
# Convention : Reuss Voigt Hill
#
# Bulk Modulus (GPa) = 21.63028 57.44170 39.53599
# Shear Modulus (GPa) = 28.86247 40.98081 34.92164
#
# Velocity S-wave (km/s) = 3.74477 4.46220 4.11913
# Velocity P-wave (km/s) = 5.40436 7.37951 6.46778
#
# Compressibility (1/GPa) = 0.04623149
#
# Stress axis : x y z
#
# Youngs Moduli (GPa) = 141.66776 21.61640 125.17437
#
# Poissons Ratio (x) = 0.09043 0.34320
# Poissons Ratio (y) = 0.59264 0.07680
# Poissons Ratio (z) = 0.38842 0.01326
#
# Static dielectric constant tensor:
#      x y z
#    x 1.726140 0.000000 -0.004240 
#    y 0.000000 1.819380 0.000020 
#    z -0.004240 0.000020 1.811860 
# 
# From -- ./inp_files/300912.got.cif
#   From: 2010.05.17/outbox.ucp.g08.bks.cvg/sg15_151_cif.got.tgz:300912.got - 2010.06.11 12:40:34.
