data_PCOD9309842
_publ_section_title
;
Structure prediction by ZEFSAII (Michael W. Deem and Ramdas Pophale) SiO2 
 PCOD9309842
Probable space group: C 2/C
;
_chemical_formula_sum "Si O2"
_cell_formula_units_Z 28
_cell_length_a 18.000000
_cell_length_b 21.000000
_cell_length_c 21.000000
_cell_angle_alpha 90.000000
_cell_angle_beta 160.000000
_cell_angle_gamma 90.000000
_cell_volume 2714.955898
_symmetry_space_group_name_H-M "C 2/C"
_symmetry_group_IT_number 15
_symmetry_cell_setting 'monoclinic'
loop_
_space_group_symop_operation_xyz
x,y,z
-x,y,1/2-z
-x,-y,-z
x,-y,1/2+z
1/2+x,1/2+y,z
1/2-x,1/2+y,1/2-z
1/2-x,1/2-y,-z
1/2+x,1/2-y,1/2+z
loop_
_atom_site_type_symbol
_atom_site_label
_atom_site_fract_x
_atom_site_fract_y
_atom_site_fract_z
Si Si1 0.388801 0.036302 0.323294
Si Si2 0.392171 0.171342 0.730859
Si Si3 0.344187 0.535089 0.745862
Si Si4 0.250210 0.820962 0.721065
Si Si5 0.860652 0.818987 0.307593
Si Si6 0.228160 0.533191 0.896680
Si Si7 0.362202 0.198331 0.450913
O O1 0.643971 0.023263 0.537128
O O2 0.368135 0.112177 0.306772
O O3 0.251092 0.999067 0.266737
O O4 0.296269 0.011384 0.183567
O O5 0.500000 0.181930 0.750000
O O6 0.259107 0.105573 0.618774
O O7 0.591862 0.166913 0.943017
O O8 0.238525 0.232102 0.618419
O O9 0.378817 0.612233 0.785292
O O10 0.558939 0.496125 0.898564
O O11 0.383165 0.756890 0.805593
O O12 0.032497 0.824256 0.503486
O O13 0.223933 0.821026 0.777118
O O14 0.608171 0.812373 0.123598
O O15 0.000000 0.530366 0.750000
#
# Coordination Sequence:
#
# PCOD9309842 Si02
#       7
#     8   8   8   8   8   8   8
#     4  11  24  40  66 101 127 170 226 282 337 394
#     4  11  25  43  61  89 132 186 225 257 315 405
#     4  11  24  40  67  97 133 168 224 282 337 394
#     4  12  22  36  64  97 129 158 209 275 340 389
#     4  12  21  37  60  98 127 163 204 279 341 385
#     4  11  26  46  67  92 138 185 223 270 333 400
#     4  12  22  38  62  88 129 166 214 271 325 375
#
# _framework density 10.313243
#
# number of rings (size 3 to 8) (size 9 to 14) (size 15 to 20)
#    0.000    0.571    5.714    1.714    6.000    0.571 
#    0.000    0.000    0.000    0.857    0.000    0.000 
#    0.000    0.000    0.000    0.000    0.000    0.000 
#
# Total GULP energy -155919.638044 kJ/mol
# GULP energy per Si atom -5568.558502 kJ/mol
# Density = 1.028977 g / cm^3
# Si number density = 10.313243 Si / 1000 Ang^3
#
#
#
# Elastic Constant Matrix: (Units=GPa)
#
#
# Indices 1 2 3 4 5 6 
#
# 1 3.6222 -1.7263 6.9481 0.0168 7.7842 0.0365
# 2 -1.7263 114.8579 11.4896 -0.0566 21.5544 0.0819
# 3 6.9481 11.4896 126.9257 -0.0187 -1.2234 0.1043
# 4 0.0168 -0.0566 -0.0187 42.3963 -0.0013 1.7738
# 5 7.7842 21.5544 -1.2234 -0.0013 17.2001 0.0328
# 6 0.0365 0.0819 0.1043 1.7738 0.0328 9.2776
#
#
#
# Elastic Compliance Matrix: (Units=1/GPa)
#
#
# Indices 1 2 3 4 5 6 
#
# 1 -0.480923 -0.068107 0.035436 0.000082 0.305516 0.001001
# 2 -0.068107 0.001914 0.003832 0.000028 0.028696 0.000101
# 3 0.035436 0.003832 0.005395 0.000000 -0.020454 -0.000162
# 4 0.000082 0.000028 0.000000 0.023777 -0.000062 -0.004546
# 5 0.305516 0.028696 -0.020454 -0.000062 -0.117541 -0.000799
# 6 0.001001 0.000101 -0.000162 -0.004546 -0.000799 0.108655
#
#
# Mechanical properties :
#
#
# Convention : Reuss Voigt Hill
#
# Bulk Modulus (GPa) = -1.88220 30.98096 14.54938
# Shear Modulus (GPa) = -8.64841 29.02110 10.18635
#
# Velocity S-wave (km/s) = -2.04987 3.75505 2.22468
# Velocity P-wave (km/s) = 2.55287 5.81834 3.69702
#
# Compressibility (1/GPa) = -0.53129415
#
# Stress axis : x y z
#
# Youngs Moduli (GPa) = -2.07933 522.41177 185.35829
#
# Poissons Ratio (x) = 35.58002 -6.56830
# Poissons Ratio (y) = -0.14162 -0.71021
# Poissons Ratio (z) = 0.07368 -2.00164
#
# Static dielectric constant tensor:
#      x y z
#    x 1.763410 -0.000080 0.001580 
#    y -0.000080 1.839560 -0.000150 
#    z 0.001580 -0.000150 1.764940 
# 
# From -- ./inp_files/250063.got.cif
#   From: 2010.05.17/outbox.ucp.g08.bks.cvg/sg15_126_cif.got.tgz:250063.got - 2010.06.11 12:40:34.
