data_PCOD9309126
_publ_section_title
;
Structure prediction by ZEFSAII (Michael W. Deem and Ramdas Pophale) SiO2 
 PCOD9309126
Probable space group: C 2/C
;
_chemical_formula_sum "Si O2"
_cell_formula_units_Z 32
_cell_length_a 15.000000
_cell_length_b 12.000000
_cell_length_c 21.000000
_cell_angle_alpha 90.000000
_cell_angle_beta 70.000000
_cell_angle_gamma 90.000000
_cell_volume 3552.038107
_symmetry_space_group_name_H-M "C 2/C"
_symmetry_group_IT_number 15
_symmetry_cell_setting 'monoclinic'
loop_
_space_group_symop_operation_xyz
x,y,z
-x,y,1/2-z
-x,-y,-z
x,-y,1/2+z
1/2+x,1/2+y,z
1/2-x,1/2+y,1/2-z
1/2-x,1/2-y,-z
1/2+x,1/2-y,1/2+z
loop_
_atom_site_type_symbol
_atom_site_label
_atom_site_fract_x
_atom_site_fract_y
_atom_site_fract_z
Si Si1 0.453255 0.676752 0.519201
Si Si2 0.071267 0.501514 0.790757
Si Si3 0.936086 0.694310 0.615351
Si Si4 0.757256 0.445636 0.116787
Si Si5 0.547066 0.583262 0.310186
Si Si6 0.160445 0.680420 0.351492
Si Si7 0.101117 0.018908 0.553426
Si Si8 0.214944 0.097468 0.764005
O O1 0.493768 0.752366 0.452668
O O2 0.393285 0.754800 0.579742
O O3 0.540501 0.618413 0.535956
O O4 0.391956 0.575943 0.503022
O O5 0.028093 0.592774 0.849804
O O6 0.089351 0.384851 0.821715
O O7 0.178651 0.548018 0.749958
O O8 0.000000 0.490928 0.750000
O O9 0.850890 0.633029 0.596804
O O10 0.917362 0.797580 0.669406
O O11 0.780089 0.575148 0.132806
O O12 0.697380 0.446579 0.066413
O O13 0.702254 0.392979 0.190633
O O14 0.500000 0.591959 0.250000
O O15 0.463850 0.536837 0.375869
O O16 0.633257 0.494202 0.298703
O O17 0.207933 0.782684 0.300411
#
# Coordination Sequence:
#
# PCOD9309126 Si02
#       8
#     8   8   8   8   8   8   8   8
#     4  10  21  39  59  79 120 158 200 239 279 352
#     4  10  24  40  60  90 121 152 191 239 300 354
#     4   9  22  38  59  84 121 155 192 238 291 347
#     4  10  23  36  57  88 118 149 196 243 296 351
#     4  11  19  34  63  89 111 154 192 247 299 334
#     4  10  22  40  60  86 121 157 188 241 293 344
#     4  10  21  37  57  88 111 151 207 241 285 339
#     4  10  21  36  60  88 119 145 194 248 289 345
#
# _framework density 9.0089120000000005
#
# number of rings (size 3 to 8) (size 9 to 14) (size 15 to 20)
#    0.000    2.250    2.500    0.375    7.000    6.500 
#    0.000    1.250    0.000    0.000    0.000    0.000 
#    0.000    0.000    0.000    0.000    0.000    0.000 
#
# Total GULP energy -178179.508070 kJ/mol
# GULP energy per Si atom -5568.109627 kJ/mol
# Density = 0.898841 g / cm^3
# Si number density = 9.008912 Si / 1000 Ang^3
#
#
#
# Elastic Constant Matrix: (Units=GPa)
#
#
# Indices 1 2 3 4 5 6 
#
# 1 86.0159 13.1185 25.0305 0.0000 33.7992 0.0000
# 2 13.1185 91.3727 39.4762 0.0000 -3.6726 0.0000
# 3 25.0305 39.4762 81.4468 0.0000 9.4671 0.0000
# 4 0.0000 0.0000 0.0000 38.0421 0.0000 0.7642
# 5 33.7992 -3.6726 9.4671 0.0000 29.7290 0.0000
# 6 0.0000 0.0000 0.0000 0.7642 0.0000 21.7238
#
#
#
# Elastic Compliance Matrix: (Units=1/GPa)
#
#
# Indices 1 2 3 4 5 6 
#
# 1 0.022941 -0.003251 -0.002488 0.000000 -0.025691 0.000000
# 2 -0.003251 0.014776 -0.007066 0.000000 0.007772 0.000000
# 3 -0.002488 -0.007066 0.016864 0.000000 -0.003415 0.000000
# 4 0.000000 0.000000 0.000000 0.026305 0.000000 -0.000925
# 5 -0.025691 0.007772 -0.003415 0.000000 0.064893 0.000000
# 6 0.000000 0.000000 0.000000 -0.000925 0.000000 0.046065
#
#
# Mechanical properties :
#
#
# Convention : Reuss Voigt Hill
#
# Bulk Modulus (GPa) = 34.51815 46.00953 40.26384
# Shear Modulus (GPa) = 22.01564 29.97966 25.99765
#
# Velocity S-wave (km/s) = 3.49933 4.08350 3.80265
# Velocity P-wave (km/s) = 5.96041 6.91551 6.45565
#
# Compressibility (1/GPa) = 0.02897026
#
# Stress axis : x y z
#
# Youngs Moduli (GPa) = 43.59088 67.67689 59.29690
#
# Poissons Ratio (x) = 0.22003 0.14754
# Poissons Ratio (y) = 0.14172 0.41899
# Poissons Ratio (z) = 0.10846 0.47820
#
# Static dielectric constant tensor:
#      x y z
#    x 1.628400 0.000000 -0.024030 
#    y 0.000000 1.614630 0.000000 
#    z -0.024030 0.000000 1.657270 
# 
# From -- ./inp_files/243704.got.cif
#   From: 2010.05.17/outbox.ucp.g08.bks.cvg/sg15_122_cif.got.tgz:243704.got - 2010.06.11 12:40:34.
