data_PCOD9309256
_publ_section_title
;
Structure prediction by ZEFSAII (Michael W. Deem and Ramdas Pophale) SiO2 
 PCOD9309256
Probable space group: C 2/C
;
_chemical_formula_sum "Si O2"
_cell_formula_units_Z 20
_cell_length_a 30.000000
_cell_length_b 9.000000
_cell_length_c 15.000000
_cell_angle_alpha 90.000000
_cell_angle_beta 30.000000
_cell_angle_gamma 90.000000
_cell_volume 2025.000000
_symmetry_space_group_name_H-M "C 2/C"
_symmetry_group_IT_number 15
_symmetry_cell_setting 'monoclinic'
loop_
_space_group_symop_operation_xyz
x,y,z
-x,y,1/2-z
-x,-y,-z
x,-y,1/2+z
1/2+x,1/2+y,z
1/2-x,1/2+y,1/2-z
1/2-x,1/2-y,-z
1/2+x,1/2-y,1/2+z
loop_
_atom_site_type_symbol
_atom_site_label
_atom_site_fract_x
_atom_site_fract_y
_atom_site_fract_z
Si Si1 0.176742 0.289130 0.322065
Si Si2 0.118319 0.854051 0.297351
Si Si3 0.980726 0.045449 0.887374
Si Si4 0.894502 0.492213 0.706304
Si Si5 0.707051 0.014021 0.437628
O O1 0.092428 0.178683 0.483669
O O2 0.155551 0.390748 0.271996
O O3 0.188739 0.399990 0.386498
O O4 0.258965 0.174436 0.159433
O O5 0.132875 0.677644 0.268792
O O6 0.209934 0.943001 0.151543
O O7 0.066105 0.900711 0.297327
O O8 0.059267 0.908900 0.484800
O O9 0.000000 0.011250 0.750000
O O10 0.000000 0.500000 0.500000
O O11 0.870390 0.523670 0.852512
#
# Coordination Sequence:
#
# PCOD9309256 Si02
#       5
#     8   8   8   8   8
#     4  11  24  44  66 102 132 179 228 273 338 397
#     4  10  22  42  64  98 128 176 225 272 333 399
#     4  10  21  41  66  94 136 174 220 275 337 397
#     4  12  24  43  67  99 137 175 222 280 338 392
#     4  11  25  44  70  97 137 177 228 279 330 403
#
# _framework density 9.8765429999999999
#
# number of rings (size 3 to 8) (size 9 to 14) (size 15 to 20)
#    0.000    1.200    2.000    3.600    0.000    3.200 
#   10.800    0.000    0.000    0.000    0.000    0.000 
#    0.000    0.000    0.000    0.000    0.000    0.000 
#
# Total GULP energy -111818.001258 kJ/mol
# GULP energy per Si atom -5590.900063 kJ/mol
# Density = 0.985406 g / cm^3
# Si number density = 9.876543 Si / 1000 Ang^3
#
#
#
# Elastic Constant Matrix: (Units=GPa)
#
#
# Indices 1 2 3 4 5 6 
#
# 1 136.1044 42.1619 51.6454 0.0000 32.6048 0.0000
# 2 42.1619 118.3271 29.3456 0.0000 22.0097 0.0000
# 3 51.6454 29.3456 113.2398 0.0000 28.9031 0.0000
# 4 0.0000 0.0000 0.0000 25.6851 0.0000 -0.6761
# 5 32.6048 22.0097 28.9031 0.0000 46.0087 0.0000
# 6 0.0000 0.0000 0.0000 -0.6761 0.0000 49.4854
#
#
#
# Elastic Compliance Matrix: (Units=1/GPa)
#
#
# Indices 1 2 3 4 5 6 
#
# 1 0.010162 -0.002074 -0.002992 0.000000 -0.004330 0.000000
# 2 -0.002074 0.009923 -0.000940 0.000000 -0.002687 0.000000
# 3 -0.002992 -0.000940 0.011651 0.000000 -0.004749 0.000000
# 4 0.000000 0.000000 0.000000 0.038947 0.000000 0.000532
# 5 -0.004330 -0.002687 -0.004749 0.000000 0.029073 0.000000
# 6 0.000000 0.000000 0.000000 0.000532 0.000000 0.020215
#
#
# Mechanical properties :
#
#
# Convention : Reuss Voigt Hill
#
# Bulk Modulus (GPa) = 50.69687 68.21966 59.45827
# Shear Modulus (GPa) = 36.08604 40.53707 38.31155
#
# Velocity S-wave (km/s) = 4.27881 4.53502 4.40878
# Velocity P-wave (km/s) = 7.08039 7.87611 7.48883
#
# Compressibility (1/GPa) = 0.01972508
#
# Stress axis : x y z
#
# Youngs Moduli (GPa) = 98.40268 100.77699 85.82764
#
# Poissons Ratio (x) = 0.20896 0.25681
# Poissons Ratio (y) = 0.20404 0.08068
# Poissons Ratio (z) = 0.29444 0.09473
#
# Static dielectric constant tensor:
#      x y z
#    x 1.678380 0.000000 -0.020570 
#    y 0.000000 1.684580 0.000000 
#    z -0.020570 0.000000 1.733960 
# 
# From -- ./inp_files/102711.got.cif
#   From: 2010.05.17/outbox.ucp.g08.bks.cvg/sg15_52_cif.got.tgz:102711.got - 2010.06.11 12:40:34.
