data_PCOD9309958
_publ_section_title
;
Structure prediction by ZEFSAII (Michael W. Deem and Ramdas Pophale) SiO2 
 PCOD9309958
Probable space group: P 2 2 2
;
_chemical_formula_sum "Si O2"
_cell_formula_units_Z 32
_cell_length_a 5.549841
_cell_length_b 15.631716
_cell_length_c 17.498902
_cell_angle_alpha 90.000000
_cell_angle_beta 90.000000
_cell_angle_gamma 90.000000
_cell_volume 1518.091666
_symmetry_space_group_name_H-M "P 2 2 2"
_symmetry_group_IT_number 16
_symmetry_cell_setting 'orthorhombic'
loop_
_space_group_symop_operation_xyz
x,y,z
-x,-y,z
x,-y,-z
-x,y,-z
loop_
_atom_site_type_symbol
_atom_site_label
_atom_site_fract_x
_atom_site_fract_y
_atom_site_fract_z
Si Si1 0.153955 0.882431 0.272765
Si Si2 0.250393 0.762471 0.045227
Si Si3 0.247199 0.230394 0.307362
Si Si4 0.252776 0.551866 0.316268
Si Si5 0.887390 0.686002 0.575219
Si Si6 0.356191 0.701855 0.211093
Si Si7 0.751594 0.953653 0.888658
Si Si8 0.387659 0.857508 0.423411
O O1 0.259324 0.788087 0.252645
O O2 0.233762 0.941220 0.203550
O O3 0.237437 0.908846 0.358129
O O4 0.875578 0.854906 0.271879
O O5 0.287827 0.710347 0.123411
O O6 0.243248 0.861256 0.072161
O O7 0.500000 0.750145 0.000000
O O8 0.000000 0.744113 0.000000
O O9 0.367977 0.286551 0.240270
O O10 0.411887 0.188835 0.372582
O O11 0.073226 0.290352 0.357432
O O12 0.500000 0.500000 0.310433
O O13 0.287144 0.617447 0.387088
O O14 0.247459 0.615547 0.244108
O O15 0.000000 0.500000 0.323912
O O16 0.773941 0.776697 0.551257
O O17 0.000000 0.646933 0.500000
O O18 0.500000 0.000000 0.907160
O O19 0.000000 0.000000 0.910513
O O20 0.500000 0.897759 0.500000
#
# Coordination Sequence:
#
# PCOD9309958 Si02
#       8
#     4   4   4   4   4   4   4   4
#     4   9  21  34  62  90 115 168 222 263 302 376
#     4  11  26  43  71 104 130 164 205 251 318 384
#     4  10  17  34  61  85 119 160 224 276 311 374
#     4  12  26  41  61  89 124 174 219 266 332 387
#     4  11  21  35  53  86 125 171 215 277 338 394
#     4  10  22  40  65  86 125 164 215 269 306 382
#     4  11  25  42  66  98 140 174 200 240 308 389
#     4  10  18  30  57  88 115 157 218 286 329 363
#
# _framework density 21.079094999999999
#
# number of rings (size 3 to 8) (size 9 to 14) (size 15 to 20)
#    0.000    1.500    5.000    1.500    8.750    1.750 
#    0.000    1.875    0.000    2.625    0.000    0.000 
#    0.000    0.000    0.000    0.000    0.000    0.000 
#
# Total GULP energy -178390.413138 kJ/mol
# GULP energy per Si atom -5574.700411 kJ/mol
# Density = 2.103112 g / cm^3
# Si number density = 21.079095 Si / 1000 Ang^3
#
#
#
# Elastic Constant Matrix: (Units=GPa)
#
#
# Indices 1 2 3 4 5 6 
#
# 1 107.9203 22.1183 43.0091 0.0000 0.0000 0.0000
# 2 22.1183 46.3246 22.3441 0.0000 0.0000 0.0000
# 3 43.0091 22.3441 147.5910 0.0000 0.0000 0.0000
# 4 0.0000 0.0000 0.0000 2.6472 0.0000 0.0000
# 5 0.0000 0.0000 0.0000 0.0000 -23.6098 0.0000
# 6 0.0000 0.0000 0.0000 0.0000 0.0000 11.6473
#
#
#
# Elastic Compliance Matrix: (Units=1/GPa)
#
#
# Indices 1 2 3 4 5 6 
#
# 1 0.011146 -0.004051 -0.002635 0.000000 0.000000 0.000000
# 2 -0.004051 0.024760 -0.002568 0.000000 0.000000 0.000000
# 3 -0.002635 -0.002568 0.007932 0.000000 0.000000 0.000000
# 4 0.000000 0.000000 0.000000 0.377754 0.000000 0.000000
# 5 0.000000 0.000000 0.000000 0.000000 -0.042355 0.000000
# 6 0.000000 0.000000 0.000000 0.000000 0.000000 0.085856
#
#
# Mechanical properties :
#
#
# Convention : Reuss Voigt Hill
#
# Bulk Modulus (GPa) = 39.47820 52.97542 46.22681
# Shear Modulus (GPa) = 10.16169 12.42791 11.29480
#
# Velocity S-wave (km/s) = 2.19800 2.43077 2.31731
# Velocity P-wave (km/s) = 5.02104 5.75017 5.39793
#
# Compressibility (1/GPa) = 0.02533044
#
# Stress axis : x y z
#
# Youngs Moduli (GPa) = 89.71482 40.38823 126.07080
#
# Poissons Ratio (x) = 0.16362 0.33218
# Poissons Ratio (y) = 0.36345 0.32374
# Poissons Ratio (z) = 0.23638 0.10371
#
# Static dielectric constant tensor:
#      x y z
#    x 2.039750 0.000000 0.000000 
#    y 0.000000 1.800790 0.000000 
#    z 0.000000 0.000000 1.776980 
# 
# From -- ./inp_files/8685.got.cif
#   From: 2010.05.17/outbox.cif.g08.bks.cpg/sg16_5_cif.got.tgz:8685.got - 2010.06.03 22:28:35.
