data_PCOD9309044
_publ_section_title
;
Structure prediction by ZEFSAII (Michael W. Deem and Ramdas Pophale) SiO2 
 PCOD9309044
Probable space group: C 2/C
;
_chemical_formula_sum "Si O2"
_cell_formula_units_Z 32
_cell_length_a 27.000000
_cell_length_b 9.000000
_cell_length_c 15.000000
_cell_angle_alpha 90.000000
_cell_angle_beta 110.000000
_cell_angle_gamma 90.000000
_cell_volume 3425.179603
_symmetry_space_group_name_H-M "C 2/C"
_symmetry_group_IT_number 15
_symmetry_cell_setting 'monoclinic'
loop_
_space_group_symop_operation_xyz
x,y,z
-x,y,1/2-z
-x,-y,-z
x,-y,1/2+z
1/2+x,1/2+y,z
1/2-x,1/2+y,1/2-z
1/2-x,1/2-y,-z
1/2+x,1/2-y,1/2+z
loop_
_atom_site_type_symbol
_atom_site_label
_atom_site_fract_x
_atom_site_fract_y
_atom_site_fract_z
Si Si1 0.447335 0.287029 0.400551
Si Si2 0.582749 0.235335 0.750768
Si Si3 0.143359 0.984714 0.692556
Si Si4 0.612136 0.891299 0.760432
Si Si5 0.467131 0.357790 0.617348
Si Si6 0.439410 0.292651 0.110532
Si Si7 0.789672 0.804650 0.140138
Si Si8 0.175280 0.826670 0.538343
O O1 0.412866 0.427382 0.343213
O O2 0.406378 0.158524 0.349453
O O3 0.458083 0.328143 0.508554
O O4 0.504596 0.241964 0.396007
O O5 0.627936 0.330692 0.730561
O O6 0.525533 0.292607 0.676942
O O7 0.575587 0.272604 0.850041
O O8 0.597106 0.062765 0.755920
O O9 0.165231 0.951733 0.607083
O O10 0.186291 0.077848 0.774855
O O11 0.576515 0.793044 0.808338
O O12 0.672398 0.840970 0.819222
O O13 0.454194 0.531533 0.630984
O O14 0.386025 0.272363 0.017376
O O15 0.726631 0.770082 0.104252
O O16 0.805035 0.862749 0.050160
#
# Coordination Sequence:
#
# PCOD9309044 Si02
#       8
#     8   8   8   8   8   8   8   8
#     4  11  21  37  60  95 120 166 208 259 312 391
#     4  11  24  38  54  93 129 166 202 262 317 379
#     4  11  21  39  69  92 126 164 217 270 314 375
#     4  10  24  40  59  87 133 167 202 260 331 374
#     4  11  22  36  58  90 125 158 214 254 303 386
#     4  11  20  38  66  88 121 168 210 256 314 391
#     4   9  22  42  65  93 120 168 222 259 314 391
#     4  10  20  39  68  93 119 164 217 267 314 369
#
# _framework density 9.3425759999999993
#
# number of rings (size 3 to 8) (size 9 to 14) (size 15 to 20)
#    0.000    1.500    2.500    3.750    5.250    1.500 
#    4.500    0.000    2.750    8.250    0.000    0.000 
#    0.000    0.000    0.000    0.000    0.000    0.000 
#
# Total GULP energy -178161.140173 kJ/mol
# GULP energy per Si atom -5567.535630 kJ/mol
# Density = 0.932131 g / cm^3
# Si number density = 9.342576 Si / 1000 Ang^3
#
#
#
# Elastic Constant Matrix: (Units=GPa)
#
#
# Indices 1 2 3 4 5 6 
#
# 1 97.1435 19.6133 31.9121 0.0000 25.5786 0.0000
# 2 19.6133 101.2654 27.3581 0.0000 11.2839 0.0000
# 3 31.9121 27.3581 95.6433 0.0000 24.6547 0.0000
# 4 0.0000 0.0000 0.0000 14.3784 0.0000 1.3991
# 5 25.5786 11.2839 24.6547 0.0000 25.3328 0.0000
# 6 0.0000 0.0000 0.0000 1.3991 0.0000 22.5892
#
#
#
# Elastic Compliance Matrix: (Units=1/GPa)
#
#
# Indices 1 2 3 4 5 6 
#
# 1 0.014254 -0.001020 -0.001163 0.000000 -0.012806 0.000000
# 2 -0.001020 0.010884 -0.002388 0.000000 -0.001495 0.000000
# 3 -0.001163 -0.002388 0.014617 0.000000 -0.011987 0.000000
# 4 0.000000 0.000000 0.000000 0.069970 0.000000 -0.004334
# 5 -0.012806 -0.001495 -0.011987 0.000000 0.064737 0.000000
# 6 0.000000 0.000000 0.000000 -0.004334 0.000000 0.044537
#
#
# Mechanical properties :
#
#
# Convention : Reuss Voigt Hill
#
# Bulk Modulus (GPa) = 32.66509 50.20215 41.43362
# Shear Modulus (GPa) = 20.97796 26.80467 23.89131
#
# Velocity S-wave (km/s) = 3.35432 3.79165 3.57967
# Velocity P-wave (km/s) = 5.70278 6.78929 6.26962
#
# Compressibility (1/GPa) = 0.03061372
#
# Stress axis : x y z
#
# Youngs Moduli (GPa) = 70.15608 91.87656 68.41470
#
# Poissons Ratio (x) = 0.09367 0.07958
# Poissons Ratio (y) = 0.07153 0.16337
# Poissons Ratio (z) = 0.08160 0.21939
#
# Static dielectric constant tensor:
#      x y z
#    x 1.641370 0.000000 -0.007170 
#    y 0.000000 1.680820 0.000000 
#    z -0.007170 0.000000 1.697230 
# 
# From -- ./inp_files/176649.got.cif
#   From: 2010.05.17/outbox.ucp.g08.bks.cvg/sg15_89_cif.got.tgz:176649.got - 2010.06.11 12:40:34.
