data_PCOD9309521
_publ_section_title
;
Structure prediction by ZEFSAII (Michael W. Deem and Ramdas Pophale) SiO2 
 PCOD9309521
Probable space group: C 2/C
;
_chemical_formula_sum "Si O2"
_cell_formula_units_Z 22
_cell_length_a 27.000000
_cell_length_b 9.000000
_cell_length_c 27.000000
_cell_angle_alpha 90.000000
_cell_angle_beta 20.000000
_cell_angle_gamma 90.000000
_cell_volume 2243.994160
_symmetry_space_group_name_H-M "C 2/C"
_symmetry_group_IT_number 15
_symmetry_cell_setting 'monoclinic'
loop_
_space_group_symop_operation_xyz
x,y,z
-x,y,1/2-z
-x,-y,-z
x,-y,1/2+z
1/2+x,1/2+y,z
1/2-x,1/2+y,1/2-z
1/2-x,1/2-y,-z
1/2+x,1/2-y,1/2+z
loop_
_atom_site_type_symbol
_atom_site_label
_atom_site_fract_x
_atom_site_fract_y
_atom_site_fract_z
Si Si1 0.816878 0.937374 0.223930
Si Si2 0.159292 0.871791 0.896894
Si Si3 0.196014 0.939817 0.460114
Si Si4 0.749346 0.550351 0.524036
Si Si5 0.000000 0.288075 0.750000
Si Si6 0.855012 0.139507 0.284763
O O1 0.718507 0.793326 0.328932
O O2 0.788736 0.020388 0.197538
O O3 0.805578 0.054712 0.280615
O O4 0.983871 0.881116 0.062942
O O5 0.203461 0.932604 0.910343
O O6 0.299814 0.808331 0.342528
O O7 0.029764 0.879776 0.619788
O O8 0.231603 0.992009 0.483454
O O9 0.914363 0.611349 0.370309
O O10 0.630484 0.680812 0.644487
O O11 0.711632 0.436623 0.603022
#
# Coordination Sequence:
#
# PCOD9309521 Si02
#       6
#     8   8   8   8   4   8
#     4  10  23  41  63  90 121 156 200 247 297 355
#     4  10  23  41  63  90 121 156 200 247 297 355
#     4  11  24  40  61  89 124 159 202 248 296 358
#     4  11  23  40  61  90 123 159 200 247 299 360
#     4  10  24  38  62  88 128 150 204 250 300 346
#     4  11  24  40  61  89 124 159 202 248 296 358
#
# _framework density 9.8039470000000009
#
# number of rings (size 3 to 8) (size 9 to 14) (size 15 to 20)
#    0.000    1.455    1.818    1.636    7.636    2.182 
#    0.000    0.000    0.000    0.000    0.000    0.000 
#    0.000    0.000    0.000    0.000    0.000    0.000 
#
# Total GULP energy -122840.625736 kJ/mol
# GULP energy per Si atom -5583.664806 kJ/mol
# Density = 0.978163 g / cm^3
# Si number density = 9.803947 Si / 1000 Ang^3
#
#
#
# Elastic Constant Matrix: (Units=GPa)
#
#
# Indices 1 2 3 4 5 6 
#
# 1 115.0371 28.2769 19.2509 -0.0003 34.1266 0.0003
# 2 28.2769 85.5117 31.9211 -0.0087 9.6643 0.0034
# 3 19.2509 31.9211 101.3302 -0.0075 15.7216 0.0024
# 4 -0.0003 -0.0087 -0.0075 58.5664 0.0016 15.1578
# 5 34.1266 9.6643 15.7216 0.0016 29.8203 -0.0002
# 6 0.0003 0.0034 0.0024 15.1578 -0.0002 33.0910
#
#
#
# Elastic Compliance Matrix: (Units=1/GPa)
#
#
# Indices 1 2 3 4 5 6 
#
# 1 0.013858 -0.003129 0.000715 0.000000 -0.015222 0.000000
# 2 -0.003129 0.014103 -0.004024 0.000002 0.001132 -0.000002
# 3 0.000715 -0.004024 0.011898 0.000001 -0.005787 -0.000001
# 4 0.000000 0.000002 0.000001 0.019371 -0.000003 -0.008873
# 5 -0.015222 0.001132 -0.005787 -0.000003 0.053638 0.000002
# 6 0.000000 -0.000002 -0.000001 -0.008873 0.000002 0.034284
#
#
# Mechanical properties :
#
#
# Convention : Reuss Voigt Hill
#
# Bulk Modulus (GPa) = 37.06020 51.19743 44.12881
# Shear Modulus (GPa) = 29.58152 39.12422 34.35287
#
# Velocity S-wave (km/s) = 3.88835 4.47176 4.19022
# Velocity P-wave (km/s) = 6.25306 7.26839 6.77976
#
# Compressibility (1/GPa) = 0.02698313
#
# Stress axis : x y z
#
# Youngs Moduli (GPa) = 72.16002 70.90582 84.04490
#
# Poissons Ratio (x) = 0.22186 -0.06006
# Poissons Ratio (y) = 0.22579 0.33819
# Poissons Ratio (z) = -0.05157 0.28532
#
# Static dielectric constant tensor:
#      x y z
#    x 1.697930 0.000000 -0.023700 
#    y 0.000000 1.726480 0.000000 
#    z -0.023700 0.000000 1.665370 
# 
# From -- ./inp_files/303156.got.cif
#   From: 2010.05.17/outbox.ucp.g08.bks.cvg/sg15_152_cif.got.tgz:303156.got - 2010.06.11 12:40:34.
