data_PCOD9309308
_publ_section_title
;
Structure prediction by ZEFSAII (Michael W. Deem and Ramdas Pophale) SiO2 
 PCOD9309308
Probable space group: C 2/C
;
_chemical_formula_sum "Si O2"
_cell_formula_units_Z 26
_cell_length_a 15.000000
_cell_length_b 12.000000
_cell_length_c 15.000000
_cell_angle_alpha 90.000000
_cell_angle_beta 70.000000
_cell_angle_gamma 90.000000
_cell_volume 2537.170076
_symmetry_space_group_name_H-M "C 2/C"
_symmetry_group_IT_number 15
_symmetry_cell_setting 'monoclinic'
loop_
_space_group_symop_operation_xyz
x,y,z
-x,y,1/2-z
-x,-y,-z
x,-y,1/2+z
1/2+x,1/2+y,z
1/2-x,1/2+y,1/2-z
1/2-x,1/2-y,-z
1/2+x,1/2-y,1/2+z
loop_
_atom_site_type_symbol
_atom_site_label
_atom_site_fract_x
_atom_site_fract_y
_atom_site_fract_z
Si Si1 0.878094 0.047788 0.445959
Si Si2 0.493610 0.240868 0.920195
Si Si3 0.179221 0.626860 0.436492
Si Si4 0.866412 0.553576 0.691908
Si Si5 0.828796 0.134614 0.655135
Si Si6 0.000000 0.384910 0.750000
Si Si7 0.967788 0.188709 0.888996
O O1 0.959762 0.139071 0.394127
O O2 0.780436 0.092174 0.438963
O O3 0.860201 0.060502 0.558776
O O4 0.902952 0.921634 0.410163
O O5 0.571877 0.165858 0.844546
O O6 0.398364 0.165292 0.963865
O O7 0.526185 0.269528 0.010235
O O8 0.141672 0.520295 0.395080
O O9 0.191133 0.739008 0.372768
O O10 0.762339 0.585682 0.764269
O O11 0.921181 0.467513 0.737243
O O12 0.926518 0.147322 0.676104
O O13 0.048412 0.300282 0.662525
#
# Coordination Sequence:
#
# PCOD9309308 Si02
#       7
#     8   8   8   8   8   4   8
#     4  10  22  42  70  92 124 172 217 258 318 387
#     4  10  21  45  65  94 124 177 210 257 323 386
#     4  10  22  41  61  94 128 165 210 266 315 381
#     4  12  26  39  68  92 135 164 218 264 323 383
#     4  10  22  43  62  96 127 165 212 273 308 376
#     4  12  26  44  60  98 132 166 208 274 328 370
#     4  10  23  46  67  90 135 169 212 263 324 379
#
# _framework density 10.247638
#
# number of rings (size 3 to 8) (size 9 to 14) (size 15 to 20)
#    0.000    1.846    3.077    4.154    6.462    2.462 
#    0.000    1.538    0.000    0.000    0.000    0.000 
#    0.000    0.000    0.000    0.000    0.000    0.000 
#
# Total GULP energy -145204.563214 kJ/mol
# GULP energy per Si atom -5584.790893 kJ/mol
# Density = 1.022431 g / cm^3
# Si number density = 10.247638 Si / 1000 Ang^3
#
#
#
# Elastic Constant Matrix: (Units=GPa)
#
#
# Indices 1 2 3 4 5 6 
#
# 1 46.0530 16.1637 16.8408 0.0000 -11.1275 0.0000
# 2 16.1637 100.9124 28.3764 0.0000 -22.1475 0.0000
# 3 16.8408 28.3764 34.3253 0.0000 -21.8909 0.0000
# 4 0.0000 0.0000 0.0000 37.0332 0.0000 -12.5993
# 5 -11.1275 -22.1475 -21.8909 0.0000 31.7306 0.0000
# 6 0.0000 0.0000 0.0000 -12.5993 0.0000 33.3346
#
#
#
# Elastic Compliance Matrix: (Units=1/GPa)
#
#
# Indices 1 2 3 4 5 6 
#
# 1 0.026510 -0.000746 -0.012130 0.000000 0.000408 0.000000
# 2 -0.000746 0.013088 -0.008561 0.000000 0.002967 0.000000
# 3 -0.012130 -0.008561 0.063637 0.000000 0.033673 0.000000
# 4 0.000000 0.000000 0.000000 0.030987 0.000000 0.011712
# 5 0.000408 0.002967 0.033673 0.000000 0.056960 0.000000
# 6 0.000000 0.000000 0.000000 0.011712 0.000000 0.034426
#
#
# Mechanical properties :
#
#
# Convention : Reuss Voigt Hill
#
# Bulk Modulus (GPa) = 16.56707 33.78362 25.17535
# Shear Modulus (GPa) = 17.32490 28.41368 22.86929
#
# Velocity S-wave (km/s) = 2.91058 3.72741 3.34403
# Velocity P-wave (km/s) = 4.40411 5.91982 5.21730
#
# Compressibility (1/GPa) = 0.06036070
#
# Stress axis : x y z
#
# Youngs Moduli (GPa) = 37.72148 76.40791 15.71419
#
# Poissons Ratio (x) = 0.05699 0.19061
# Poissons Ratio (y) = 0.02814 0.13453
# Poissons Ratio (z) = 0.45755 0.65415
#
# Static dielectric constant tensor:
#      x y z
#    x 1.784930 0.000000 0.068980 
#    y 0.000000 1.698130 0.000000 
#    z 0.068980 0.000000 1.775550 
# 
# From -- ./inp_files/152564.got.cif
#   From: 2010.05.17/outbox.ucp.g08.bks.cvg/sg15_77_cif.got.tgz:152564.got - 2010.06.11 12:40:34.
