data_PCOD9309069
_publ_section_title
;
Structure prediction by ZEFSAII (Michael W. Deem and Ramdas Pophale) SiO2 
 PCOD9309069
Probable space group: C 2/C
;
_chemical_formula_sum "Si O2"
_cell_formula_units_Z 28
_cell_length_a 15.000000
_cell_length_b 18.000000
_cell_length_c 21.000000
_cell_angle_alpha 90.000000
_cell_angle_beta 30.000000
_cell_angle_gamma 90.000000
_cell_volume 2835.000000
_symmetry_space_group_name_H-M "C 2/C"
_symmetry_group_IT_number 15
_symmetry_cell_setting 'monoclinic'
loop_
_space_group_symop_operation_xyz
x,y,z
-x,y,1/2-z
-x,-y,-z
x,-y,1/2+z
1/2+x,1/2+y,z
1/2-x,1/2+y,1/2-z
1/2-x,1/2-y,-z
1/2+x,1/2-y,1/2+z
loop_
_atom_site_type_symbol
_atom_site_label
_atom_site_fract_x
_atom_site_fract_y
_atom_site_fract_z
Si Si1 0.950028 0.254102 0.568618
Si Si2 0.035286 0.386722 0.425150
Si Si3 0.072750 0.027458 0.023379
Si Si4 0.554409 0.130423 0.322525
Si Si5 0.777303 0.871266 0.554739
Si Si6 0.650255 0.145859 0.707796
Si Si7 0.282133 0.965078 0.677610
O O1 0.045011 0.308956 0.458377
O O2 0.885967 0.304470 0.667142
O O3 0.784499 0.212995 0.639101
O O4 0.076340 0.190540 0.520044
O O5 0.853117 0.423183 0.569608
O O6 0.063407 0.376471 0.331031
O O7 0.188050 0.446805 0.349463
O O8 0.910379 0.053435 0.170683
O O9 0.227277 0.084217 0.905092
O O10 0.148772 0.952477 0.007186
O O11 0.000000 0.000000 0.000000
O O12 0.358414 0.148591 0.417666
O O13 0.670962 0.120912 0.187292
O O14 0.577749 0.058792 0.353130
O O15 0.500000 0.166237 0.750000
#
# Coordination Sequence:
#
# PCOD9309069 Si02
#       7
#     8   8   8   8   8   8   8
#     4  11  22  41  61  91 134 173 212 272 336 394
#     4  10  22  40  68  89 132 172 218 271 334 390
#     4  12  21  38  67  95 130 173 226 273 324 393
#     4  10  21  35  63  91 126 166 215 267 329 391
#     4  11  21  35  61  96 125 163 219 267 324 393
#     4  12  26  42  68  95 128 178 233 274 329 400
#     4  10  20  41  65  96 127 177 215 270 337 390
#
# _framework density 9.8765429999999999
#
# number of rings (size 3 to 8) (size 9 to 14) (size 15 to 20)
#    0.000    1.143    4.286    1.286    4.000    1.714 
#    0.000    0.714    0.000    5.143    0.000    0.000 
#    0.000    0.000    0.000    0.000    0.000    0.000 
#
# Total GULP energy -156106.924641 kJ/mol
# GULP energy per Si atom -5575.247309 kJ/mol
# Density = 0.985406 g / cm^3
# Si number density = 9.876543 Si / 1000 Ang^3
#
#
#
# Elastic Constant Matrix: (Units=GPa)
#
#
# Indices 1 2 3 4 5 6 
#
# 1 78.5425 52.4074 38.0617 -0.0029 -10.9842 -0.0009
# 2 52.4074 108.3229 35.5915 -0.0016 -6.6341 0.0024
# 3 38.0617 35.5915 124.9143 -0.0052 17.2964 0.0032
# 4 -0.0029 -0.0016 -0.0052 32.7336 0.0056 6.9459
# 5 -10.9842 -6.6341 17.2964 0.0056 39.8453 0.0005
# 6 -0.0009 0.0024 0.0032 6.9459 0.0005 9.0728
#
#
#
# Elastic Compliance Matrix: (Units=1/GPa)
#
#
# Indices 1 2 3 4 5 6 
#
# 1 0.021846 -0.008438 -0.005204 -0.000002 0.006877 0.000007
# 2 -0.008438 0.013829 -0.001453 0.000001 0.000607 -0.000004
# 3 -0.005204 -0.001453 0.010892 0.000004 -0.006405 -0.000006
# 4 -0.000002 0.000001 0.000004 0.036475 -0.000007 -0.027924
# 5 0.006877 0.000607 -0.006405 -0.000007 0.029874 0.000006
# 6 0.000007 -0.000004 -0.000006 -0.027924 0.000006 0.131598
#
#
# Mechanical properties :
#
#
# Convention : Reuss Voigt Hill
#
# Bulk Modulus (GPa) = 61.06668 62.65566 61.86117
# Shear Modulus (GPa) = 17.84672 28.71163 23.27917
#
# Velocity S-wave (km/s) = 3.00907 3.81665 3.43667
# Velocity P-wave (km/s) = 6.56162 7.15617 6.86533
#
# Compressibility (1/GPa) = 0.01637554
#
# Stress axis : x y z
#
# Youngs Moduli (GPa) = 45.77481 72.31340 91.80890
#
# Poissons Ratio (x) = 0.61019 0.47782
# Poissons Ratio (y) = 0.38625 0.13341
# Poissons Ratio (z) = 0.23823 0.10508
#
# Static dielectric constant tensor:
#      x y z
#    x 1.692470 0.000030 -0.040400 
#    y 0.000030 1.820550 -0.000020 
#    z -0.040400 -0.000020 1.732610 
# 
# From -- ./inp_files/245109.got.cif
#   From: 2010.05.17/outbox.ucp.g08.bks.cvg/sg15_123_cif.got.tgz:245109.got - 2010.06.11 12:40:34.
