data_PCOD9309909
_publ_section_title
;
Structure prediction by ZEFSAII (Michael W. Deem and Ramdas Pophale) SiO2 
 PCOD9309909
Probable space group: C 2/C
;
_chemical_formula_sum "Si O2"
_cell_formula_units_Z 16
_cell_length_a 9.000000
_cell_length_b 12.000000
_cell_length_c 15.000000
_cell_angle_alpha 90.000000
_cell_angle_beta 70.000000
_cell_angle_gamma 90.000000
_cell_volume 1522.302046
_symmetry_space_group_name_H-M "C 2/C"
_symmetry_group_IT_number 15
_symmetry_cell_setting 'monoclinic'
loop_
_space_group_symop_operation_xyz
x,y,z
-x,y,1/2-z
-x,-y,-z
x,-y,1/2+z
1/2+x,1/2+y,z
1/2-x,1/2+y,1/2-z
1/2-x,1/2-y,-z
1/2+x,1/2-y,1/2+z
loop_
_atom_site_type_symbol
_atom_site_label
_atom_site_fract_x
_atom_site_fract_y
_atom_site_fract_z
Si Si1 0.000000 0.148254 0.750000
Si Si2 0.730755 0.179007 0.257285
Si Si3 0.379046 0.498306 0.607302
Si Si4 0.984682 0.499507 0.894727
Si Si5 0.500000 0.183366 0.750000
O O1 0.144939 0.233663 0.709898
O O2 0.050735 0.082058 0.829775
O O3 0.843045 0.245145 0.302691
O O4 0.854664 0.110736 0.172541
O O5 0.597878 0.100220 0.331823
O O6 0.500000 0.500000 0.500000
O O7 0.200478 0.502881 0.599854
O O8 0.044054 0.606626 0.826005
O O9 0.000000 0.500000 0.000000
#
# Coordination Sequence:
#
# PCOD9309909 Si02
#       5
#     4   8   8   8   4
#     4  12  24  50  76 100 154 194 242 300 364 434
#     4  12  25  50  75 104 150 196 244 303 364 431
#     4  12  28  46  75 113 146 192 245 303 366 432
#     4  12  27  49  73 110 153 187 244 309 359 438
#     4  12  26  48  78 106 144 202 246 296 368 434
#
# _framework density 10.510398
#
# number of rings (size 3 to 8) (size 9 to 14) (size 15 to 20)
#    0.000    0.000    7.500    0.750   10.500    4.000 
#    0.000    0.000    0.000    0.000    0.000    0.000 
#    0.000    0.000    0.000    0.000    0.000    0.000 
#
# Total GULP energy -89109.043174 kJ/mol
# GULP energy per Si atom -5569.315198 kJ/mol
# Density = 1.048648 g / cm^3
# Si number density = 10.510398 Si / 1000 Ang^3
#
#
#
# Elastic Constant Matrix: (Units=GPa)
#
#
# Indices 1 2 3 4 5 6 
#
# 1 170.8304 79.1067 51.3840 0.0000 2.0504 0.0000
# 2 79.1067 125.3337 63.5049 0.0000 1.4800 0.0000
# 3 51.3840 63.5049 162.4958 0.0000 9.0000 0.0000
# 4 0.0000 0.0000 0.0000 6.4483 0.0000 1.3008
# 5 2.0504 1.4800 9.0000 0.0000 50.7879 0.0000
# 6 0.0000 0.0000 0.0000 1.3008 0.0000 61.8678
#
#
#
# Elastic Compliance Matrix: (Units=1/GPa)
#
#
# Indices 1 2 3 4 5 6 
#
# 1 0.008339 -0.004898 -0.000719 0.000000 -0.000067 0.000000
# 2 -0.004898 0.012834 -0.003491 0.000000 0.000442 0.000000
# 3 -0.000719 -0.003491 0.007815 0.000000 -0.001254 0.000000
# 4 0.000000 0.000000 0.000000 0.155739 0.000000 -0.003274
# 5 -0.000067 0.000442 -0.001254 0.000000 0.019902 0.000000
# 6 0.000000 0.000000 0.000000 -0.003274 0.000000 0.016232
#
#
# Mechanical properties :
#
#
# Convention : Reuss Voigt Hill
#
# Bulk Modulus (GPa) = 92.83888 94.07236 93.45562
# Shear Modulus (GPa) = 20.60417 41.46508 31.03462
#
# Velocity S-wave (km/s) = 3.13418 4.44619 3.84653
# Velocity P-wave (km/s) = 7.57354 8.43844 8.01766
#
# Compressibility (1/GPa) = 0.01077135
#
# Stress axis : x y z
#
# Youngs Moduli (GPa) = 119.91735 77.91747 127.95509
#
# Poissons Ratio (x) = 0.38166 0.09200
# Poissons Ratio (y) = 0.58739 0.44673
# Poissons Ratio (z) = 0.08622 0.27203
#
# Static dielectric constant tensor:
#      x y z
#    x 1.820900 0.000000 -0.017600 
#    y 0.000000 1.887010 0.000000 
#    z -0.017600 0.000000 1.695260 
# 
# From -- ./inp_files/131955.got.cif
#   From: 2010.05.17/outbox.ucp.g08.bks.cvg/sg15_66_cif.got.tgz:131955.got - 2010.06.11 12:40:34.
