data_PCOD9309625
_publ_section_title
;
Structure prediction by ZEFSAII (Michael W. Deem and Ramdas Pophale) SiO2 
 PCOD9309625
Probable space group: C 2/C
;
_chemical_formula_sum "Si O2"
_cell_formula_units_Z 30
_cell_length_a 18.000000
_cell_length_b 12.000000
_cell_length_c 15.000000
_cell_angle_alpha 90.000000
_cell_angle_beta 70.000000
_cell_angle_gamma 90.000000
_cell_volume 3044.604091
_symmetry_space_group_name_H-M "C 2/C"
_symmetry_group_IT_number 15
_symmetry_cell_setting 'monoclinic'
loop_
_space_group_symop_operation_xyz
x,y,z
-x,y,1/2-z
-x,-y,-z
x,-y,1/2+z
1/2+x,1/2+y,z
1/2-x,1/2+y,1/2-z
1/2-x,1/2-y,-z
1/2+x,1/2-y,1/2+z
loop_
_atom_site_type_symbol
_atom_site_label
_atom_site_fract_x
_atom_site_fract_y
_atom_site_fract_z
Si Si1 0.256786 0.150072 0.613699
Si Si2 0.046925 0.103236 0.096920
Si Si3 0.653756 0.950621 0.136700
Si Si4 0.000000 0.296093 0.250000
Si Si5 0.718993 0.683869 0.818967
Si Si6 0.380656 0.200604 0.416037
Si Si7 0.235951 0.102057 0.077066
Si Si8 0.470915 0.638706 0.606850
O O1 0.258676 0.207670 0.708142
O O2 0.338482 0.170584 0.527471
O O3 0.181531 0.208204 0.596584
O O4 0.241029 0.017132 0.625530
O O5 0.005586 0.205612 0.166814
O O6 0.143421 0.107457 0.078492
O O7 0.006934 0.979682 0.130565
O O8 0.030205 0.125531 0.999741
O O9 0.578309 0.875788 0.202050
O O10 0.730834 0.924115 0.167003
O O11 0.626420 0.081058 0.134882
O O12 0.694657 0.910283 0.026581
O O13 0.739771 0.788042 0.875992
O O14 0.624284 0.662894 0.838858
O O15 0.466910 0.261836 0.389505
#
# Coordination Sequence:
#
# PCOD9309625 Si02
#       8
#     8   8   8   4   8   8   8   8
#     4  10  25  43  71 103 135 190 235 284 348 421
#     4  11  24  43  74 102 141 177 242 286 349 408
#     4  11  25  45  71 100 146 188 223 292 358 414
#     4  12  26  44  72 104 138 186 238 286 340 426
#     4  12  25  41  72 102 138 179 245 282 346 418
#     4  10  24  48  69  96 151 183 225 290 363 414
#     4  11  22  50  70 100 144 190 224 293 359 413
#     4  11  25  43  72 107 136 184 232 295 347 417
#
# _framework density 9.8534980000000001
#
# number of rings (size 3 to 8) (size 9 to 14) (size 15 to 20)
#    0.000    1.067    4.000    1.200    5.600    1.600 
#    0.000    2.000    0.000    0.000    0.000    0.000 
#    0.000    0.000    0.000    0.000    0.000    0.000 
#
# Total GULP energy -167197.604195 kJ/mol
# GULP energy per Si atom -5573.253473 kJ/mol
# Density = 0.983107 g / cm^3
# Si number density = 9.853498 Si / 1000 Ang^3
#
#
#
# Elastic Constant Matrix: (Units=GPa)
#
#
# Indices 1 2 3 4 5 6 
#
# 1 154.1031 62.8392 21.0829 0.0000 -25.6888 0.0000
# 2 62.8392 150.6100 21.5703 0.0000 -16.4180 0.0000
# 3 21.0829 21.5703 71.6806 0.0000 -13.4903 0.0000
# 4 0.0000 0.0000 0.0000 29.3318 0.0000 -5.4724
# 5 -25.6888 -16.4180 -13.4903 0.0000 28.9347 0.0000
# 6 0.0000 0.0000 0.0000 -5.4724 0.0000 42.2111
#
#
#
# Elastic Compliance Matrix: (Units=1/GPa)
#
#
# Indices 1 2 3 4 5 6 
#
# 1 0.008733 -0.002924 -0.000594 0.000000 0.005817 0.000000
# 2 -0.002924 0.008208 -0.001340 0.000000 0.001437 0.000000
# 3 -0.000594 -0.001340 0.015660 0.000000 0.006014 0.000000
# 4 0.000000 0.000000 0.000000 0.034938 0.000000 0.004529
# 5 0.005817 0.001437 0.006014 0.000000 0.043344 0.000000
# 6 0.000000 0.000000 0.000000 0.004529 0.000000 0.024278
#
#
# Mechanical properties :
#
#
# Convention : Reuss Voigt Hill
#
# Bulk Modulus (GPa) = 43.69500 65.26426 54.47963
# Shear Modulus (GPa) = 32.78592 38.15561 35.47077
#
# Velocity S-wave (km/s) = 4.08324 4.40494 4.24713
# Velocity P-wave (km/s) = 6.66715 7.68508 7.19414
#
# Compressibility (1/GPa) = 0.02288591
#
# Stress axis : x y z
#
# Youngs Moduli (GPa) = 114.51458 121.82856 63.85546
#
# Poissons Ratio (x) = 0.35627 0.03791
# Poissons Ratio (y) = 0.33488 0.08554
# Poissons Ratio (z) = 0.06799 0.16320
#
# Static dielectric constant tensor:
#      x y z
#    x 1.697480 0.000000 0.020210 
#    y 0.000000 1.709140 0.000000 
#    z 0.020210 0.000000 1.771470 
# 
# From -- ./inp_files/161318.got.cif
#   From: 2010.05.17/outbox.ucp.g08.bks.cvg/sg15_81_cif.got.tgz:161318.got - 2010.06.11 12:40:34.
