data_PCOD9309245
_publ_section_title
;
Structure prediction by ZEFSAII (Michael W. Deem and Ramdas Pophale) SiO2 
 PCOD9309245
Probable space group: C 2/C
;
_chemical_formula_sum "Si O2"
_cell_formula_units_Z 28
_cell_length_a 9.000000
_cell_length_b 21.000000
_cell_length_c 30.000000
_cell_angle_alpha 90.000000
_cell_angle_beta 150.000000
_cell_angle_gamma 90.000000
_cell_volume 2835.000000
_symmetry_space_group_name_H-M "C 2/C"
_symmetry_group_IT_number 15
_symmetry_cell_setting 'monoclinic'
loop_
_space_group_symop_operation_xyz
x,y,z
-x,y,1/2-z
-x,-y,-z
x,-y,1/2+z
1/2+x,1/2+y,z
1/2-x,1/2+y,1/2-z
1/2-x,1/2-y,-z
1/2+x,1/2-y,1/2+z
loop_
_atom_site_type_symbol
_atom_site_label
_atom_site_fract_x
_atom_site_fract_y
_atom_site_fract_z
Si Si1 0.163748 0.528989 0.085946
Si Si2 0.802109 0.312455 0.983759
Si Si3 0.204925 0.888090 0.696242
Si Si4 0.817006 0.704138 0.308044
Si Si5 0.199227 0.098781 0.844202
Si Si6 0.367580 0.837073 0.522719
Si Si7 0.833264 0.846524 0.324843
O O1 0.484879 0.557536 0.156793
O O2 0.190805 0.473802 0.129387
O O3 0.980015 0.590377 0.053318
O O4 0.000000 0.500000 0.000000
O O5 0.494607 0.347218 0.890586
O O6 0.958973 0.305820 0.975171
O O7 0.750000 0.250000 0.000000
O O8 0.022203 0.356841 0.070245
O O9 0.500000 0.913725 0.750000
O O10 0.308131 0.842066 0.763544
O O11 0.500000 0.696019 0.250000
O O12 0.841169 0.778304 0.301573
O O13 0.054983 0.691145 0.409063
O O14 0.000000 0.116903 0.750000
O O15 0.991714 0.103543 0.834106
O O16 0.026003 0.836922 0.419537
O O17 0.500000 0.862956 0.250000
#
# Coordination Sequence:
#
# PCOD9309245 Si02
#       7
#     8   8   8   8   8   8   8
#     4  11  20  45  66  84 126 171 222 248 318 386
#     4  10  22  38  64  92 133 168 206 260 324 382
#     4  11  25  40  64  99 124 166 213 276 316 367
#     4  11  21  39  65  92 127 164 214 252 319 393
#     4  11  25  41  67  94 121 175 215 258 311 385
#     4  10  21  41  64  92 118 177 210 257 310 385
#     4  10  23  39  59  92 130 164 196 265 321 371
#
# _framework density 9.8765429999999999
#
# number of rings (size 3 to 8) (size 9 to 14) (size 15 to 20)
#    0.000    1.429    7.143    0.429    8.000    0.571 
#    2.571    0.000    0.000    2.571    0.000    0.000 
#    0.000    0.000    0.000    0.000    0.000    0.000 
#
# Total GULP energy -156320.037513 kJ/mol
# GULP energy per Si atom -5582.858483 kJ/mol
# Density = 0.985406 g / cm^3
# Si number density = 9.876543 Si / 1000 Ang^3
#
#
#
# Elastic Constant Matrix: (Units=GPa)
#
#
# Indices 1 2 3 4 5 6 
#
# 1 20.0800 27.9862 35.8997 0.0038 -1.4661 0.0028
# 2 27.9862 99.7085 19.1521 0.0011 3.1193 0.0016
# 3 35.8997 19.1521 148.3177 0.0027 -1.4685 0.0053
# 4 0.0038 0.0011 0.0027 27.4270 0.0037 -4.2944
# 5 -1.4661 3.1193 -1.4685 0.0037 42.1357 0.0033
# 6 0.0028 0.0016 0.0053 -4.2944 0.0033 27.1690
#
#
#
# Elastic Compliance Matrix: (Units=1/GPa)
#
#
# Indices 1 2 3 4 5 6 
#
# 1 0.175538 -0.042425 -0.036931 -0.000022 0.007961 -0.000013
# 2 -0.042425 0.020566 0.007586 0.000005 -0.002734 0.000003
# 3 -0.036931 0.007586 0.014688 0.000004 -0.001335 0.000001
# 4 -0.000022 0.000005 0.000004 0.037386 -0.000005 0.005909
# 5 0.007961 -0.002734 -0.001335 -0.000005 0.024166 -0.000004
# 6 -0.000013 0.000003 0.000001 0.005909 -0.000004 0.037741
#
#
# Mechanical properties :
#
#
# Convention : Reuss Voigt Hill
#
# Bulk Modulus (GPa) = 14.86954 48.24245 31.55600
# Shear Modulus (GPa) = 10.50329 31.68422 21.09376
#
# Velocity S-wave (km/s) = 2.30843 4.00936 3.27138
# Velocity P-wave (km/s) = 3.82742 6.77562 5.50264
#
# Compressibility (1/GPa) = 0.06725156
#
# Stress axis : x y z
#
# Youngs Moduli (GPa) = 5.69678 48.62497 68.08061
#
# Poissons Ratio (x) = 2.06293 2.51429
# Poissons Ratio (y) = 0.24169 -0.51647
# Poissons Ratio (z) = 0.21039 -0.36888
#
# Static dielectric constant tensor:
#      x y z
#    x 1.686240 0.000000 0.011350 
#    y 0.000000 1.727790 0.000000 
#    z 0.011350 0.000000 1.710330 
# 
# From -- ./inp_files/309008.got.cif
#   From: 2010.05.17/outbox.ucp.g08.bks.cvg/sg15_155_cif.got.tgz:309008.got - 2010.06.11 12:40:34.
