data_PCOD9309232
_publ_section_title
;
Structure prediction by ZEFSAII (Michael W. Deem and Ramdas Pophale) SiO2 
 PCOD9309232
Probable space group: C 2/C
;
_chemical_formula_sum "Si O2"
_cell_formula_units_Z 32
_cell_length_a 12.000000
_cell_length_b 15.000000
_cell_length_c 27.000000
_cell_angle_alpha 90.000000
_cell_angle_beta 40.000000
_cell_angle_gamma 90.000000
_cell_volume 3123.947783
_symmetry_space_group_name_H-M "C 2/C"
_symmetry_group_IT_number 15
_symmetry_cell_setting 'monoclinic'
loop_
_space_group_symop_operation_xyz
x,y,z
-x,y,1/2-z
-x,-y,-z
x,-y,1/2+z
1/2+x,1/2+y,z
1/2-x,1/2+y,1/2-z
1/2-x,1/2-y,-z
1/2+x,1/2-y,1/2+z
loop_
_atom_site_type_symbol
_atom_site_label
_atom_site_fract_x
_atom_site_fract_y
_atom_site_fract_z
Si Si1 0.554033 0.493747 0.349974
Si Si2 0.209920 0.852875 0.578998
Si Si3 0.505612 0.079284 0.459077
Si Si4 0.050083 0.089447 0.453274
Si Si5 0.077075 0.327668 0.670336
Si Si6 0.082122 0.499010 0.824281
Si Si7 0.655725 0.318521 0.069565
Si Si8 0.832184 0.658343 0.927409
O O1 0.408389 0.559059 0.375655
O O2 0.598804 0.553174 0.382396
O O3 0.719108 0.480085 0.258107
O O4 0.474026 0.400967 0.397998
O O5 0.340332 0.853244 0.580145
O O6 0.113154 0.758569 0.605343
O O7 0.324191 0.857344 0.489498
O O8 0.543230 0.038695 0.392452
O O9 0.324593 0.127887 0.529160
O O10 0.500000 0.000000 0.500000
O O11 0.219384 0.146913 0.408070
O O12 0.871691 0.145303 0.516067
O O13 0.000000 0.000000 0.500000
O O14 0.053654 0.243633 0.642537
O O15 0.000000 0.303135 0.750000
O O16 0.978149 0.417655 0.689401
O O17 0.956548 0.584510 0.861421
O O18 0.750000 0.250000 0.000000
#
# Coordination Sequence:
#
# PCOD9309232 Si02
#       8
#     8   8   8   8   8   8   8   8
#     4  11  25  42  65  98 138 176 218 282 342 395
#     4  10  22  42  65  98 127 171 229 272 329 400
#     4  12  22  44  72  96 133 181 226 276 337 402
#     4  11  20  39  72  93 126 175 224 268 333 404
#     4  12  25  44  67 102 138 177 226 287 349 404
#     4  12  24  43  67  99 143 174 221 287 340 402
#     4  12  25  45  71 101 137 178 235 281 335 411
#     4  10  21  40  68  97 127 171 227 278 321 402
#
# _framework density 10.243449
#
# number of rings (size 3 to 8) (size 9 to 14) (size 15 to 20)
#    0.000    0.750    6.250    2.250    0.000    2.500 
#    2.250    0.000    2.750    0.000    0.000    0.000 
#    0.000    0.000    0.000    0.000    0.000    0.000 
#
# Total GULP energy -178411.258180 kJ/mol
# GULP energy per Si atom -5575.351818 kJ/mol
# Density = 1.022013 g / cm^3
# Si number density = 10.243449 Si / 1000 Ang^3
#
#
#
# Elastic Constant Matrix: (Units=GPa)
#
#
# Indices 1 2 3 4 5 6 
#
# 1 24.1364 12.1447 -3.4794 0.0000 -8.8350 0.0000
# 2 12.1447 126.4680 33.2431 0.0000 -9.1003 0.0000
# 3 -3.4794 33.2431 87.4708 -0.0001 -4.5926 -0.0001
# 4 0.0000 0.0000 -0.0001 22.3830 -0.0001 4.3501
# 5 -8.8350 -9.1003 -4.5926 -0.0001 27.3408 0.0001
# 6 0.0000 0.0000 -0.0001 4.3501 0.0001 31.0113
#
#
#
# Elastic Compliance Matrix: (Units=1/GPa)
#
#
# Indices 1 2 3 4 5 6 
#
# 1 0.050222 -0.004949 0.004685 0.000000 0.015369 0.000000
# 2 -0.004949 0.009429 -0.003732 0.000000 0.000912 0.000000
# 3 0.004685 -0.003732 0.013168 0.000000 0.002484 0.000000
# 4 0.000000 0.000000 0.000000 0.045929 0.000000 -0.006443
# 5 0.015369 0.000912 0.002484 0.000000 0.042263 0.000000
# 6 0.000000 0.000000 0.000000 -0.006443 0.000000 0.033150
#
#
# Mechanical properties :
#
#
# Convention : Reuss Voigt Hill
#
# Bulk Modulus (GPa) = 15.42545 35.76576 25.59561
# Shear Modulus (GPa) = 22.34524 29.22481 25.78503
#
# Velocity S-wave (km/s) = 3.30617 3.78102 3.55154
# Velocity P-wave (km/s) = 4.70320 6.04626 5.41652
#
# Compressibility (1/GPa) = 0.06482792
#
# Stress axis : x y z
#
# Youngs Moduli (GPa) = 19.91144 106.05464 75.94358
#
# Poissons Ratio (x) = 0.52481 -0.35582
# Poissons Ratio (y) = 0.09853 0.28346
# Poissons Ratio (z) = -0.09329 0.39584
#
# Static dielectric constant tensor:
#      x y z
#    x 1.857420 0.000000 -0.007340 
#    y 0.000000 1.576530 0.000000 
#    z -0.007340 0.000000 1.734900 
# 
# From -- ./inp_files/293051.got.cif
#   From: 2010.05.17/outbox.ucp.g08.bks.cvg/sg15_147_cif.got.tgz:293051.got - 2010.06.11 12:40:34.
