data_PCOD9309352
_publ_section_title
;
Structure prediction by ZEFSAII (Michael W. Deem and Ramdas Pophale) SiO2 
 PCOD9309352
Probable space group: C 2/C
;
_chemical_formula_sum "Si O2"
_cell_formula_units_Z 18
_cell_length_a 15.000000
_cell_length_b 6.000000
_cell_length_c 30.000000
_cell_angle_alpha 90.000000
_cell_angle_beta 140.000000
_cell_angle_gamma 90.000000
_cell_volume 1735.526546
_symmetry_space_group_name_H-M "C 2/C"
_symmetry_group_IT_number 15
_symmetry_cell_setting 'monoclinic'
loop_
_space_group_symop_operation_xyz
x,y,z
-x,y,1/2-z
-x,-y,-z
x,-y,1/2+z
1/2+x,1/2+y,z
1/2-x,1/2+y,1/2-z
1/2-x,1/2-y,-z
1/2+x,1/2-y,1/2+z
loop_
_atom_site_type_symbol
_atom_site_label
_atom_site_fract_x
_atom_site_fract_y
_atom_site_fract_z
Si Si1 0.000000 0.217010 0.250000
Si Si2 0.425329 0.750837 0.462059
Si Si3 0.431935 0.685777 0.359435
Si Si4 0.884541 0.096702 0.633541
Si Si5 0.880318 0.456460 0.773885
O O1 0.097607 0.367259 0.256807
O O2 0.102341 0.080586 0.321405
O O3 0.500000 0.500000 0.500000
O O4 0.416854 0.723858 0.405730
O O5 0.268152 0.786119 0.423054
O O6 0.500000 0.000000 0.500000
O O7 0.558908 0.532355 0.389554
O O8 0.282120 0.596456 0.284613
O O9 0.441512 0.927967 0.341141
O O10 0.013766 0.257658 0.694499
#
# Coordination Sequence:
#
# PCOD9309352 Si02
#       5
#     4   8   8   8   8
#     4  10  22  38  72 106 142 178 234 308 398 434
#     4  12  32  51  72 102 151 211 257 297 354 451
#     4  11  25  43  76 109 146 183 247 309 391 443
#     4  11  25  44  72 105 145 192 246 314 377 449
#     4  11  22  42  73 111 141 177 233 324 385 446
#
# _framework density 10.371492
#
# number of rings (size 3 to 8) (size 9 to 14) (size 15 to 20)
#    0.000    0.889    2.222    3.333   15.556    1.778 
#    0.000    0.000    0.000    0.000    0.000    0.000 
#    0.000    0.000    0.000    0.000    0.000    0.000 
#
# Total GULP energy -100250.542022 kJ/mol
# GULP energy per Si atom -5569.474557 kJ/mol
# Density = 1.034789 g / cm^3
# Si number density = 10.371492 Si / 1000 Ang^3
#
#
#
# Elastic Constant Matrix: (Units=GPa)
#
#
# Indices 1 2 3 4 5 6 
#
# 1 126.4126 28.6055 47.5248 -0.0004 12.1604 0.0008
# 2 28.6055 95.2973 32.7813 -0.0012 2.9494 0.0013
# 3 47.5248 32.7813 46.3985 -0.0002 14.2746 0.0001
# 4 -0.0004 -0.0012 -0.0002 7.0891 0.0001 17.7712
# 5 12.1604 2.9494 14.2746 0.0001 42.4484 -0.0001
# 6 0.0008 0.0013 0.0001 17.7712 -0.0001 33.1991
#
#
#
# Elastic Compliance Matrix: (Units=1/GPa)
#
#
# Indices 1 2 3 4 5 6 
#
# 1 0.012960 0.000995 -0.014293 -0.000004 0.001024 0.000002
# 2 0.000995 0.014201 -0.011891 -0.000010 0.002727 0.000005
# 3 -0.014293 -0.011891 0.048050 0.000009 -0.011238 -0.000004
# 4 -0.000004 -0.000010 0.000009 -0.412600 0.000000 0.220861
# 5 0.001024 0.002727 -0.011238 0.000000 0.026854 0.000000
# 6 0.000002 0.000005 -0.000004 0.220861 0.000000 -0.088104
#
#
# Mechanical properties :
#
#
# Convention : Reuss Voigt Hill
#
# Bulk Modulus (GPa) = 40.26802 53.99241 47.13022
# Shear Modulus (GPa) = -14.70666 27.16045 6.22690
#
# Velocity S-wave (km/s) = -2.66558 3.62246 1.73449
# Velocity P-wave (km/s) = 3.15930 6.60167 5.17510
#
# Compressibility (1/GPa) = 0.02483360
#
# Stress axis : x y z
#
# Youngs Moduli (GPa) = 77.15830 70.41831 20.81145
#
# Poissons Ratio (x) = -0.07003 0.29745
# Poissons Ratio (y) = -0.07674 0.24746
# Poissons Ratio (z) = 1.10281 0.83733
#
# Static dielectric constant tensor:
#      x y z
#    x 1.781120 0.000000 -0.083410 
#    y 0.000000 1.854120 0.000000 
#    z -0.083410 0.000000 2.074590 
# 
# From -- ./inp_files/241431.got.cif
#   From: 2010.05.17/outbox.ucp.g08.bks.cvg/sg15_121_cif.got.tgz:241431.got - 2010.06.11 12:40:34.
