data_PCOD9309197
_publ_section_title
;
Structure prediction by ZEFSAII (Michael W. Deem and Ramdas Pophale) SiO2 
 PCOD9309197
Probable space group: C 2/C
;
_chemical_formula_sum "Si O2"
_cell_formula_units_Z 28
_cell_length_a 15.000000
_cell_length_b 12.000000
_cell_length_c 30.000000
_cell_angle_alpha 90.000000
_cell_angle_beta 30.000000
_cell_angle_gamma 90.000000
_cell_volume 2700.000000
_symmetry_space_group_name_H-M "C 2/C"
_symmetry_group_IT_number 15
_symmetry_cell_setting 'monoclinic'
loop_
_space_group_symop_operation_xyz
x,y,z
-x,y,1/2-z
-x,-y,-z
x,-y,1/2+z
1/2+x,1/2+y,z
1/2-x,1/2+y,1/2-z
1/2-x,1/2-y,-z
1/2+x,1/2-y,1/2+z
loop_
_atom_site_type_symbol
_atom_site_label
_atom_site_fract_x
_atom_site_fract_y
_atom_site_fract_z
Si Si1 0.680104 0.396346 0.375596
Si Si2 0.313957 0.335645 0.856001
Si Si3 0.433880 0.793431 0.897380
Si Si4 0.199853 0.925528 0.547188
Si Si5 0.778247 0.021740 0.055305
Si Si6 0.414085 0.032811 0.106791
Si Si7 0.644738 0.580311 0.790237
O O1 0.742635 0.279400 0.367523
O O2 0.747501 0.482115 0.383505
O O3 0.465662 0.411956 0.470115
O O4 0.732641 0.415228 0.301539
O O5 0.500000 0.358140 0.750000
O O6 0.321317 0.329275 0.906633
O O7 0.181952 0.434975 0.897427
O O8 0.560154 0.849431 0.879244
O O9 0.546501 0.697691 0.825295
O O10 0.375376 0.893361 0.891234
O O11 0.250000 0.750000 0.000000
O O12 0.208897 0.926151 0.489024
O O13 0.387616 0.983124 0.478701
O O14 0.022250 0.996430 0.634396
O O15 0.284482 0.955894 0.192545
#
# Coordination Sequence:
#
# PCOD9309197 Si02
#       7
#     8   8   8   8   8   8   8
#     4  10  21  39  64  94 127 165 209 266 319 382
#     4  12  23  38  62  95 128 166 208 256 334 386
#     4  11  18  40  71  88 119 180 222 252 319 393
#     4  10  22  40  64  90 130 165 212 268 306 386
#     4   9  20  40  67  92 120 168 218 258 316 375
#     4  11  22  40  66  96 125 171 217 268 323 373
#     4  11  21  40  69  93 128 167 222 264 312 389
#
# _framework density 10.370369999999999
#
# number of rings (size 3 to 8) (size 9 to 14) (size 15 to 20)
#    0.000    1.429    7.143    0.429    0.000    2.857 
#    0.000    4.286    3.143    0.000    0.000    0.000 
#    0.000    0.000    0.000    0.000    0.000    0.000 
#
# Total GULP energy -156065.300962 kJ/mol
# GULP energy per Si atom -5573.760749 kJ/mol
# Density = 1.034677 g / cm^3
# Si number density = 10.370370 Si / 1000 Ang^3
#
#
#
# Elastic Constant Matrix: (Units=GPa)
#
#
# Indices 1 2 3 4 5 6 
#
# 1 93.9676 24.4186 18.1964 -0.0001 -1.5676 0.0000
# 2 24.4186 30.9307 -24.9313 -0.0004 -8.4238 0.0002
# 3 18.1964 -24.9313 -113.7469 -0.0008 -24.8236 0.0006
# 4 -0.0001 -0.0004 -0.0008 14.2063 0.0002 -6.0776
# 5 -1.5676 -8.4238 -24.8236 0.0002 17.4189 -0.0001
# 6 0.0000 0.0002 0.0006 -6.0776 -0.0001 28.5863
#
#
#
# Elastic Compliance Matrix: (Units=1/GPa)
#
#
# Indices 1 2 3 4 5 6 
#
# 1 0.011800 -0.006458 0.002863 0.000000 0.002018 0.000000
# 2 -0.006458 0.031308 -0.008446 0.000000 0.002523 0.000000
# 3 0.002863 -0.008446 -0.004307 0.000000 -0.009965 0.000000
# 4 0.000000 0.000000 0.000000 0.077434 -0.000001 0.016463
# 5 0.002018 0.002523 -0.009965 -0.000001 0.044609 0.000000
# 6 0.000000 0.000000 0.000000 0.016463 0.000000 0.038482
#
#
# Mechanical properties :
#
#
# Convention : Reuss Voigt Hill
#
# Bulk Modulus (GPa) = 67.94743 5.16877 36.55810
# Shear Modulus (GPa) = 21.89966 11.60681 16.75323
#
# Velocity S-wave (km/s) = 3.25295 2.36818 2.84517
# Velocity P-wave (km/s) = 6.85131 3.15836 5.33459
#
# Compressibility (1/GPa) = 0.01471726
#
# Stress axis : x y z
#
# Youngs Moduli (GPa) = 84.74914 31.94047 -232.15468
#
# Poissons Ratio (x) = 0.20628 0.66458
# Poissons Ratio (y) = 0.54733 -1.96078
# Poissons Ratio (z) = -0.24261 0.26977
#
# Static dielectric constant tensor:
#      x y z
#    x 1.829930 0.000000 0.013420 
#    y 0.000000 1.777410 0.000000 
#    z 0.013420 0.000000 1.710450 
# 
# From -- ./inp_files/313706.got.cif
#   From: 2010.05.17/outbox.ucp.g08.bks.cvg/sg15_157_cif.got.tgz:313706.got - 2010.06.11 12:40:34.
