data_PCOD9309706
_publ_section_title
;
Structure prediction by ZEFSAII (Michael W. Deem and Ramdas Pophale) SiO2 
 PCOD9309706
Probable space group: C 2/C
;
_chemical_formula_sum "Si O2"
_cell_formula_units_Z 24
_cell_length_a 30.000000
_cell_length_b 15.000000
_cell_length_c 15.000000
_cell_angle_alpha 90.000000
_cell_angle_beta 20.000000
_cell_angle_gamma 90.000000
_cell_volume 2308.635967
_symmetry_space_group_name_H-M "C 2/C"
_symmetry_group_IT_number 15
_symmetry_cell_setting 'monoclinic'
loop_
_space_group_symop_operation_xyz
x,y,z
-x,y,1/2-z
-x,-y,-z
x,-y,1/2+z
1/2+x,1/2+y,z
1/2-x,1/2+y,1/2-z
1/2-x,1/2-y,-z
1/2+x,1/2-y,1/2+z
loop_
_atom_site_type_symbol
_atom_site_label
_atom_site_fract_x
_atom_site_fract_y
_atom_site_fract_z
Si Si1 0.134229 0.143793 0.689768
Si Si2 0.893311 0.782208 0.763389
Si Si3 0.367270 0.871583 0.448038
Si Si4 0.342403 0.742041 0.034756
Si Si5 0.734628 0.072882 0.898483
Si Si6 0.030744 0.961599 0.796015
O O1 0.183329 0.200973 0.514066
O O2 0.259966 0.118070 0.514002
O O3 0.082361 0.050237 0.746082
O O4 0.009246 0.193765 0.973766
O O5 0.922618 0.697681 0.770312
O O6 0.884453 0.873950 0.838334
O O7 0.750000 0.750000 0.000000
O O8 0.500000 0.892094 0.250000
O O9 0.318230 0.971050 0.510380
O O10 0.251431 0.814927 0.719562
O O11 0.500000 0.730349 0.750000
O O12 0.313304 0.849356 0.080315
O O13 0.888750 0.061369 0.598387
O O14 0.000000 0.976158 0.750000
#
# Coordination Sequence:
#
# PCOD9309706 Si02
#       6
#     8   8   8   8   8   8
#     4  11  23  41  65  94 130 174 218 266 323 390
#     4  11  21  38  64  97 130 168 216 270 322 380
#     4  12  25  44  68  97 131 170 217 271 323 383
#     4  12  25  44  67  95 131 175 216 263 326 393
#     4  11  23  41  62  93 130 167 214 270 324 384
#     4  11  21  38  64  94 128 172 221 268 320 386
#
# _framework density 10.395749
#
# number of rings (size 3 to 8) (size 9 to 14) (size 15 to 20)
#    0.000    0.667    0.000   12.000    0.000    0.000 
#    0.000    6.667    0.000    0.000    0.000    0.000 
#    0.000    0.000    0.000    0.000    0.000    0.000 
#
# Total GULP energy -133756.173544 kJ/mol
# GULP energy per Si atom -5573.173898 kJ/mol
# Density = 1.037209 g / cm^3
# Si number density = 10.395749 Si / 1000 Ang^3
#
#
#
# Elastic Constant Matrix: (Units=GPa)
#
#
# Indices 1 2 3 4 5 6 
#
# 1 94.6104 57.7254 15.6363 0.0000 -4.2228 0.0000
# 2 57.7254 195.6634 46.8373 0.0000 -7.2630 0.0000
# 3 15.6363 46.8373 39.0248 0.0000 -10.6694 0.0000
# 4 0.0000 0.0000 0.0000 43.7339 0.0000 -10.0839
# 5 -4.2228 -7.2630 -10.6694 0.0000 41.2582 0.0000
# 6 0.0000 0.0000 0.0000 -10.0839 0.0000 47.6758
#
#
#
# Elastic Compliance Matrix: (Units=1/GPa)
#
#
# Indices 1 2 3 4 5 6 
#
# 1 0.012919 -0.003630 -0.000682 0.000000 0.000507 0.000000
# 2 -0.003630 0.008232 -0.008750 0.000000 -0.001185 0.000000
# 3 -0.000682 -0.008750 0.038695 0.000000 0.008396 0.000000
# 4 0.000000 0.000000 0.000000 0.024038 0.000000 0.005084
# 5 0.000507 -0.001185 0.008396 0.000000 0.026252 0.000000
# 6 0.000000 0.000000 0.000000 0.005084 0.000000 0.022050
#
#
# Mechanical properties :
#
#
# Convention : Reuss Voigt Hill
#
# Bulk Modulus (GPa) = 29.65219 63.29964 46.47592
# Shear Modulus (GPa) = 29.48967 40.47355 34.98161
#
# Velocity S-wave (km/s) = 3.77019 4.41686 4.10627
# Velocity P-wave (km/s) = 5.76585 7.51815 6.69954
#
# Compressibility (1/GPa) = 0.03372432
#
# Stress axis : x y z
#
# Youngs Moduli (GPa) = 77.40243 121.47486 25.84312
#
# Poissons Ratio (x) = 0.44090 0.01762
# Poissons Ratio (y) = 0.28094 0.22612
# Poissons Ratio (z) = 0.05277 1.06289
#
# Static dielectric constant tensor:
#      x y z
#    x 10.211840 0.000000 4.860130 
#    y 0.000000 1.804990 0.000000 
#    z 4.860130 0.000000 4.609490 
# 
# From -- ./inp_files/182455.got.cif
#   From: 2010.05.17/outbox.ucp.g08.bks.cvg/sg15_92_cif.got.tgz:182455.got - 2010.06.11 12:40:34.
