data_PCOD9309936
_publ_section_title
;
Structure prediction by ZEFSAII (Michael W. Deem and Ramdas Pophale) SiO2 
 PCOD9309936
Probable space group: P 2 2 2
;
_chemical_formula_sum "Si O2"
_cell_formula_units_Z 32
_cell_length_a 36.720977
_cell_length_b 5.344901
_cell_length_c 7.320158
_cell_angle_alpha 90.000000
_cell_angle_beta 90.000000
_cell_angle_gamma 90.000000
_cell_volume 1436.727313
_symmetry_space_group_name_H-M "P 2 2 2"
_symmetry_group_IT_number 16
_symmetry_cell_setting 'orthorhombic'
loop_
_space_group_symop_operation_xyz
x,y,z
-x,-y,z
x,-y,-z
-x,y,-z
loop_
_atom_site_type_symbol
_atom_site_label
_atom_site_fract_x
_atom_site_fract_y
_atom_site_fract_z
Si Si1 0.917361 0.996903 0.281234
Si Si2 0.515847 0.746234 0.288236
Si Si3 0.042155 0.500727 0.276754
Si Si4 0.831606 0.992140 0.216411
Si Si5 0.207062 0.488517 0.776786
Si Si6 0.403174 0.754877 0.616331
Si Si7 0.290611 0.481258 0.777533
Si Si8 0.670552 0.025127 0.781234
O O1 0.938354 0.752108 0.214146
O O2 0.921168 0.000000 0.500000
O O3 0.935752 0.254004 0.216220
O O4 0.874711 0.973385 0.241750
O O5 0.500000 0.500000 0.202010
O O6 0.500000 0.746385 0.500000
O O7 0.559219 0.715473 0.278101
O O8 0.500000 0.000000 0.209788
O O9 0.042619 0.500000 0.500000
O O10 0.000000 0.500000 0.221966
O O11 0.817276 0.256995 0.287244
O O12 0.809589 0.751792 0.286931
O O13 0.824558 0.000000 0.000000
O O14 0.248850 0.437846 0.725817
O O15 0.206393 0.500000 0.000000
O O16 0.395828 0.500000 0.500000
O O17 0.412975 0.000000 0.500000
O O18 0.368189 0.857144 0.724845
O O19 0.316967 0.252214 0.717166
O O20 0.301972 0.758557 0.716517
O O21 0.292467 0.500000 0.000000
O O22 0.671304 0.000000 0.000000
#
# Coordination Sequence:
#
# PCOD9309936 Si02
#       8
#     4   4   4   4   4   4   4   4
#     4  10  19  31  49  71  98 126 157 202 246 299
#     4  10  16  30  49  76 103 128 174 221 256 293
#     4   9  17  30  49  71  92 123 167 207 240 280
#     4  10  19  31  49  75 101 125 159 207 254 292
#     4   9  17  30  52  76  95 125 172 212 240 290
#     4  12  21  33  55  82 107 139 179 226 265 315
#     4   9  17  33  54  75 101 136 176 214 254 309
#     4  10  21  35  53  79 109 139 171 217 274 321
#
# _framework density 22.272841
#
# number of rings (size 3 to 8) (size 9 to 14) (size 15 to 20)
#    0.000    2.125    2.500    2.625    0.000    4.500 
#    0.000    0.000    0.000   10.125    0.000    1.750 
#    0.000    0.000    0.000    0.000    0.000    0.000 
#
# Total GULP energy -178645.729807 kJ/mol
# GULP energy per Si atom -5582.679056 kJ/mol
# Density = 2.222215 g / cm^3
# Si number density = 22.272841 Si / 1000 Ang^3
#
#
#
# Elastic Constant Matrix: (Units=GPa)
#
#
# Indices 1 2 3 4 5 6 
#
# 1 163.4374 86.1332 -3.3673 0.0000 0.0000 0.0000
# 2 86.1332 227.4275 14.3174 0.0000 0.0000 0.0000
# 3 -3.3673 14.3174 70.4153 0.0000 0.0000 0.0000
# 4 0.0000 0.0000 0.0000 -12.6512 0.0000 0.0000
# 5 0.0000 0.0000 0.0000 0.0000 58.8789 0.0000
# 6 0.0000 0.0000 0.0000 0.0000 0.0000 40.9601
#
#
#
# Elastic Compliance Matrix: (Units=1/GPa)
#
#
# Indices 1 2 3 4 5 6 
#
# 1 0.007710 -0.002981 0.000975 0.000000 0.000000 0.000000
# 2 -0.002981 0.005607 -0.001283 0.000000 0.000000 0.000000
# 3 0.000975 -0.001283 0.014509 0.000000 0.000000 0.000000
# 4 0.000000 0.000000 0.000000 -0.079044 0.000000 0.000000
# 5 0.000000 0.000000 0.000000 0.000000 0.016984 0.000000
# 6 0.000000 0.000000 0.000000 0.000000 0.000000 0.024414
#
#
# Mechanical properties :
#
#
# Convention : Reuss Voigt Hill
#
# Bulk Modulus (GPa) = 47.06439 72.82741 59.94590
# Shear Modulus (GPa) = 1302.05320 41.71736 671.88528
#
# Velocity S-wave (km/s) = 24.20457 4.33253 17.38724
# Velocity P-wave (km/s) = 28.32535 7.60241 20.73791
#
# Compressibility (1/GPa) = 0.02124749
#
# Stress axis : x y z
#
# Youngs Moduli (GPa) = 129.70496 178.35334 68.92336
#
# Poissons Ratio (x) = 0.53172 -0.06719
# Poissons Ratio (y) = 0.38669 0.08840
# Poissons Ratio (z) = -0.12645 0.22876
#
# Static dielectric constant tensor:
#      x y z
#    x 1.947660 0.000000 0.000000 
#    y 0.000000 1.849500 0.000000 
#    z 0.000000 0.000000 2.022850 
# 
# From -- ./inp_files/5660.got.cif
#   From: 2010.05.17/outbox.cif.g08.bks.cpg/sg16_3_cif.got.tgz:5660.got - 2010.06.03 22:28:35.
