data_PCOD9309235
_publ_section_title
;
Structure prediction by ZEFSAII (Michael W. Deem and Ramdas Pophale) SiO2 
 PCOD9309235
Probable space group: C 2/C
;
_chemical_formula_sum "Si O2"
_cell_formula_units_Z 32
_cell_length_a 21.000000
_cell_length_b 12.000000
_cell_length_c 27.000000
_cell_angle_alpha 90.000000
_cell_angle_beta 150.000000
_cell_angle_gamma 90.000000
_cell_volume 3402.000000
_symmetry_space_group_name_H-M "C 2/C"
_symmetry_group_IT_number 15
_symmetry_cell_setting 'monoclinic'
loop_
_space_group_symop_operation_xyz
x,y,z
-x,y,1/2-z
-x,-y,-z
x,-y,1/2+z
1/2+x,1/2+y,z
1/2-x,1/2+y,1/2-z
1/2-x,1/2-y,-z
1/2+x,1/2-y,1/2+z
loop_
_atom_site_type_symbol
_atom_site_label
_atom_site_fract_x
_atom_site_fract_y
_atom_site_fract_z
Si Si1 0.879581 0.452506 0.950686
Si Si2 0.175769 0.648199 0.284709
Si Si3 0.127196 0.310700 0.202884
Si Si4 0.206071 0.900092 0.270708
Si Si5 0.653344 0.979922 0.359353
Si Si6 0.165623 0.813939 0.073998
Si Si7 0.911497 0.080543 0.372927
Si Si8 0.062800 0.496904 0.901993
O O1 0.756960 0.501502 0.840060
O O2 0.874473 0.317611 0.955802
O O3 0.880795 0.507222 0.005556
O O4 0.000000 0.500000 0.000000
O O5 0.173421 0.783445 0.276968
O O6 0.187770 0.584639 0.346176
O O7 0.289321 0.601775 0.326055
O O8 0.042345 0.599473 0.174995
O O9 0.174484 0.365119 0.183561
O O10 0.250607 0.317505 0.320343
O O11 0.090061 0.183542 0.167453
O O12 0.017209 0.386605 0.152217
O O13 0.103890 0.962730 0.165963
O O14 0.500000 0.959877 0.250000
O O15 0.739268 0.873257 0.401914
O O16 0.661259 0.006296 0.423013
O O17 0.041048 0.892546 0.989837
#
# Coordination Sequence:
#
# PCOD9309235 Si02
#       8
#     8   8   8   8   8   8   8   8
#     4  12  22  39  65 100 130 165 204 261 341 380
#     4  10  21  41  61  90 128 175 208 259 322 383
#     4  11  20  38  60  96 127 162 205 266 321 373
#     4  11  22  37  62  92 134 158 204 273 324 377
#     4  10  22  42  67  87 125 178 219 255 309 381
#     4  12  23  38  71  98 127 166 216 270 323 385
#     4  11  21  38  62 100 131 153 211 278 329 368
#     4  11  21  43  66  89 127 173 217 254 315 395
#
# _framework density 9.4062319999999993
#
# number of rings (size 3 to 8) (size 9 to 14) (size 15 to 20)
#    0.000    1.000    7.500    0.750    1.750    2.500 
#    2.250    0.625    5.500    0.000    0.000    0.000 
#    0.000    0.000    0.000    0.000    0.000    0.000 
#
# Total GULP energy -178407.296317 kJ/mol
# GULP energy per Si atom -5575.228010 kJ/mol
# Density = 0.938482 g / cm^3
# Si number density = 9.406232 Si / 1000 Ang^3
#
#
#
# Elastic Constant Matrix: (Units=GPa)
#
#
# Indices 1 2 3 4 5 6 
#
# 1 103.2955 42.4305 16.2199 0.0003 -7.3970 -0.0001
# 2 42.4305 120.3520 2.6211 0.0030 8.8403 -0.0005
# 3 16.2199 2.6211 54.4277 0.0030 -7.8039 -0.0007
# 4 0.0003 0.0030 0.0030 36.8059 -0.0003 0.8412
# 5 -7.3970 8.8403 -7.8039 -0.0003 30.6319 0.0000
# 6 -0.0001 -0.0005 -0.0007 0.8412 0.0000 28.6709
#
#
#
# Elastic Compliance Matrix: (Units=1/GPa)
#
#
# Indices 1 2 3 4 5 6 
#
# 1 0.012246 -0.004511 -0.002928 0.000001 0.003513 0.000000
# 2 -0.004511 0.010184 0.000287 -0.000001 -0.003955 0.000000
# 3 -0.002928 0.000287 0.019843 -0.000002 0.004265 0.000000
# 4 0.000001 -0.000001 -0.000002 0.027188 0.000000 -0.000798
# 5 0.003513 -0.003955 0.004265 0.000000 0.035722 0.000000
# 6 0.000000 0.000000 0.000000 -0.000798 0.000000 0.034902
#
#
# Mechanical properties :
#
#
# Convention : Reuss Voigt Hill
#
# Bulk Modulus (GPa) = 35.75643 44.51314 40.13479
# Shear Modulus (GPa) = 30.54131 33.67533 32.10832
#
# Velocity S-wave (km/s) = 4.03359 4.23549 4.13577
# Velocity P-wave (km/s) = 6.38288 6.90160 6.64730
#
# Compressibility (1/GPa) = 0.02796700
#
# Stress axis : x y z
#
# Youngs Moduli (GPa) = 81.66258 98.19539 50.39454
#
# Poissons Ratio (x) = 0.44301 0.14757
# Poissons Ratio (y) = 0.36842 -0.01446
# Poissons Ratio (z) = 0.23913 -0.02817
#
# Static dielectric constant tensor:
#      x y z
#    x 1.653460 0.000000 -0.039810 
#    y 0.000000 1.663520 0.000000 
#    z -0.039810 0.000000 1.714710 
# 
# From -- ./inp_files/300872.got.cif
#   From: 2010.05.17/outbox.ucp.g08.bks.cvg/sg15_151_cif.got.tgz:300872.got - 2010.06.11 12:40:34.
