data_PCOD9309544
_publ_section_title
;
Structure prediction by ZEFSAII (Michael W. Deem and Ramdas Pophale) SiO2 
 PCOD9309544
Probable space group: C 2/C
;
_chemical_formula_sum "Si O2"
_cell_formula_units_Z 28
_cell_length_a 12.000000
_cell_length_b 15.000000
_cell_length_c 15.000000
_cell_angle_alpha 90.000000
_cell_angle_beta 90.000000
_cell_angle_gamma 90.000000
_cell_volume 2700.000000
_symmetry_space_group_name_H-M "C 2/C"
_symmetry_group_IT_number 15
_symmetry_cell_setting 'monoclinic'
loop_
_space_group_symop_operation_xyz
x,y,z
-x,y,1/2-z
-x,-y,-z
x,-y,1/2+z
1/2+x,1/2+y,z
1/2-x,1/2+y,1/2-z
1/2-x,1/2-y,-z
1/2+x,1/2-y,1/2+z
loop_
_atom_site_type_symbol
_atom_site_label
_atom_site_fract_x
_atom_site_fract_y
_atom_site_fract_z
Si Si1 0.846411 0.983257 0.871029
Si Si2 0.543918 0.649996 0.350307
Si Si3 0.536412 0.004934 0.157571
Si Si4 0.119076 0.723424 0.000865
Si Si5 0.392644 0.313812 0.312278
Si Si6 0.148909 0.510068 0.987450
Si Si7 0.723061 0.136518 0.226146
O O1 0.855016 0.083063 0.828325
O O2 0.776504 0.997096 0.960957
O O3 0.772213 0.915017 0.811512
O O4 0.964695 0.932431 0.879357
O O5 0.500000 0.674382 0.250000
O O6 0.550393 0.731522 0.419962
O O7 0.673753 0.622837 0.341569
O O8 0.500000 0.957080 0.250000
O O9 0.609845 0.087630 0.195080
O O10 0.428833 0.023222 0.094981
O O11 0.617089 0.964209 0.081255
O O12 0.119669 0.615906 0.996058
O O13 0.250000 0.750000 0.000000
O O14 0.077898 0.768214 0.092656
O O15 0.500000 0.315713 0.250000
O O16 0.303572 0.242523 0.270829
#
# Coordination Sequence:
#
# PCOD9309544 Si02
#       7
#     8   8   8   8   8   8   8
#     4  11  24  44  67 105 137 175 228 285 348 399
#     4  10  23  43  68  97 140 174 223 286 342 400
#     4  11  22  39  64  95 127 179 223 280 333 403
#     4  12  22  43  67  97 128 187 230 271 341 416
#     4  12  25  42  70 100 135 180 230 278 335 416
#     4  11  23  39  67  96 133 168 236 276 337 408
#     4  11  21  43  70  92 137 181 224 272 345 401
#
# _framework density 10.370369999999999
#
# number of rings (size 3 to 8) (size 9 to 14) (size 15 to 20)
#    0.000    0.857    5.714    1.714    0.000    1.143 
#    7.714    0.000    0.000    6.857    0.000    0.000 
#    0.000    0.000    0.000    0.000    0.000    0.000 
#
# Total GULP energy -156165.038678 kJ/mol
# GULP energy per Si atom -5577.322810 kJ/mol
# Density = 1.034677 g / cm^3
# Si number density = 10.370370 Si / 1000 Ang^3
#
#
#
# Elastic Constant Matrix: (Units=GPa)
#
#
# Indices 1 2 3 4 5 6 
#
# 1 121.1667 44.2188 37.2415 0.0000 -28.0417 0.0000
# 2 44.2188 103.8071 28.5073 0.0000 1.0591 0.0000
# 3 37.2415 28.5073 142.4876 0.0000 -26.4738 0.0000
# 4 0.0000 0.0000 0.0000 26.7660 0.0000 6.6092
# 5 -28.0417 1.0591 -26.4738 0.0000 48.7665 0.0000
# 6 0.0000 0.0000 0.0000 6.6092 0.0000 34.1013
#
#
#
# Elastic Compliance Matrix: (Units=1/GPa)
#
#
# Indices 1 2 3 4 5 6 
#
# 1 0.011774 -0.004825 -0.000928 0.000000 0.006371 0.000000
# 2 -0.004825 0.012268 -0.001955 0.000000 -0.004103 0.000000
# 3 -0.000928 -0.001955 0.008409 0.000000 0.004074 0.000000
# 4 0.000000 0.000000 0.000000 0.039239 0.000000 -0.007605
# 5 0.006371 -0.004103 0.004074 0.000000 0.026470 0.000000
# 6 0.000000 0.000000 0.000000 -0.007605 0.000000 0.030798
#
#
# Mechanical properties :
#
#
# Convention : Reuss Voigt Hill
#
# Bulk Modulus (GPa) = 58.71197 65.26629 61.98913
# Shear Modulus (GPa) = 33.32166 39.09303 36.20734
#
# Velocity S-wave (km/s) = 4.01256 4.34619 4.18270
# Velocity P-wave (km/s) = 7.05950 7.53139 7.29926
#
# Compressibility (1/GPa) = 0.01703230
#
# Stress axis : x y z
#
# Youngs Moduli (GPa) = 84.93400 81.51561 118.92267
#
# Poissons Ratio (x) = 0.39335 0.11038
# Poissons Ratio (y) = 0.40984 0.23254
# Poissons Ratio (z) = 0.07883 0.15940
#
# Static dielectric constant tensor:
#      x y z
#    x 1.774290 0.000000 -0.047750 
#    y 0.000000 1.745250 0.000000 
#    z -0.047750 0.000000 1.841710 
# 
# From -- ./inp_files/144246.got.cif
#   From: 2010.05.17/outbox.ucp.g08.bks.cvg/sg15_73_cif.got.tgz:144246.got - 2010.06.11 12:40:34.
