data_PCOD9309089
_publ_section_title
;
Structure prediction by ZEFSAII (Michael W. Deem and Ramdas Pophale) SiO2 
 PCOD9309089
Probable space group: C 2/C
;
_chemical_formula_sum "Si O2"
_cell_formula_units_Z 32
_cell_length_a 15.000000
_cell_length_b 24.000000
_cell_length_c 15.000000
_cell_angle_alpha 90.000000
_cell_angle_beta 40.000000
_cell_angle_gamma 90.000000
_cell_volume 3471.053092
_symmetry_space_group_name_H-M "C 2/C"
_symmetry_group_IT_number 15
_symmetry_cell_setting 'monoclinic'
loop_
_space_group_symop_operation_xyz
x,y,z
-x,y,1/2-z
-x,-y,-z
x,-y,1/2+z
1/2+x,1/2+y,z
1/2-x,1/2+y,1/2-z
1/2-x,1/2-y,-z
1/2+x,1/2-y,1/2+z
loop_
_atom_site_type_symbol
_atom_site_label
_atom_site_fract_x
_atom_site_fract_y
_atom_site_fract_z
Si Si1 0.381423 0.613248 0.672099
Si Si2 0.731465 0.310737 0.467769
Si Si3 0.298660 0.972929 0.308504
Si Si4 0.772879 0.069772 0.264939
Si Si5 0.353641 0.808426 0.174225
Si Si6 0.029921 0.002891 0.624802
Si Si7 0.427973 0.103065 0.928554
Si Si8 0.940238 0.179198 0.103938
O O1 0.290467 0.572625 0.678395
O O2 0.262135 0.657809 0.796288
O O3 0.475226 0.566958 0.652283
O O4 0.487520 0.652411 0.537897
O O5 0.750000 0.250000 0.500000
O O6 0.789182 0.305710 0.323243
O O7 0.826108 0.359845 0.440897
O O8 0.565399 0.322316 0.582753
O O9 0.188889 0.989310 0.472667
O O10 0.449570 0.940599 0.199834
O O11 0.307580 0.031585 0.246934
O O12 0.676404 0.069793 0.426565
O O13 0.816568 0.134949 0.218918
O O14 0.921213 0.037474 0.156646
O O15 0.486970 0.849003 0.082276
O O16 0.393644 0.743666 0.124113
O O17 0.000000 0.989444 0.750000
#
# Coordination Sequence:
#
# PCOD9309089 Si02
#       8
#     8   8   8   8   8   8   8   8
#     4   9  19  39  59  79 117 151 196 250 288 350
#     4  11  22  35  48  81 131 163 192 234 283 349
#     4  10  20  43  57  83 117 156 201 250 291 348
#     4  11  22  36  59  86 114 155 205 241 284 364
#     4  10  22  34  54  81 120 161 191 238 289 353
#     4  11  22  38  63  87 108 149 202 255 304 346
#     4  11  23  34  56  83 124 165 191 237 297 334
#     4  11  20  34  58  81 117 164 201 228 289 354
#
# _framework density 9.2191039999999997
#
# number of rings (size 3 to 8) (size 9 to 14) (size 15 to 20)
#    0.000    1.500    3.750    2.250    3.500    2.000 
#    0.000    0.000    0.000    0.750    0.000    0.000 
#    0.000    0.000    0.000    0.000    0.000    0.000 
#
# Total GULP energy -178178.670012 kJ/mol
# GULP energy per Si atom -5568.083438 kJ/mol
# Density = 0.919812 g / cm^3
# Si number density = 9.219104 Si / 1000 Ang^3
#
#
#
# Elastic Constant Matrix: (Units=GPa)
#
#
# Indices 1 2 3 4 5 6 
#
# 1 34.9044 27.5900 14.6725 -0.0015 -13.7564 0.0008
# 2 27.5900 138.3583 27.3504 -0.0020 -13.3308 0.0010
# 3 14.6725 27.3504 94.4463 -0.0054 -18.1602 0.0028
# 4 -0.0015 -0.0020 -0.0054 46.8455 0.0034 -4.3659
# 5 -13.7564 -13.3308 -18.1602 0.0034 26.4162 -0.0019
# 6 0.0008 0.0010 0.0028 -4.3659 -0.0019 32.8380
#
#
#
# Elastic Compliance Matrix: (Units=1/GPa)
#
#
# Indices 1 2 3 4 5 6 
#
# 1 0.040931 -0.006252 -0.001217 0.000000 0.017323 0.000000
# 2 -0.006252 0.008792 -0.001553 0.000000 0.000113 0.000000
# 3 -0.001217 -0.001553 0.012623 0.000001 0.007260 0.000000
# 4 0.000000 0.000000 0.000001 0.021615 -0.000002 0.002874
# 5 0.017323 0.000113 0.007260 -0.000002 0.051925 0.000002
# 6 0.000000 0.000000 0.000000 0.002874 0.000002 0.030835
#
#
# Mechanical properties :
#
#
# Convention : Reuss Voigt Hill
#
# Bulk Modulus (GPa) = 22.57303 45.21498 33.89400
# Shear Modulus (GPa) = 25.05867 34.42636 29.74251
#
# Velocity S-wave (km/s) = 3.69055 4.32571 4.02069
# Velocity P-wave (km/s) = 5.51627 7.03738 6.32273
#
# Compressibility (1/GPa) = 0.04430066
#
# Stress axis : x y z
#
# Youngs Moduli (GPa) = 24.43157 113.73574 79.22145
#
# Poissons Ratio (x) = 0.71111 0.09643
# Poissons Ratio (y) = 0.15275 0.12303
# Poissons Ratio (z) = 0.02974 0.17663
#
# Static dielectric constant tensor:
#      x y z
#    x 1.689740 0.000000 -0.003140 
#    y 0.000000 1.661190 0.000000 
#    z -0.003140 0.000000 1.682820 
# 
# From -- ./inp_files/156800.got.cif
#   From: 2010.05.17/outbox.ucp.g08.bks.cvg/sg15_79_cif.got.tgz:156800.got - 2010.06.11 12:40:34.
