data_PCOD9309874
_publ_section_title
;
Structure prediction by ZEFSAII (Michael W. Deem and Ramdas Pophale) SiO2 
 PCOD9309874
Probable space group: C 2/C
;
_chemical_formula_sum "Si O2"
_cell_formula_units_Z 26
_cell_length_a 9.000000
_cell_length_b 30.000000
_cell_length_c 15.000000
_cell_angle_alpha 90.000000
_cell_angle_beta 40.000000
_cell_angle_gamma 90.000000
_cell_volume 2603.289819
_symmetry_space_group_name_H-M "C 2/C"
_symmetry_group_IT_number 15
_symmetry_cell_setting 'monoclinic'
loop_
_space_group_symop_operation_xyz
x,y,z
-x,y,1/2-z
-x,-y,-z
x,-y,1/2+z
1/2+x,1/2+y,z
1/2-x,1/2+y,1/2-z
1/2-x,1/2-y,-z
1/2+x,1/2-y,1/2+z
loop_
_atom_site_type_symbol
_atom_site_label
_atom_site_fract_x
_atom_site_fract_y
_atom_site_fract_z
Si Si1 0.759334 0.542149 0.684879
Si Si2 0.101226 0.202890 0.443633
Si Si3 0.171495 0.791825 0.244685
Si Si4 0.000000 0.411970 0.250000
Si Si5 0.104280 0.437599 0.865766
Si Si6 0.824648 0.662557 0.958874
Si Si7 0.500000 0.379740 0.750000
Si Si8 0.000000 0.625752 0.250000
O O1 0.500000 0.544439 0.750000
O O2 0.831821 0.563825 0.750651
O O3 0.828506 0.490177 0.670647
O O4 0.938843 0.563324 0.529831
O O5 0.241561 0.244598 0.337008
O O6 0.275684 0.159728 0.356998
O O7 0.993317 0.211952 0.591986
O O8 0.864762 0.195426 0.496814
O O9 0.413817 0.818272 0.150993
O O10 0.000000 0.813462 0.250000
O O11 0.156040 0.379778 0.116300
O O12 0.349077 0.412335 0.758999
O O13 0.988065 0.408790 0.839406
O O14 0.696042 0.648381 0.108965
#
# Coordination Sequence:
#
# PCOD9309874 Si02
#       8
#     8   8   8   4   8   8   4   4
#     4  11  26  46  77 110 155 198 249 312 387 452
#     4  12  27  48  71 107 146 191 255 300 384 447
#     4  12  28  47  74 104 147 191 246 316 373 452
#     4  12  25  48  69 116 146 192 254 311 371 456
#     4  11  25  47  70 111 146 198 249 305 378 458
#     4  12  27  46  72 104 146 193 250 305 382 442
#     4  12  24  46  71 100 149 187 244 307 364 460
#     4  12  27  46  76 106 151 201 254 318 369 448
#
# _framework density 9.9873630000000002
#
# number of rings (size 3 to 8) (size 9 to 14) (size 15 to 20)
#    0.000    0.308    6.154    1.385    6.462    0.615 
#    0.000    3.077    0.000    0.000    0.000    0.000 
#    0.000    0.000    0.000    0.000    0.000    0.000 
#
# Total GULP energy -144842.434448 kJ/mol
# GULP energy per Si atom -5570.862863 kJ/mol
# Density = 0.996463 g / cm^3
# Si number density = 9.987363 Si / 1000 Ang^3
#
#
#
# Elastic Constant Matrix: (Units=GPa)
#
#
# Indices 1 2 3 4 5 6 
#
# 1 143.6192 54.8778 43.8338 0.0000 -9.9704 0.0000
# 2 54.8778 93.4111 54.8095 0.0000 11.9350 0.0000
# 3 43.8338 54.8095 146.0630 0.0000 5.2972 0.0000
# 4 0.0000 0.0000 0.0000 38.2192 0.0000 0.3418
# 5 -9.9704 11.9350 5.2972 0.0000 48.0523 0.0000
# 6 0.0000 0.0000 0.0000 0.3418 0.0000 40.8644
#
#
#
# Elastic Compliance Matrix: (Units=1/GPa)
#
#
# Indices 1 2 3 4 5 6 
#
# 1 0.009605 -0.005541 -0.000929 0.000000 0.003472 0.000000
# 2 -0.005541 0.017326 -0.004659 0.000000 -0.004939 0.000000
# 3 -0.000929 -0.004659 0.008874 0.000000 -0.000014 0.000000
# 4 0.000000 0.000000 0.000000 0.026167 0.000000 -0.000219
# 5 0.003472 -0.004939 -0.000014 0.000000 0.022759 0.000000
# 6 0.000000 0.000000 0.000000 -0.000219 0.000000 0.024473
#
#
# Mechanical properties :
#
#
# Convention : Reuss Voigt Hill
#
# Bulk Modulus (GPa) = 73.82520 76.68171 75.25345
# Shear Modulus (GPa) = 36.77072 40.73197 38.75134
#
# Velocity S-wave (km/s) = 4.29518 4.52062 4.40934
# Velocity P-wave (km/s) = 7.85097 8.10683 7.97992
#
# Compressibility (1/GPa) = 0.01354551
#
# Stress axis : x y z
#
# Youngs Moduli (GPa) = 104.11585 57.71776 112.68781
#
# Poissons Ratio (x) = 0.31982 0.10469
# Poissons Ratio (y) = 0.57691 0.52505
# Poissons Ratio (z) = 0.09673 0.26893
#
# Static dielectric constant tensor:
#      x y z
#    x 1.792120 0.000000 0.030840 
#    y 0.000000 1.736500 0.000000 
#    z 0.030840 0.000000 1.693320 
# 
# From -- ./inp_files/139753.got.cif
#   From: 2010.05.17/outbox.ucp.g08.bks.cvg/sg15_70_cif.got.tgz:139753.got - 2010.06.11 12:40:34.
