data_PCOD9309485
_publ_section_title
;
Structure prediction by ZEFSAII (Michael W. Deem and Ramdas Pophale) SiO2 
 PCOD9309485
Probable space group: C 2/C
;
_chemical_formula_sum "Si O2"
_cell_formula_units_Z 28
_cell_length_a 27.000000
_cell_length_b 9.000000
_cell_length_c 12.000000
_cell_angle_alpha 90.000000
_cell_angle_beta 70.000000
_cell_angle_gamma 90.000000
_cell_volume 2740.143682
_symmetry_space_group_name_H-M "C 2/C"
_symmetry_group_IT_number 15
_symmetry_cell_setting 'monoclinic'
loop_
_space_group_symop_operation_xyz
x,y,z
-x,y,1/2-z
-x,-y,-z
x,-y,1/2+z
1/2+x,1/2+y,z
1/2-x,1/2+y,1/2-z
1/2-x,1/2-y,-z
1/2+x,1/2-y,1/2+z
loop_
_atom_site_type_symbol
_atom_site_label
_atom_site_fract_x
_atom_site_fract_y
_atom_site_fract_z
Si Si1 0.799446 0.222196 0.701801
Si Si2 0.327898 0.060968 0.975582
Si Si3 0.500000 0.149824 0.750000
Si Si4 0.232780 0.073579 0.405734
Si Si5 0.863355 0.119510 0.854866
Si Si6 0.500000 0.000000 0.000000
Si Si7 0.110462 0.215291 0.231652
Si Si8 0.904552 0.302434 0.007656
O O1 0.811582 0.333740 0.591088
O O2 0.784482 0.064339 0.659325
O O3 0.753216 0.294542 0.811231
O O4 0.847760 0.203163 0.752355
O O5 0.279232 0.982148 0.951766
O O6 0.354097 0.164240 0.860739
O O7 0.367805 0.938702 0.994428
O O8 0.505446 0.054780 0.631677
O O9 0.448200 0.248862 0.767080
O O10 0.186234 0.122666 0.522894
O O11 0.874410 0.950073 0.815959
O O12 0.907484 0.194700 0.898454
O O13 0.460115 0.865184 0.004529
O O14 0.117258 0.231590 0.360117
#
# Coordination Sequence:
#
# PCOD9309485 Si02
#       8
#     8   8   4   8   8   4   8   8
#     4  12  26  41  67  96 139 185 232 291 346 425
#     4  12  24  44  68 100 138 188 240 286 356 423
#     4  10  22  48  72 108 138 184 236 310 364 436
#     4  12  26  43  64 103 141 188 238 287 355 435
#     4  12  26  46  65 104 143 189 232 293 365 431
#     4  10  22  44  74 106 138 178 242 304 360 428
#     4  11  25  45  73 100 143 182 236 300 367 424
#     4  11  25  45  73 102 138 186 241 299 355 434
#
# _framework density 10.218442
#
# number of rings (size 3 to 8) (size 9 to 14) (size 15 to 20)
#    0.000    0.571    4.286    3.429    6.000    0.000 
#    0.000    5.000    0.000    0.000    0.000    0.000 
#    0.000    0.000    0.000    0.000    0.000    0.000 
#
# Total GULP energy -156103.617882 kJ/mol
# GULP energy per Si atom -5575.129210 kJ/mol
# Density = 1.019518 g / cm^3
# Si number density = 10.218442 Si / 1000 Ang^3
#
#
#
# Elastic Constant Matrix: (Units=GPa)
#
#
# Indices 1 2 3 4 5 6 
#
# 1 56.3125 5.9424 6.6019 0.0000 31.0620 0.0000
# 2 5.9424 75.6658 22.7229 0.0000 14.5552 0.0000
# 3 6.6019 22.7229 82.8744 0.0000 38.2949 0.0000
# 4 0.0000 0.0000 0.0000 42.4996 0.0000 6.3556
# 5 31.0620 14.5552 38.2949 0.0000 45.9719 0.0000
# 6 0.0000 0.0000 0.0000 6.3556 0.0000 21.8919
#
#
#
# Elastic Compliance Matrix: (Units=1/GPa)
#
#
# Indices 1 2 3 4 5 6 
#
# 1 0.035666 -0.000060 0.013498 0.000000 -0.035324 0.000000
# 2 -0.000060 0.014524 -0.003042 0.000000 -0.002024 0.000000
# 3 0.013498 -0.003042 0.025353 0.000000 -0.029276 0.000000
# 4 0.000000 0.000000 0.000000 0.024598 0.000000 -0.007141
# 5 -0.035324 -0.002024 -0.029276 0.000000 0.070648 0.000000
# 6 0.000000 0.000000 0.000000 -0.007141 0.000000 0.047752
#
#
# Mechanical properties :
#
#
# Convention : Reuss Voigt Hill
#
# Bulk Modulus (GPa) = 10.38042 31.70966 21.04504
# Shear Modulus (GPa) = 21.75227 34.04505 27.89866
#
# Velocity S-wave (km/s) = 3.26600 4.08593 3.69875
# Velocity P-wave (km/s) = 4.39461 6.14893 5.34424
#
# Compressibility (1/GPa) = 0.09633521
#
# Stress axis : x y z
#
# Youngs Moduli (GPa) = 28.03759 68.85349 39.44233
#
# Poissons Ratio (x) = 0.00410 -0.53237
# Poissons Ratio (y) = 0.00167 0.11999
# Poissons Ratio (z) = -0.37844 0.20946
#
# Static dielectric constant tensor:
#      x y z
#    x 1.768460 0.000000 -0.026450 
#    y 0.000000 1.715200 0.000000 
#    z -0.026450 0.000000 1.717310 
# 
# From -- ./inp_files/121935.got.cif
#   From: 2010.05.17/outbox.ucp.g08.bks.cvg/sg15_61_cif.got.tgz:121935.got - 2010.06.11 12:40:34.
