data_PCOD9309573
_publ_section_title
;
Structure prediction by ZEFSAII (Michael W. Deem and Ramdas Pophale) SiO2 
 PCOD9309573
Probable space group: C 2/C
;
_chemical_formula_sum "Si O2"
_cell_formula_units_Z 28
_cell_length_a 27.000000
_cell_length_b 9.000000
_cell_length_c 12.000000
_cell_angle_alpha 90.000000
_cell_angle_beta 70.000000
_cell_angle_gamma 90.000000
_cell_volume 2740.143682
_symmetry_space_group_name_H-M "C 2/C"
_symmetry_group_IT_number 15
_symmetry_cell_setting 'monoclinic'
loop_
_space_group_symop_operation_xyz
x,y,z
-x,y,1/2-z
-x,-y,-z
x,-y,1/2+z
1/2+x,1/2+y,z
1/2-x,1/2+y,1/2-z
1/2-x,1/2-y,-z
1/2+x,1/2-y,1/2+z
loop_
_atom_site_type_symbol
_atom_site_label
_atom_site_fract_x
_atom_site_fract_y
_atom_site_fract_z
Si Si1 0.367171 0.400981 0.998969
Si Si2 0.265816 0.217728 0.116141
Si Si3 0.937687 0.302957 0.284697
Si Si4 0.947664 0.883367 0.546540
Si Si5 0.166255 0.804303 0.093199
Si Si6 0.440125 0.842781 0.838716
Si Si7 0.271287 0.862192 0.143596
O O1 0.405300 0.295662 0.897501
O O2 0.340738 0.525600 0.939936
O O3 0.321871 0.300248 0.086821
O O4 0.400797 0.500096 0.058529
O O5 0.225823 0.296965 0.233664
O O6 0.270241 0.041508 0.137486
O O7 0.250000 0.250000 0.000000
O O8 0.933832 0.214438 0.168091
O O9 0.926629 0.479691 0.324825
O O10 0.000000 0.293578 0.250000
O O11 0.945976 0.753334 0.451306
O O12 0.000000 0.000000 0.500000
O O13 0.109880 0.742494 0.177662
O O14 0.215563 0.800525 0.138474
O O15 0.184031 0.704961 0.972312
O O16 0.500000 0.828026 0.750000
#
# Coordination Sequence:
#
# PCOD9309573 Si02
#       7
#     8   8   8   8   8   8   8
#     4  11  24  43  72 106 139 184 244 295 365 430
#     4  12  26  45  71 103 138 183 239 300 361 441
#     4  11  24  46  68 102 148 189 234 299 360 436
#     4  11  25  44  75 103 145 194 246 294 364 434
#     4  10  23  46  71 103 136 189 241 293 366 439
#     4  10  25  45  72 105 147 181 241 296 364 432
#     4  11  25  46  72  97 146 185 239 300 368 431
#
# _framework density 10.218442
#
# number of rings (size 3 to 8) (size 9 to 14) (size 15 to 20)
#    0.000    1.143    2.857    1.714    8.000    4.571 
#    7.714    0.000    0.000    0.000    0.000    0.000 
#    0.000    0.000    0.000    0.000    0.000    0.000 
#
# Total GULP energy -156051.705928 kJ/mol
# GULP energy per Si atom -5573.275212 kJ/mol
# Density = 1.019518 g / cm^3
# Si number density = 10.218442 Si / 1000 Ang^3
#
#
#
# Elastic Constant Matrix: (Units=GPa)
#
#
# Indices 1 2 3 4 5 6 
#
# 1 74.7061 19.2210 12.1485 0.0000 -5.8088 0.0000
# 2 19.2210 177.2799 65.3746 0.0000 -4.4420 0.0000
# 3 12.1485 65.3746 88.6756 0.0000 3.2343 0.0000
# 4 0.0000 0.0000 0.0000 42.2357 0.0000 -11.6235
# 5 -5.8088 -4.4420 3.2343 0.0000 33.2304 0.0000
# 6 0.0000 0.0000 0.0000 -11.6235 0.0000 44.7547
#
#
#
# Elastic Compliance Matrix: (Units=1/GPa)
#
#
# Indices 1 2 3 4 5 6 
#
# 1 0.014039 -0.000987 -0.001285 0.000000 0.002447 0.000000
# 2 -0.000987 0.007902 -0.005743 0.000000 0.001443 0.000000
# 3 -0.001285 -0.005743 0.015779 0.000000 -0.002528 0.000000
# 4 0.000000 0.000000 0.000000 0.025499 0.000000 0.006623
# 5 0.002447 0.001443 -0.002528 0.000000 0.030960 0.000000
# 6 0.000000 0.000000 0.000000 0.006623 0.000000 0.024064
#
#
# Mechanical properties :
#
#
# Convention : Reuss Voigt Hill
#
# Bulk Modulus (GPa) = 46.10356 59.34997 52.72676
# Shear Modulus (GPa) = 35.33517 40.30534 37.82025
#
# Velocity S-wave (km/s) = 4.16262 4.44575 4.30651
# Velocity P-wave (km/s) = 6.76101 7.44692 7.11224
#
# Compressibility (1/GPa) = 0.02169030
#
# Stress axis : x y z
#
# Youngs Moduli (GPa) = 71.23036 126.55507 63.37502
#
# Poissons Ratio (x) = 0.12491 0.08143
# Poissons Ratio (y) = 0.07030 0.36395
# Poissons Ratio (z) = 0.09153 0.72678
#
# Static dielectric constant tensor:
#      x y z
#    x 1.771720 0.000000 0.039340 
#    y 0.000000 1.713380 0.000000 
#    z 0.039340 0.000000 1.770780 
# 
# From -- ./inp_files/121866.got.cif
#   From: 2010.05.17/outbox.ucp.g08.bks.cvg/sg15_61_cif.got.tgz:121866.got - 2010.06.11 12:40:34.
