data_PCOD9309538
_publ_section_title
;
Structure prediction by ZEFSAII (Michael W. Deem and Ramdas Pophale) SiO2 
 PCOD9309538
Probable space group: C 2/C
;
_chemical_formula_sum "Si O2"
_cell_formula_units_Z 24
_cell_length_a 9.000000
_cell_length_b 15.000000
_cell_length_c 27.000000
_cell_angle_alpha 90.000000
_cell_angle_beta 40.000000
_cell_angle_gamma 90.000000
_cell_volume 2342.960837
_symmetry_space_group_name_H-M "C 2/C"
_symmetry_group_IT_number 15
_symmetry_cell_setting 'monoclinic'
loop_
_space_group_symop_operation_xyz
x,y,z
-x,y,1/2-z
-x,-y,-z
x,-y,1/2+z
1/2+x,1/2+y,z
1/2-x,1/2+y,1/2-z
1/2-x,1/2-y,-z
1/2+x,1/2-y,1/2+z
loop_
_atom_site_type_symbol
_atom_site_label
_atom_site_fract_x
_atom_site_fract_y
_atom_site_fract_z
Si Si1 0.262823 0.852789 0.890134
Si Si2 0.645320 0.453953 0.163947
Si Si3 0.008169 0.700165 0.582580
Si Si4 0.639353 0.684861 0.925990
Si Si5 0.270778 0.150276 0.165580
Si Si6 0.775961 0.027368 0.668046
O O1 0.184977 0.776916 0.870887
O O2 0.526672 0.845900 0.843654
O O3 0.210656 0.944745 0.874366
O O4 0.082863 0.834533 0.981922
O O5 0.500000 0.422845 0.250000
O O6 0.858024 0.383945 0.098774
O O7 0.758349 0.548794 0.149598
O O8 0.452212 0.475383 0.170366
O O9 0.250000 0.750000 0.500000
O O10 0.119655 0.669967 0.605753
O O11 0.650447 0.782685 0.898378
O O12 0.640404 0.615153 0.881513
O O13 0.000000 0.172063 0.250000
O O14 0.500000 0.033815 0.750000
#
# Coordination Sequence:
#
# PCOD9309538 Si02
#       6
#     8   8   8   8   8   8
#     4  11  24  43  66  99 137 178 221 273 336 401
#     4  11  24  43  68  99 132 173 222 277 333 393
#     4  10  23  43  64  92 128 171 218 266 324 391
#     4  11  23  43  66  98 136 176 223 275 333 401
#     4  11  23  42  67  99 134 176 225 279 332 397
#     4  12  24  42  69 101 134 178 225 278 336 397
#
# _framework density 10.243449
#
# number of rings (size 3 to 8) (size 9 to 14) (size 15 to 20)
#    0.000    1.000    0.000    7.500    0.000    4.667 
#    0.000    7.500    0.000    0.000    0.000    0.000 
#    0.000    0.000    0.000    0.000    0.000    0.000 
#
# Total GULP energy -133823.848381 kJ/mol
# GULP energy per Si atom -5575.993683 kJ/mol
# Density = 1.022013 g / cm^3
# Si number density = 10.243449 Si / 1000 Ang^3
#
#
#
# Elastic Constant Matrix: (Units=GPa)
#
#
# Indices 1 2 3 4 5 6 
#
# 1 191.2573 16.5681 27.9983 0.0009 -36.2692 0.0003
# 2 16.5681 94.9498 37.8109 0.0017 -10.2254 -0.0002
# 3 27.9983 37.8109 95.1924 0.0023 -12.9491 -0.0009
# 4 0.0009 0.0017 0.0023 36.1545 -0.0011 -2.8087
# 5 -36.2692 -10.2254 -12.9491 -0.0011 39.1351 0.0002
# 6 0.0003 -0.0002 -0.0009 -2.8087 0.0002 50.7258
#
#
#
# Elastic Compliance Matrix: (Units=1/GPa)
#
#
# Indices 1 2 3 4 5 6 
#
# 1 0.006459 -0.000084 -0.001105 0.000000 0.005599 0.000000
# 2 -0.000084 0.012621 -0.004765 0.000000 0.001643 0.000000
# 3 -0.001105 -0.004765 0.012999 -0.000001 0.002032 0.000000
# 4 0.000000 0.000000 -0.000001 0.027779 0.000001 0.001538
# 5 0.005599 0.001643 0.002032 0.000001 0.031843 0.000000
# 6 0.000000 0.000000 0.000000 0.001538 0.000000 0.019799
#
#
# Mechanical properties :
#
#
# Convention : Reuss Voigt Hill
#
# Bulk Modulus (GPa) = 49.57448 60.68378 55.12913
# Shear Modulus (GPa) = 38.42269 45.13789 41.78029
#
# Velocity S-wave (km/s) = 4.33537 4.69898 4.52083
# Velocity P-wave (km/s) = 7.02220 7.68932 7.36332
#
# Compressibility (1/GPa) = 0.02017167
#
# Stress axis : x y z
#
# Youngs Moduli (GPa) = 154.81551 79.23325 76.92866
#
# Poissons Ratio (x) = 0.00667 0.08499
# Poissons Ratio (y) = 0.01304 0.36655
# Poissons Ratio (z) = 0.17104 0.37753
#
# Static dielectric constant tensor:
#      x y z
#    x 1.744460 0.000000 0.036540 
#    y 0.000000 1.747660 0.000000 
#    z 0.036540 0.000000 1.774320 
# 
# From -- ./inp_files/288992.got.cif
#   From: 2010.05.17/outbox.ucp.g08.bks.cvg/sg15_145_cif.got.tgz:288992.got - 2010.06.11 12:40:34.
