data_PCOD9309871
_publ_section_title
;
Structure prediction by ZEFSAII (Michael W. Deem and Ramdas Pophale) SiO2 
 PCOD9309871
Probable space group: C 2/C
;
_chemical_formula_sum "Si O2"
_cell_formula_units_Z 24
_cell_length_a 27.000000
_cell_length_b 15.000000
_cell_length_c 9.000000
_cell_angle_alpha 90.000000
_cell_angle_beta 40.000000
_cell_angle_gamma 90.000000
_cell_volume 2342.960837
_symmetry_space_group_name_H-M "C 2/C"
_symmetry_group_IT_number 15
_symmetry_cell_setting 'monoclinic'
loop_
_space_group_symop_operation_xyz
x,y,z
-x,y,1/2-z
-x,-y,-z
x,-y,1/2+z
1/2+x,1/2+y,z
1/2-x,1/2+y,1/2-z
1/2-x,1/2-y,-z
1/2+x,1/2-y,1/2+z
loop_
_atom_site_type_symbol
_atom_site_label
_atom_site_fract_x
_atom_site_fract_y
_atom_site_fract_z
Si Si1 0.948363 0.933593 0.218416
Si Si2 0.111175 0.254794 0.763343
Si Si3 0.776095 0.228367 0.724566
Si Si4 0.778919 0.026514 0.622473
Si Si5 0.806118 0.396197 0.469015
Si Si6 0.514814 0.096297 0.037920
O O1 0.930778 0.838955 0.178679
O O2 0.000000 0.919947 0.250000
O O3 0.862647 0.977821 0.435364
O O4 0.000000 0.000000 0.000000
O O5 0.154645 0.257546 0.822806
O O6 0.187682 0.261775 0.483842
O O7 0.047232 0.332069 0.885250
O O8 0.787174 0.122504 0.681797
O O9 0.782737 0.296306 0.571680
O O10 0.746754 0.057368 0.535861
O O11 0.714660 0.961188 0.843525
O O12 0.894667 0.388091 0.209951
O O13 0.500000 0.095450 0.250000
O O14 0.500000 0.000000 0.000000
#
# Coordination Sequence:
#
# PCOD9309871 Si02
#       6
#     8   8   8   8   8   8
#     4  12  26  45  74 107 145 189 242 308 371 435
#     4  11  25  47  72 105 151 185 246 305 366 435
#     4  11  25  45  74 106 140 198 242 302 368 439
#     4  12  26  48  75 104 145 191 249 302 367 449
#     4  12  26  46  76 105 144 195 246 298 372 442
#     4  12  28  46  72 106 147 191 243 305 365 434
#
# _framework density 10.243449
#
# number of rings (size 3 to 8) (size 9 to 14) (size 15 to 20)
#    0.000    0.333    1.667    7.000    9.333    0.000 
#    0.000    0.000    0.000    0.000    0.000    0.000 
#    0.000    0.000    0.000    0.000    0.000    0.000 
#
# Total GULP energy -134130.880549 kJ/mol
# GULP energy per Si atom -5588.786690 kJ/mol
# Density = 1.022013 g / cm^3
# Si number density = 10.243449 Si / 1000 Ang^3
#
#
#
# Elastic Constant Matrix: (Units=GPa)
#
#
# Indices 1 2 3 4 5 6 
#
# 1 138.1919 56.3214 42.9971 0.0000 -18.3995 0.0000
# 2 56.3214 172.2322 61.9985 0.0000 -12.5193 0.0000
# 3 42.9971 61.9985 125.3922 0.0000 -20.9766 0.0000
# 4 0.0000 0.0000 0.0000 48.8258 0.0000 -10.1567
# 5 -18.3995 -12.5193 -20.9766 0.0000 35.3612 0.0000
# 6 0.0000 0.0000 0.0000 -10.1567 0.0000 50.0773
#
#
#
# Elastic Compliance Matrix: (Units=1/GPa)
#
#
# Indices 1 2 3 4 5 6 
#
# 1 0.008994 -0.002182 -0.001501 0.000000 0.003017 0.000000
# 2 -0.002182 0.007600 -0.003052 0.000000 -0.000255 0.000000
# 3 -0.001501 -0.003052 0.010755 0.000000 0.004518 0.000000
# 4 0.000000 0.000000 0.000000 0.021383 0.000000 0.004337
# 5 0.003017 -0.000255 0.004518 0.000000 0.032440 0.000000
# 6 0.000000 0.000000 0.000000 0.004337 0.000000 0.020849
#
#
# Mechanical properties :
#
#
# Convention : Reuss Voigt Hill
#
# Bulk Modulus (GPa) = 72.04921 84.27227 78.16074
# Shear Modulus (GPa) = 41.62675 45.15279 43.38977
#
# Velocity S-wave (km/s) = 4.51252 4.69975 4.60709
# Velocity P-wave (km/s) = 7.89906 8.40680 8.15688
#
# Compressibility (1/GPa) = 0.01387940
#
# Stress axis : x y z
#
# Youngs Moduli (GPa) = 111.18389 131.58461 92.98431
#
# Poissons Ratio (x) = 0.28707 0.13954
# Poissons Ratio (y) = 0.24256 0.28380
# Poissons Ratio (z) = 0.16685 0.40162
#
# Static dielectric constant tensor:
#      x y z
#    x 1.757570 0.000000 0.057140 
#    y 0.000000 1.710500 0.000000 
#    z 0.057140 0.000000 1.740980 
# 
# From -- ./inp_files/66406.got.cif
#   From: 2010.05.17/outbox.ucp.g08.bks.cvg/sg15_34_cif.got.tgz:66406.got - 2010.06.11 12:40:34.
