data_PCOD9309700
_publ_section_title
;
Structure prediction by ZEFSAII (Michael W. Deem and Ramdas Pophale) SiO2 
 PCOD9309700
Probable space group: C 2/C
;
_chemical_formula_sum "Si O2"
_cell_formula_units_Z 22
_cell_length_a 18.000000
_cell_length_b 18.000000
_cell_length_c 15.000000
_cell_angle_alpha 90.000000
_cell_angle_beta 150.000000
_cell_angle_gamma 90.000000
_cell_volume 2430.000000
_symmetry_space_group_name_H-M "C 2/C"
_symmetry_group_IT_number 15
_symmetry_cell_setting 'monoclinic'
loop_
_space_group_symop_operation_xyz
x,y,z
-x,y,1/2-z
-x,-y,-z
x,-y,1/2+z
1/2+x,1/2+y,z
1/2-x,1/2+y,1/2-z
1/2-x,1/2-y,-z
1/2+x,1/2-y,1/2+z
loop_
_atom_site_type_symbol
_atom_site_label
_atom_site_fract_x
_atom_site_fract_y
_atom_site_fract_z
Si Si1 0.861267 0.832148 0.230280
Si Si2 0.500000 0.954622 0.250000
Si Si3 0.899396 0.935950 0.934736
Si Si4 0.009640 0.675000 0.402730
Si Si5 0.429627 0.074837 0.476645
Si Si6 0.768716 0.429155 0.558483
O O1 0.935543 0.752054 0.296515
O O2 0.979201 0.871489 0.419187
O O3 0.687872 0.823952 0.078856
O O4 0.834621 0.880454 0.113411
O O5 0.511252 0.919074 0.360592
O O6 0.651954 0.002835 0.407356
O O7 0.750938 0.926063 0.719811
O O8 0.826673 0.952785 0.955447
O O9 0.000000 0.000000 0.000000
O O10 0.978457 0.646329 0.470083
O O11 0.911801 0.616758 0.243548
O O12 0.500000 0.000000 0.500000
#
# Coordination Sequence:
#
# PCOD9309700 Si02
#       6
#     8   4   8   8   8   8
#     4  12  23  38  60  93 124 171 208 256 319 378
#     4  12  20  38  70  92 124 162 220 258 310 376
#     4  11  23  37  58  88 131 165 205 256 313 376
#     4  11  22  38  60  87 133 167 204 257 322 373
#     4  11  21  40  61  89 125 169 210 257 315 369
#     4  11  21  37  60  94 126 166 208 259 314 373
#
# _framework density 9.0534979999999994
#
# number of rings (size 3 to 8) (size 9 to 14) (size 15 to 20)
#    0.000    0.727    5.455    5.455    0.000    1.455 
#    0.000    0.000    0.000    4.364    0.000    0.000 
#    0.000    0.000    0.000    0.000    0.000    0.000 
#
# Total GULP energy -122607.560351 kJ/mol
# GULP energy per Si atom -5573.070925 kJ/mol
# Density = 0.903289 g / cm^3
# Si number density = 9.053498 Si / 1000 Ang^3
#
#
#
# Elastic Constant Matrix: (Units=GPa)
#
#
# Indices 1 2 3 4 5 6 
#
# 1 100.4541 32.6173 50.7209 0.0000 3.1639 0.0000
# 2 32.6173 28.9569 17.8348 0.0000 -1.4737 0.0000
# 3 50.7209 17.8348 138.4276 0.0000 7.4094 0.0000
# 4 0.0000 0.0000 0.0000 40.4370 0.0000 -0.6807
# 5 3.1639 -1.4737 7.4094 0.0000 57.7476 0.0000
# 6 0.0000 0.0000 0.0000 -0.6807 0.0000 13.6696
#
#
#
# Elastic Compliance Matrix: (Units=1/GPa)
#
#
# Indices 1 2 3 4 5 6 
#
# 1 0.017790 -0.017485 -0.004218 0.000000 -0.000880 0.000000
# 2 -0.017485 0.054842 -0.000791 0.000000 0.002459 0.000000
# 3 -0.004218 -0.000791 0.008922 0.000000 -0.000934 0.000000
# 4 0.000000 0.000000 0.000000 0.024751 0.000000 0.001233
# 5 -0.000880 0.002459 -0.000934 0.000000 0.017547 0.000000
# 6 0.000000 0.000000 0.000000 0.001233 0.000000 0.073217
#
#
# Mechanical properties :
#
#
# Convention : Reuss Voigt Hill
#
# Bulk Modulus (GPa) = 27.34897 52.24272 39.79585
# Shear Modulus (GPa) = 19.66609 33.48188 26.57398
#
# Velocity S-wave (km/s) = 3.29918 4.30480 3.83509
# Velocity P-wave (km/s) = 5.44515 7.32279 6.45263
#
# Compressibility (1/GPa) = 0.03656445
#
# Stress axis : x y z
#
# Youngs Moduli (GPa) = 56.21158 18.23427 112.08850
#
# Poissons Ratio (x) = 0.31883 0.47285
# Poissons Ratio (y) = 0.98288 0.08862
# Poissons Ratio (z) = 0.23713 0.01442
#
# Static dielectric constant tensor:
#      x y z
#    x 1.680850 0.000000 -0.018510 
#    y 0.000000 1.709090 0.000000 
#    z -0.018510 0.000000 1.617150 
# 
# From -- ./inp_files/39078.got.cif
#   From: 2010.05.17/outbox.ucp.g08.bks.cvg/sg15_20_cif.got.tgz:39078.got - 2010.06.11 12:40:34.
