data_PCOD9309552
_publ_section_title
;
Structure prediction by ZEFSAII (Michael W. Deem and Ramdas Pophale) SiO2 
 PCOD9309552
Probable space group: C 2/C
;
_chemical_formula_sum "Si O2"
_cell_formula_units_Z 20
_cell_length_a 9.000000
_cell_length_b 24.000000
_cell_length_c 9.000000
_cell_angle_alpha 90.000000
_cell_angle_beta 80.000000
_cell_angle_gamma 90.000000
_cell_volume 1914.466272
_symmetry_space_group_name_H-M "C 2/C"
_symmetry_group_IT_number 15
_symmetry_cell_setting 'monoclinic'
loop_
_space_group_symop_operation_xyz
x,y,z
-x,y,1/2-z
-x,-y,-z
x,-y,1/2+z
1/2+x,1/2+y,z
1/2-x,1/2+y,1/2-z
1/2-x,1/2-y,-z
1/2+x,1/2-y,1/2+z
loop_
_atom_site_type_symbol
_atom_site_label
_atom_site_fract_x
_atom_site_fract_y
_atom_site_fract_z
Si Si1 0.347336 0.540555 0.875632
Si Si2 0.816597 0.668408 0.093498
Si Si3 0.662353 0.571626 0.279354
Si Si4 0.155675 0.203750 0.815897
Si Si5 0.103819 0.364200 0.371526
O O1 0.500000 0.549589 0.750000
O O2 0.289301 0.479927 0.834335
O O3 0.222877 0.586680 0.864786
O O4 0.363394 0.547478 0.050563
O O5 0.760821 0.625983 0.230190
O O6 0.836942 0.731378 0.145011
O O7 0.703103 0.671808 0.965288
O O8 0.981999 0.647029 0.018382
O O9 0.500000 0.589248 0.250000
O O10 0.294495 0.189366 0.683148
O O11 0.000000 0.190669 0.750000
O O12 0.000000 0.377352 0.250000
#
# Coordination Sequence:
#
# PCOD9309552 Si02
#       5
#     8   8   8   8   8
#     4  11  25  46  72 102 134 188 226 278 347 411
#     4  10  25  45  65 109 138 179 232 292 342 400
#     4  11  26  43  74 101 140 177 233 284 334 420
#     4  10  23  43  72  95 144 187 233 276 347 415
#     4  10  24  42  68  98 141 177 229 288 341 408
#
# _framework density 10.446776
#
# number of rings (size 3 to 8) (size 9 to 14) (size 15 to 20)
#    0.000    1.600    0.000    3.000   16.800    5.600 
#    0.000    0.000    0.000    0.000    0.000    0.000 
#    0.000    0.000    0.000    0.000    0.000    0.000 
#
# Total GULP energy -111561.939551 kJ/mol
# GULP energy per Si atom -5578.096978 kJ/mol
# Density = 1.042300 g / cm^3
# Si number density = 10.446776 Si / 1000 Ang^3
#
#
#
# Elastic Constant Matrix: (Units=GPa)
#
#
# Indices 1 2 3 4 5 6 
#
# 1 92.3278 30.4549 39.3172 0.0000 17.9809 0.0000
# 2 30.4549 85.5764 27.3001 0.0000 -19.0634 0.0000
# 3 39.3172 27.3001 103.4976 0.0000 -1.8714 0.0000
# 4 0.0000 0.0000 0.0000 31.9055 0.0000 -6.9539
# 5 17.9809 -19.0634 -1.8714 0.0000 26.4354 0.0000
# 6 0.0000 0.0000 0.0000 -6.9539 0.0000 27.7286
#
#
#
# Elastic Compliance Matrix: (Units=1/GPa)
#
#
# Indices 1 2 3 4 5 6 
#
# 1 0.021164 -0.010768 -0.005607 0.000000 -0.022557 0.000000
# 2 -0.010768 0.020789 -0.000991 0.000000 0.022246 0.000000
# 3 -0.005607 -0.000991 0.012125 0.000000 0.003958 0.000000
# 4 0.000000 0.000000 0.000000 0.033155 0.000000 0.008315
# 5 -0.022557 0.022246 0.003958 0.000000 0.069493 0.000000
# 6 0.000000 0.000000 0.000000 0.008315 0.000000 0.038149
#
#
# Mechanical properties :
#
#
# Convention : Reuss Voigt Hill
#
# Bulk Modulus (GPa) = 51.69066 52.83847 52.26457
# Shear Modulus (GPa) = 21.18142 29.50254 25.34198
#
# Velocity S-wave (km/s) = 3.18744 3.76179 3.48646
# Velocity P-wave (km/s) = 6.19194 6.64924 6.42466
#
# Compressibility (1/GPa) = 0.01934585
#
# Stress axis : x y z
#
# Youngs Moduli (GPa) = 47.25078 48.10193 82.47326
#
# Poissons Ratio (x) = 0.51795 0.46246
# Poissons Ratio (y) = 0.50879 0.08172
# Poissons Ratio (z) = 0.26495 0.04766
#
# Static dielectric constant tensor:
#      x y z
#    x 1.764320 0.000000 0.045730 
#    y 0.000000 1.754650 0.000000 
#    z 0.045730 0.000000 1.812670 
# 
# From -- ./inp_files/23441.got.cif
#   From: 2010.05.17/outbox.ucp.g08.bks.cvg/sg15_12_cif.got.tgz:23441.got - 2010.06.11 12:40:34.
