data_PCOD9309397
_publ_section_title
;
Structure prediction by ZEFSAII (Michael W. Deem and Ramdas Pophale) SiO2 
 PCOD9309397
Probable space group: C 2/C
;
_chemical_formula_sum "Si O2"
_cell_formula_units_Z 18
_cell_length_a 12.000000
_cell_length_b 15.000000
_cell_length_c 15.000000
_cell_angle_alpha 90.000000
_cell_angle_beta 140.000000
_cell_angle_gamma 90.000000
_cell_volume 1735.526546
_symmetry_space_group_name_H-M "C 2/C"
_symmetry_group_IT_number 15
_symmetry_cell_setting 'monoclinic'
loop_
_space_group_symop_operation_xyz
x,y,z
-x,y,1/2-z
-x,-y,-z
x,-y,1/2+z
1/2+x,1/2+y,z
1/2-x,1/2+y,1/2-z
1/2-x,1/2-y,-z
1/2+x,1/2-y,1/2+z
loop_
_atom_site_type_symbol
_atom_site_label
_atom_site_fract_x
_atom_site_fract_y
_atom_site_fract_z
Si Si1 0.925808 0.128384 0.408053
Si Si2 0.000000 0.603687 0.750000
Si Si3 0.812446 0.181285 0.614217
Si Si4 0.194494 0.009029 0.006374
Si Si5 0.740973 0.290900 0.217439
O O1 0.822216 0.063056 0.410515
O O2 0.797099 0.189013 0.271048
O O3 0.058043 0.185382 0.555155
O O4 0.045497 0.065829 0.419873
O O5 0.124516 0.541562 0.884661
O O6 0.118647 0.664058 0.760188
O O7 0.750000 0.250000 0.500000
O O8 0.823316 0.083641 0.578844
O O9 0.739574 0.171753 0.669729
O O10 0.000000 0.219747 0.750000
#
# Coordination Sequence:
#
# PCOD9309397 Si02
#       5
#     8   4   8   8   8
#     4  10  22  43  66  91 135 168 214 262 324 378
#     4  10  26  42  64  96 134 166 216 264 330 372
#     4  12  23  40  67  96 126 167 217 259 319 381
#     4  10  22  41  62  94 134 167 206 271 316 374
#     4  11  22  44  64  96 126 173 215 260 318 395
#
# _framework density 10.371492
#
# number of rings (size 3 to 8) (size 9 to 14) (size 15 to 20)
#    0.000    1.333    4.444    0.000    1.556    6.222 
#    6.000    0.000    0.000    0.000    0.000    0.000 
#    0.000    0.000    0.000    0.000    0.000    0.000 
#
# Total GULP energy -100381.520542 kJ/mol
# GULP energy per Si atom -5576.751141 kJ/mol
# Density = 1.034789 g / cm^3
# Si number density = 10.371492 Si / 1000 Ang^3
#
#
#
# Elastic Constant Matrix: (Units=GPa)
#
#
# Indices 1 2 3 4 5 6 
#
# 1 68.8320 -13.1841 -10.4410 0.0004 -16.0323 0.0003
# 2 -13.1841 60.2140 -23.5796 0.0003 -19.4746 0.0003
# 3 -10.4410 -23.5796 -28.7266 0.0006 -36.6882 0.0005
# 4 0.0004 0.0003 0.0006 37.4243 0.0004 -9.0010
# 5 -16.0323 -19.4746 -36.6882 0.0004 18.7829 0.0003
# 6 0.0003 0.0003 0.0005 -9.0010 0.0003 20.8586
#
#
#
# Elastic Compliance Matrix: (Units=1/GPa)
#
#
# Indices 1 2 3 4 5 6 
#
# 1 0.013833 0.000742 -0.006209 0.000000 0.000448 0.000000
# 2 0.000742 0.012886 -0.008218 0.000000 -0.002058 0.000000
# 3 -0.006209 -0.008218 -0.002334 0.000001 -0.018380 0.000001
# 4 0.000000 0.000000 0.000001 0.029815 0.000000 0.012866
# 5 0.000448 -0.002058 -0.018380 0.000000 0.015587 0.000000
# 6 0.000000 0.000000 0.000001 0.012866 0.000000 0.053494
#
#
# Mechanical properties :
#
#
# Convention : Reuss Voigt Hill
#
# Bulk Modulus (GPa) = -334.90765 0.65668 -167.12549
# Shear Modulus (GPa) = 33.41003 25.24809 29.32906
#
# Velocity S-wave (km/s) = 4.01767 3.49261 3.76430
# Velocity P-wave (km/s) = 11.84416 4.07206 7.86456
#
# Compressibility (1/GPa) = -0.00298590
#
# Stress axis : x y z
#
# Youngs Moduli (GPa) = 72.29193 77.60352 -428.40927
#
# Poissons Ratio (x) = -0.05759 -2.66011
# Poissons Ratio (y) = -0.05365 -3.52073
# Poissons Ratio (z) = 0.44888 0.63776
#
# Static dielectric constant tensor:
#      x y z
#    x 1.725620 0.000000 0.076240 
#    y 0.000000 1.752800 0.000000 
#    z 0.076240 0.000000 1.725140 
# 
# From -- ./inp_files/28732.got.cif
#   From: 2010.05.17/outbox.ucp.g08.bks.cvg/sg15_15_cif.got.tgz:28732.got - 2010.06.11 12:40:34.
