data_PCOD9309757
_publ_section_title
;
Structure prediction by ZEFSAII (Michael W. Deem and Ramdas Pophale) SiO2 
 PCOD9309757
Probable space group: C 2/C
;
_chemical_formula_sum "Si O2"
_cell_formula_units_Z 24
_cell_length_a 21.000000
_cell_length_b 18.000000
_cell_length_c 18.000000
_cell_angle_alpha 90.000000
_cell_angle_beta 20.000000
_cell_angle_gamma 90.000000
_cell_volume 2327.105055
_symmetry_space_group_name_H-M "C 2/C"
_symmetry_group_IT_number 15
_symmetry_cell_setting 'monoclinic'
loop_
_space_group_symop_operation_xyz
x,y,z
-x,y,1/2-z
-x,-y,-z
x,-y,1/2+z
1/2+x,1/2+y,z
1/2-x,1/2+y,1/2-z
1/2-x,1/2-y,-z
1/2+x,1/2-y,1/2+z
loop_
_atom_site_type_symbol
_atom_site_label
_atom_site_fract_x
_atom_site_fract_y
_atom_site_fract_z
Si Si1 0.873075 0.409774 0.522177
Si Si2 0.856766 0.828170 0.212063
Si Si3 0.777077 0.346973 0.790519
Si Si4 0.500831 0.654715 0.101162
Si Si5 0.022656 0.573826 0.136847
Si Si6 0.683382 0.796674 0.144299
O O1 0.855967 0.381629 0.626518
O O2 0.666050 0.403313 0.714653
O O3 0.939574 0.493340 0.440065
O O4 0.014545 0.354500 0.324231
O O5 0.833985 0.739367 0.234963
O O6 0.691822 0.870194 0.433618
O O7 0.870977 0.854875 0.111081
O O8 0.055170 0.848582 0.028757
O O9 0.850642 0.391071 0.780795
O O10 0.390826 0.733663 0.217157
O O11 0.637257 0.661443 0.020723
O O12 0.000000 0.566902 0.250000
O O13 0.750000 0.750000 0.000000
#
# Coordination Sequence:
#
# PCOD9309757 Si02
#       6
#     8   8   8   8   8   8
#     4  11  26  44  70 102 145 183 232 290 354 421
#     4  11  22  45  75 101 130 178 250 287 345 418
#     4  11  22  46  77 101 131 186 240 294 343 428
#     4  11  22  39  69  99 133 185 236 284 327 424
#     4  12  29  46  67 106 148 181 228 300 367 415
#     4  12  23  37  66 105 142 188 229 278 348 414
#
# _framework density 10.313243
#
# number of rings (size 3 to 8) (size 9 to 14) (size 15 to 20)
#    0.000    0.667    5.000    3.000    2.333    5.333 
#    0.000    0.000    0.000    0.000    0.000    0.000 
#    0.000    0.000    0.000    0.000    0.000    0.000 
#
# Total GULP energy -134250.441805 kJ/mol
# GULP energy per Si atom -5593.768409 kJ/mol
# Density = 1.028977 g / cm^3
# Si number density = 10.313243 Si / 1000 Ang^3
#
#
#
# Elastic Constant Matrix: (Units=GPa)
#
#
# Indices 1 2 3 4 5 6 
#
# 1 95.7776 27.2214 33.2400 0.0017 -13.2248 -0.0024
# 2 27.2214 99.7149 21.6406 -0.0017 7.9616 -0.0003
# 3 33.2400 21.6406 44.0299 -0.0004 0.4245 -0.0060
# 4 0.0017 -0.0017 -0.0004 19.6668 -0.0053 3.9547
# 5 -13.2248 7.9616 0.4245 -0.0053 25.3434 0.0040
# 6 -0.0024 -0.0003 -0.0060 3.9547 0.0040 20.8592
#
#
#
# Elastic Compliance Matrix: (Units=1/GPa)
#
#
# Indices 1 2 3 4 5 6 
#
# 1 0.016437 -0.002849 -0.011102 0.000001 0.009658 -0.000003
# 2 -0.002849 0.012027 -0.003710 0.000000 -0.005203 0.000000
# 3 -0.011102 -0.003710 0.032967 -0.000002 -0.005180 0.000009
# 4 0.000001 0.000000 -0.000002 0.052862 0.000013 -0.010022
# 5 0.009658 -0.005203 -0.005180 0.000013 0.046219 -0.000012
# 6 -0.000003 0.000000 0.000009 -0.010022 -0.000012 0.049841
#
#
# Mechanical properties :
#
#
# Convention : Reuss Voigt Hill
#
# Bulk Modulus (GPa) = 38.30179 44.85850 41.58015
# Shear Modulus (GPa) = 19.65580 23.66858 21.66219
#
# Velocity S-wave (km/s) = 3.09032 3.39113 3.24421
# Velocity P-wave (km/s) = 5.59848 6.09329 5.85112
#
# Compressibility (1/GPa) = 0.02610844
#
# Stress axis : x y z
#
# Youngs Moduli (GPa) = 60.83789 83.14651 30.33371
#
# Poissons Ratio (x) = 0.23688 0.33676
# Poissons Ratio (y) = 0.17333 0.11255
# Poissons Ratio (z) = 0.67542 0.30849
#
# Static dielectric constant tensor:
#      x y z
#    x 1.764490 -0.000010 -0.016760 
#    y -0.000010 1.716370 0.000010 
#    z -0.016760 0.000010 1.741300 
# 
# From -- ./inp_files/216253.got.cif
#   From: 2010.05.17/outbox.ucp.g08.bks.cvg/sg15_109_cif.got.tgz:216253.got - 2010.06.11 12:40:34.
