data_PCOD9309976
_publ_section_title
;
Structure prediction by ZEFSAII (Michael W. Deem and Ramdas Pophale) SiO2 
 PCOD9309976
Probable space group: P 2 2 2
;
_chemical_formula_sum "Si O2"
_cell_formula_units_Z 25
_cell_length_a 7.332528
_cell_length_b 5.417411
_cell_length_c 28.307844
_cell_angle_alpha 90.000000
_cell_angle_beta 90.000000
_cell_angle_gamma 90.000000
_cell_volume 1124.481485
_symmetry_space_group_name_H-M "P 2 2 2"
_symmetry_group_IT_number 16
_symmetry_cell_setting 'orthorhombic'
loop_
_space_group_symop_operation_xyz
x,y,z
-x,-y,z
x,-y,-z
-x,y,-z
loop_
_atom_site_type_symbol
_atom_site_label
_atom_site_fract_x
_atom_site_fract_y
_atom_site_fract_z
Si Si1 0.781353 0.995564 0.394217
Si Si2 0.222728 0.501741 0.445224
Si Si3 0.802297 0.946899 0.091047
Si Si4 0.000000 0.000000 0.000000
Si Si5 0.212614 0.545917 0.125667
Si Si6 0.279283 0.514059 0.235283
Si Si7 0.715752 0.009935 0.716947
O O1 0.714862 0.750952 0.420815
O O2 0.740201 0.969366 0.338989
O O3 0.717022 0.252505 0.417368
O O4 0.000000 0.000000 0.399133
O O5 0.276386 0.500000 0.500000
O O6 0.000000 0.500000 0.444129
O O7 0.700066 0.718644 0.113532
O O8 0.863747 0.875768 0.037790
O O9 0.717183 0.216810 0.097083
O O10 0.000000 0.000000 0.116391
O O11 0.227293 0.573714 0.181559
O O12 0.000000 0.500000 0.112045
O O13 0.500000 0.500000 0.237333
O O14 0.212963 0.249644 0.254932
O O15 0.212737 0.744530 0.266325
O O16 0.500000 0.000000 0.726738
#
# Coordination Sequence:
#
# PCOD9309976 Si02
#       7
#     4   4   4   1   4   4   4
#     4  10  19  31  51  75  97 123 164 200 241 286
#     4   9  17  30  49  74 101 127 155 196 242 293
#     4   8  17  27  46  71 102 124 157 192 240 280
#     4   8  16  30  48  74 110 130 160 194 246 294
#     4  10  18  31  47  74 100 122 160 203 241 277
#     4  10  21  35  51  69  95 132 167 197 242 296
#     4  10  21  36  51  69  95 130 166 199 242 293
#
# _framework density 22.232471
#
# number of rings (size 3 to 8) (size 9 to 14) (size 15 to 20)
#    0.480    2.080    0.000    2.400    0.000    4.480 
#    0.000    0.000    0.000    2.880    0.000    3.360 
#    0.000    0.000    0.000    0.000    0.000    0.000 
#
# Total GULP energy -139363.155406 kJ/mol
# GULP energy per Si atom -5574.526216 kJ/mol
# Density = 2.218187 g / cm^3
# Si number density = 22.232471 Si / 1000 Ang^3
#
#
#
# Elastic Constant Matrix: (Units=GPa)
#
#
# Indices 1 2 3 4 5 6 
#
# 1 72.1864 1.3549 -20.7867 0.0000 0.0000 0.0000
# 2 1.3549 198.2573 65.1756 0.0000 0.0000 0.0000
# 3 -20.7867 65.1756 134.6452 0.0000 0.0000 0.0000
# 4 0.0000 0.0000 0.0000 92.9570 0.0000 0.0000
# 5 0.0000 0.0000 0.0000 0.0000 39.4194 0.0000
# 6 0.0000 0.0000 0.0000 0.0000 0.0000 -14.4747
#
#
#
# Elastic Compliance Matrix: (Units=1/GPa)
#
#
# Indices 1 2 3 4 5 6 
#
# 1 0.014664 -0.001004 0.002750 0.000000 0.000000 0.000000
# 2 -0.001004 0.006067 -0.003092 0.000000 0.000000 0.000000
# 3 0.002750 -0.003092 0.009348 0.000000 0.000000 0.000000
# 4 0.000000 0.000000 0.000000 0.010758 0.000000 0.000000
# 5 0.000000 0.000000 0.000000 0.000000 0.025368 0.000000
# 6 0.000000 0.000000 0.000000 0.000000 0.000000 -0.069086
#
#
# Mechanical properties :
#
#
# Convention : Reuss Voigt Hill
#
# Bulk Modulus (GPa) = 36.51415 55.17516 45.84466
# Shear Modulus (GPa) = 559.27354 47.53667 303.40511
#
# Velocity S-wave (km/s) = 15.87776 4.62905 11.69468
# Velocity P-wave (km/s) = 18.77757 7.31040 14.24849
#
# Compressibility (1/GPa) = 0.02738664
#
# Stress axis : x y z
#
# Youngs Moduli (GPa) = 68.19543 164.81915 106.97346
#
# Poissons Ratio (x) = 0.16551 -0.29417
# Poissons Ratio (y) = 0.06848 0.33075
# Poissons Ratio (z) = -0.18753 0.50961
#
# Static dielectric constant tensor:
#      x y z
#    x 1.838360 0.000000 0.000000 
#    y 0.000000 1.883380 0.000000 
#    z 0.000000 0.000000 1.747540 
# 
# From -- ./inp_files/9651.got.cif
#   From: 2010.05.17/outbox.cif.g08.bks.cpg/sg16_5_cif.got.tgz:9651.got - 2010.06.03 22:28:35.
