data_PCOD9309539
_publ_section_title
;
Structure prediction by ZEFSAII (Michael W. Deem and Ramdas Pophale) SiO2 
 PCOD9309539
Probable space group: C 2/C
;
_chemical_formula_sum "Si O2"
_cell_formula_units_Z 26
_cell_length_a 12.000000
_cell_length_b 24.000000
_cell_length_c 12.000000
_cell_angle_alpha 90.000000
_cell_angle_beta 130.000000
_cell_angle_gamma 90.000000
_cell_volume 2647.449595
_symmetry_space_group_name_H-M "C 2/C"
_symmetry_group_IT_number 15
_symmetry_cell_setting 'monoclinic'
loop_
_space_group_symop_operation_xyz
x,y,z
-x,y,1/2-z
-x,-y,-z
x,-y,1/2+z
1/2+x,1/2+y,z
1/2-x,1/2+y,1/2-z
1/2-x,1/2-y,-z
1/2+x,1/2-y,1/2+z
loop_
_atom_site_type_symbol
_atom_site_label
_atom_site_fract_x
_atom_site_fract_y
_atom_site_fract_z
Si Si1 0.904206 0.881602 0.073652
Si Si2 0.106276 0.549918 0.426550
Si Si3 0.000000 0.656195 0.750000
Si Si4 0.903448 0.869239 0.804736
Si Si5 0.674381 0.238936 0.705882
Si Si6 0.015504 0.754534 0.382577
Si Si7 0.384720 0.923819 0.980422
O O1 0.000000 0.897702 0.250000
O O2 0.904036 0.814157 0.082618
O O3 0.751101 0.913884 0.992323
O O4 0.947095 0.888241 0.964173
O O5 0.141312 0.485619 0.484192
O O6 0.000000 0.549786 0.250000
O O7 0.017098 0.573068 0.476355
O O8 0.112333 0.696414 0.757330
O O9 0.076092 0.617613 0.892543
O O10 0.873304 0.802707 0.797375
O O11 0.755084 0.901314 0.676933
O O12 0.000000 0.876569 0.750000
O O13 0.849047 0.235935 0.813915
O O14 0.603247 0.225240 0.538892
O O15 0.000000 0.726795 0.250000
#
# Coordination Sequence:
#
# PCOD9309539 Si02
#       7
#     8   8   4   8   8   8   8
#     4  10  24  45  73 100 140 185 232 290 357 415
#     4  11  23  51  72 103 136 179 239 298 353 415
#     4  12  26  40  70 104 138 186 228 290 344 428
#     4  11  24  45  69 107 145 188 233 288 356 426
#     4  11  24  43  67  98 144 181 226 284 351 415
#     4  10  23  43  65 100 132 184 232 285 342 418
#     4  11  26  42  76 105 134 184 236 294 352 420
#
# _framework density 9.8207719999999998
#
# number of rings (size 3 to 8) (size 9 to 14) (size 15 to 20)
#    0.000    1.231    3.077    1.385    8.615    1.846 
#    5.538    1.538    0.000    0.000    0.000    0.000 
#    0.000    0.000    0.000    0.000    0.000    0.000 
#
# Total GULP energy -145065.320728 kJ/mol
# GULP energy per Si atom -5579.435413 kJ/mol
# Density = 0.979842 g / cm^3
# Si number density = 9.820772 Si / 1000 Ang^3
#
#
#
# Elastic Constant Matrix: (Units=GPa)
#
#
# Indices 1 2 3 4 5 6 
#
# 1 141.6569 50.1725 37.9770 0.0000 -14.9188 0.0000
# 2 50.1725 87.3856 37.5713 0.0000 -2.2251 0.0000
# 3 37.9770 37.5713 157.7633 0.0000 -23.3169 0.0000
# 4 0.0000 0.0000 0.0000 37.5199 0.0000 -3.9831
# 5 -14.9188 -2.2251 -23.3169 0.0000 41.7985 0.0000
# 6 0.0000 0.0000 0.0000 -3.9831 0.0000 36.6456
#
#
#
# Elastic Compliance Matrix: (Units=1/GPa)
#
#
# Indices 1 2 3 4 5 6 
#
# 1 0.009280 -0.004980 -0.000651 0.000000 0.002684 0.000000
# 2 -0.004980 0.015468 -0.002862 0.000000 -0.002551 0.000000
# 3 -0.000651 -0.002862 0.007760 0.000000 0.003944 0.000000
# 4 0.000000 0.000000 0.000000 0.026964 0.000000 0.002931
# 5 0.002684 -0.002551 0.003944 0.000000 0.026947 0.000000
# 6 0.000000 0.000000 0.000000 0.002931 0.000000 0.027607
#
#
# Mechanical properties :
#
#
# Convention : Reuss Voigt Hill
#
# Bulk Modulus (GPa) = 64.42430 70.91639 67.67035
# Shear Modulus (GPa) = 36.71442 40.59848 38.65645
#
# Velocity S-wave (km/s) = 4.32814 4.55133 4.44114
# Velocity P-wave (km/s) = 7.60581 7.98769 7.79908
#
# Compressibility (1/GPa) = 0.01552209
#
# Stress axis : x y z
#
# Youngs Moduli (GPa) = 107.75384 64.64821 128.86800
#
# Poissons Ratio (x) = 0.32195 0.08394
# Poissons Ratio (y) = 0.53661 0.36881
# Poissons Ratio (z) = 0.07018 0.18502
#
# Static dielectric constant tensor:
#      x y z
#    x 1.718310 0.000000 -0.026250 
#    y 0.000000 1.683860 0.000000 
#    z -0.026250 0.000000 1.714820 
# 
# From -- ./inp_files/91306.got.cif
#   From: 2010.05.17/outbox.ucp.g08.bks.cvg/sg15_46_cif.got.tgz:91306.got - 2010.06.11 12:40:34.
