data_PCOD9309402
_publ_section_title
;
Structure prediction by ZEFSAII (Michael W. Deem and Ramdas Pophale) SiO2 
 PCOD9309402
Probable space group: C 2/C
;
_chemical_formula_sum "Si O2"
_cell_formula_units_Z 20
_cell_length_a 24.000000
_cell_length_b 18.000000
_cell_length_c 27.000000
_cell_angle_alpha 90.000000
_cell_angle_beta 170.000000
_cell_angle_gamma 90.000000
_cell_volume 2025.432344
_symmetry_space_group_name_H-M "C 2/C"
_symmetry_group_IT_number 15
_symmetry_cell_setting 'monoclinic'
loop_
_space_group_symop_operation_xyz
x,y,z
-x,y,1/2-z
-x,-y,-z
x,-y,1/2+z
1/2+x,1/2+y,z
1/2-x,1/2+y,1/2-z
1/2-x,1/2-y,-z
1/2+x,1/2-y,1/2+z
loop_
_atom_site_type_symbol
_atom_site_label
_atom_site_fract_x
_atom_site_fract_y
_atom_site_fract_z
Si Si1 0.318159 0.098416 0.800607
Si Si2 0.877708 0.800552 0.752812
Si Si3 0.379182 0.551290 0.087852
Si Si4 0.863259 0.448373 0.453858
Si Si5 0.737131 0.803536 0.792484
O O1 0.268768 0.078328 0.815379
O O2 0.024539 0.145531 0.519675
O O3 0.625151 0.153575 0.065952
O O4 0.396020 0.019801 0.842057
O O5 0.651418 0.745253 0.521868
O O6 0.032594 0.866705 0.855997
O O7 0.500000 0.548066 0.250000
O O8 0.566280 0.486880 0.221573
O O9 0.000000 0.540966 0.750000
O O10 0.014703 0.375459 0.613454
O O11 0.475167 0.748981 0.535627
#
# Coordination Sequence:
#
# PCOD9309402 Si02
#       5
#     8   8   8   8   8
#     4  10  22  41  65 101 137 174 214 270 342 411
#     4  11  24  40  65 102 142 174 212 268 333 407
#     4  11  26  46  69  94 127 183 237 274 320 382
#     4  10  24  43  68  96 134 173 226 279 330 399
#     4  12  23  38  62  96 132 165 206 261 338 405
#
# _framework density 9.8744350000000001
#
# number of rings (size 3 to 8) (size 9 to 14) (size 15 to 20)
#    0.000    1.200    2.000    3.000    5.600    2.400 
#    0.000    0.000    0.000    3.600    0.000    0.000 
#    0.000    0.000    0.000    0.000    0.000    0.000 
#
# Total GULP energy -111572.193469 kJ/mol
# GULP energy per Si atom -5578.609673 kJ/mol
# Density = 0.985196 g / cm^3
# Si number density = 9.874435 Si / 1000 Ang^3
#
#
#
# Elastic Constant Matrix: (Units=GPa)
#
#
# Indices 1 2 3 4 5 6 
#
# 1 104.3962 48.6790 67.1421 -0.0012 1.2438 -0.3317
# 2 48.6790 183.4519 88.6468 -0.1910 -0.2209 -1.6783
# 3 67.1421 88.6468 181.8101 -0.3235 -7.8097 -1.5042
# 4 -0.0012 -0.1910 -0.3235 56.5665 0.0793 1.4466
# 5 1.2438 -0.2209 -7.8097 0.0793 36.5606 0.2525
# 6 -0.3317 -1.6783 -1.5042 1.4466 0.2525 15.4207
#
#
#
# Elastic Compliance Matrix: (Units=1/GPa)
#
#
# Indices 1 2 3 4 5 6 
#
# 1 0.012920 -0.001437 -0.004130 -0.000020 -0.001329 -0.000258
# 2 -0.001437 0.007312 -0.003055 -0.000004 -0.000563 0.000477
# 3 -0.004130 -0.003055 0.008602 0.000026 0.001957 0.000383
# 4 -0.000020 -0.000004 0.000026 0.017721 -0.000021 -0.001660
# 5 -0.001329 -0.000563 0.001957 -0.000021 0.027814 -0.000352
# 6 -0.000258 0.000477 0.000383 -0.001660 -0.000352 0.065093
#
#
# Mechanical properties :
#
#
# Convention : Reuss Voigt Hill
#
# Bulk Modulus (GPa) = 86.27286 97.62156 91.94721
# Shear Modulus (GPa) = 31.13912 39.38891 35.26402
#
# Velocity S-wave (km/s) = 3.97514 4.47082 4.23025
# Velocity P-wave (km/s) = 8.05288 8.72867 8.39757
#
# Compressibility (1/GPa) = 0.01159113
#
# Stress axis : x y z
#
# Youngs Moduli (GPa) = 77.39908 136.75991 116.24790
#
# Poissons Ratio (x) = 0.19646 0.48012
# Poissons Ratio (y) = 0.11119 0.35513
# Poissons Ratio (z) = 0.31967 0.41779
#
# Static dielectric constant tensor:
#      x y z
#    x 1.737560 -0.000120 0.006100 
#    y -0.000120 1.709840 -0.001660 
#    z 0.006100 -0.001660 1.730400 
# 
# From -- ./inp_files/283754.got.cif
#   From: 2010.05.17/outbox.ucp.g08.bks.cvg/sg15_142_cif.got.tgz:283754.got - 2010.06.11 12:40:34.
