data_PCOD9309091
_publ_section_title
;
Structure prediction by ZEFSAII (Michael W. Deem and Ramdas Pophale) SiO2 
 PCOD9309091
Probable space group: C 2/C
;
_chemical_formula_sum "Si O2"
_cell_formula_units_Z 32
_cell_length_a 18.000000
_cell_length_b 9.000000
_cell_length_c 30.000000
_cell_angle_alpha 90.000000
_cell_angle_beta 40.000000
_cell_angle_gamma 90.000000
_cell_volume 3123.947783
_symmetry_space_group_name_H-M "C 2/C"
_symmetry_group_IT_number 15
_symmetry_cell_setting 'monoclinic'
loop_
_space_group_symop_operation_xyz
x,y,z
-x,y,1/2-z
-x,-y,-z
x,-y,1/2+z
1/2+x,1/2+y,z
1/2-x,1/2+y,1/2-z
1/2-x,1/2-y,-z
1/2+x,1/2-y,1/2+z
loop_
_atom_site_type_symbol
_atom_site_label
_atom_site_fract_x
_atom_site_fract_y
_atom_site_fract_z
Si Si1 0.350704 0.677303 0.734330
Si Si2 0.249947 0.670161 0.135935
Si Si3 0.566455 0.308503 0.065737
Si Si4 0.800951 0.591887 0.436054
Si Si5 0.220054 0.190600 0.889307
Si Si6 0.512374 0.180592 0.993580
Si Si7 0.953483 0.653864 0.819951
Si Si8 0.183938 0.174358 0.241452
O O1 0.341798 0.769134 0.785358
O O2 0.465579 0.675532 0.649524
O O3 0.247252 0.757686 0.755079
O O4 0.325786 0.503094 0.753221
O O5 0.206231 0.693398 0.105339
O O6 0.273083 0.488847 0.124411
O O7 0.371557 0.759902 0.084394
O O8 0.643965 0.174416 0.048053
O O9 0.520592 0.254948 0.039110
O O10 0.664720 0.436946 0.011056
O O11 0.895385 0.467981 0.378711
O O12 0.107053 0.243163 0.967664
O O13 0.336976 0.241222 0.860709
O O14 0.233569 0.275499 0.836744
O O15 0.500000 0.000000 0.000000
O O16 0.000000 0.594822 0.750000
O O17 0.058853 0.747733 0.791545
#
# Coordination Sequence:
#
# PCOD9309091 Si02
#       8
#     8   8   8   8   8   8   8   8
#     4  12  25  41  68  98 133 171 220 282 331 399
#     4  10  23  39  68  99 122 181 226 265 336 399
#     4  10  23  41  65  94 138 169 214 283 329 395
#     4   9  21  43  65  95 127 176 218 265 340 395
#     4  10  20  43  65  91 132 173 219 278 322 399
#     4  11  22  41  66  96 135 176 225 277 330 394
#     4   9  21  39  67  89 128 174 222 272 328 398
#     4  11  24  42  62  98 131 170 222 273 341 392
#
# _framework density 10.243449
#
# number of rings (size 3 to 8) (size 9 to 14) (size 15 to 20)
#    0.000    1.750    1.250    1.875    7.000    0.000 
#   13.500    0.625    0.000    0.000    0.000    0.000 
#    0.000    0.000    0.000    0.000    0.000    0.000 
#
# Total GULP energy -178220.192223 kJ/mol
# GULP energy per Si atom -5569.381007 kJ/mol
# Density = 1.022013 g / cm^3
# Si number density = 10.243449 Si / 1000 Ang^3
#
#
#
# Elastic Constant Matrix: (Units=GPa)
#
#
# Indices 1 2 3 4 5 6 
#
# 1 49.1504 -8.8231 11.6062 0.0002 -14.3426 0.0006
# 2 -8.8231 97.7293 23.7585 0.0003 -13.0729 0.0008
# 3 11.6062 23.7585 125.7959 0.0000 -14.8874 0.0001
# 4 0.0002 0.0003 0.0000 32.8134 0.0000 -4.3957
# 5 -14.3426 -13.0729 -14.8874 0.0000 37.5790 0.0000
# 6 0.0006 0.0008 0.0001 -4.3957 0.0000 18.5123
#
#
#
# Elastic Compliance Matrix: (Units=1/GPa)
#
#
# Indices 1 2 3 4 5 6 
#
# 1 0.024402 0.003981 -0.001823 0.000000 0.009976 -0.000001
# 2 0.003981 0.011723 -0.002013 0.000000 0.004800 -0.000001
# 3 -0.001823 -0.002013 0.008742 0.000000 0.002067 0.000000
# 4 0.000000 0.000000 0.000000 0.031477 0.000000 0.007474
# 5 0.009976 0.004800 0.002067 0.000000 0.032907 -0.000001
# 6 -0.000001 -0.000001 0.000000 0.007474 -0.000001 0.055793
#
#
# Mechanical properties :
#
#
# Convention : Reuss Voigt Hill
#
# Bulk Modulus (GPa) = 22.14506 36.19543 29.17024
# Shear Modulus (GPa) = 27.80767 34.18987 30.99877
#
# Velocity S-wave (km/s) = 3.68821 4.08961 3.89408
# Velocity P-wave (km/s) = 5.38238 6.32501 5.87264
#
# Compressibility (1/GPa) = 0.04515680
#
# Stress axis : x y z
#
# Youngs Moduli (GPa) = 40.98068 85.30073 114.38431
#
# Poissons Ratio (x) = -0.33954 0.20847
# Poissons Ratio (y) = -0.16313 0.23029
# Poissons Ratio (z) = 0.07469 0.17174
#
# Static dielectric constant tensor:
#      x y z
#    x 1.808780 0.000000 0.007130 
#    y 0.000000 1.729810 0.000000 
#    z 0.007130 0.000000 1.792550 
# 
# From -- ./inp_files/315692.got.cif
#   From: 2010.05.17/outbox.ucp.g08.bks.cvg/sg15_158_cif.got.tgz:315692.got - 2010.06.11 12:40:34.
