data_PCOD9309793
_publ_section_title
;
Structure prediction by ZEFSAII (Michael W. Deem and Ramdas Pophale) SiO2 
 PCOD9309793
Probable space group: C 2/C
;
_chemical_formula_sum "Si O2"
_cell_formula_units_Z 28
_cell_length_a 24.000000
_cell_length_b 15.000000
_cell_length_c 15.000000
_cell_angle_alpha 90.000000
_cell_angle_beta 30.000000
_cell_angle_gamma 90.000000
_cell_volume 2700.000000
_symmetry_space_group_name_H-M "C 2/C"
_symmetry_group_IT_number 15
_symmetry_cell_setting 'monoclinic'
loop_
_space_group_symop_operation_xyz
x,y,z
-x,y,1/2-z
-x,-y,-z
x,-y,1/2+z
1/2+x,1/2+y,z
1/2-x,1/2+y,1/2-z
1/2-x,1/2-y,-z
1/2+x,1/2-y,1/2+z
loop_
_atom_site_type_symbol
_atom_site_label
_atom_site_fract_x
_atom_site_fract_y
_atom_site_fract_z
Si Si1 0.569300 0.788285 0.933953
Si Si2 0.837042 0.394402 0.280267
Si Si3 0.131879 0.485336 0.584328
Si Si4 0.821782 0.836137 0.359462
Si Si5 0.218327 0.551660 0.278129
Si Si6 0.477342 0.474465 0.426574
Si Si7 0.098767 0.838053 0.556745
O O1 0.593692 0.721004 0.819650
O O2 0.652751 0.871941 0.816233
O O3 0.443276 0.828232 0.118163
O O4 0.611931 0.728716 0.957046
O O5 0.858299 0.454791 0.339103
O O6 0.818229 0.460864 0.222032
O O7 0.714156 0.348887 0.451054
O O8 0.219462 0.401697 0.469945
O O9 0.173922 0.541931 0.440573
O O10 0.000000 0.461834 0.750000
O O11 0.750000 0.750000 0.500000
O O12 0.917790 0.913818 0.255849
O O13 0.352104 0.567700 0.093470
O O14 0.500000 0.500000 0.500000
O O15 0.453661 0.568199 0.407566
O O16 0.000000 0.795979 0.750000
#
# Coordination Sequence:
#
# PCOD9309793 Si02
#       7
#     8   8   8   8   8   8   8
#     4  12  26  44  70 110 147 191 248 316 369 443
#     4  11  26  48  72 106 153 194 250 312 378 458
#     4  12  25  46  77 106 151 204 247 304 391 453
#     4  12  27  45  75 112 145 188 259 312 369 442
#     4  11  25  45  76 102 148 202 245 303 392 447
#     4  11  22  49  72  97 147 202 235 303 386 449
#     4  11  26  43  73 107 147 191 254 304 376 453
#
# _framework density 10.370369999999999
#
# number of rings (size 3 to 8) (size 9 to 14) (size 15 to 20)
#    0.000    0.571    4.286    3.000    6.000    2.857 
#    0.000    0.000    0.000    0.000    0.000    0.000 
#    0.000    0.000    0.000    0.000    0.000    0.000 
#
# Total GULP energy -156089.263569 kJ/mol
# GULP energy per Si atom -5574.616556 kJ/mol
# Density = 1.034677 g / cm^3
# Si number density = 10.370370 Si / 1000 Ang^3
#
#
#
# Elastic Constant Matrix: (Units=GPa)
#
#
# Indices 1 2 3 4 5 6 
#
# 1 96.5570 10.7689 35.1591 0.0000 -31.5322 0.0000
# 2 10.7689 71.6037 16.9248 0.0000 -22.3900 0.0000
# 3 35.1591 16.9248 107.8849 0.0000 -39.8621 0.0000
# 4 0.0000 0.0000 0.0000 54.6848 0.0000 0.2457
# 5 -31.5322 -22.3900 -39.8621 0.0000 59.2684 0.0000
# 6 0.0000 0.0000 0.0000 0.2457 0.0000 24.6036
#
#
#
# Elastic Compliance Matrix: (Units=1/GPa)
#
#
# Indices 1 2 3 4 5 6 
#
# 1 0.012929 0.000300 -0.002232 0.000000 0.005491 0.000000
# 2 0.000300 0.015854 -0.000417 0.000000 0.005869 0.000000
# 3 -0.002232 -0.000417 0.012728 0.000000 0.007216 0.000000
# 4 0.000000 0.000000 0.000000 0.018287 0.000000 -0.000183
# 5 0.005491 0.005869 0.007216 0.000000 0.026864 0.000000
# 6 0.000000 0.000000 0.000000 -0.000183 0.000000 0.040646
#
#
# Mechanical properties :
#
#
# Convention : Reuss Voigt Hill
#
# Bulk Modulus (GPa) = 27.16322 44.63903 35.90113
# Shear Modulus (GPa) = 34.65571 41.92423 38.28997
#
# Velocity S-wave (km/s) = 4.09210 4.50082 4.30132
# Velocity P-wave (km/s) = 5.95416 6.96986 6.48193
#
# Compressibility (1/GPa) = 0.03681448
#
# Stress axis : x y z
#
# Youngs Moduli (GPa) = 77.34633 63.07478 78.56755
#
# Poissons Ratio (x) = -0.01892 0.17534
# Poissons Ratio (y) = -0.02320 0.03272
# Poissons Ratio (z) = 0.17262 0.02627
#
# Static dielectric constant tensor:
#      x y z
#    x 1.759770 0.000000 0.054460 
#    y 0.000000 1.762820 0.000000 
#    z 0.054460 0.000000 1.792310 
# 
# From -- ./inp_files/173785.got.cif
#   From: 2010.05.17/outbox.ucp.g08.bks.cvg/sg15_87_cif.got.tgz:173785.got - 2010.06.11 12:40:34.
