data_PCOD9309511
_publ_section_title
;
Structure prediction by ZEFSAII (Michael W. Deem and Ramdas Pophale) SiO2 
 PCOD9309511
Probable space group: C 2/C
;
_chemical_formula_sum "Si O2"
_cell_formula_units_Z 28
_cell_length_a 9.000000
_cell_length_b 12.000000
_cell_length_c 30.000000
_cell_angle_alpha 90.000000
_cell_angle_beta 60.000000
_cell_angle_gamma 90.000000
_cell_volume 2805.922308
_symmetry_space_group_name_H-M "C 2/C"
_symmetry_group_IT_number 15
_symmetry_cell_setting 'monoclinic'
loop_
_space_group_symop_operation_xyz
x,y,z
-x,y,1/2-z
-x,-y,-z
x,-y,1/2+z
1/2+x,1/2+y,z
1/2-x,1/2+y,1/2-z
1/2-x,1/2-y,-z
1/2+x,1/2-y,1/2+z
loop_
_atom_site_type_symbol
_atom_site_label
_atom_site_fract_x
_atom_site_fract_y
_atom_site_fract_z
Si Si1 0.681483 0.311073 0.730705
Si Si2 0.924702 0.750980 0.340866
Si Si3 0.488192 0.994155 0.055446
Si Si4 0.628809 0.627388 0.340517
Si Si5 0.935898 0.238757 0.448587
Si Si6 0.758880 0.316714 0.953054
Si Si7 0.646310 0.495841 0.160689
O O1 0.500000 0.246530 0.750000
O O2 0.673901 0.328227 0.784756
O O3 0.661557 0.421067 0.701151
O O4 0.871400 0.264175 0.692898
O O5 0.808124 0.647345 0.339821
O O6 0.867023 0.754325 0.400956
O O7 0.859302 0.864540 0.327135
O O8 0.638803 0.069693 0.053323
O O9 0.306350 0.026255 0.104616
O O10 0.508264 0.865917 0.064279
O O11 0.500000 0.000000 0.000000
O O12 0.482277 0.686701 0.393270
O O13 0.529682 0.514866 0.341062
O O14 0.750000 0.250000 0.500000
O O15 0.067402 0.174549 0.461871
O O16 0.750000 0.250000 0.000000
#
# Coordination Sequence:
#
# PCOD9309511 Si02
#       7
#     8   8   8   8   8   8   8
#     4  10  23  41  66  95 129 174 223 278 328 399
#     4  11  22  44  67  93 136 172 220 281 331 398
#     4  12  21  40  70  95 131 180 222 271 338 408
#     4  10  23  40  63  99 127 171 226 270 333 393
#     4  11  24  42  64  98 140 174 219 288 335 401
#     4  11  22  38  66 100 129 177 224 267 344 406
#     4  11  22  43  67  94 131 180 221 268 341 395
#
# _framework density 9.9788940000000004
#
# number of rings (size 3 to 8) (size 9 to 14) (size 15 to 20)
#    0.000    1.143    5.714    1.286    0.000    4.000 
#    0.000   12.857    0.000    0.000    0.000    0.000 
#    0.000    0.000    0.000    0.000    0.000    0.000 
#
# Total GULP energy -155871.650640 kJ/mol
# GULP energy per Si atom -5566.844666 kJ/mol
# Density = 0.995618 g / cm^3
# Si number density = 9.978894 Si / 1000 Ang^3
#
#
#
# Elastic Constant Matrix: (Units=GPa)
#
#
# Indices 1 2 3 4 5 6 
#
# 1 125.7246 33.4208 53.1651 0.0000 -32.8522 0.0000
# 2 33.4208 57.4732 -0.7714 0.0000 6.7252 0.0000
# 3 53.1651 -0.7714 163.6869 0.0000 -11.5703 0.0000
# 4 0.0000 0.0000 0.0000 22.5378 0.0000 1.0479
# 5 -32.8522 6.7252 -11.5703 0.0000 48.1970 0.0000
# 6 0.0000 0.0000 0.0000 1.0479 0.0000 41.1627
#
#
#
# Elastic Compliance Matrix: (Units=1/GPa)
#
#
# Indices 1 2 3 4 5 6 
#
# 1 0.015300 -0.010222 -0.004252 0.000000 0.010835 0.000000
# 2 -0.010222 0.024519 0.002748 0.000000 -0.009729 0.000000
# 3 -0.004252 0.002748 0.007397 0.000000 -0.001506 0.000000
# 4 0.000000 0.000000 0.000000 0.044422 0.000000 -0.001131
# 5 0.010835 -0.009729 -0.001506 0.000000 0.029129 0.000000
# 6 0.000000 0.000000 0.000000 -0.001131 0.000000 0.024323
#
#
# Mechanical properties :
#
#
# Convention : Reuss Voigt Hill
#
# Bulk Modulus (GPa) = 42.08036 57.61262 49.84649
# Shear Modulus (GPa) = 28.33450 39.78418 34.05934
#
# Velocity S-wave (km/s) = 3.77201 4.46961 4.13555
# Velocity P-wave (km/s) = 6.33255 7.45429 6.91620
#
# Compressibility (1/GPa) = 0.02376406
#
# Stress axis : x y z
#
# Youngs Moduli (GPa) = 65.35855 40.78489 135.19538
#
# Poissons Ratio (x) = 0.41690 0.57482
# Poissons Ratio (y) = 0.66809 -0.37151
# Poissons Ratio (z) = 0.27789 -0.11207
#
# Static dielectric constant tensor:
#      x y z
#    x 1.578630 0.000000 -0.144140 
#    y 0.000000 1.704120 0.000000 
#    z -0.144140 0.000000 1.646130 
# 
# From -- ./inp_files/307414.got.cif
#   From: 2010.05.17/outbox.ucp.g08.bks.cvg/sg15_154_cif.got.tgz:307414.got - 2010.06.11 12:40:34.
