data_PCOD9309796
_publ_section_title
;
Structure prediction by ZEFSAII (Michael W. Deem and Ramdas Pophale) SiO2 
 PCOD9309796
Probable space group: C 2/C
;
_chemical_formula_sum "Si O2"
_cell_formula_units_Z 28
_cell_length_a 12.000000
_cell_length_b 9.000000
_cell_length_c 30.000000
_cell_angle_alpha 90.000000
_cell_angle_beta 60.000000
_cell_angle_gamma 90.000000
_cell_volume 2805.922308
_symmetry_space_group_name_H-M "C 2/C"
_symmetry_group_IT_number 15
_symmetry_cell_setting 'monoclinic'
loop_
_space_group_symop_operation_xyz
x,y,z
-x,y,1/2-z
-x,-y,-z
x,-y,1/2+z
1/2+x,1/2+y,z
1/2-x,1/2+y,1/2-z
1/2-x,1/2-y,-z
1/2+x,1/2-y,1/2+z
loop_
_atom_site_type_symbol
_atom_site_label
_atom_site_fract_x
_atom_site_fract_y
_atom_site_fract_z
Si Si1 0.450849 0.525337 0.159668
Si Si2 0.262990 0.583825 0.280843
Si Si3 0.696118 0.353736 0.151791
Si Si4 0.818279 0.773143 0.125825
Si Si5 0.454430 0.015426 0.560654
Si Si6 0.019149 0.570183 0.195215
Si Si7 0.408183 0.825344 0.390820
O O1 0.357380 0.569721 0.219816
O O2 0.574505 0.441377 0.155509
O O3 0.381842 0.415873 0.137446
O O4 0.508283 0.674819 0.126624
O O5 0.270770 0.427479 0.306620
O O6 0.280826 0.703012 0.317436
O O7 0.120982 0.629037 0.291993
O O8 0.822781 0.387206 0.096139
O O9 0.637175 0.187933 0.168176
O O10 0.919019 0.643057 0.091533
O O11 0.737513 0.799956 0.096741
O O12 0.500000 0.000000 0.500000
O O13 0.565800 0.093264 0.567693
O O14 0.041872 0.434447 0.157853
O O15 0.000000 0.524703 0.250000
#
# Coordination Sequence:
#
# PCOD9309796 Si02
#       7
#     8   8   8   8   8   8   8
#     4  12  24  41  69 103 147 184 221 278 346 420
#     4  11  23  39  65  99 147 187 221 261 338 422
#     4  11  23  45  67  97 141 182 229 289 337 413
#     4  11  25  46  66 101 144 176 237 288 337 432
#     4  11  26  52  75  95 133 184 242 312 366 402
#     4  12  25  39  68 103 147 189 224 264 345 431
#     4  12  26  43  70 102 139 182 232 284 351 419
#
# _framework density 9.9788940000000004
#
# number of rings (size 3 to 8) (size 9 to 14) (size 15 to 20)
#    0.000    0.571    7.143    2.143    8.000    0.571 
#    0.000    3.571    0.000    0.000    0.000    0.000 
#    0.000    0.000    0.000    0.000    0.000    0.000 
#
# Total GULP energy -156442.708623 kJ/mol
# GULP energy per Si atom -5587.239594 kJ/mol
# Density = 0.995618 g / cm^3
# Si number density = 9.978894 Si / 1000 Ang^3
#
#
#
# Elastic Constant Matrix: (Units=GPa)
#
#
# Indices 1 2 3 4 5 6 
#
# 1 112.9198 32.6050 26.0895 0.0000 12.8735 0.0000
# 2 32.6050 105.8011 26.3201 0.0000 19.3596 0.0000
# 3 26.0895 26.3201 101.7107 0.0000 22.7295 0.0000
# 4 0.0000 0.0000 0.0000 17.7827 0.0000 4.3856
# 5 12.8735 19.3596 22.7295 0.0000 34.1180 0.0000
# 6 0.0000 0.0000 0.0000 4.3856 0.0000 52.8570
#
#
#
# Elastic Compliance Matrix: (Units=1/GPa)
#
#
# Indices 1 2 3 4 5 6 
#
# 1 0.010099 -0.002460 -0.001662 0.000000 -0.001308 0.000000
# 2 -0.002460 0.011382 -0.001267 0.000000 -0.004686 0.000000
# 3 -0.001662 -0.001267 0.012084 0.000000 -0.006704 0.000000
# 4 0.000000 0.000000 0.000000 0.057409 0.000000 -0.004763
# 5 -0.001308 -0.004686 -0.006704 0.000000 0.036929 0.000000
# 6 0.000000 0.000000 0.000000 -0.004763 0.000000 0.019314
#
#
# Mechanical properties :
#
#
# Convention : Reuss Voigt Hill
#
# Bulk Modulus (GPa) = 43.88155 54.49564 49.18859
# Shear Modulus (GPa) = 30.19474 36.64601 33.42038
#
# Velocity S-wave (km/s) = 3.89386 4.28971 4.09657
# Velocity P-wave (km/s) = 6.50009 7.20418 6.86117
#
# Compressibility (1/GPa) = 0.02278862
#
# Stress axis : x y z
#
# Youngs Moduli (GPa) = 99.01902 87.85455 82.75228
#
# Poissons Ratio (x) = 0.21608 0.13751
# Poissons Ratio (y) = 0.24354 0.10487
# Poissons Ratio (z) = 0.16454 0.11134
#
# Static dielectric constant tensor:
#      x y z
#    x 1.773770 0.000000 0.000690 
#    y 0.000000 1.772980 0.000000 
#    z 0.000690 0.000000 1.660210 
# 
# From -- ./inp_files/310238.got.cif
#   From: 2010.05.17/outbox.ucp.g08.bks.cvg/sg15_156_cif.got.tgz:310238.got - 2010.06.11 12:40:34.
