data_PCOD9309399
_publ_section_title
;
Structure prediction by ZEFSAII (Michael W. Deem and Ramdas Pophale) SiO2 
 PCOD9309399
Probable space group: C 2/C
;
_chemical_formula_sum "Si O2"
_cell_formula_units_Z 24
_cell_length_a 24.000000
_cell_length_b 6.000000
_cell_length_c 21.000000
_cell_angle_alpha 90.000000
_cell_angle_beta 50.000000
_cell_angle_gamma 90.000000
_cell_volume 2316.518396
_symmetry_space_group_name_H-M "C 2/C"
_symmetry_group_IT_number 15
_symmetry_cell_setting 'monoclinic'
loop_
_space_group_symop_operation_xyz
x,y,z
-x,y,1/2-z
-x,-y,-z
x,-y,1/2+z
1/2+x,1/2+y,z
1/2-x,1/2+y,1/2-z
1/2-x,1/2-y,-z
1/2+x,1/2-y,1/2+z
loop_
_atom_site_type_symbol
_atom_site_label
_atom_site_fract_x
_atom_site_fract_y
_atom_site_fract_z
Si Si1 0.329660 0.012783 0.396113
Si Si2 0.840338 0.988568 0.943327
Si Si3 0.580638 0.421445 0.868361
Si Si4 0.674996 0.964688 0.360044
Si Si5 0.177359 0.252603 0.730162
Si Si6 0.423718 0.699861 0.499583
O O1 0.359125 0.258379 0.402310
O O2 0.333941 0.064776 0.316878
O O3 0.246168 0.000016 0.480993
O O4 0.356848 0.755563 0.394637
O O5 0.878619 0.950606 0.983545
O O6 0.638328 0.244690 0.852254
O O7 0.612336 0.574209 0.788442
O O8 0.505378 0.290224 0.911994
O O9 0.569145 0.587958 0.936294
O O10 0.749584 0.887307 0.337856
O O11 0.689466 0.135438 0.290916
O O12 0.620772 0.075180 0.451653
#
# Coordination Sequence:
#
# PCOD9309399 Si02
#       6
#     8   8   8   8   8   8
#     4  10  24  40  65  96 132 169 224 270 323 386
#     4  10  23  41  65  96 127 179 217 273 319 396
#     4  10  22  41  63  94 131 166 216 283 339 400
#     4  11  22  37  64  97 124 170 209 284 340 398
#     4  11  23  37  63  95 130 168 219 277 338 398
#     4  10  23  40  65  94 128 169 224 269 343 405
#
# _framework density 10.360374999999999
#
# number of rings (size 3 to 8) (size 9 to 14) (size 15 to 20)
#    0.000    1.667    1.667    1.500   14.000    0.000 
#    0.000    0.833    0.000    0.000    0.000    0.000 
#    0.000    0.000    0.000    0.000    0.000    0.000 
#
# Total GULP energy -133791.769767 kJ/mol
# GULP energy per Si atom -5574.657074 kJ/mol
# Density = 1.033679 g / cm^3
# Si number density = 10.360375 Si / 1000 Ang^3
#
#
#
# Elastic Constant Matrix: (Units=GPa)
#
#
# Indices 1 2 3 4 5 6 
#
# 1 6.3458 -2.3657 12.7995 -0.0249 5.1082 0.0016
# 2 -2.3657 94.8217 41.4365 0.0345 -4.4833 0.0474
# 3 12.7995 41.4365 68.2085 -0.0219 -8.8412 0.0112
# 4 -0.0249 0.0345 -0.0219 28.8738 0.0103 11.6014
# 5 5.1082 -4.4833 -8.8412 0.0103 29.0868 -0.0090
# 6 0.0016 0.0474 0.0112 11.6014 -0.0090 30.2274
#
#
#
# Elastic Compliance Matrix: (Units=1/GPa)
#
#
# Indices 1 2 3 4 5 6 
#
# 1 1.308310 0.194615 -0.405610 0.000986 -0.323057 -0.000699
# 2 0.194615 0.043313 -0.069121 0.000128 -0.048512 -0.000116
# 3 -0.405610 -0.069121 0.146385 -0.000280 0.105074 0.000215
# 4 0.000986 0.000128 -0.000280 0.040949 -0.000258 -0.015716
# 5 -0.323057 -0.048512 0.105074 -0.000258 0.115576 0.000188
# 6 -0.000699 -0.000116 0.000215 -0.015716 0.000188 0.039115
#
#
# Mechanical properties :
#
#
# Convention : Reuss Voigt Hill
#
# Bulk Modulus (GPa) = 1.06635 30.34630 15.70633
# Shear Modulus (GPa) = 1.94820 25.47131 13.70975
#
# Velocity S-wave (km/s) = 0.97070 3.50989 2.57503
# Velocity P-wave (km/s) = 1.33120 5.57700 4.05432
#
# Compressibility (1/GPa) = 0.93777628
#
# Stress axis : x y z
#
# Youngs Moduli (GPa) = 0.76434 23.08772 6.83130
#
# Poissons Ratio (x) = -4.49322 2.77085
# Poissons Ratio (y) = -0.14875 0.47218
# Poissons Ratio (z) = 0.31003 1.59584
#
# Static dielectric constant tensor:
#      x y z
#    x 1.750050 -0.000050 -0.005370 
#    y -0.000050 1.799050 0.000020 
#    z -0.005370 0.000020 1.771510 
# 
# From -- ./inp_files/254218.got.cif
#   From: 2010.05.17/outbox.ucp.g08.bks.cvg/sg15_128_cif.got.tgz:254218.got - 2010.06.11 12:40:34.
