data_PCOD9309537
_publ_section_title
;
Structure prediction by ZEFSAII (Michael W. Deem and Ramdas Pophale) SiO2 
 PCOD9309537
Probable space group: C 2/C
;
_chemical_formula_sum "Si O2"
_cell_formula_units_Z 28
_cell_length_a 21.000000
_cell_length_b 24.000000
_cell_length_c 18.000000
_cell_angle_alpha 90.000000
_cell_angle_beta 20.000000
_cell_angle_gamma 90.000000
_cell_volume 3102.806740
_symmetry_space_group_name_H-M "C 2/C"
_symmetry_group_IT_number 15
_symmetry_cell_setting 'monoclinic'
loop_
_space_group_symop_operation_xyz
x,y,z
-x,y,1/2-z
-x,-y,-z
x,-y,1/2+z
1/2+x,1/2+y,z
1/2-x,1/2+y,1/2-z
1/2-x,1/2-y,-z
1/2+x,1/2-y,1/2+z
loop_
_atom_site_type_symbol
_atom_site_label
_atom_site_fract_x
_atom_site_fract_y
_atom_site_fract_z
Si Si1 0.172927 0.421877 0.616766
Si Si2 0.919150 0.123987 0.414066
Si Si3 0.870236 0.196771 0.196974
Si Si4 0.476923 0.161548 0.435950
Si Si5 0.441947 0.174537 0.645198
Si Si6 0.500000 0.666852 0.750000
Si Si7 0.096529 0.216715 0.798469
Si Si8 0.000000 0.014020 0.250000
O O1 0.319319 0.372392 0.440211
O O2 0.313947 0.475335 0.459945
O O3 0.000000 0.429728 0.750000
O O4 0.068852 0.394530 0.802745
O O5 0.698403 0.135233 0.656090
O O6 0.000000 0.150375 0.250000
O O7 0.006249 0.156333 0.387818
O O8 0.981309 0.059090 0.338269
O O9 0.658567 0.175641 0.428757
O O10 0.875772 0.260772 0.219562
O O11 0.960525 0.199817 0.015727
O O12 0.427909 0.154629 0.575588
O O13 0.289759 0.183449 0.599628
O O14 0.610210 0.216146 0.287284
O O15 0.512132 0.702595 0.811153
#
# Coordination Sequence:
#
# PCOD9309537 Si02
#       8
#     8   8   8   8   8   4   8   4
#     4  11  22  40  63  86 122 170 217 259 311 351
#     4  10  23  43  64  92 123 158 213 269 318 374
#     4  11  20  38  63  93 135 170 190 248 320 383
#     4  11  21  36  60  93 132 174 201 245 306 386
#     4  11  20  38  63  94 133 162 197 242 320 390
#     4  11  22  36  58  96 134 166 203 252 302 382
#     4  11  21  35  59  96 143 165 198 245 311 385
#     4   9  26  46  62  86 122 156 223 292 298 346
#
# _framework density 9.0240880000000008
#
# number of rings (size 3 to 8) (size 9 to 14) (size 15 to 20)
#    0.429    0.857    4.286    4.286    1.000    3.429 
#    0.000    0.714    0.000    8.571    0.000    0.000 
#    0.000    0.000    0.000    0.000    0.000    0.000 
#
# Total GULP energy -155971.634446 kJ/mol
# GULP energy per Si atom -5570.415516 kJ/mol
# Density = 0.900355 g / cm^3
# Si number density = 9.024088 Si / 1000 Ang^3
#
#
#
# Elastic Constant Matrix: (Units=GPa)
#
#
# Indices 1 2 3 4 5 6 
#
# 1 60.8630 22.9225 25.4897 -0.0744 -4.7433 -0.0370
# 2 22.9225 84.2405 37.6749 -0.0338 14.0791 -0.0158
# 3 25.4897 37.6749 121.4100 -0.0384 -16.3089 -0.0240
# 4 -0.0744 -0.0338 -0.0384 23.6313 0.0293 -6.9955
# 5 -4.7433 14.0791 -16.3089 0.0293 28.9213 0.0207
# 6 -0.0370 -0.0158 -0.0240 -6.9955 0.0207 0.6888
#
#
#
# Elastic Compliance Matrix: (Units=1/GPa)
#
#
# Indices 1 2 3 4 5 6 
#
# 1 0.019562 -0.005305 -0.001821 -0.000129 0.004765 -0.000588
# 2 -0.005305 0.018432 -0.006414 -0.000055 -0.013460 -0.000239
# 3 -0.001821 -0.006414 0.011889 0.000021 0.009528 0.000096
# 4 -0.000129 -0.000055 0.000021 -0.021086 0.000192 -0.214176
# 5 0.004765 -0.013460 0.009528 0.000192 0.047282 0.000808
# 6 -0.000588 -0.000239 0.000096 -0.214176 0.000808 -0.723487
#
#
# Mechanical properties :
#
#
# Convention : Reuss Voigt Hill
#
# Bulk Modulus (GPa) = 43.85340 48.74307 46.29824
# Shear Modulus (GPa) = -8.16025 22.67671 7.25823
#
# Velocity S-wave (km/s) = -2.12866 3.54850 2.00757
# Velocity P-wave (km/s) = 4.27892 6.62231 5.57513
#
# Compressibility (1/GPa) = 0.02280325
#
# Stress axis : x y z
#
# Youngs Moduli (GPa) = 51.12024 54.25255 84.11062
#
# Poissons Ratio (x) = 0.28781 0.15315
# Poissons Ratio (y) = 0.27119 0.53949
# Poissons Ratio (z) = 0.09308 0.34798
#
# Static dielectric constant tensor:
#      x y z
#    x 1.640480 -0.000010 0.006910 
#    y -0.000010 1.600010 0.000030 
#    z 0.006910 0.000030 1.695210 
# 
# From -- ./inp_files/216890.got.cif
#   From: 2010.05.17/outbox.ucp.g08.bks.cvg/sg15_109_cif.got.tgz:216890.got - 2010.06.11 12:40:34.
