data_PCOD9309476
_publ_section_title
;
Structure prediction by ZEFSAII (Michael W. Deem and Ramdas Pophale) SiO2 
 PCOD9309476
Probable space group: C 2/C
;
_chemical_formula_sum "Si O2"
_cell_formula_units_Z 28
_cell_length_a 9.000000
_cell_length_b 15.000000
_cell_length_c 24.000000
_cell_angle_alpha 90.000000
_cell_angle_beta 120.000000
_cell_angle_gamma 90.000000
_cell_volume 2805.922308
_symmetry_space_group_name_H-M "C 2/C"
_symmetry_group_IT_number 15
_symmetry_cell_setting 'monoclinic'
loop_
_space_group_symop_operation_xyz
x,y,z
-x,y,1/2-z
-x,-y,-z
x,-y,1/2+z
1/2+x,1/2+y,z
1/2-x,1/2+y,1/2-z
1/2-x,1/2-y,-z
1/2+x,1/2-y,1/2+z
loop_
_atom_site_type_symbol
_atom_site_label
_atom_site_fract_x
_atom_site_fract_y
_atom_site_fract_z
Si Si1 0.577724 0.452493 0.459508
Si Si2 0.499123 0.391479 0.631132
Si Si3 0.410239 0.211634 0.566302
Si Si4 0.267536 0.341317 0.348760
Si Si5 0.547331 0.901120 0.990143
Si Si6 0.181593 0.512616 0.261416
Si Si7 0.210693 0.363562 0.659844
O O1 0.500000 0.500000 0.500000
O O2 0.606052 0.536846 0.424296
O O3 0.440424 0.385524 0.406262
O O4 0.759058 0.402758 0.497472
O O5 0.515343 0.298868 0.602954
O O6 0.677336 0.435530 0.677264
O O7 0.398216 0.376310 0.668956
O O8 0.250000 0.250000 0.500000
O O9 0.348135 0.168939 0.614818
O O10 0.515586 0.154165 0.541210
O O11 0.205678 0.409332 0.287686
O O12 0.294577 0.242717 0.327349
O O13 0.422509 0.872357 0.916524
O O14 0.500000 0.000000 0.000000
O O15 0.188419 0.556595 0.200687
O O16 0.000000 0.539628 0.250000
#
# Coordination Sequence:
#
# PCOD9309476 Si02
#       7
#     8   8   8   8   8   8   8
#     4  11  23  38  64 102 142 175 213 279 354 410
#     4  10  22  44  68  91 136 178 218 290 333 413
#     4  11  20  42  71 104 133 170 229 281 363 423
#     4  10  24  44  68  97 139 176 226 290 341 411
#     4  12  23  38  70 104 135 177 222 283 345 429
#     4  11  27  44  65  97 132 185 234 282 337 407
#     4  11  24  46  67  98 134 180 235 272 343 415
#
# _framework density 9.9788940000000004
#
# number of rings (size 3 to 8) (size 9 to 14) (size 15 to 20)
#    0.000    1.143    4.286    2.143    6.000    4.000 
#    0.000    2.857    0.000    0.000    0.000    0.000 
#    0.000    0.000    0.000    0.000    0.000    0.000 
#
# Total GULP energy -156019.865880 kJ/mol
# GULP energy per Si atom -5572.138067 kJ/mol
# Density = 0.995618 g / cm^3
# Si number density = 9.978894 Si / 1000 Ang^3
#
#
#
# Elastic Constant Matrix: (Units=GPa)
#
#
# Indices 1 2 3 4 5 6 
#
# 1 92.9633 50.5102 30.0253 0.0000 9.3511 0.0000
# 2 50.5102 138.3094 46.5988 0.0000 -12.2644 0.0000
# 3 30.0253 46.5988 75.5211 0.0000 -13.2925 0.0000
# 4 0.0000 0.0000 0.0000 38.4755 0.0000 -12.1109
# 5 9.3511 -12.2644 -13.2925 0.0000 36.7798 0.0000
# 6 0.0000 0.0000 0.0000 -12.1109 0.0000 25.8065
#
#
#
# Elastic Compliance Matrix: (Units=1/GPa)
#
#
# Indices 1 2 3 4 5 6 
#
# 1 0.015531 -0.004800 -0.004474 0.000000 -0.007166 0.000000
# 2 -0.004800 0.010651 -0.004084 0.000000 0.003296 0.000000
# 3 -0.004474 -0.004084 0.018689 0.000000 0.006530 0.000000
# 4 0.000000 0.000000 0.000000 0.030495 0.000000 0.014311
# 5 -0.007166 0.003296 0.006530 0.000000 0.032470 0.000000
# 6 0.000000 0.000000 0.000000 0.014311 0.000000 0.045466
#
#
# Mechanical properties :
#
#
# Convention : Reuss Voigt Hill
#
# Bulk Modulus (GPa) = 55.07905 62.34024 58.70965
# Shear Modulus (GPa) = 26.87154 32.18966 29.53060
#
# Velocity S-wave (km/s) = 3.67334 4.02043 3.85080
# Velocity P-wave (km/s) = 6.75640 7.27019 7.01800
#
# Compressibility (1/GPa) = 0.01815572
#
# Stress axis : x y z
#
# Youngs Moduli (GPa) = 64.38818 93.88646 53.50625
#
# Poissons Ratio (x) = 0.45063 0.23941
# Poissons Ratio (y) = 0.30905 0.21850
# Poissons Ratio (z) = 0.28810 0.38340
#
# Static dielectric constant tensor:
#      x y z
#    x 1.742060 0.000000 -0.003710 
#    y 0.000000 1.755870 0.000000 
#    z -0.003710 0.000000 1.743930 
# 
# From -- ./inp_files/264834.got.cif
#   From: 2010.05.17/outbox.ucp.g08.bks.cvg/sg15_133_cif.got.tgz:264834.got - 2010.06.11 12:40:34.
