data_PCOD9309812
_publ_section_title
;
Structure prediction by ZEFSAII (Michael W. Deem and Ramdas Pophale) SiO2 
 PCOD9309812
Probable space group: C 2/C
;
_chemical_formula_sum "Si O2"
_cell_formula_units_Z 24
_cell_length_a 18.000000
_cell_length_b 18.000000
_cell_length_c 15.000000
_cell_angle_alpha 90.000000
_cell_angle_beta 30.000000
_cell_angle_gamma 90.000000
_cell_volume 2430.000000
_symmetry_space_group_name_H-M "C 2/C"
_symmetry_group_IT_number 15
_symmetry_cell_setting 'monoclinic'
loop_
_space_group_symop_operation_xyz
x,y,z
-x,y,1/2-z
-x,-y,-z
x,-y,1/2+z
1/2+x,1/2+y,z
1/2-x,1/2+y,1/2-z
1/2-x,1/2-y,-z
1/2+x,1/2-y,1/2+z
loop_
_atom_site_type_symbol
_atom_site_label
_atom_site_fract_x
_atom_site_fract_y
_atom_site_fract_z
Si Si1 0.969318 0.352172 0.532604
Si Si2 0.598155 0.321802 0.365821
Si Si3 0.743106 0.083760 0.655340
Si Si4 0.131878 0.627593 0.041707
Si Si5 0.835135 0.934587 0.673034
Si Si6 0.159907 0.990010 0.625478
O O1 0.964987 0.262301 0.555484
O O2 0.804387 0.379690 0.685688
O O3 0.074601 0.388119 0.347024
O O4 0.034413 0.389003 0.555355
O O5 0.670508 0.349268 0.383953
O O6 0.470212 0.385973 0.488906
O O7 0.726904 0.326188 0.153133
O O8 0.780767 0.066993 0.512925
O O9 0.789928 0.008813 0.663258
O O10 0.000000 0.654086 0.250000
O O11 0.220233 0.557122 0.990541
O O12 0.861192 0.957835 0.750853
O O13 0.000000 0.014334 0.750000
#
# Coordination Sequence:
#
# PCOD9309812 Si02
#       6
#     8   8   8   8   8   8
#     4  11  25  44  69 102 147 191 233 294 374 421
#     4  11  23  46  69 100 147 194 229 292 368 432
#     4  11  23  43  69 104 140 185 247 293 351 428
#     4  11  25  44  69 104 141 181 239 304 360 421
#     4  12  22  43  73 101 139 191 244 296 350 427
#     4  12  24  41  72 108 138 183 244 297 350 421
#
# _framework density 9.8765429999999999
#
# number of rings (size 3 to 8) (size 9 to 14) (size 15 to 20)
#    0.000    0.667    5.000    5.000    2.333    0.667 
#    0.000    7.500    0.000    0.000    0.000    0.000 
#    0.000    0.000    0.000    0.000    0.000    0.000 
#
# Total GULP energy -133807.195930 kJ/mol
# GULP energy per Si atom -5575.299830 kJ/mol
# Density = 0.985406 g / cm^3
# Si number density = 9.876543 Si / 1000 Ang^3
#
#
#
# Elastic Constant Matrix: (Units=GPa)
#
#
# Indices 1 2 3 4 5 6 
#
# 1 85.5472 26.8843 29.7291 0.0003 0.2911 -0.0002
# 2 26.8843 105.6111 41.7124 0.0006 -2.8212 -0.0005
# 3 29.7291 41.7124 157.4020 -0.0001 -0.4433 -0.0005
# 4 0.0003 0.0006 -0.0001 39.8496 -0.0006 -9.7453
# 5 0.2911 -2.8212 -0.4433 -0.0006 50.0099 0.0006
# 6 -0.0002 -0.0005 -0.0005 -9.7453 0.0006 27.2940
#
#
#
# Elastic Compliance Matrix: (Units=1/GPa)
#
#
# Indices 1 2 3 4 5 6 
#
# 1 0.013141 -0.002648 -0.001781 0.000000 -0.000242 0.000000
# 2 -0.002648 0.011126 -0.002446 0.000000 0.000621 0.000000
# 3 -0.001781 -0.002446 0.007338 0.000000 -0.000063 0.000000
# 4 0.000000 0.000000 0.000000 0.027495 0.000000 0.009817
# 5 -0.000242 0.000621 -0.000063 0.000000 0.020032 0.000000
# 6 0.000000 0.000000 0.000000 0.009817 0.000000 0.040143
#
#
# Mechanical properties :
#
#
# Convention : Reuss Voigt Hill
#
# Bulk Modulus (GPa) = 56.01159 60.57909 58.29534
# Shear Modulus (GPa) = 35.97698 40.11299 38.04499
#
# Velocity S-wave (km/s) = 4.27234 4.51124 4.39341
# Velocity P-wave (km/s) = 7.26324 7.60722 7.43722
#
# Compressibility (1/GPa) = 0.01785345
#
# Stress axis : x y z
#
# Youngs Moduli (GPa) = 76.09514 89.88197 136.28307
#
# Poissons Ratio (x) = 0.23804 0.24271
# Poissons Ratio (y) = 0.20153 0.33341
# Poissons Ratio (z) = 0.13552 0.21989
#
# Static dielectric constant tensor:
#      x y z
#    x 1.699530 0.000000 -0.021750 
#    y 0.000000 1.688400 0.000000 
#    z -0.021750 0.000000 1.789800 
# 
# From -- ./inp_files/163200.got.cif
#   From: 2010.05.17/outbox.ucp.g08.bks.cvg/sg15_82_cif.got.tgz:163200.got - 2010.06.11 12:40:34.
