data_PCOD9309415
_publ_section_title
;
Structure prediction by ZEFSAII (Michael W. Deem and Ramdas Pophale) SiO2 
 PCOD9309415
Probable space group: C 2/C
;
_chemical_formula_sum "Si O2"
_cell_formula_units_Z 24
_cell_length_a 27.000000
_cell_length_b 9.000000
_cell_length_c 15.000000
_cell_angle_alpha 90.000000
_cell_angle_beta 140.000000
_cell_angle_gamma 90.000000
_cell_volume 2342.960837
_symmetry_space_group_name_H-M "C 2/C"
_symmetry_group_IT_number 15
_symmetry_cell_setting 'monoclinic'
loop_
_space_group_symop_operation_xyz
x,y,z
-x,y,1/2-z
-x,-y,-z
x,-y,1/2+z
1/2+x,1/2+y,z
1/2-x,1/2+y,1/2-z
1/2-x,1/2-y,-z
1/2+x,1/2-y,1/2+z
loop_
_atom_site_type_symbol
_atom_site_label
_atom_site_fract_x
_atom_site_fract_y
_atom_site_fract_z
Si Si1 0.794884 0.103047 0.721528
Si Si2 0.429261 0.811446 0.968737
Si Si3 0.325813 0.366208 0.917639
Si Si4 0.417100 0.386855 0.628871
Si Si5 0.320174 0.315554 0.649682
Si Si6 0.911214 0.658623 0.918994
O O1 0.871573 0.203093 0.835484
O O2 0.729000 0.229161 0.630882
O O3 0.789464 0.982420 0.795316
O O4 0.801912 0.984601 0.652086
O O5 0.406037 0.986206 0.940121
O O6 0.423756 0.734180 0.058594
O O7 0.510744 0.814869 0.029332
O O8 0.401116 0.281030 0.982374
O O9 0.354730 0.484829 0.028682
O O10 0.500000 0.459313 0.750000
O O11 0.393882 0.309045 0.687752
O O12 0.250000 0.250000 0.500000
O O13 0.339244 0.208691 0.758577
#
# Coordination Sequence:
#
# PCOD9309415 Si02
#       6
#     8   8   8   8   8   8
#     4  10  23  40  66  90 125 166 214 257 311 381
#     4  10  22  41  68  88 123 168 212 254 307 380
#     4  10  23  38  67  89 124 164 213 252 310 382
#     4  11  24  43  63  93 129 164 204 264 321 364
#     4  11  26  41  62  93 132 165 206 265 320 368
#     4  10  22  42  64  92 121 168 213 250 308 384
#
# _framework density 10.243449
#
# number of rings (size 3 to 8) (size 9 to 14) (size 15 to 20)
#    0.000    1.667    1.667    1.000   16.333    2.667 
#    0.000    0.833    0.000    0.000    0.000    0.000 
#    0.000    0.000    0.000    0.000    0.000    0.000 
#
# Total GULP energy -133687.223425 kJ/mol
# GULP energy per Si atom -5570.300976 kJ/mol
# Density = 1.022013 g / cm^3
# Si number density = 10.243449 Si / 1000 Ang^3
#
#
#
# Elastic Constant Matrix: (Units=GPa)
#
#
# Indices 1 2 3 4 5 6 
#
# 1 74.1672 49.4508 26.9771 0.0000 0.7942 0.0000
# 2 49.4508 167.8054 47.2959 0.0000 -1.7310 0.0000
# 3 26.9771 47.2959 59.0450 0.0000 1.5459 0.0000
# 4 0.0000 0.0000 0.0000 25.4862 0.0000 12.2498
# 5 0.7942 -1.7310 1.5459 0.0000 24.2887 0.0000
# 6 0.0000 0.0000 0.0000 12.2498 0.0000 36.7636
#
#
#
# Elastic Compliance Matrix: (Units=1/GPa)
#
#
# Indices 1 2 3 4 5 6 
#
# 1 0.017904 -0.003849 -0.005083 0.000000 -0.000536 0.000000
# 2 -0.003849 0.008546 -0.005115 0.000000 0.001060 0.000000
# 3 -0.005083 -0.005115 0.023400 0.000000 -0.001688 0.000000
# 4 0.000000 0.000000 0.000000 0.046719 0.000000 -0.015567
# 5 -0.000536 0.001060 -0.001688 0.000000 0.041372 0.000000
# 6 0.000000 0.000000 0.000000 -0.015567 0.000000 0.032388
#
#
# Mechanical properties :
#
#
# Convention : Reuss Voigt Hill
#
# Bulk Modulus (GPa) = 45.96359 60.94058 53.45208
# Shear Modulus (GPa) = 24.31027 29.12728 26.71878
#
# Velocity S-wave (km/s) = 3.44848 3.77470 3.61527
# Velocity P-wave (km/s) = 6.19196 6.98631 6.60109
#
# Compressibility (1/GPa) = 0.02175635
#
# Stress axis : x y z
#
# Youngs Moduli (GPa) = 55.85348 117.01256 42.73547
#
# Poissons Ratio (x) = 0.45039 0.21722
# Poissons Ratio (y) = 0.21498 0.21858
# Poissons Ratio (z) = 0.28390 0.59849
#
# Static dielectric constant tensor:
#      x y z
#    x 1.730090 0.000000 -0.029220 
#    y 0.000000 1.653870 0.000000 
#    z -0.029220 0.000000 1.771460 
# 
# From -- ./inp_files/176953.got.cif
#   From: 2010.05.17/outbox.ucp.g08.bks.cvg/sg15_89_cif.got.tgz:176953.got - 2010.06.11 12:40:34.
