data_PCOD9309009
_publ_section_title
;
Structure prediction by ZEFSAII (Michael W. Deem and Ramdas Pophale) SiO2 
 PCOD9309009
Probable space group: C 2/C
;
_chemical_formula_sum "Si O2"
_cell_formula_units_Z 28
_cell_length_a 18.000000
_cell_length_b 9.000000
_cell_length_c 24.000000
_cell_angle_alpha 90.000000
_cell_angle_beta 50.000000
_cell_angle_gamma 90.000000
_cell_volume 2978.380795
_symmetry_space_group_name_H-M "C 2/C"
_symmetry_group_IT_number 15
_symmetry_cell_setting 'monoclinic'
loop_
_space_group_symop_operation_xyz
x,y,z
-x,y,1/2-z
-x,-y,-z
x,-y,1/2+z
1/2+x,1/2+y,z
1/2-x,1/2+y,1/2-z
1/2-x,1/2-y,-z
1/2+x,1/2-y,1/2+z
loop_
_atom_site_type_symbol
_atom_site_label
_atom_site_fract_x
_atom_site_fract_y
_atom_site_fract_z
Si Si1 0.500000 0.703028 0.250000
Si Si2 0.872690 0.956095 0.371538
Si Si3 0.349887 0.627629 0.603030
Si Si4 0.370851 0.949363 0.253033
Si Si5 0.349074 0.964980 0.554211
Si Si6 0.537528 0.863721 0.406528
Si Si7 0.000000 0.702625 0.250000
Si Si8 0.032306 0.978527 0.560180
O O1 0.431929 0.596408 0.318699
O O2 0.426621 0.809422 0.252926
O O3 0.926723 0.810840 0.319878
O O4 0.758123 0.979479 0.412786
O O5 0.897976 0.968024 0.424216
O O6 0.244689 0.567148 0.675772
O O7 0.340973 0.802984 0.589990
O O8 0.441129 0.593159 0.600055
O O9 0.395130 0.540143 0.527687
O O10 0.399475 0.930785 0.174419
O O11 0.427111 0.094891 0.249916
O O12 0.429150 0.933577 0.466948
O O13 0.401100 0.087659 0.568504
O O14 0.517065 0.686528 0.409846
#
# Coordination Sequence:
#
# PCOD9309009 Si02
#       8
#     4   8   8   8   8   8   4   8
#     4  10  20  38  62  92 126 152 214 266 300 380
#     4  11  22  43  64  92 127 171 206 267 315 375
#     4  10  23  41  68  95 128 167 215 260 315 386
#     4  11  22  42  62  94 127 173 205 268 319 375
#     4  10  23  43  67  96 128 166 216 259 315 387
#     4  10  23  41  68  95 128 167 215 260 315 386
#     4  10  28  38  60 100 138 154 222 270 318 372
#     4  10  23  43  67  96 128 166 216 259 315 387
#
# _framework density 9.4010809999999996
#
# number of rings (size 3 to 8) (size 9 to 14) (size 15 to 20)
#    0.000    1.714    2.857    0.000    4.000    8.000 
#    0.000    1.429    0.000    0.000    0.000    0.000 
#    0.000    0.000    0.000    0.000    0.000    0.000 
#
# Total GULP energy -156066.145242 kJ/mol
# GULP energy per Si atom -5573.790901 kJ/mol
# Density = 0.937968 g / cm^3
# Si number density = 9.401081 Si / 1000 Ang^3
#
#
#
# Elastic Constant Matrix: (Units=GPa)
#
#
# Indices 1 2 3 4 5 6 
#
# 1 127.6127 26.9256 53.1248 0.0000 -33.6625 0.0001
# 2 26.9256 82.0383 25.2050 0.0000 -7.5415 0.0002
# 3 53.1248 25.2050 128.6252 0.0000 -31.5821 0.0000
# 4 0.0000 0.0000 0.0000 18.0742 0.0000 -10.5268
# 5 -33.6625 -7.5415 -31.5821 0.0000 43.4587 0.0000
# 6 0.0001 0.0002 0.0000 -10.5268 0.0000 25.0821
#
#
#
# Elastic Compliance Matrix: (Units=1/GPa)
#
#
# Indices 1 2 3 4 5 6 
#
# 1 0.011043 -0.002255 -0.002574 0.000000 0.006292 0.000000
# 2 -0.002255 0.013439 -0.001897 0.000000 -0.000793 0.000000
# 3 -0.002574 -0.001897 0.010515 0.000000 0.005318 0.000000
# 4 0.000000 0.000000 0.000000 0.073227 0.000000 0.030733
# 5 0.006292 -0.000793 0.005318 0.000000 0.031611 0.000000
# 6 0.000000 0.000000 0.000000 0.030733 0.000000 0.052768
#
#
# Mechanical properties :
#
#
# Convention : Reuss Voigt Hill
#
# Bulk Modulus (GPa) = 46.41352 60.97633 53.69492
# Shear Modulus (GPa) = 23.44784 32.85771 28.15278
#
# Velocity S-wave (km/s) = 3.53524 4.18491 3.87371
# Velocity P-wave (km/s) = 6.43449 7.47343 6.97333
#
# Compressibility (1/GPa) = 0.02154545
#
# Stress axis : x y z
#
# Youngs Moduli (GPa) = 90.55124 74.40761 95.09902
#
# Poissons Ratio (x) = 0.16781 0.24482
# Poissons Ratio (y) = 0.20421 0.18039
# Poissons Ratio (z) = 0.23311 0.14114
#
# Static dielectric constant tensor:
#      x y z
#    x 1.669050 0.000000 0.065820 
#    y 0.000000 1.665560 0.000000 
#    z 0.065820 0.000000 1.681260 
# 
# From -- ./inp_files/276548.got.cif
#   From: 2010.05.17/outbox.ucp.g08.bks.cvg/sg15_139_cif.got.tgz:276548.got - 2010.06.11 12:40:34.
