data_PCOD9309319
_publ_section_title
;
Structure prediction by ZEFSAII (Michael W. Deem and Ramdas Pophale) SiO2 
 PCOD9309319
Probable space group: C 2/C
;
_chemical_formula_sum "Si O2"
_cell_formula_units_Z 22
_cell_length_a 24.000000
_cell_length_b 6.000000
_cell_length_c 24.000000
_cell_angle_alpha 90.000000
_cell_angle_beta 40.000000
_cell_angle_gamma 90.000000
_cell_volume 2221.473979
_symmetry_space_group_name_H-M "C 2/C"
_symmetry_group_IT_number 15
_symmetry_cell_setting 'monoclinic'
loop_
_space_group_symop_operation_xyz
x,y,z
-x,y,1/2-z
-x,-y,-z
x,-y,1/2+z
1/2+x,1/2+y,z
1/2-x,1/2+y,1/2-z
1/2-x,1/2-y,-z
1/2+x,1/2-y,1/2+z
loop_
_atom_site_type_symbol
_atom_site_label
_atom_site_fract_x
_atom_site_fract_y
_atom_site_fract_z
Si Si1 0.000000 0.661201 0.750000
Si Si2 0.814233 0.600439 0.023464
Si Si3 0.843328 0.777222 0.224163
Si Si4 0.357976 0.540104 0.395580
Si Si5 0.763624 0.722523 0.807704
Si Si6 0.469458 0.172463 0.374625
O O1 0.996443 0.507690 0.807131
O O2 0.917543 0.822392 0.807411
O O3 0.730144 0.461622 0.066498
O O4 0.788248 0.745657 0.095813
O O5 0.897443 0.445464 0.968576
O O6 0.834895 0.775592 0.959177
O O7 0.808612 0.527766 0.273148
O O8 0.803861 0.774691 0.192148
O O9 0.946195 0.760586 0.157844
O O10 0.815122 0.033478 0.264853
O O11 0.416535 0.356294 0.380112
#
# Coordination Sequence:
#
# PCOD9309319 Si02
#       6
#     4   8   8   8   8   8
#     4  10  22  36  58  90 124 166 212 252 318 372
#     4  10  23  38  61  86 133 161 210 252 326 370
#     4  10  24  42  68  93 125 162 225 255 318 369
#     4  10  22  39  56  92 124 167 205 257 315 382
#     4  10  23  45  66  93 123 173 207 271 309 376
#     4  11  23  37  62  93 123 168 207 269 307 389
#
# _framework density 9.9033350000000002
#
# number of rings (size 3 to 8) (size 9 to 14) (size 15 to 20)
#    0.000    1.818    0.000    2.182   12.727    0.727 
#    0.000    0.909    0.000    0.000    0.000    0.000 
#    0.000    0.000    0.000    0.000    0.000    0.000 
#
# Total GULP energy -122508.029253 kJ/mol
# GULP energy per Si atom -5568.546784 kJ/mol
# Density = 0.988079 g / cm^3
# Si number density = 9.903335 Si / 1000 Ang^3
#
#
#
# Elastic Constant Matrix: (Units=GPa)
#
#
# Indices 1 2 3 4 5 6 
#
# 1 66.7426 7.1016 33.3420 -0.0667 -19.1459 -0.0507
# 2 7.1016 85.2391 20.7531 -0.1237 -8.6810 -0.0333
# 3 33.3420 20.7531 66.6772 -0.0925 -19.0050 -0.0030
# 4 -0.0667 -0.1237 -0.0925 -12.7668 0.0359 -19.3494
# 5 -19.1459 -8.6810 -19.0050 0.0359 18.8202 0.0225
# 6 -0.0507 -0.0333 -0.0030 -19.3494 0.0225 22.5053
#
#
#
# Elastic Compliance Matrix: (Units=1/GPa)
#
#
# Indices 1 2 3 4 5 6 
#
# 1 0.023376 0.001574 -0.007293 -0.000040 0.017142 0.000002
# 2 0.001574 0.012892 -0.003719 -0.000054 0.003793 -0.000028
# 3 -0.007293 -0.003719 0.024149 -0.000003 0.015252 -0.000036
# 4 -0.000040 -0.000054 -0.000003 -0.034010 0.000031 -0.029241
# 5 0.017142 0.003793 0.015252 0.000031 0.087724 -0.000014
# 6 0.000002 -0.000028 -0.000036 -0.029241 -0.000014 0.019294
#
#
# Mechanical properties :
#
#
# Convention : Reuss Voigt Hill
#
# Bulk Modulus (GPa) = 24.07238 37.89469 30.98354
# Shear Modulus (GPa) = 30.09362 16.20923 23.15142
#
# Velocity S-wave (km/s) = 3.90214 2.86382 3.42258
# Velocity P-wave (km/s) = 5.69932 5.48718 5.59426
#
# Compressibility (1/GPa) = 0.04154138
#
# Stress axis : x y z
#
# Youngs Moduli (GPa) = 42.77853 77.56664 41.40919
#
# Poissons Ratio (x) = -0.12208 0.30201
# Poissons Ratio (y) = -0.06733 0.15399
# Poissons Ratio (z) = 0.31199 0.28845
#
# Static dielectric constant tensor:
#      x y z
#    x 1.683310 -0.000040 -0.016530 
#    y -0.000040 1.733960 0.000010 
#    z -0.016530 0.000010 1.765580 
# 
# From -- ./inp_files/170811.got.cif
#   From: 2010.05.17/outbox.ucp.g08.bks.cvg/sg15_86_cif.got.tgz:170811.got - 2010.06.11 12:40:34.
