data_PCOD9309571
_publ_section_title
;
Structure prediction by ZEFSAII (Michael W. Deem and Ramdas Pophale) SiO2 
 PCOD9309571
Probable space group: C 2/C
;
_chemical_formula_sum "Si O2"
_cell_formula_units_Z 26
_cell_length_a 21.000000
_cell_length_b 6.000000
_cell_length_c 24.000000
_cell_angle_alpha 90.000000
_cell_angle_beta 60.000000
_cell_angle_gamma 90.000000
_cell_volume 2618.860821
_symmetry_space_group_name_H-M "C 2/C"
_symmetry_group_IT_number 15
_symmetry_cell_setting 'monoclinic'
loop_
_space_group_symop_operation_xyz
x,y,z
-x,y,1/2-z
-x,-y,-z
x,-y,1/2+z
1/2+x,1/2+y,z
1/2-x,1/2+y,1/2-z
1/2-x,1/2-y,-z
1/2+x,1/2-y,1/2+z
loop_
_atom_site_type_symbol
_atom_site_label
_atom_site_fract_x
_atom_site_fract_y
_atom_site_fract_z
Si Si1 0.447904 0.802691 0.075823
Si Si2 0.893040 0.497078 0.489609
Si Si3 0.743647 0.794384 0.884653
Si Si4 0.384319 0.309186 0.142247
Si Si5 0.618948 0.993681 0.635731
Si Si6 0.000000 0.220253 0.250000
Si Si7 0.132532 0.896808 0.221002
O O1 0.424421 0.555159 0.111060
O O2 0.536877 0.826544 0.038218
O O3 0.420128 0.055311 0.112529
O O4 0.416732 0.818938 0.025821
O O5 0.815104 0.395612 0.545166
O O6 0.885565 0.567327 0.427956
O O7 0.689741 0.681925 0.862705
O O8 0.806142 0.636064 0.885097
O O9 0.792552 0.977915 0.830214
O O10 0.366642 0.307295 0.216051
O O11 0.545743 0.133497 0.685174
O O12 0.620079 0.789659 0.678906
O O13 0.063582 0.067190 0.248716
#
# Coordination Sequence:
#
# PCOD9309571 Si02
#       7
#     8   8   8   8   8   4   8
#     4  10  25  47  75 107 133 197 231 302 350 412
#     4  10  23  46  70 103 145 180 245 285 358 430
#     4  10  26  43  65 102 141 188 229 290 359 423
#     4  11  26  46  75 101 146 181 249 291 350 422
#     4  11  24  44  71  99 139 186 232 298 359 426
#     4  10  24  46  66 104 138 174 250 290 376 412
#     4  11  26  42  71 105 137 191 234 300 362 421
#
# _framework density 9.9279810000000008
#
# number of rings (size 3 to 8) (size 9 to 14) (size 15 to 20)
#    0.000    1.538    0.000    1.846   15.077    6.154 
#   11.077    0.000    0.000    0.000    0.000    0.000 
#    0.000    0.000    0.000    0.000    0.000    0.000 
#
# Total GULP energy -145013.198409 kJ/mol
# GULP energy per Si atom -5577.430708 kJ/mol
# Density = 0.990538 g / cm^3
# Si number density = 9.927981 Si / 1000 Ang^3
#
#
#
# Elastic Constant Matrix: (Units=GPa)
#
#
# Indices 1 2 3 4 5 6 
#
# 1 100.4775 29.9992 66.3571 -0.0127 -13.0464 -0.0273
# 2 29.9992 108.4473 57.4855 -0.0247 -4.8327 -0.0040
# 3 66.3571 57.4855 172.6076 -0.0017 15.4008 -0.0026
# 4 -0.0127 -0.0247 -0.0017 30.0149 -0.0023 -1.1585
# 5 -13.0464 -4.8327 15.4008 -0.0023 60.3735 -0.0068
# 6 -0.0273 -0.0040 -0.0026 -1.1585 -0.0068 32.3389
#
#
#
# Elastic Compliance Matrix: (Units=1/GPa)
#
#
# Indices 1 2 3 4 5 6 
#
# 1 0.014573 -0.000781 -0.005749 0.000006 0.004553 0.000013
# 2 -0.000781 0.011455 -0.003665 0.000009 0.001683 0.000001
# 3 -0.005749 -0.003665 0.009579 -0.000005 -0.003979 -0.000006
# 4 0.000006 0.000009 -0.000005 0.033363 0.000005 0.001195
# 5 0.004553 0.001683 -0.003979 0.000005 0.018697 0.000008
# 6 0.000013 0.000001 -0.000006 0.001195 0.000008 0.030965
#
#
# Mechanical properties :
#
#
# Convention : Reuss Voigt Hill
#
# Bulk Modulus (GPa) = 65.71166 76.57954 71.14560
# Shear Modulus (GPa) = 34.69939 39.72483 37.21211
#
# Velocity S-wave (km/s) = 4.18491 4.47772 4.33379
# Velocity P-wave (km/s) = 7.51780 8.08607 7.80711
#
# Compressibility (1/GPa) = 0.01521800
#
# Stress axis : x y z
#
# Youngs Moduli (GPa) = 68.61786 87.29983 104.39441
#
# Poissons Ratio (x) = 0.06820 0.60013
# Poissons Ratio (y) = 0.05361 0.38258
# Poissons Ratio (z) = 0.39446 0.31993
#
# Static dielectric constant tensor:
#      x y z
#    x 1.696290 -0.000010 0.000540 
#    y -0.000010 1.751730 -0.000010 
#    z 0.000540 -0.000010 1.717560 
# 
# From -- ./inp_files/278893.got.cif
#   From: 2010.05.17/outbox.ucp.g08.bks.cvg/sg15_140_cif.got.tgz:278893.got - 2010.06.11 12:40:34.
