data_PCOD9309429
_publ_section_title
;
Structure prediction by ZEFSAII (Michael W. Deem and Ramdas Pophale) SiO2 
 PCOD9309429
Probable space group: C 2/C
;
_chemical_formula_sum "Si O2"
_cell_formula_units_Z 30
_cell_length_a 12.000000
_cell_length_b 9.000000
_cell_length_c 30.000000
_cell_angle_alpha 90.000000
_cell_angle_beta 110.000000
_cell_angle_gamma 90.000000
_cell_volume 3044.604091
_symmetry_space_group_name_H-M "C 2/C"
_symmetry_group_IT_number 15
_symmetry_cell_setting 'monoclinic'
loop_
_space_group_symop_operation_xyz
x,y,z
-x,y,1/2-z
-x,-y,-z
x,-y,1/2+z
1/2+x,1/2+y,z
1/2-x,1/2+y,1/2-z
1/2-x,1/2-y,-z
1/2+x,1/2-y,1/2+z
loop_
_atom_site_type_symbol
_atom_site_label
_atom_site_fract_x
_atom_site_fract_y
_atom_site_fract_z
Si Si1 0.628295 0.180996 0.963496
Si Si2 0.566298 0.340135 0.505951
Si Si3 0.662541 0.846679 0.940245
Si Si4 0.953936 0.741446 0.649276
Si Si5 0.850295 0.956457 0.784579
Si Si6 0.749771 0.754030 0.305460
Si Si7 0.501664 0.895565 0.834619
Si Si8 0.000000 0.195205 0.750000
O O1 0.522707 0.228259 0.981814
O O2 0.594026 0.235580 0.908392
O O3 0.642035 0.003550 0.962461
O O4 0.750000 0.250000 0.000000
O O5 0.500000 0.500000 0.500000
O O6 0.602230 0.283659 0.461332
O O7 0.695961 0.335443 0.546388
O O8 0.598775 0.857644 0.884630
O O9 0.845910 0.770533 0.668775
O O10 0.052182 0.869075 0.672320
O O11 0.004215 0.575612 0.668277
O O12 0.792197 0.830148 0.745464
O O13 0.766021 0.067644 0.801104
O O14 0.907651 0.079772 0.759218
O O15 0.876081 0.676142 0.332548
O O16 0.536194 0.807763 0.794369
#
# Coordination Sequence:
#
# PCOD9309429 Si02
#       8
#     8   8   8   8   8   8   8   4
#     4  11  24  45  69 101 133 178 224 280 348 401
#     4  11  23  44  73  97 137 175 225 284 341 402
#     4  10  24  46  66 102 133 179 227 280 338 410
#     4  11  25  44  67  97 135 176 228 281 334 409
#     4  11  23  43  67  98 132 176 228 268 340 399
#     4  11  24  42  67  97 135 179 220 281 331 402
#     4  10  25  42  65  98 133 177 227 272 341 395
#     4  10  22  42  64  96 136 172 216 278 324 406
#
# _framework density 9.8534980000000001
#
# number of rings (size 3 to 8) (size 9 to 14) (size 15 to 20)
#    0.000    1.333    2.667    1.200    7.467    4.267 
#    4.800    0.000    0.000    0.000    0.000    0.000 
#    0.000    0.000    0.000    0.000    0.000    0.000 
#
# Total GULP energy -167553.007132 kJ/mol
# GULP energy per Si atom -5585.100238 kJ/mol
# Density = 0.983107 g / cm^3
# Si number density = 9.853498 Si / 1000 Ang^3
#
#
#
# Elastic Constant Matrix: (Units=GPa)
#
#
# Indices 1 2 3 4 5 6 
#
# 1 107.8104 35.0856 35.7666 0.0000 13.8373 0.0000
# 2 35.0856 120.1240 49.8900 0.0000 15.3162 0.0000
# 3 35.7666 49.8900 97.0075 0.0000 21.1684 0.0000
# 4 0.0000 0.0000 0.0000 34.1342 0.0000 -1.3814
# 5 13.8373 15.3162 21.1684 0.0000 22.0518 0.0000
# 6 0.0000 0.0000 0.0000 -1.3814 0.0000 42.3451
#
#
#
# Elastic Compliance Matrix: (Units=1/GPa)
#
#
# Indices 1 2 3 4 5 6 
#
# 1 0.011102 -0.001803 -0.002428 0.000000 -0.003384 0.000000
# 2 -0.001803 0.011006 -0.004522 0.000000 -0.002173 0.000000
# 3 -0.002428 -0.004522 0.015826 0.000000 -0.010529 0.000000
# 4 0.000000 0.000000 0.000000 0.029335 0.000000 0.000957
# 5 -0.003384 -0.002173 -0.010529 0.000000 0.059087 0.000000
# 6 0.000000 0.000000 0.000000 0.000957 0.000000 0.023647
#
#
# Mechanical properties :
#
#
# Convention : Reuss Voigt Hill
#
# Bulk Modulus (GPa) = 48.94679 62.93626 55.94153
# Shear Modulus (GPa) = 28.68326 33.31953 31.00140
#
# Velocity S-wave (km/s) = 3.81922 4.11633 3.97056
# Velocity P-wave (km/s) = 6.65881 7.38902 7.03340
#
# Compressibility (1/GPa) = 0.02043035
#
# Stress axis : x y z
#
# Youngs Moduli (GPa) = 90.07400 90.85736 63.18532
#
# Poissons Ratio (x) = 0.16381 0.15339
# Poissons Ratio (y) = 0.16240 0.28570
# Poissons Ratio (z) = 0.21867 0.41082
#
# Static dielectric constant tensor:
#      x y z
#    x 1.711700 0.000000 -0.000410 
#    y 0.000000 1.696840 0.000000 
#    z -0.000410 0.000000 1.689900 
# 
# From -- ./inp_files/291570.got.cif
#   From: 2010.05.17/outbox.ucp.g08.bks.cvg/sg15_146_cif.got.tgz:291570.got - 2010.06.11 12:40:34.
