data_PCOD9309711
_publ_section_title
;
Structure prediction by ZEFSAII (Michael W. Deem and Ramdas Pophale) SiO2 
 PCOD9309711
Probable space group: C 2/C
;
_chemical_formula_sum "Si O2"
_cell_formula_units_Z 28
_cell_length_a 12.000000
_cell_length_b 12.000000
_cell_length_c 21.000000
_cell_angle_alpha 90.000000
_cell_angle_beta 110.000000
_cell_angle_gamma 90.000000
_cell_volume 2841.630485
_symmetry_space_group_name_H-M "C 2/C"
_symmetry_group_IT_number 15
_symmetry_cell_setting 'monoclinic'
loop_
_space_group_symop_operation_xyz
x,y,z
-x,y,1/2-z
-x,-y,-z
x,-y,1/2+z
1/2+x,1/2+y,z
1/2-x,1/2+y,1/2-z
1/2-x,1/2-y,-z
1/2+x,1/2-y,1/2+z
loop_
_atom_site_type_symbol
_atom_site_label
_atom_site_fract_x
_atom_site_fract_y
_atom_site_fract_z
Si Si1 0.163510 0.845380 0.958602
Si Si2 0.476765 0.696136 0.318547
Si Si3 0.493824 0.075203 0.434012
Si Si4 0.234800 0.935303 0.524160
Si Si5 0.095457 0.450363 0.212345
Si Si6 0.327357 0.493326 0.344427
Si Si7 0.012703 0.827187 0.051559
O O1 0.098967 0.808986 0.881946
O O2 0.250000 0.750000 0.000000
O O3 0.063139 0.865368 0.992785
O O4 0.229514 0.963082 0.972222
O O5 0.500000 0.667914 0.250000
O O6 0.424203 0.820668 0.309730
O O7 0.391421 0.604079 0.331912
O O8 0.631445 0.105209 0.448380
O O9 0.444336 0.199333 0.435029
O O10 0.500000 0.000000 0.500000
O O11 0.434004 0.017722 0.359456
O O12 0.127507 0.854056 0.482654
O O13 0.219047 0.980998 0.593247
O O14 0.222983 0.464458 0.273208
O O15 0.000000 0.477983 0.250000
O O16 0.425234 0.397280 0.379327
#
# Coordination Sequence:
#
# PCOD9309711 Si02
#       7
#     8   8   8   8   8   8   8
#     4  11  21  38  68  95 126 166 221 270 323 387
#     4  11  24  41  64  95 128 167 224 275 322 387
#     4  12  26  43  67 103 134 166 228 277 327 387
#     4  11  21  43  69  91 130 174 215 268 329 406
#     4  11  25  45  66  92 131 179 218 268 334 392
#     4  11  23  44  67  91 128 176 220 256 335 403
#     4  11  23  42  67  98 129 174 214 270 339 396
#
# _framework density 9.8534980000000001
#
# number of rings (size 3 to 8) (size 9 to 14) (size 15 to 20)
#    0.000    0.857    4.286    3.857    8.000    1.143 
#    0.000    0.714    0.000    0.000    0.000    0.000 
#    0.000    0.000    0.000    0.000    0.000    0.000 
#
# Total GULP energy -156223.661241 kJ/mol
# GULP energy per Si atom -5579.416473 kJ/mol
# Density = 0.983107 g / cm^3
# Si number density = 9.853498 Si / 1000 Ang^3
#
#
#
# Elastic Constant Matrix: (Units=GPa)
#
#
# Indices 1 2 3 4 5 6 
#
# 1 56.2584 -0.2180 31.4515 0.0000 20.5365 0.0000
# 2 -0.2180 83.3204 46.2698 0.0000 5.5911 0.0000
# 3 31.4515 46.2698 188.3824 0.0000 33.8378 0.0000
# 4 0.0000 0.0000 0.0000 37.9201 0.0000 1.5553
# 5 20.5365 5.5911 33.8378 0.0000 35.9066 0.0000
# 6 0.0000 0.0000 0.0000 1.5553 0.0000 26.9267
#
#
#
# Elastic Compliance Matrix: (Units=1/GPa)
#
#
# Indices 1 2 3 4 5 6 
#
# 1 0.023271 0.002137 -0.002359 0.000000 -0.011419 0.000000
# 2 0.002137 0.014142 -0.003870 0.000000 0.000223 0.000000
# 3 -0.002359 -0.003870 0.007586 0.000000 -0.005197 0.000000
# 4 0.000000 0.000000 0.000000 0.026434 0.000000 -0.001527
# 5 -0.011419 0.000223 -0.005197 0.000000 0.039244 0.000000
# 6 0.000000 0.000000 0.000000 -0.001527 0.000000 0.037226
#
#
# Mechanical properties :
#
#
# Convention : Reuss Voigt Hill
#
# Bulk Modulus (GPa) = 27.16313 53.66307 40.41310
# Shear Modulus (GPa) = 29.69849 36.84790 33.27319
#
# Velocity S-wave (km/s) = 3.88622 4.32880 4.11347
# Velocity P-wave (km/s) = 5.82670 7.23009 6.56600
#
# Compressibility (1/GPa) = 0.03681461
#
# Stress axis : x y z
#
# Youngs Moduli (GPa) = 42.97262 70.71255 131.81531
#
# Poissons Ratio (x) = -0.15112 0.31094
# Poissons Ratio (y) = -0.09184 0.51016
# Poissons Ratio (z) = 0.10137 0.27368
#
# Static dielectric constant tensor:
#      x y z
#    x 1.764040 0.000000 -0.009100 
#    y 0.000000 1.722360 0.000000 
#    z -0.009100 0.000000 1.654380 
# 
# From -- ./inp_files/237071.got.cif
#   From: 2010.05.17/outbox.ucp.g08.bks.cvg/sg15_119_cif.got.tgz:237071.got - 2010.06.11 12:40:34.
