data_PCOD9309311
_publ_section_title
;
Structure prediction by ZEFSAII (Michael W. Deem and Ramdas Pophale) SiO2 
 PCOD9309311
Probable space group: C 2/C
;
_chemical_formula_sum "Si O2"
_cell_formula_units_Z 24
_cell_length_a 21.000000
_cell_length_b 18.000000
_cell_length_c 21.000000
_cell_angle_alpha 90.000000
_cell_angle_beta 160.000000
_cell_angle_gamma 90.000000
_cell_volume 2714.955898
_symmetry_space_group_name_H-M "C 2/C"
_symmetry_group_IT_number 15
_symmetry_cell_setting 'monoclinic'
loop_
_space_group_symop_operation_xyz
x,y,z
-x,y,1/2-z
-x,-y,-z
x,-y,1/2+z
1/2+x,1/2+y,z
1/2-x,1/2+y,1/2-z
1/2-x,1/2-y,-z
1/2+x,1/2-y,1/2+z
loop_
_atom_site_type_symbol
_atom_site_label
_atom_site_fract_x
_atom_site_fract_y
_atom_site_fract_z
Si Si1 0.781038 0.300800 0.968273
Si Si2 0.538446 0.404404 0.662087
Si Si3 0.108602 0.339630 0.095371
Si Si4 0.689448 0.334496 0.670720
Si Si5 0.440905 0.449376 0.382556
Si Si6 0.669198 0.160455 0.799243
O O1 0.632767 0.361876 0.809009
O O2 0.774119 0.239456 0.905388
O O3 0.750000 0.250000 0.000000
O O4 0.981410 0.336088 0.161420
O O5 0.596139 0.360184 0.650793
O O6 0.585385 0.489909 0.696673
O O7 0.317412 0.398957 0.459848
O O8 0.162783 0.253379 0.135451
O O9 0.254661 0.401274 0.211541
O O10 0.106197 0.350036 0.168696
O O11 0.905360 0.352125 0.877634
O O12 0.596464 0.385378 0.529382
O O13 0.500000 0.500000 0.500000
#
# Coordination Sequence:
#
# PCOD9309311 Si02
#       6
#     8   8   8   8   8   8
#     4  12  24  35  52  75 100 143 197 229 269 322
#     4  11  22  35  49  72 106 135 188 241 268 325
#     4  12  18  32  54  72 102 143 185 225 267 336
#     4  11  19  31  51  73  98 141 184 223 269 329
#     4  10  22  33  47  77 103 135 189 232 276 324
#     4  12  20  33  51  70 102 140 182 226 270 317
#
# _framework density 8.8399230000000006
#
# number of rings (size 3 to 8) (size 9 to 14) (size 15 to 20)
#    0.000    0.667   10.000    0.500    0.000    4.000 
#    0.000    0.000    0.000    0.000    0.000    0.000 
#    0.000    0.000    0.000    6.000    0.000    0.500 
#
# Total GULP energy -133749.347924 kJ/mol
# GULP energy per Si atom -5572.889497 kJ/mol
# Density = 0.881980 g / cm^3
# Si number density = 8.839923 Si / 1000 Ang^3
#
#
#
# Elastic Constant Matrix: (Units=GPa)
#
#
# Indices 1 2 3 4 5 6 
#
# 1 27.0033 50.9511 13.6275 0.0027 -3.6131 0.0027
# 2 50.9511 78.6600 4.0027 0.0102 7.4886 -0.0265
# 3 13.6275 4.0027 -4.9327 0.0425 9.6612 -0.0201
# 4 0.0027 0.0102 0.0425 33.4416 -0.0011 -0.9659
# 5 -3.6131 7.4886 9.6612 -0.0011 16.1366 0.0035
# 6 0.0027 -0.0265 -0.0201 -0.9659 0.0035 28.2064
#
#
#
# Elastic Compliance Matrix: (Units=1/GPa)
#
#
# Indices 1 2 3 4 5 6 
#
# 1 0.073433 -0.050695 0.110473 -0.000131 -0.026173 0.000023
# 2 -0.050695 0.048295 -0.076863 0.000087 0.012255 -0.000003
# 3 0.110473 -0.076863 0.072913 -0.000079 0.016752 -0.000036
# 4 -0.000131 0.000087 -0.000079 0.029933 -0.000021 0.001025
# 5 -0.026173 0.012255 0.016752 -0.000021 0.040394 0.000020
# 6 0.000023 -0.000003 -0.000036 0.001025 0.000020 0.035488
#
#
# Mechanical properties :
#
#
# Convention : Reuss Voigt Hill
#
# Bulk Modulus (GPa) = 6.23167 26.43258 16.33213
# Shear Modulus (GPa) = 12.88280 17.70021 15.29150
#
# Velocity S-wave (km/s) = 2.70232 3.16753 2.94413
# Velocity P-wave (km/s) = 3.64268 5.32549 4.56234
#
# Compressibility (1/GPa) = 0.16047068
#
# Stress axis : x y z
#
# Youngs Moduli (GPa) = 13.61790 20.70626 13.71497
#
# Poissons Ratio (x) = 1.04970 -1.51513
# Poissons Ratio (y) = 0.69036 1.05417
# Poissons Ratio (z) = -1.50441 1.59154
#
# Static dielectric constant tensor:
#      x y z
#    x 1.400020 0.004160 -0.271650 
#    y 0.004160 1.535990 0.004240 
#    z -0.271650 0.004240 1.379290 
# 
# From -- ./inp_files/253284.got.cif
#   From: 2010.05.17/outbox.ucp.g08.bks.cvg/sg15_127_cif.got.tgz:253284.got - 2010.06.11 12:40:34.
