data_PCOD9309416
_publ_section_title
;
Structure prediction by ZEFSAII (Michael W. Deem and Ramdas Pophale) SiO2 
 PCOD9309416
Probable space group: C 2/C
;
_chemical_formula_sum "Si O2"
_cell_formula_units_Z 32
_cell_length_a 15.000000
_cell_length_b 12.000000
_cell_length_c 21.000000
_cell_angle_alpha 90.000000
_cell_angle_beta 110.000000
_cell_angle_gamma 90.000000
_cell_volume 3552.038107
_symmetry_space_group_name_H-M "C 2/C"
_symmetry_group_IT_number 15
_symmetry_cell_setting 'monoclinic'
loop_
_space_group_symop_operation_xyz
x,y,z
-x,y,1/2-z
-x,-y,-z
x,-y,1/2+z
1/2+x,1/2+y,z
1/2-x,1/2+y,1/2-z
1/2-x,1/2-y,-z
1/2+x,1/2-y,1/2+z
loop_
_atom_site_type_symbol
_atom_site_label
_atom_site_fract_x
_atom_site_fract_y
_atom_site_fract_z
Si Si1 0.724741 0.110699 0.416437
Si Si2 0.639699 0.352761 0.429686
Si Si3 0.169557 0.963066 0.829488
Si Si4 0.929182 0.445386 0.073387
Si Si5 0.441271 0.679115 0.091632
Si Si6 0.114910 0.579470 0.085789
Si Si7 0.362145 0.549235 0.335690
Si Si8 0.571529 0.660467 0.564554
O O1 0.674457 0.230598 0.415532
O O2 0.792411 0.102605 0.496236
O O3 0.779741 0.103465 0.361578
O O4 0.647734 0.011529 0.403386
O O5 0.638599 0.429423 0.365414
O O6 0.538107 0.346717 0.440013
O O7 0.124389 0.866495 0.865554
O O8 0.283111 0.954851 0.862835
O O9 0.148090 0.961357 0.746042
O O10 0.941184 0.314289 0.092470
O O11 0.028854 0.512399 0.098082
O O12 0.893037 0.449736 0.991234
O O13 0.544004 0.624437 0.129982
O O14 0.416938 0.645513 0.010573
O O15 0.103554 0.713136 0.087238
O O16 0.378237 0.431380 0.377601
#
# Coordination Sequence:
#
# PCOD9309416 Si02
#       8
#     8   8   8   8   8   8   8   8
#     4  11  23  41  69 101 122 167 219 266 320 378
#     4  11  22  41  71  96 127 164 218 273 314 377
#     4  12  26  43  61  93 135 174 209 260 330 388
#     4  10  22  41  68  96 125 162 212 266 320 373
#     4  11  24  41  66  97 130 167 213 267 316 382
#     4  10  23  41  66  96 128 162 209 264 323 381
#     4  12  26  42  63  93 132 172 214 263 326 381
#     4  11  22  42  69  96 124 165 220 272 308 374
#
# _framework density 9.0089120000000005
#
# number of rings (size 3 to 8) (size 9 to 14) (size 15 to 20)
#    0.000    1.000    5.000    1.500    3.500    2.000 
#    0.000    1.875    0.000    0.000    0.000    0.000 
#    0.000    0.000    0.000    0.000    0.000    0.000 
#
# Total GULP energy -178395.066686 kJ/mol
# GULP energy per Si atom -5574.845834 kJ/mol
# Density = 0.898841 g / cm^3
# Si number density = 9.008912 Si / 1000 Ang^3
#
#
#
# Elastic Constant Matrix: (Units=GPa)
#
#
# Indices 1 2 3 4 5 6 
#
# 1 106.4060 29.8286 38.8494 0.0000 -16.1669 0.0000
# 2 29.8286 108.0666 39.3121 0.0000 -6.5306 0.0000
# 3 38.8494 39.3121 133.4679 0.0000 -22.8565 0.0000
# 4 0.0000 0.0000 0.0000 23.8556 0.0000 -5.1245
# 5 -16.1669 -6.5306 -22.8565 0.0000 37.8091 0.0000
# 6 0.0000 0.0000 0.0000 -5.1245 0.0000 38.5378
#
#
#
# Elastic Compliance Matrix: (Units=1/GPa)
#
#
# Indices 1 2 3 4 5 6 
#
# 1 0.011248 -0.002150 -0.002098 0.000000 0.003170 0.000000
# 2 -0.002150 0.010775 -0.002662 0.000000 -0.000668 0.000000
# 3 -0.002098 -0.002662 0.009654 0.000000 0.004479 0.000000
# 4 0.000000 0.000000 0.000000 0.043151 0.000000 0.005738
# 5 0.003170 -0.000668 0.004479 0.000000 0.030397 0.000000
# 6 0.000000 0.000000 0.000000 0.005738 0.000000 0.026712
#
#
# Mechanical properties :
#
#
# Convention : Reuss Voigt Hill
#
# Bulk Modulus (GPa) = 55.99944 62.65786 59.32865
# Shear Modulus (GPa) = 32.95754 36.03721 34.49738
#
# Velocity S-wave (km/s) = 4.28151 4.47708 4.38039
# Velocity P-wave (km/s) = 7.45582 7.84708 7.65395
#
# Compressibility (1/GPa) = 0.01785732
#
# Stress axis : x y z
#
# Youngs Moduli (GPa) = 88.90239 92.80645 103.58023
#
# Poissons Ratio (x) = 0.19953 0.21731
# Poissons Ratio (y) = 0.19114 0.27576
# Poissons Ratio (z) = 0.18651 0.24707
#
# Static dielectric constant tensor:
#      x y z
#    x 1.641910 0.000000 0.013970 
#    y 0.000000 1.642000 0.000000 
#    z 0.013970 0.000000 1.606670 
# 
# From -- ./inp_files/243745.got.cif
#   From: 2010.05.17/outbox.ucp.g08.bks.cvg/sg15_122_cif.got.tgz:243745.got - 2010.06.11 12:40:34.
