data_PCOD9309575
_publ_section_title
;
Structure prediction by ZEFSAII (Michael W. Deem and Ramdas Pophale) SiO2 
 PCOD9309575
Probable space group: C 2/C
;
_chemical_formula_sum "Si O2"
_cell_formula_units_Z 22
_cell_length_a 9.000000
_cell_length_b 30.000000
_cell_length_c 9.000000
_cell_angle_alpha 90.000000
_cell_angle_beta 120.000000
_cell_angle_gamma 90.000000
_cell_volume 2104.441731
_symmetry_space_group_name_H-M "C 2/C"
_symmetry_group_IT_number 15
_symmetry_cell_setting 'monoclinic'
loop_
_space_group_symop_operation_xyz
x,y,z
-x,y,1/2-z
-x,-y,-z
x,-y,1/2+z
1/2+x,1/2+y,z
1/2-x,1/2+y,1/2-z
1/2-x,1/2-y,-z
1/2+x,1/2-y,1/2+z
loop_
_atom_site_type_symbol
_atom_site_label
_atom_site_fract_x
_atom_site_fract_y
_atom_site_fract_z
Si Si1 0.674831 0.307776 0.595232
Si Si2 0.613319 0.610017 0.529748
Si Si3 0.764908 0.465373 0.896664
Si Si4 0.500000 0.848257 0.250000
Si Si5 0.000000 0.511693 0.250000
Si Si6 0.500000 0.453004 0.250000
Si Si7 0.984407 0.290163 0.533894
O O1 0.534413 0.348942 0.554833
O O2 0.812909 0.312036 0.527251
O O3 0.563976 0.262411 0.510028
O O4 0.827148 0.297268 0.793472
O O5 0.656416 0.576512 0.409889
O O6 0.539304 0.578370 0.626272
O O7 0.810582 0.627173 0.661721
O O8 0.865076 0.460454 0.787441
O O9 0.655218 0.511236 0.835415
O O10 0.904286 0.478658 0.089506
O O11 0.504630 0.816340 0.393148
#
# Coordination Sequence:
#
# PCOD9309575 Si02
#       7
#     8   8   8   4   4   4   8
#     4  10  23  47  76 105 141 190 235 298 349 451
#     4  12  26  44  70 106 146 185 249 294 362 428
#     4  11  24  47  71 101 138 193 238 305 365 424
#     4  12  27  44  69 106 144 186 233 300 354 435
#     4  10  23  46  76  96 135 191 248 294 368 437
#     4  12  26  46  69 100 141 191 237 306 362 430
#     4  10  23  47  75 105 145 186 233 285 381 421
#
# _framework density 10.454079
#
# number of rings (size 3 to 8) (size 9 to 14) (size 15 to 20)
#    0.000    1.091    1.818    3.273    2.545    8.000 
#    0.000    0.000    0.000    0.000    0.000    0.000 
#    0.000    0.000    0.000    0.000    0.000    0.000 
#
# Total GULP energy -122575.723289 kJ/mol
# GULP energy per Si atom -5571.623786 kJ/mol
# Density = 1.043028 g / cm^3
# Si number density = 10.454079 Si / 1000 Ang^3
#
#
#
# Elastic Constant Matrix: (Units=GPa)
#
#
# Indices 1 2 3 4 5 6 
#
# 1 195.7199 85.7600 71.6403 0.0000 -5.8200 0.0000
# 2 85.7600 144.6005 49.7434 0.0000 2.7800 0.0000
# 3 71.6403 49.7434 116.8205 0.0000 4.1100 0.0000
# 4 0.0000 0.0000 0.0000 52.8183 0.0000 16.0304
# 5 -5.8200 2.7800 4.1100 0.0000 58.6688 0.0000
# 6 0.0000 0.0000 0.0000 16.0304 0.0000 59.7617
#
#
#
# Elastic Compliance Matrix: (Units=1/GPa)
#
#
# Indices 1 2 3 4 5 6 
#
# 1 0.007954 -0.003571 -0.003399 0.000000 0.001196 0.000000
# 2 -0.003571 0.009707 -0.001919 0.000000 -0.000680 0.000000
# 3 -0.003399 -0.001919 0.011499 0.000000 -0.001052 0.000000
# 4 0.000000 0.000000 0.000000 0.020611 0.000000 -0.005529
# 5 0.001196 -0.000680 -0.001052 0.000000 0.017269 0.000000
# 6 0.000000 0.000000 0.000000 -0.005529 0.000000 0.018216
#
#
# Mechanical properties :
#
#
# Convention : Reuss Voigt Hill
#
# Bulk Modulus (GPa) = 87.87013 96.82535 92.34774
# Shear Modulus (GPa) = 46.80378 50.91623 48.86001
#
# Velocity S-wave (km/s) = 4.73646 4.94016 4.83938
# Velocity P-wave (km/s) = 8.48705 8.88542 8.68852
#
# Compressibility (1/GPa) = 0.01138043
#
# Stress axis : x y z
#
# Youngs Moduli (GPa) = 125.72493 103.02006 86.96339
#
# Poissons Ratio (x) = 0.36788 0.29561
# Poissons Ratio (y) = 0.44896 0.16693
# Poissons Ratio (z) = 0.42737 0.19775
#
# Static dielectric constant tensor:
#      x y z
#    x 1.786720 0.000000 0.022130 
#    y 0.000000 1.743300 0.000000 
#    z 0.022130 0.000000 1.881170 
# 
# From -- ./inp_files/26304.got.cif
#   From: 2010.05.17/outbox.ucp.g08.bks.cvg/sg15_14_cif.got.tgz:26304.got - 2010.06.11 12:40:34.
