data_PCOD9309903
_publ_section_title
;
Structure prediction by ZEFSAII (Michael W. Deem and Ramdas Pophale) SiO2 
 PCOD9309903
Probable space group: C 2/C
;
_chemical_formula_sum "Si O2"
_cell_formula_units_Z 20
_cell_length_a 15.000000
_cell_length_b 18.000000
_cell_length_c 21.000000
_cell_angle_alpha 90.000000
_cell_angle_beta 20.000000
_cell_angle_gamma 90.000000
_cell_volume 1939.254213
_symmetry_space_group_name_H-M "C 2/C"
_symmetry_group_IT_number 15
_symmetry_cell_setting 'monoclinic'
loop_
_space_group_symop_operation_xyz
x,y,z
-x,y,1/2-z
-x,-y,-z
x,-y,1/2+z
1/2+x,1/2+y,z
1/2-x,1/2+y,1/2-z
1/2-x,1/2-y,-z
1/2+x,1/2-y,1/2+z
loop_
_atom_site_type_symbol
_atom_site_label
_atom_site_fract_x
_atom_site_fract_y
_atom_site_fract_z
Si Si1 0.269616 0.641392 0.190196
Si Si2 0.349414 0.390673 0.419434
Si Si3 0.351895 0.297921 0.177108
Si Si4 0.801641 0.956651 0.023199
Si Si5 0.764255 0.324979 0.531799
O O1 0.203435 0.709468 0.282613
O O2 0.970688 0.617178 0.371555
O O3 0.450978 0.677129 0.012104
O O4 0.465937 0.577906 0.087491
O O5 0.500000 0.395378 0.250000
O O6 0.494646 0.325556 0.362421
O O7 0.390741 0.465408 0.433251
O O8 0.054569 0.329381 0.368858
O O9 0.500000 0.966087 0.250000
O O10 0.766137 0.895529 0.992706
O O11 0.500000 0.322813 0.750000
O O12 0.750000 0.250000 0.500000
#
# Coordination Sequence:
#
# PCOD9309903 Si02
#       5
#     8   8   8   8   8
#     4  12  26  47  77 105 146 189 239 300 355 435
#     4  12  30  49  72 104 147 196 242 298 361 430
#     4  12  25  47  76 107 143 189 244 296 359 424
#     4  12  26  47  73 108 144 188 239 294 367 427
#     4  12  24  42  70 109 144 186 238 296 356 424
#
# _framework density 10.313243
#
# number of rings (size 3 to 8) (size 9 to 14) (size 15 to 20)
#    0.000    0.000    4.000    6.000    5.600    2.400 
#    0.000    0.000    0.000    0.000    0.000    0.000 
#    0.000    0.000    0.000    0.000    0.000    0.000 
#
# Total GULP energy -111709.579597 kJ/mol
# GULP energy per Si atom -5585.478980 kJ/mol
# Density = 1.028977 g / cm^3
# Si number density = 10.313243 Si / 1000 Ang^3
#
#
#
# Elastic Constant Matrix: (Units=GPa)
#
#
# Indices 1 2 3 4 5 6 
#
# 1 91.6748 18.0274 64.9338 -0.0329 -21.1864 0.0385
# 2 18.0274 78.2852 18.9826 -0.0932 -1.9161 0.0638
# 3 64.9338 18.9826 211.1523 -0.1843 -8.9131 0.0157
# 4 -0.0329 -0.0932 -0.1843 46.0828 -0.0179 -1.5286
# 5 -21.1864 -1.9161 -8.9131 -0.0179 63.4124 -0.0047
# 6 0.0385 0.0638 0.0157 -1.5286 -0.0047 51.1711
#
#
#
# Elastic Compliance Matrix: (Units=1/GPa)
#
#
# Indices 1 2 3 4 5 6 
#
# 1 0.015511 -0.002404 -0.004364 -0.000010 0.004496 -0.000007
# 2 -0.002404 0.013434 -0.000488 0.000023 -0.000466 -0.000014
# 3 -0.004364 -0.000488 0.006096 0.000020 -0.000616 0.000003
# 4 -0.000010 0.000023 0.000020 0.021722 0.000006 0.000649
# 5 0.004496 -0.000466 -0.000616 0.000006 0.017171 -0.000001
# 6 -0.000007 -0.000014 0.000003 0.000649 -0.000001 0.019562
#
#
# Mechanical properties :
#
#
# Convention : Reuss Voigt Hill
#
# Bulk Modulus (GPa) = 48.71071 64.99999 56.85535
# Shear Modulus (GPa) = 43.53469 50.74449 47.13959
#
# Velocity S-wave (km/s) = 4.59913 4.96538 4.78576
# Velocity P-wave (km/s) = 7.20205 8.02837 7.62641
#
# Compressibility (1/GPa) = 0.02052937
#
# Stress axis : x y z
#
# Youngs Moduli (GPa) = 64.47036 74.43618 164.04538
#
# Poissons Ratio (x) = 0.17892 0.71591
# Poissons Ratio (y) = 0.15496 0.08009
# Poissons Ratio (z) = 0.28135 0.03634
#
# Static dielectric constant tensor:
#      x y z
#    x 1.791280 -0.000080 0.017580 
#    y -0.000080 1.737950 0.000220 
#    z 0.017580 0.000220 1.734320 
# 
# From -- ./inp_files/39407.got.cif
#   From: 2010.05.17/outbox.ucp.g08.bks.cvg/sg15_20_cif.got.tgz:39407.got - 2010.06.11 12:40:34.
