data_PCOD9309134
_publ_section_title
;
Structure prediction by ZEFSAII (Michael W. Deem and Ramdas Pophale) SiO2 
 PCOD9309134
Probable space group: C 2/C
;
_chemical_formula_sum "Si O2"
_cell_formula_units_Z 32
_cell_length_a 24.000000
_cell_length_b 18.000000
_cell_length_c 24.000000
_cell_angle_alpha 90.000000
_cell_angle_beta 160.000000
_cell_angle_gamma 90.000000
_cell_volume 3546.064846
_symmetry_space_group_name_H-M "C 2/C"
_symmetry_group_IT_number 15
_symmetry_cell_setting 'monoclinic'
loop_
_space_group_symop_operation_xyz
x,y,z
-x,y,1/2-z
-x,-y,-z
x,-y,1/2+z
1/2+x,1/2+y,z
1/2-x,1/2+y,1/2-z
1/2-x,1/2-y,-z
1/2+x,1/2-y,1/2+z
loop_
_atom_site_type_symbol
_atom_site_label
_atom_site_fract_x
_atom_site_fract_y
_atom_site_fract_z
Si Si1 0.759662 0.905376 0.382377
Si Si2 0.762800 0.475122 0.725213
Si Si3 0.098922 0.349156 0.576129
Si Si4 0.584295 0.569423 0.652010
Si Si5 0.518625 0.219115 0.702212
Si Si6 0.719481 0.684505 0.704526
Si Si7 0.976612 0.009492 0.292262
Si Si8 0.716137 0.646798 0.361387
O O1 0.643427 0.847421 0.304573
O O2 0.846037 0.857938 0.413088
O O3 0.873647 0.947880 0.534396
O O4 0.672686 0.968679 0.261946
O O5 0.881015 0.410345 0.856940
O O6 0.702532 0.518469 0.724257
O O7 0.597287 0.443305 0.542521
O O8 0.182389 0.270855 0.668229
O O9 0.199236 0.375677 0.616433
O O10 0.912118 0.331875 0.386353
O O11 0.639978 0.650427 0.685184
O O12 0.581911 0.548659 0.714989
O O13 0.500000 0.234592 0.750000
O O14 0.571589 0.293503 0.719802
O O15 0.346119 0.192357 0.518536
O O16 0.843768 0.074609 0.163358
O O17 0.000000 0.983114 0.250000
#
# Coordination Sequence:
#
# PCOD9309134 Si02
#       8
#     8   8   8   8   8   8   8   8
#     4  10  21  37  53  78 105 143 182 220 264 308
#     4   9  19  34  57  75 106 137 174 222 271 317
#     4  12  21  35  54  82 108 145 172 220 274 315
#     4   9  19  36  54  79 105 139 177 220 266 318
#     4  12  23  36  49  70 106 148 189 221 255 301
#     4  11  23  34  56  79 110 140 180 221 270 321
#     4  11  22  37  57  78 107 145 182 217 262 316
#     4  12  22  34  49  76 103 148 183 221 252 313
#
# _framework density 9.0240880000000008
#
# number of rings (size 3 to 8) (size 9 to 14) (size 15 to 20)
#    0.000    1.250    3.750    3.750    1.750    3.000 
#    0.000    0.000    0.000    0.000    0.000    8.750 
#    0.000    0.000    0.000    0.000    0.000    0.000 
#
# Total GULP energy -178580.901064 kJ/mol
# GULP energy per Si atom -5580.653158 kJ/mol
# Density = 0.900355 g / cm^3
# Si number density = 9.024088 Si / 1000 Ang^3
#
#
#
# Elastic Constant Matrix: (Units=GPa)
#
#
# Indices 1 2 3 4 5 6 
#
# 1 106.6368 17.0671 16.4193 -0.0068 -6.0598 0.0186
# 2 17.0671 34.7261 8.5853 -0.0326 0.1387 0.0283
# 3 16.4193 8.5853 42.0677 -0.0110 -8.6772 0.0118
# 4 -0.0068 -0.0326 -0.0110 20.4071 0.0055 -13.6853
# 5 -6.0598 0.1387 -8.6772 0.0055 21.0799 -0.0074
# 6 0.0186 0.0283 0.0118 -13.6853 -0.0074 6.9339
#
#
#
# Elastic Compliance Matrix: (Units=1/GPa)
#
#
# Indices 1 2 3 4 5 6 
#
# 1 0.010650 -0.004542 -0.002833 0.000024 0.001925 0.000045
# 2 -0.004542 0.032439 -0.005640 0.000088 -0.003841 0.000060
# 3 -0.002833 -0.005640 0.028268 0.000005 0.010859 0.000004
# 4 0.000024 0.000088 0.000005 -0.151444 -0.000057 -0.298900
# 5 0.001925 -0.003841 0.010859 -0.000057 0.052487 -0.000065
# 6 0.000045 0.000060 0.000004 -0.298900 -0.000065 -0.445711
#
#
# Mechanical properties :
#
#
# Convention : Reuss Voigt Hill
#
# Bulk Modulus (GPa) = 22.06141 29.73044 25.89592
# Shear Modulus (GPa) = -11.56940 19.10812 3.76936
#
# Velocity S-wave (km/s) = -2.53460 3.25734 1.44673
# Velocity P-wave (km/s) = 1.91952 5.53675 4.14368
#
# Compressibility (1/GPa) = 0.04532802
#
# Stress axis : x y z
#
# Youngs Moduli (GPa) = 93.89588 30.82747 35.37613
#
# Poissons Ratio (x) = 0.14001 0.10021
# Poissons Ratio (y) = 0.42644 0.19951
# Poissons Ratio (z) = 0.26599 0.17386
#
# Static dielectric constant tensor:
#      x y z
#    x 1.613710 -0.000020 0.007980 
#    y -0.000020 1.653670 -0.000010 
#    z 0.007980 -0.000010 1.677290 
# 
# From -- ./inp_files/62505.got.cif
#   From: 2010.05.17/outbox.ucp.g08.bks.cvg/sg15_32_cif.got.tgz:62505.got - 2010.06.11 12:40:34.
