data_PCOD9309990
_publ_section_title
;
Structure prediction by ZEFSAII (Michael W. Deem and Ramdas Pophale) SiO2 
 PCOD9309990
Probable space group: P 2 2 2
;
_chemical_formula_sum "Si O2"
_cell_formula_units_Z 17
_cell_length_a 9.440522
_cell_length_b 5.577182
_cell_length_c 12.298546
_cell_angle_alpha 90.000000
_cell_angle_beta 90.000000
_cell_angle_gamma 90.000000
_cell_volume 647.537010
_symmetry_space_group_name_H-M "P 2 2 2"
_symmetry_group_IT_number 16
_symmetry_cell_setting 'orthorhombic'
loop_
_space_group_symop_operation_xyz
x,y,z
-x,-y,z
x,-y,-z
-x,y,-z
loop_
_atom_site_type_symbol
_atom_site_label
_atom_site_fract_x
_atom_site_fract_y
_atom_site_fract_z
Si Si1 0.240493 0.766663 0.859246
Si Si2 0.982230 0.250174 0.679792
Si Si3 0.659125 0.251526 0.455410
Si Si4 0.281611 0.263290 0.796544
Si Si5 0.000000 0.000000 0.000000
O O1 0.309961 0.505076 0.864431
O O2 0.167701 0.752656 0.739610
O O3 0.324236 0.017144 0.855901
O O4 0.109759 0.822198 0.938966
O O5 0.110159 0.251539 0.771163
O O6 0.000000 0.500000 0.621897
O O7 0.000000 0.000000 0.621882
O O8 0.723565 0.500000 0.500000
O O9 0.500000 0.250902 0.500000
O O10 0.655938 0.263193 0.324865
O O11 0.720969 0.000000 0.500000
#
# Coordination Sequence:
#
# PCOD9309990 Si02
#       5
#     4   4   4   4   1
#     4  10  20  30  51  77 116 162 186 240 261 348
#     4   8  14  27  42  65  94 147 177 207 265 321
#     4  10  21  37  59  84 107 136 192 267 300 366
#     4  10  18  34  50  75 112 152 186 235 312 325
#     4  12  20  34  52  90 118 164 228 218 268 334
#
# _framework density 26.253326000000001
#
# number of rings (size 3 to 8) (size 9 to 14) (size 15 to 20)
#    0.000    2.353    3.529    1.412    0.000    1.882 
#    0.000    0.000    0.000   38.118    0.000    0.000 
#    0.000   56.471    0.000    0.000    0.000    0.000 
#
# Total GULP energy -94897.203062 kJ/mol
# GULP energy per Si atom -5582.188415 kJ/mol
# Density = 2.619357 g / cm^3
# Si number density = 26.253326 Si / 1000 Ang^3
#
#
#
# Elastic Constant Matrix: (Units=GPa)
#
#
# Indices 1 2 3 4 5 6 
#
# 1 65.8453 0.4671 9.8033 0.0000 0.0000 0.0000
# 2 0.4671 371.7234 50.6889 0.0000 0.0000 0.0000
# 3 9.8033 50.6889 96.0079 0.0000 0.0000 0.0000
# 4 0.0000 0.0000 0.0000 32.5086 0.0000 0.0000
# 5 0.0000 0.0000 0.0000 0.0000 22.1094 0.0000
# 6 0.0000 0.0000 0.0000 0.0000 0.0000 -6.1931
#
#
#
# Elastic Compliance Matrix: (Units=1/GPa)
#
#
# Indices 1 2 3 4 5 6 
#
# 1 0.015437 0.000211 -0.001688 0.000000 0.000000 0.000000
# 2 0.000211 0.002902 -0.001554 0.000000 0.000000 0.000000
# 3 -0.001688 -0.001554 0.011408 0.000000 0.000000 0.000000
# 4 0.000000 0.000000 0.000000 0.030761 0.000000 0.000000
# 5 0.000000 0.000000 0.000000 0.000000 0.045230 0.000000
# 6 0.000000 0.000000 0.000000 0.000000 0.000000 -0.161471
#
#
# Mechanical properties :
#
#
# Convention : Reuss Voigt Hill
#
# Bulk Modulus (GPa) = 42.21851 72.83280 57.52566
# Shear Modulus (GPa) = -119.68365 41.19280 -39.24542
#
# Velocity S-wave (km/s) = -6.75921 3.96542 -3.87055
# Velocity P-wave (km/s) = 6.69327 6.98345 1.40869
#
# Compressibility (1/GPa) = 0.02368629
#
# Stress axis : x y z
#
# Youngs Moduli (GPa) = 64.77999 344.61941 87.65515
#
# Poissons Ratio (x) = -0.07262 0.14792
# Poissons Ratio (y) = -0.01365 0.13618
# Poissons Ratio (z) = 0.10932 0.53538
#
# Static dielectric constant tensor:
#      x y z
#    x 2.004760 0.000000 0.000000 
#    y 0.000000 2.243880 0.000000 
#    z 0.000000 0.000000 2.033100 
# 
# From -- ./inp_files/6724.got.cif
#   From: 2010.05.17/outbox.cif.g08.bks.cpg/sg16_4_cif.got.tgz:6724.got - 2010.06.03 22:28:35.
