data_PCOD9309021
_publ_section_title
;
Structure prediction by ZEFSAII (Michael W. Deem and Ramdas Pophale) SiO2 
 PCOD9309021
Probable space group: C 2/C
;
_chemical_formula_sum "Si O2"
_cell_formula_units_Z 28
_cell_length_a 18.000000
_cell_length_b 21.000000
_cell_length_c 21.000000
_cell_angle_alpha 90.000000
_cell_angle_beta 160.000000
_cell_angle_gamma 90.000000
_cell_volume 2714.955898
_symmetry_space_group_name_H-M "C 2/C"
_symmetry_group_IT_number 15
_symmetry_cell_setting 'monoclinic'
loop_
_space_group_symop_operation_xyz
x,y,z
-x,y,1/2-z
-x,-y,-z
x,-y,1/2+z
1/2+x,1/2+y,z
1/2-x,1/2+y,1/2-z
1/2-x,1/2-y,-z
1/2+x,1/2-y,1/2+z
loop_
_atom_site_type_symbol
_atom_site_label
_atom_site_fract_x
_atom_site_fract_y
_atom_site_fract_z
Si Si1 0.633121 0.200617 0.157970
Si Si2 0.339113 0.989522 0.715915
Si Si3 0.830244 0.162308 0.767913
Si Si4 0.160572 0.111498 0.286286
Si Si5 0.675377 0.491358 0.219788
Si Si6 0.824993 0.654952 0.161718
Si Si7 0.341991 0.894381 0.068494
O O1 0.665749 0.277845 0.178177
O O2 0.778110 0.159207 0.223672
O O3 0.671123 0.184824 0.263637
O O4 0.383468 0.179950 0.944311
O O5 0.372330 0.919994 0.712518
O O6 0.084119 0.006290 0.496952
O O7 0.322107 0.985643 0.778786
O O8 0.518797 0.040002 0.835306
O O9 0.805370 0.086204 0.763962
O O10 0.075679 0.164291 0.937173
O O11 0.293587 0.131324 0.457591
O O12 0.230214 0.039512 0.321701
O O13 0.902849 0.106043 0.098034
O O14 0.000000 0.678071 0.250000
O O15 0.500000 0.863293 0.250000
#
# Coordination Sequence:
#
# PCOD9309021 Si02
#       7
#     8   8   8   8   8   8   8
#     4  12  25  49  70 101 137 196 243 298 349 437
#     4  10  20  38  69 101 142 181 222 292 357 414
#     4  11  26  44  70 102 141 188 246 295 356 417
#     4  11  25  42  74 106 145 185 247 290 365 432
#     4  10  21  40  69 109 134 184 241 291 351 430
#     4  11  25  44  69 103 143 186 233 291 358 432
#     4  11  23  42  67 111 149 183 223 310 364 427
#
# _framework density 10.313243
#
# number of rings (size 3 to 8) (size 9 to 14) (size 15 to 20)
#    0.000    1.143    4.286    1.286    4.000    3.429 
#    0.000    0.000    0.000    7.714    0.000    0.000 
#    0.000    0.000    0.000    0.000    0.000    0.000 
#
# Total GULP energy -156004.872317 kJ/mol
# GULP energy per Si atom -5571.602583 kJ/mol
# Density = 1.028977 g / cm^3
# Si number density = 10.313243 Si / 1000 Ang^3
#
#
#
# Elastic Constant Matrix: (Units=GPa)
#
#
# Indices 1 2 3 4 5 6 
#
# 1 151.4879 33.2923 41.0408 -0.0066 4.5212 0.0056
# 2 33.2923 87.1331 6.2698 -0.3958 15.6952 -0.1459
# 3 41.0408 6.2698 128.3491 -0.1653 6.4365 -0.1151
# 4 -0.0066 -0.3958 -0.1653 28.8266 0.0370 5.0231
# 5 4.5212 15.6952 6.4365 0.0370 35.5203 0.0189
# 6 0.0056 -0.1459 -0.1151 5.0231 0.0189 23.5286
#
#
#
# Elastic Compliance Matrix: (Units=1/GPa)
#
#
# Indices 1 2 3 4 5 6 
#
# 1 0.007887 -0.002975 -0.002414 -0.000050 0.000748 -0.000022
# 2 -0.002975 0.013606 0.000575 0.000188 -0.005738 0.000052
# 3 -0.002414 0.000575 0.008611 0.000052 -0.001507 0.000036
# 4 -0.000050 0.000188 0.000052 0.036033 -0.000119 -0.007691
# 5 0.000748 -0.005738 -0.001507 -0.000119 0.030866 -0.000042
# 6 -0.000022 0.000052 0.000036 -0.007691 -0.000042 0.044144
#
#
# Mechanical properties :
#
#
# Convention : Reuss Voigt Hill
#
# Bulk Modulus (GPa) = 48.83910 58.68622 53.76266
# Shear Modulus (GPa) = 31.72564 36.66623 34.19593
#
# Velocity S-wave (km/s) = 3.92612 4.22077 4.07611
# Velocity P-wave (km/s) = 6.65446 7.22958 6.94797
#
# Compressibility (1/GPa) = 0.02047540
#
# Stress axis : x y z
#
# Youngs Moduli (GPa) = 126.79689 73.49454 116.13329
#
# Poissons Ratio (x) = 0.21862 0.28036
# Poissons Ratio (y) = 0.37718 -0.06672
# Poissons Ratio (z) = 0.30610 -0.04223
#
# Static dielectric constant tensor:
#      x y z
#    x 1.756120 -0.000010 -0.046490 
#    y -0.000010 1.762690 -0.000060 
#    z -0.046490 -0.000060 1.792210 
# 
# From -- ./inp_files/250066.got.cif
#   From: 2010.05.17/outbox.ucp.g08.bks.cvg/sg15_126_cif.got.tgz:250066.got - 2010.06.11 12:40:34.
