data_PCOD9309910
_publ_section_title
;
Structure prediction by ZEFSAII (Michael W. Deem and Ramdas Pophale) SiO2 
 PCOD9309910
Probable space group: C 2/C
;
_chemical_formula_sum "Si O2"
_cell_formula_units_Z 24
_cell_length_a 27.000000
_cell_length_b 9.000000
_cell_length_c 15.000000
_cell_angle_alpha 90.000000
_cell_angle_beta 140.000000
_cell_angle_gamma 90.000000
_cell_volume 2342.960837
_symmetry_space_group_name_H-M "C 2/C"
_symmetry_group_IT_number 15
_symmetry_cell_setting 'monoclinic'
loop_
_space_group_symop_operation_xyz
x,y,z
-x,y,1/2-z
-x,-y,-z
x,-y,1/2+z
1/2+x,1/2+y,z
1/2-x,1/2+y,1/2-z
1/2-x,1/2-y,-z
1/2+x,1/2-y,1/2+z
loop_
_atom_site_type_symbol
_atom_site_label
_atom_site_fract_x
_atom_site_fract_y
_atom_site_fract_z
Si Si1 0.196238 0.580707 0.584898
Si Si2 0.572814 0.257108 0.696025
Si Si3 0.317892 0.968887 0.649256
Si Si4 0.338630 0.622073 0.355978
Si Si5 0.608706 0.842426 0.563567
Si Si6 0.351800 0.405561 0.523964
O O1 0.190785 0.591571 0.467306
O O2 0.271175 0.482632 0.719241
O O3 0.196395 0.736328 0.638993
O O4 0.122939 0.496463 0.529443
O O5 0.605953 0.331921 0.650272
O O6 0.481446 0.213370 0.559292
O O7 0.622018 0.105226 0.774555
O O8 0.597455 0.355428 0.818844
O O9 0.233630 0.037560 0.561347
O O10 0.352725 0.868356 0.782376
O O11 0.380479 0.533980 0.495114
O O12 0.649799 0.730629 0.549039
#
# Coordination Sequence:
#
# PCOD9309910 Si02
#       6
#     8   8   8   8   8   8
#     4  12  25  45  75 113 143 198 252 314 364 455
#     4  12  25  47  74 107 156 197 243 311 392 437
#     4  12  25  43  77 111 142 197 256 307 366 453
#     4  12  26  46  76 108 153 187 260 308 373 445
#     4  12  26  46  76 107 149 197 246 306 383 446
#     4  12  26  46  75 109 147 205 244 309 377 452
#
# _framework density 10.243449
#
# number of rings (size 3 to 8) (size 9 to 14) (size 15 to 20)
#    0.000    0.000    6.667    3.500    0.000    2.667 
#    0.000    1.667    0.000    0.000    0.000    0.000 
#    0.000    0.000    0.000    0.000    0.000    0.000 
#
# Total GULP energy -133922.576466 kJ/mol
# GULP energy per Si atom -5580.107353 kJ/mol
# Density = 1.022013 g / cm^3
# Si number density = 10.243449 Si / 1000 Ang^3
#
#
#
# Elastic Constant Matrix: (Units=GPa)
#
#
# Indices 1 2 3 4 5 6 
#
# 1 151.7196 41.8338 86.7198 0.0000 -37.4096 0.0000
# 2 41.8338 102.8361 46.4911 0.0000 -20.1486 0.0000
# 3 86.7198 46.4911 175.9150 0.0000 -28.1375 0.0000
# 4 0.0000 0.0000 0.0000 48.2753 0.0000 -17.2224
# 5 -37.4096 -20.1486 -28.1375 0.0000 61.0230 0.0000
# 6 0.0000 0.0000 0.0000 -17.2224 0.0000 45.9109
#
#
#
# Elastic Compliance Matrix: (Units=1/GPa)
#
#
# Indices 1 2 3 4 5 6 
#
# 1 0.010304 -0.001601 -0.004028 0.000000 0.003931 0.000000
# 2 -0.001601 0.011652 -0.001978 0.000000 0.001954 0.000000
# 3 -0.004028 -0.001978 0.008306 0.000000 0.000708 0.000000
# 4 0.000000 0.000000 0.000000 0.023915 0.000000 0.008971
# 5 0.003931 0.001954 0.000708 0.000000 0.019769 0.000000
# 6 0.000000 0.000000 0.000000 0.008971 0.000000 0.025147
#
#
# Mechanical properties :
#
#
# Convention : Reuss Voigt Hill
#
# Bulk Modulus (GPa) = 66.44540 86.72890 76.58715
# Shear Modulus (GPa) = 41.90361 48.07024 44.98692
#
# Velocity S-wave (km/s) = 4.52750 4.84921 4.69111
# Velocity P-wave (km/s) = 7.73528 8.58946 8.17354
#
# Compressibility (1/GPa) = 0.01504995
#
# Stress axis : x y z
#
# Youngs Moduli (GPa) = 97.05123 85.81930 120.39522
#
# Poissons Ratio (x) = 0.13736 0.48491
# Poissons Ratio (y) = 0.15533 0.23813
# Poissons Ratio (z) = 0.39089 0.16975
#
# Static dielectric constant tensor:
#      x y z
#    x 1.754080 0.000000 0.007210 
#    y 0.000000 1.849560 0.000000 
#    z 0.007210 0.000000 1.752070 
# 
# From -- ./inp_files/176995.got.cif
#   From: 2010.05.17/outbox.ucp.g08.bks.cvg/sg15_89_cif.got.tgz:176995.got - 2010.06.11 12:40:34.
