data_PCOD9309486
_publ_section_title
;
Structure prediction by ZEFSAII (Michael W. Deem and Ramdas Pophale) SiO2 
 PCOD9309486
Probable space group: C 2/C
;
_chemical_formula_sum "Si O2"
_cell_formula_units_Z 32
_cell_length_a 15.000000
_cell_length_b 15.000000
_cell_length_c 18.000000
_cell_angle_alpha 90.000000
_cell_angle_beta 50.000000
_cell_angle_gamma 90.000000
_cell_volume 3102.479995
_symmetry_space_group_name_H-M "C 2/C"
_symmetry_group_IT_number 15
_symmetry_cell_setting 'monoclinic'
loop_
_space_group_symop_operation_xyz
x,y,z
-x,y,1/2-z
-x,-y,-z
x,-y,1/2+z
1/2+x,1/2+y,z
1/2-x,1/2+y,1/2-z
1/2-x,1/2-y,-z
1/2+x,1/2-y,1/2+z
loop_
_atom_site_type_symbol
_atom_site_label
_atom_site_fract_x
_atom_site_fract_y
_atom_site_fract_z
Si Si1 0.299186 0.569144 0.190301
Si Si2 0.099215 0.171707 0.635237
Si Si3 0.742821 0.355349 0.489929
Si Si4 0.835165 0.774676 0.557367
Si Si5 0.533361 0.532612 0.147105
Si Si6 0.885012 0.432575 0.275970
Si Si7 0.669375 0.066325 0.402130
Si Si8 0.923548 0.386165 0.090540
O O1 0.316366 0.634762 0.112079
O O2 0.415824 0.525605 0.161592
O O3 0.210162 0.498608 0.204691
O O4 0.236526 0.610902 0.297317
O O5 0.088630 0.210670 0.557500
O O6 0.217419 0.220315 0.599136
O O7 0.000000 0.190537 0.750000
O O8 0.095583 0.063924 0.625136
O O9 0.750000 0.250000 0.500000
O O10 0.613040 0.396905 0.559470
O O11 0.818901 0.377527 0.375947
O O12 0.787024 0.405663 0.540610
O O13 0.894792 0.712550 0.584846
O O14 0.500000 0.562080 0.250000
O O15 0.934102 0.388331 0.173912
O O16 0.000000 0.476356 0.250000
O O17 0.534669 0.091047 0.480343
O O18 0.671290 0.960277 0.384121
#
# Coordination Sequence:
#
# PCOD9309486 Si02
#       8
#     8   8   8   8   8   8   8   8
#     4  11  26  44  74 105 134 186 234 292 343 422
#     4  10  25  46  70 102 139 186 222 289 357 414
#     4  12  26  41  69 100 139 183 226 286 350 409
#     4  11  25  44  69 107 138 171 238 293 338 412
#     4  11  24  48  72  98 146 187 233 278 361 434
#     4  11  25  46  66  99 140 182 234 283 347 420
#     4  10  22  45  64 101 128 187 222 273 353 410
#     4  10  23  42  72  93 137 178 227 283 343 411
#
# _framework density 10.314329000000001
#
# number of rings (size 3 to 8) (size 9 to 14) (size 15 to 20)
#    0.000    1.250    2.500    1.500   10.500    4.000 
#    0.000    0.000    0.000    0.000    0.000    0.000 
#    0.000    0.000    0.000    0.000    0.000    0.000 
#
# Total GULP energy -178333.586683 kJ/mol
# GULP energy per Si atom -5572.924584 kJ/mol
# Density = 1.029085 g / cm^3
# Si number density = 10.314329 Si / 1000 Ang^3
#
#
#
# Elastic Constant Matrix: (Units=GPa)
#
#
# Indices 1 2 3 4 5 6 
#
# 1 94.0998 37.1936 15.4758 0.0000 3.4036 0.0000
# 2 37.1936 55.8494 33.1038 0.0000 1.6246 0.0000
# 3 15.4758 33.1038 106.5453 0.0000 18.5593 0.0000
# 4 0.0000 0.0000 0.0000 8.1130 0.0000 -0.3372
# 5 3.4036 1.6246 18.5593 0.0000 37.6769 0.0000
# 6 0.0000 0.0000 0.0000 -0.3372 0.0000 2.6301
#
#
#
# Elastic Compliance Matrix: (Units=1/GPa)
#
#
# Indices 1 2 3 4 5 6 
#
# 1 0.014611 -0.010527 0.001421 0.000000 -0.001566 0.000000
# 2 -0.010527 0.029775 -0.008383 0.000000 0.003797 0.000000
# 3 0.001421 -0.008383 0.012846 0.000000 -0.006095 0.000000
# 4 0.000000 0.000000 0.000000 0.123919 0.000000 0.015888
# 5 -0.001566 0.003797 -0.006095 0.000000 0.029521 0.000000
# 6 0.000000 0.000000 0.000000 0.015888 0.000000 0.382250
#
#
# Mechanical properties :
#
#
# Convention : Reuss Voigt Hill
#
# Bulk Modulus (GPa) = 44.93819 47.56010 46.24914
# Shear Modulus (GPa) = 7.87008 21.06543 14.46776
#
# Velocity S-wave (km/s) = 1.95535 3.19905 2.65116
# Velocity P-wave (km/s) = 5.18937 6.06223 5.64270
#
# Compressibility (1/GPa) = 0.02225279
#
# Stress axis : x y z
#
# Youngs Moduli (GPa) = 68.44221 33.58558 77.84803
#
# Poissons Ratio (x) = 0.35356 -0.11065
# Poissons Ratio (y) = 0.72051 0.65262
# Poissons Ratio (z) = -0.09728 0.28156
#
# Static dielectric constant tensor:
#      x y z
#    x 1.809490 0.000000 -0.038150 
#    y 0.000000 1.812640 0.000000 
#    z -0.038150 0.000000 1.816260 
# 
# From -- ./inp_files/205681.got.cif
#   From: 2010.05.17/outbox.ucp.g08.bks.cvg/sg15_103_cif.got.tgz:205681.got - 2010.06.11 12:40:34.
