data_PCOD9309236
_publ_section_title
;
Structure prediction by ZEFSAII (Michael W. Deem and Ramdas Pophale) SiO2 
 PCOD9309236
Probable space group: C 2/C
;
_chemical_formula_sum "Si O2"
_cell_formula_units_Z 26
_cell_length_a 18.000000
_cell_length_b 9.000000
_cell_length_c 27.000000
_cell_angle_alpha 90.000000
_cell_angle_beta 140.000000
_cell_angle_gamma 90.000000
_cell_volume 2811.553005
_symmetry_space_group_name_H-M "C 2/C"
_symmetry_group_IT_number 15
_symmetry_cell_setting 'monoclinic'
loop_
_space_group_symop_operation_xyz
x,y,z
-x,y,1/2-z
-x,-y,-z
x,-y,1/2+z
1/2+x,1/2+y,z
1/2-x,1/2+y,1/2-z
1/2-x,1/2-y,-z
1/2+x,1/2-y,1/2+z
loop_
_atom_site_type_symbol
_atom_site_label
_atom_site_fract_x
_atom_site_fract_y
_atom_site_fract_z
Si Si1 0.390154 0.323750 0.791218
Si Si2 0.294344 0.004721 0.097219
Si Si3 0.137710 0.745147 0.564081
Si Si4 0.500000 0.187866 0.750000
Si Si5 0.077333 0.535577 0.442053
Si Si6 0.181400 0.549689 0.683952
Si Si7 0.066874 0.804317 0.969618
O O1 0.451091 0.286019 0.770428
O O2 0.295796 0.452476 0.742014
O O3 0.323503 0.176765 0.776732
O O4 0.488159 0.353805 0.882715
O O5 0.395269 0.915114 0.176960
O O6 0.238039 0.137413 0.101248
O O7 0.353173 0.050665 0.074345
O O8 0.183933 0.897286 0.032295
O O9 0.114063 0.653898 0.501968
O O10 0.172055 0.633376 0.626199
O O11 0.017625 0.813068 0.525358
O O12 0.096735 0.368616 0.473609
O O13 0.937191 0.541860 0.366304
#
# Coordination Sequence:
#
# PCOD9309236 Si02
#       7
#     8   8   8   4   8   8   8
#     4  10  24  41  65  91 126 166 213 257 318 366
#     4  12  24  40  65  90 133 161 211 256 309 382
#     4  10  23  39  64  96 124 168 209 255 316 359
#     4  12  26  40  62  94 124 172 198 264 328 356
#     4  10  21  41  61  93 123 168 204 264 314 355
#     4  10  22  43  63  92 127 166 212 262 304 381
#     4  10  22  42  63  94 122 167 215 253 306 378
#
# _framework density 9.2475579999999997
#
# number of rings (size 3 to 8) (size 9 to 14) (size 15 to 20)
#    0.000    1.846    3.077    3.231    8.615    1.231 
#    0.000    3.846    0.000    0.000    0.000    0.000 
#    0.000    0.000    0.000    0.000    0.000    0.000 
#
# Total GULP energy -145139.859758 kJ/mol
# GULP energy per Si atom -5582.302298 kJ/mol
# Density = 0.922651 g / cm^3
# Si number density = 9.247558 Si / 1000 Ang^3
#
#
#
# Elastic Constant Matrix: (Units=GPa)
#
#
# Indices 1 2 3 4 5 6 
#
# 1 181.5901 38.7547 75.8353 0.0000 5.8267 0.0000
# 2 38.7547 44.9875 61.7305 0.0000 18.6071 0.0000
# 3 75.8353 61.7305 112.9178 0.0000 19.7444 0.0000
# 4 0.0000 0.0000 0.0000 29.5679 0.0000 14.0764
# 5 5.8267 18.6071 19.7444 0.0000 33.5650 0.0000
# 6 0.0000 0.0000 0.0000 14.0764 0.0000 33.3443
#
#
#
# Elastic Compliance Matrix: (Units=1/GPa)
#
#
# Indices 1 2 3 4 5 6 
#
# 1 0.007766 0.000653 -0.005879 0.000000 0.001748 0.000000
# 2 0.000653 0.108596 -0.054908 0.000000 -0.028016 0.000000
# 3 -0.005879 -0.054908 0.041599 0.000000 0.006989 0.000000
# 4 0.000000 0.000000 0.000000 0.042327 0.000000 -0.017868
# 5 0.001748 -0.028016 0.006989 0.000000 0.040909 0.000000
# 6 0.000000 0.000000 0.000000 -0.017868 0.000000 0.037533
#
#
# Mechanical properties :
#
#
# Convention : Reuss Voigt Hill
#
# Bulk Modulus (GPa) = 26.52858 76.90406 51.71632
# Shear Modulus (GPa) = 12.14882 30.17378 21.16130
#
# Velocity S-wave (km/s) = 2.56572 4.04350 3.38621
# Velocity P-wave (km/s) = 4.81165 7.96686 6.58114
#
# Compressibility (1/GPa) = 0.03769520
#
# Stress axis : x y z
#
# Youngs Moduli (GPa) = 128.75910 9.20845 24.03893
#
# Poissons Ratio (x) = -0.00601 0.14131
# Poissons Ratio (y) = -0.08408 1.31992
# Poissons Ratio (z) = 0.75691 0.50561
#
# Static dielectric constant tensor:
#      x y z
#    x 1.617270 0.000000 -0.008880 
#    y 0.000000 1.654190 0.000000 
#    z -0.008880 0.000000 1.643130 
# 
# From -- ./inp_files/298434.got.cif
#   From: 2010.05.17/outbox.ucp.g08.bks.cvg/sg15_150_cif.got.tgz:298434.got - 2010.06.11 12:40:34.
