data_PCOD9309926
_publ_section_title
;
Structure prediction by ZEFSAII (Michael W. Deem and Ramdas Pophale) SiO2 
 PCOD9309926
Probable space group: P 2 2 2
;
_chemical_formula_sum "Si O2"
_cell_formula_units_Z 32
_cell_length_a 13.254984
_cell_length_b 19.368655
_cell_length_c 7.599347
_cell_angle_alpha 90.000000
_cell_angle_beta 90.000000
_cell_angle_gamma 90.000000
_cell_volume 1950.989567
_symmetry_space_group_name_H-M "P 2 2 2"
_symmetry_group_IT_number 16
_symmetry_cell_setting 'orthorhombic'
loop_
_space_group_symop_operation_xyz
x,y,z
-x,-y,z
x,-y,-z
-x,y,-z
loop_
_atom_site_type_symbol
_atom_site_label
_atom_site_fract_x
_atom_site_fract_y
_atom_site_fract_z
Si Si1 0.885864 0.420745 0.785346
Si Si2 0.304582 0.333357 0.786614
Si Si3 0.618199 0.815461 0.298455
Si Si4 0.500000 0.420497 0.214900
Si Si5 0.304582 0.333357 0.213386
Si Si6 0.377460 0.078540 0.000000
Si Si7 0.114136 0.579255 0.214654
Si Si8 0.618199 0.815461 0.701545
O O1 0.798800 0.369051 0.726630
O O2 0.864125 0.500000 0.732989
O O3 1.000000 0.403488 0.729688
O O4 0.885294 0.420173 0.000000
O O5 0.400054 0.379552 0.729233
O O6 0.201200 0.369051 0.726630
O O7 0.321247 0.255202 0.726878
O O8 0.304981 0.332957 1.000000
O O9 0.678753 0.744798 0.273122
O O10 0.651739 0.876091 0.168872
O O11 0.623450 0.837853 0.500000
O O12 0.500000 0.799470 0.256867
O O13 0.500000 0.500000 0.272247
O O14 0.400054 0.379552 0.270767
O O15 0.500000 0.421012 0.000000
O O16 0.500000 0.075035 0.000000
O O17 0.348261 0.123909 0.831128
O O18 0.340050 0.000000 0.000000
#
# Coordination Sequence:
#
# PCOD9309926 Si02
#       8
#     4   4   4   4   4   4   4   4
#     4   8  14  24  39  62  90 121 162 208 247 281
#     4  10  16  25  43  62  90 125 158 196 238 280
#     4  10  19  30  46  68  97 128 156 188 232 278
#     4   9  16  22  35  61  85 115 161 200 233 278
#     4  10  16  25  43  62  90 125 158 196 238 280
#     4   9  18  32  50  70  95 126 159 189 220 270
#     4   8  14  24  39  62  90 121 162 208 247 281
#     4  10  19  30  46  68  97 128 156 188 232 278
#
# _framework density 16.401934000000001
#
# number of rings (size 3 to 8) (size 9 to 14) (size 15 to 20)
#    0.000    2.750    2.500    1.500    0.000    3.500 
#    0.000    2.500    0.000    4.500    0.000    1.750 
#    0.000    2.000    0.000    2.250    0.000    0.250 
#
# Total GULP energy -178475.756949 kJ/mol
# GULP energy per Si atom -5577.367405 kJ/mol
# Density = 1.636460 g / cm^3
# Si number density = 16.401934 Si / 1000 Ang^3
#
#
#
# Elastic Constant Matrix: (Units=GPa)
#
#
# Indices 1 2 3 4 5 6 
#
# 1 88.1870 67.7385 26.7735 0.0000 0.0000 0.0000
# 2 67.7385 157.1638 43.0208 0.0000 0.0000 0.0000
# 3 26.7735 43.0208 56.0226 0.0000 0.0000 0.0000
# 4 0.0000 0.0000 0.0000 -13.4247 0.0000 0.0000
# 5 0.0000 0.0000 0.0000 0.0000 0.8856 0.0000
# 6 0.0000 0.0000 0.0000 0.0000 0.0000 15.3029
#
#
#
# Elastic Compliance Matrix: (Units=1/GPa)
#
#
# Indices 1 2 3 4 5 6 
#
# 1 0.017403 -0.006615 -0.003238 0.000000 0.000000 0.000000
# 2 -0.006615 0.010570 -0.004956 0.000000 0.000000 0.000000
# 3 -0.003238 -0.004956 0.023203 0.000000 0.000000 0.000000
# 4 0.000000 0.000000 0.000000 -0.074490 0.000000 0.000000
# 5 0.000000 0.000000 0.000000 0.000000 1.129117 0.000000
# 6 0.000000 0.000000 0.000000 0.000000 0.000000 0.065347
#
#
# Mechanical properties :
#
#
# Convention : Reuss Voigt Hill
#
# Bulk Modulus (GPa) = 46.38185 64.04878 55.21532
# Shear Modulus (GPa) = 4.13923 11.47548 7.80735
#
# Velocity S-wave (km/s) = 1.59031 2.64794 2.18411
# Velocity P-wave (km/s) = 5.63132 6.96298 6.33226
#
# Compressibility (1/GPa) = 0.02156016
#
# Stress axis : x y z
#
# Youngs Moduli (GPa) = 57.45999 94.60386 43.09792
#
# Poissons Ratio (x) = 0.62578 0.13953
# Poissons Ratio (y) = 0.38008 0.21359
# Poissons Ratio (z) = 0.18603 0.46886
#
# Static dielectric constant tensor:
#      x y z
#    x 1.539290 0.000000 0.000000 
#    y 0.000000 1.519310 0.000000 
#    z 0.000000 0.000000 1.607460 
# 
# From -- ./inp_files/4911.got.cif
#   From: 2010.05.17/outbox.cif.g08.bks.cpg/sg16_3_cif.got.tgz:4911.got - 2010.06.03 22:28:35.
