data_PCOD9309883
_publ_section_title
;
Structure prediction by ZEFSAII (Michael W. Deem and Ramdas Pophale) SiO2 
 PCOD9309883
Probable space group: C 2/C
;
_chemical_formula_sum "Si O2"
_cell_formula_units_Z 26
_cell_length_a 18.000000
_cell_length_b 15.000000
_cell_length_c 15.000000
_cell_angle_alpha 90.000000
_cell_angle_beta 40.000000
_cell_angle_gamma 90.000000
_cell_volume 2603.289819
_symmetry_space_group_name_H-M "C 2/C"
_symmetry_group_IT_number 15
_symmetry_cell_setting 'monoclinic'
loop_
_space_group_symop_operation_xyz
x,y,z
-x,y,1/2-z
-x,-y,-z
x,-y,1/2+z
1/2+x,1/2+y,z
1/2-x,1/2+y,1/2-z
1/2-x,1/2-y,-z
1/2+x,1/2-y,1/2+z
loop_
_atom_site_type_symbol
_atom_site_label
_atom_site_fract_x
_atom_site_fract_y
_atom_site_fract_z
Si Si1 0.500000 0.998347 0.750000
Si Si2 0.550395 0.734240 0.108083
Si Si3 0.217458 0.608811 0.488085
Si Si4 0.963379 0.580970 0.099011
Si Si5 0.205455 0.903211 0.777912
Si Si6 0.175175 0.085314 0.912655
Si Si7 0.370604 0.202919 0.643315
O O1 0.553222 0.944623 0.783203
O O2 0.599627 0.053830 0.609300
O O3 0.500000 0.707323 0.250000
O O4 0.668248 0.790942 0.014046
O O5 0.457065 0.798457 0.148432
O O6 0.565950 0.650107 0.028102
O O7 0.293467 0.583004 0.331266
O O8 0.279063 0.588868 0.526295
O O9 0.840743 0.609124 0.174450
O O10 0.000000 0.500000 0.000000
O O11 0.060409 0.655987 0.999272
O O12 0.156261 0.806178 0.847349
O O13 0.163206 0.988713 0.875906
O O14 0.263155 0.141895 0.770440
#
# Coordination Sequence:
#
# PCOD9309883 Si02
#       7
#     4   8   8   8   8   8   8
#     4  12  20  34  66  92 116 156 216 264 308 368
#     4  12  22  36  64  97 126 160 207 274 334 368
#     4  12  19  36  65  99 121 156 212 273 317 363
#     4  12  21  40  64  93 124 167 214 261 310 373
#     4  12  25  39  65  96 128 168 210 262 324 384
#     4  12  23  40  63  94 134 166 210 269 319 384
#     4  12  22  40  63  93 133 165 212 262 321 380
#
# _framework density 9.9873630000000002
#
# number of rings (size 3 to 8) (size 9 to 14) (size 15 to 20)
#    0.000    0.000   10.000    1.385    0.000    0.615 
#    0.000    0.769    5.077    0.000    0.000    0.000 
#    0.000    0.000    0.000    0.000    0.000    0.000 
#
# Total GULP energy -145127.933304 kJ/mol
# GULP energy per Si atom -5581.843589 kJ/mol
# Density = 0.996463 g / cm^3
# Si number density = 9.987363 Si / 1000 Ang^3
#
#
#
# Elastic Constant Matrix: (Units=GPa)
#
#
# Indices 1 2 3 4 5 6 
#
# 1 58.9158 32.2724 8.4644 0.0000 7.9010 0.0000
# 2 32.2724 137.8562 51.7285 0.0000 18.2777 0.0000
# 3 8.4644 51.7285 80.3415 0.0000 24.2033 0.0000
# 4 0.0000 0.0000 0.0000 40.9582 0.0000 -0.2212
# 5 7.9010 18.2777 24.2033 0.0000 33.8353 0.0000
# 6 0.0000 0.0000 0.0000 -0.2212 0.0000 29.3112
#
#
#
# Elastic Compliance Matrix: (Units=1/GPa)
#
#
# Indices 1 2 3 4 5 6 
#
# 1 0.019872 -0.005008 0.002185 0.000000 -0.003498 0.000000
# 2 -0.005008 0.010852 -0.006432 0.000000 -0.000092 0.000000
# 3 0.002185 -0.006432 0.019713 0.000000 -0.011137 0.000000
# 4 0.000000 0.000000 0.000000 0.024416 0.000000 0.000184
# 5 -0.003498 -0.000092 -0.011137 0.000000 0.038388 0.000000
# 6 0.000000 0.000000 0.000000 0.000184 0.000000 0.034118
#
#
# Mechanical properties :
#
#
# Convention : Reuss Voigt Hill
#
# Bulk Modulus (GPa) = 31.32225 51.33823 41.33024
# Shear Modulus (GPa) = 28.32678 33.13081 30.72879
#
# Velocity S-wave (km/s) = 3.76989 4.07705 3.92648
# Velocity P-wave (km/s) = 5.88765 6.92247 6.42592
#
# Compressibility (1/GPa) = 0.03192618
#
# Stress axis : x y z
#
# Youngs Moduli (GPa) = 50.32244 92.14936 50.72809
#
# Poissons Ratio (x) = 0.46149 -0.11082
# Poissons Ratio (y) = 0.25202 0.32627
# Poissons Ratio (z) = -0.10993 0.59269
#
# Static dielectric constant tensor:
#      x y z
#    x 1.772470 0.000000 -0.057440 
#    y 0.000000 1.760650 0.000000 
#    z -0.057440 0.000000 1.730400 
# 
# From -- ./inp_files/105220.got.cif
#   From: 2010.05.17/outbox.ucp.g08.bks.cvg/sg15_53_cif.got.tgz:105220.got - 2010.06.11 12:40:34.
