data_PCOD9309362
_publ_section_title
;
Structure prediction by ZEFSAII (Michael W. Deem and Ramdas Pophale) SiO2 
 PCOD9309362
Probable space group: C 2/C
;
_chemical_formula_sum "Si O2"
_cell_formula_units_Z 32
_cell_length_a 18.000000
_cell_length_b 21.000000
_cell_length_c 24.000000
_cell_angle_alpha 90.000000
_cell_angle_beta 160.000000
_cell_angle_gamma 90.000000
_cell_volume 3102.806740
_symmetry_space_group_name_H-M "C 2/C"
_symmetry_group_IT_number 15
_symmetry_cell_setting 'monoclinic'
loop_
_space_group_symop_operation_xyz
x,y,z
-x,y,1/2-z
-x,-y,-z
x,-y,1/2+z
1/2+x,1/2+y,z
1/2-x,1/2+y,1/2-z
1/2-x,1/2-y,-z
1/2+x,1/2-y,1/2+z
loop_
_atom_site_type_symbol
_atom_site_label
_atom_site_fract_x
_atom_site_fract_y
_atom_site_fract_z
Si Si1 0.260995 0.418431 0.610157
Si Si2 0.937914 0.652600 0.266345
Si Si3 0.132859 0.960792 0.243235
Si Si4 0.703926 0.923136 0.264759
Si Si5 0.482882 0.688312 0.467828
Si Si6 0.280879 0.987116 0.621674
Si Si7 0.267033 0.348189 0.099817
Si Si8 0.177317 0.685189 0.145922
O O1 0.500000 0.414909 0.750000
O O2 0.256196 0.482804 0.643743
O O3 0.224249 0.365090 0.630878
O O4 0.058574 0.414304 0.424039
O O5 0.740921 0.691805 0.154352
O O6 0.835414 0.584099 0.179710
O O7 0.000000 0.679020 0.250000
O O8 0.141898 0.642633 0.451910
O O9 0.242133 0.940013 0.261705
O O10 0.141874 0.904578 0.295344
O O11 0.899744 0.983874 0.054291
O O12 0.862102 0.866943 0.397926
O O13 0.763406 0.976746 0.352017
O O14 0.376972 0.682567 0.331209
O O15 0.632845 0.749178 0.582875
O O16 0.500000 0.015571 0.750000
O O17 0.500000 0.314940 0.250000
O O18 0.053805 0.325771 0.984939
#
# Coordination Sequence:
#
# PCOD9309362 Si02
#       8
#     8   8   8   8   8   8   8   8
#     4  12  26  45  68 100 135 177 225 284 338 402
#     4  10  22  39  63  96 135 173 220 267 337 402
#     4  12  23  40  66  99 141 170 225 271 345 405
#     4  12  24  41  68  96 136 177 226 273 347 399
#     4  11  25  45  69  94 130 180 223 285 332 397
#     4  11  22  37  61  98 138 176 220 276 328 408
#     4  11  23  39  65  99 135 177 214 275 334 405
#     4  11  26  46  68  96 133 176 234 276 337 400
#
# _framework density 10.313243
#
# number of rings (size 3 to 8) (size 9 to 14) (size 15 to 20)
#    0.000    0.750    2.500    5.625    3.500    0.500 
#    0.000    5.625    0.000    0.000    0.000    0.000 
#    0.000    0.000    0.000    0.000    0.000    0.000 
#
# Total GULP energy -178381.469170 kJ/mol
# GULP energy per Si atom -5574.420912 kJ/mol
# Density = 1.028977 g / cm^3
# Si number density = 10.313243 Si / 1000 Ang^3
#
#
#
# Elastic Constant Matrix: (Units=GPa)
#
#
# Indices 1 2 3 4 5 6 
#
# 1 88.3110 47.4982 34.3277 -0.0171 -20.5441 0.0370
# 2 47.4982 101.2437 39.3325 -0.0755 -7.3466 0.0993
# 3 34.3277 39.3325 198.7585 -0.2647 -25.1701 0.0640
# 4 -0.0171 -0.0755 -0.2647 18.1170 0.0284 0.7083
# 5 -20.5441 -7.3466 -25.1701 0.0284 46.1965 0.0235
# 6 0.0370 0.0993 0.0640 0.7083 0.0235 -10.9885
#
#
#
# Elastic Compliance Matrix: (Units=1/GPa)
#
#
# Indices 1 2 3 4 5 6 
#
# 1 0.016864 -0.007194 -0.000735 -0.000034 0.005955 -0.000002
# 2 -0.007194 0.013784 -0.001732 0.000025 -0.001951 0.000088
# 3 -0.000735 -0.001732 0.005827 0.000072 0.002572 0.000026
# 4 -0.000034 0.000025 0.000072 0.055059 -0.000008 0.003550
# 5 0.005955 -0.001951 0.002572 -0.000008 0.025386 0.000071
# 6 -0.000002 0.000088 0.000026 0.003550 0.000071 -0.090774
#
#
# Mechanical properties :
#
#
# Convention : Reuss Voigt Hill
#
# Bulk Modulus (GPa) = 58.30230 70.07000 64.18615
# Shear Modulus (GPa) = 97.68395 28.47531 63.07963
#
# Velocity S-wave (km/s) = 6.88922 3.71957 5.53609
# Velocity P-wave (km/s) = 9.57125 7.24511 8.48824
#
# Compressibility (1/GPa) = 0.01715198
#
# Stress axis : x y z
#
# Youngs Moduli (GPa) = 59.29793 72.55024 171.62117
#
# Poissons Ratio (x) = 0.52193 0.12612
# Poissons Ratio (y) = 0.42660 0.29729
# Poissons Ratio (z) = 0.04357 0.12567
#
# Static dielectric constant tensor:
#      x y z
#    x 1.795220 0.000070 0.072050 
#    y 0.000070 1.858490 0.000000 
#    z 0.072050 0.000000 1.734210 
# 
# From -- ./inp_files/278130.got.cif
#   From: 2010.05.17/outbox.ucp.g08.bks.cvg/sg15_140_cif.got.tgz:278130.got - 2010.06.11 12:40:34.
