data_PCOD9309590
_publ_section_title
;
Structure prediction by ZEFSAII (Michael W. Deem and Ramdas Pophale) SiO2 
 PCOD9309590
Probable space group: C 2/C
;
_chemical_formula_sum "Si O2"
_cell_formula_units_Z 20
_cell_length_a 12.000000
_cell_length_b 18.000000
_cell_length_c 9.000000
_cell_angle_alpha 90.000000
_cell_angle_beta 100.000000
_cell_angle_gamma 90.000000
_cell_volume 1914.466272
_symmetry_space_group_name_H-M "C 2/C"
_symmetry_group_IT_number 15
_symmetry_cell_setting 'monoclinic'
loop_
_space_group_symop_operation_xyz
x,y,z
-x,y,1/2-z
-x,-y,-z
x,-y,1/2+z
1/2+x,1/2+y,z
1/2-x,1/2+y,1/2-z
1/2-x,1/2-y,-z
1/2+x,1/2-y,1/2+z
loop_
_atom_site_type_symbol
_atom_site_label
_atom_site_fract_x
_atom_site_fract_y
_atom_site_fract_z
Si Si1 0.313322 0.964011 0.244069
Si Si2 0.867846 0.394615 0.934853
Si Si3 0.214964 0.182435 0.178564
Si Si4 0.580233 0.459543 0.634094
Si Si5 0.610109 0.173522 0.541053
O O1 0.340742 0.899482 0.366986
O O2 0.376833 0.038615 0.315550
O O3 0.181358 0.986440 0.209980
O O4 0.345388 0.934896 0.087508
O O5 0.763591 0.344859 0.848662
O O6 0.979685 0.345020 0.978225
O O7 0.141814 0.114836 0.094248
O O8 0.140366 0.256636 0.153735
O O9 0.323827 0.190378 0.096617
O O10 0.500000 0.437034 0.750000
O O11 0.500000 0.500000 0.500000
#
# Coordination Sequence:
#
# PCOD9309590 Si02
#       5
#     8   8   8   8   8
#     4  11  23  40  65  96 123 160 216 260 309 378
#     4  11  23  42  67  94 128 164 208 263 313 367
#     4  10  24  42  61  92 127 165 214 253 309 384
#     4  11  22  39  61  85 121 163 205 257 308 365
#     4  11  23  41  64  91 129 168 203 260 318 367
#
# _framework density 10.446776
#
# number of rings (size 3 to 8) (size 9 to 14) (size 15 to 20)
#    0.000    1.200    0.000    7.800    0.000    7.200 
#    0.000    2.000    0.000    0.000    0.000    0.000 
#    0.000    0.000    0.000    0.000    0.000    0.000 
#
# Total GULP energy -111847.897208 kJ/mol
# GULP energy per Si atom -5592.394860 kJ/mol
# Density = 1.042300 g / cm^3
# Si number density = 10.446776 Si / 1000 Ang^3
#
#
#
# Elastic Constant Matrix: (Units=GPa)
#
#
# Indices 1 2 3 4 5 6 
#
# 1 109.5814 40.1414 26.6564 0.0000 24.8072 0.0000
# 2 40.1414 123.3319 21.4895 0.0000 40.7238 0.0000
# 3 26.6564 21.4895 71.4842 0.0000 12.2740 0.0000
# 4 0.0000 0.0000 0.0000 30.0732 0.0000 5.8460
# 5 24.8072 40.7238 12.2740 0.0000 45.7154 0.0000
# 6 0.0000 0.0000 0.0000 5.8460 0.0000 33.6399
#
#
#
# Elastic Compliance Matrix: (Units=1/GPa)
#
#
# Indices 1 2 3 4 5 6 
#
# 1 0.011410 -0.001997 -0.003037 0.000000 -0.003598 0.000000
# 2 -0.001997 0.012056 -0.001281 0.000000 -0.009312 0.000000
# 3 -0.003037 -0.001281 0.015754 0.000000 -0.001441 0.000000
# 4 0.000000 0.000000 0.000000 0.034415 0.000000 -0.005981
# 5 -0.003598 -0.009312 -0.001441 0.000000 0.032509 0.000000
# 6 0.000000 0.000000 0.000000 -0.005981 0.000000 0.030766
#
#
# Mechanical properties :
#
#
# Convention : Reuss Voigt Hill
#
# Bulk Modulus (GPa) = 37.60572 53.44134 45.52353
# Shear Modulus (GPa) = 31.56507 36.29305 33.92906
#
# Velocity S-wave (km/s) = 3.89106 4.17231 4.03414
# Velocity P-wave (km/s) = 6.18263 6.98887 6.59808
#
# Compressibility (1/GPa) = 0.02659170
#
# Stress axis : x y z
#
# Youngs Moduli (GPa) = 87.64061 82.94516 63.47594
#
# Poissons Ratio (x) = 0.16561 0.19277
# Poissons Ratio (y) = 0.17499 0.08130
# Poissons Ratio (z) = 0.26616 0.10624
#
# Static dielectric constant tensor:
#      x y z
#    x 1.680990 0.000000 0.057200 
#    y 0.000000 1.748150 0.000000 
#    z 0.057200 0.000000 1.653770 
# 
# From -- ./inp_files/29095.got.cif
#   From: 2010.05.17/outbox.ucp.g08.bks.cvg/sg15_15_cif.got.tgz:29095.got - 2010.06.11 12:40:34.
