data_PCOD9309302
_publ_section_title
;
Structure prediction by ZEFSAII (Michael W. Deem and Ramdas Pophale) SiO2 
 PCOD9309302
Probable space group: C 2/C
;
_chemical_formula_sum "Si O2"
_cell_formula_units_Z 24
_cell_length_a 15.000000
_cell_length_b 12.000000
_cell_length_c 15.000000
_cell_angle_alpha 90.000000
_cell_angle_beta 120.000000
_cell_angle_gamma 90.000000
_cell_volume 2338.268590
_symmetry_space_group_name_H-M "C 2/C"
_symmetry_group_IT_number 15
_symmetry_cell_setting 'monoclinic'
loop_
_space_group_symop_operation_xyz
x,y,z
-x,y,1/2-z
-x,-y,-z
x,-y,1/2+z
1/2+x,1/2+y,z
1/2-x,1/2+y,1/2-z
1/2-x,1/2-y,-z
1/2+x,1/2-y,1/2+z
loop_
_atom_site_type_symbol
_atom_site_label
_atom_site_fract_x
_atom_site_fract_y
_atom_site_fract_z
Si Si1 0.476413 0.521230 0.843866
Si Si2 0.131040 0.161897 0.461195
Si Si3 0.590114 0.931037 0.728271
Si Si4 0.666760 0.177645 0.820855
Si Si5 0.317538 0.333998 0.839338
Si Si6 0.501727 0.243954 0.048735
O O1 0.500000 0.523179 0.750000
O O2 0.574835 0.456785 0.933557
O O3 0.382613 0.440140 0.830477
O O4 0.468918 0.647845 0.875690
O O5 0.241497 0.145264 0.563877
O O6 0.119315 0.222260 0.359051
O O7 0.070188 0.244812 0.494997
O O8 0.500000 0.897707 0.750000
O O9 0.702464 0.877120 0.803693
O O10 0.540504 0.871812 0.614219
O O11 0.609046 0.065135 0.756381
O O12 0.697259 0.242849 0.746434
O O13 0.386049 0.274098 0.952217
#
# Coordination Sequence:
#
# PCOD9309302 Si02
#       6
#     8   8   8   8   8   8
#     4  11  21  40  74 104 135 178 238 298 343 416
#     4  10  21  43  72 106 131 190 247 288 337 435
#     4  12  28  46  67 105 154 186 230 304 362 421
#     4  11  23  44  73 100 143 181 241 290 357 416
#     4  11  24  45  71 101 140 189 237 293 351 426
#     4  11  24  43  70 104 142 183 237 285 363 426
#
# _framework density 10.264004999999999
#
# number of rings (size 3 to 8) (size 9 to 14) (size 15 to 20)
#    0.000    1.000    3.333    4.500    4.667    1.333 
#    0.000    1.667    0.000    0.000    0.000    0.000 
#    0.000    0.000    0.000    0.000    0.000    0.000 
#
# Total GULP energy -133695.098955 kJ/mol
# GULP energy per Si atom -5570.629123 kJ/mol
# Density = 1.024064 g / cm^3
# Si number density = 10.264005 Si / 1000 Ang^3
#
#
#
# Elastic Constant Matrix: (Units=GPa)
#
#
# Indices 1 2 3 4 5 6 
#
# 1 95.4717 17.2179 27.6901 0.0000 13.1075 0.0000
# 2 17.2179 102.8271 36.6895 0.0000 -1.1306 0.0000
# 3 27.6901 36.6895 96.1282 0.0000 4.9915 0.0000
# 4 0.0000 0.0000 0.0000 43.8801 0.0000 2.5010
# 5 13.1075 -1.1306 4.9915 0.0000 29.1136 0.0000
# 6 0.0000 0.0000 0.0000 2.5010 0.0000 16.6460
#
#
#
# Elastic Compliance Matrix: (Units=1/GPa)
#
#
# Indices 1 2 3 4 5 6 
#
# 1 0.012184 -0.001084 -0.002834 0.000000 -0.005042 0.000000
# 2 -0.001084 0.011395 -0.004122 0.000000 0.001637 0.000000
# 3 -0.002834 -0.004122 0.012849 0.000000 -0.001087 0.000000
# 4 0.000000 0.000000 0.000000 0.022986 0.000000 -0.003454
# 5 -0.005042 0.001637 -0.001087 0.000000 0.036868 0.000000
# 6 0.000000 0.000000 0.000000 -0.003454 0.000000 0.060593
#
#
# Mechanical properties :
#
#
# Convention : Reuss Voigt Hill
#
# Bulk Modulus (GPa) = 49.14604 50.84687 49.99646
# Shear Modulus (GPa) = 27.81811 32.11658 29.96734
#
# Velocity S-wave (km/s) = 3.68520 3.95970 3.82491
# Velocity P-wave (km/s) = 6.48849 6.76231 6.62682
#
# Compressibility (1/GPa) = 0.02034752
#
# Stress axis : x y z
#
# Youngs Moduli (GPa) = 82.07479 87.75470 77.82830
#
# Poissons Ratio (x) = 0.09516 0.22056
# Poissons Ratio (y) = 0.08900 0.32081
# Poissons Ratio (z) = 0.23260 0.36172
#
# Static dielectric constant tensor:
#      x y z
#    x 1.796800 0.000000 0.010700 
#    y 0.000000 1.727430 0.000000 
#    z 0.010700 0.000000 1.802580 
# 
# From -- ./inp_files/152740.got.cif
#   From: 2010.05.17/outbox.ucp.g08.bks.cvg/sg15_77_cif.got.tgz:152740.got - 2010.06.11 12:40:34.
