data_PCOD9309805
_publ_section_title
;
Structure prediction by ZEFSAII (Michael W. Deem and Ramdas Pophale) SiO2 
 PCOD9309805
Probable space group: C 2/C
;
_chemical_formula_sum "Si O2"
_cell_formula_units_Z 24
_cell_length_a 12.000000
_cell_length_b 9.000000
_cell_length_c 24.000000
_cell_angle_alpha 90.000000
_cell_angle_beta 80.000000
_cell_angle_gamma 90.000000
_cell_volume 2552.621696
_symmetry_space_group_name_H-M "C 2/C"
_symmetry_group_IT_number 15
_symmetry_cell_setting 'monoclinic'
loop_
_space_group_symop_operation_xyz
x,y,z
-x,y,1/2-z
-x,-y,-z
x,-y,1/2+z
1/2+x,1/2+y,z
1/2-x,1/2+y,1/2-z
1/2-x,1/2-y,-z
1/2+x,1/2-y,1/2+z
loop_
_atom_site_type_symbol
_atom_site_label
_atom_site_fract_x
_atom_site_fract_y
_atom_site_fract_z
Si Si1 0.485769 0.687698 0.859047
Si Si2 0.244086 0.715120 0.933087
Si Si3 0.072031 0.661659 0.688321
Si Si4 0.108637 0.486260 0.366457
Si Si5 0.151374 0.987174 0.714205
Si Si6 0.193957 0.023810 0.343742
O O1 0.374836 0.681815 0.906894
O O2 0.428903 0.620622 0.805175
O O3 0.586911 0.578753 0.868894
O O4 0.544954 0.853037 0.860313
O O5 0.161793 0.576388 0.920760
O O6 0.210665 0.846647 0.889712
O O7 0.250000 0.750000 0.000000
O O8 0.106240 0.833930 0.691383
O O9 0.186449 0.565554 0.670305
O O10 0.000000 0.618830 0.750000
O O11 0.985594 0.630602 0.645723
O O12 0.220916 0.483267 0.317956
O O13 0.163343 0.950990 0.779818
#
# Coordination Sequence:
#
# PCOD9309805 Si02
#       6
#     8   8   8   8   8   8
#     4  11  24  43  67  98 130 169 221 281 334 401
#     4  11  27  48  69  93 130 185 235 278 328 388
#     4  12  22  38  64  96 137 177 208 268 345 414
#     4  11  23  42  68  99 133 170 222 272 333 403
#     4  11  24  39  66 101 140 171 210 269 350 411
#     4  12  24  41  66  98 136 177 217 276 338 399
#
# _framework density 9.4020980000000005
#
# number of rings (size 3 to 8) (size 9 to 14) (size 15 to 20)
#    0.000    0.667    5.000    3.500    2.333    4.000 
#    0.000    0.833    0.000    0.000    0.000    0.000 
#    0.000    0.000    0.000    0.000    0.000    0.000 
#
# Total GULP energy -133632.792072 kJ/mol
# GULP energy per Si atom -5568.033003 kJ/mol
# Density = 0.938070 g / cm^3
# Si number density = 9.402098 Si / 1000 Ang^3
#
#
#
# Elastic Constant Matrix: (Units=GPa)
#
#
# Indices 1 2 3 4 5 6 
#
# 1 179.7305 52.4327 38.9897 0.0000 4.0656 0.0000
# 2 52.4327 111.3760 39.5915 0.0000 14.8588 0.0000
# 3 38.9897 39.5915 116.6442 0.0000 12.5162 0.0000
# 4 0.0000 0.0000 0.0000 25.6545 0.0000 7.9584
# 5 4.0656 14.8588 12.5162 0.0000 37.7383 0.0000
# 6 0.0000 0.0000 0.0000 7.9584 0.0000 54.9208
#
#
#
# Elastic Compliance Matrix: (Units=1/GPa)
#
#
# Indices 1 2 3 4 5 6 
#
# 1 0.006646 -0.002749 -0.001377 0.000000 0.000823 0.000000
# 2 -0.002749 0.011681 -0.002679 0.000000 -0.003414 0.000000
# 3 -0.001377 -0.002679 0.010176 0.000000 -0.002172 0.000000
# 4 0.000000 0.000000 0.000000 0.040814 0.000000 -0.005914
# 5 0.000823 -0.003414 -0.002172 0.000000 0.028474 0.000000
# 6 0.000000 0.000000 0.000000 -0.005914 0.000000 0.019065
#
#
# Mechanical properties :
#
#
# Convention : Reuss Voigt Hill
#
# Bulk Modulus (GPa) = 67.15032 74.41984 70.78508
# Shear Modulus (GPa) = 36.91936 42.11183 39.51559
#
# Velocity S-wave (km/s) = 4.43579 4.73746 4.58910
# Velocity P-wave (km/s) = 7.87545 8.34187 8.11201
#
# Compressibility (1/GPa) = 0.01489196
#
# Stress axis : x y z
#
# Youngs Moduli (GPa) = 150.46824 85.61074 98.27320
#
# Poissons Ratio (x) = 0.23536 0.13529
# Poissons Ratio (y) = 0.41366 0.26331
# Poissons Ratio (z) = 0.20715 0.22939
#
# Static dielectric constant tensor:
#      x y z
#    x 1.659170 0.000000 -0.000460 
#    y 0.000000 1.723180 0.000000 
#    z -0.000460 0.000000 1.682070 
# 
# From -- ./inp_files/267666.got.cif
#   From: 2010.05.17/outbox.ucp.g08.bks.cvg/sg15_134_cif.got.tgz:267666.got - 2010.06.11 12:40:34.
