data_PCOD9309001
_publ_section_title
;
Structure prediction by ZEFSAII (Michael W. Deem and Ramdas Pophale) SiO2 
 PCOD9309001
Probable space group: C 2/C
;
_chemical_formula_sum "Si O2"
_cell_formula_units_Z 30
_cell_length_a 12.000000
_cell_length_b 18.000000
_cell_length_c 30.000000
_cell_angle_alpha 90.000000
_cell_angle_beta 30.000000
_cell_angle_gamma 90.000000
_cell_volume 3240.000000
_symmetry_space_group_name_H-M "C 2/C"
_symmetry_group_IT_number 15
_symmetry_cell_setting 'monoclinic'
loop_
_space_group_symop_operation_xyz
x,y,z
-x,y,1/2-z
-x,-y,-z
x,-y,1/2+z
1/2+x,1/2+y,z
1/2-x,1/2+y,1/2-z
1/2-x,1/2-y,-z
1/2+x,1/2-y,1/2+z
loop_
_atom_site_type_symbol
_atom_site_label
_atom_site_fract_x
_atom_site_fract_y
_atom_site_fract_z
Si Si1 0.590596 0.182596 0.476196
Si Si2 0.878936 0.594184 0.125874
Si Si3 0.896628 0.936555 0.447095
Si Si4 0.000000 0.029682 0.750000
Si Si5 0.569417 0.347007 0.153562
Si Si6 0.913915 0.679282 0.205411
Si Si7 0.552535 0.352492 0.978813
Si Si8 0.980689 0.891847 0.903051
O O1 0.641888 0.141722 0.411966
O O2 0.330888 0.162927 0.576934
O O3 0.566908 0.271465 0.475524
O O4 0.776979 0.150710 0.446845
O O5 0.708691 0.526088 0.181073
O O6 0.848506 0.648895 0.178788
O O7 0.128127 0.561521 0.043294
O O8 0.943458 0.874368 0.393128
O O9 0.982911 0.905625 0.465414
O O10 0.974279 0.017634 0.402043
O O11 0.988568 0.085468 0.712154
O O12 0.436238 0.268905 0.203867
O O13 0.718436 0.643477 0.304022
O O14 0.175706 0.655315 0.120375
O O15 0.463476 0.380976 0.962270
#
# Coordination Sequence:
#
# PCOD9309001 Si02
#       8
#     8   8   8   4   8   8   8   8
#     4  10  21  38  62  86 119 151 201 242 296 346
#     4  10  20  38  60  89 114 157 192 247 294 354
#     4  10  21  40  61  84 118 158 203 235 291 356
#     4  12  22  34  62  94 128 142 198 256 312 338
#     4  10  22  38  61  89 118 156 192 245 299 361
#     4  10  22  38  62  84 120 155 197 236 301 353
#     4  10  22  39  60  84 118 163 199 234 287 364
#     4  12  22  36  61  90 120 153 195 252 292 341
#
# _framework density 9.2592590000000001
#
# number of rings (size 3 to 8) (size 9 to 14) (size 15 to 20)
#    0.000    1.600    0.000    5.200    3.733    5.333 
#    2.400    0.000    5.867    0.000    0.000    0.000 
#    0.000    0.000    0.000    0.000    0.000    0.000 
#
# Total GULP energy -167284.913934 kJ/mol
# GULP energy per Si atom -5576.163798 kJ/mol
# Density = 0.923818 g / cm^3
# Si number density = 9.259259 Si / 1000 Ang^3
#
#
#
# Elastic Constant Matrix: (Units=GPa)
#
#
# Indices 1 2 3 4 5 6 
#
# 1 129.8408 41.6018 29.3877 -0.0040 7.3185 0.0004
# 2 41.6018 143.4683 48.4466 -0.0094 -5.2561 0.0008
# 3 29.3877 48.4466 70.8870 0.0020 5.9968 -0.0026
# 4 -0.0040 -0.0094 0.0020 44.3027 -0.0049 2.9711
# 5 7.3185 -5.2561 5.9968 -0.0049 21.8094 0.0001
# 6 0.0004 0.0008 -0.0026 2.9711 0.0001 37.3497
#
#
#
# Elastic Compliance Matrix: (Units=1/GPa)
#
#
# Indices 1 2 3 4 5 6 
#
# 1 0.008985 -0.001999 -0.002112 0.000000 -0.002916 0.000000
# 2 -0.001999 0.009856 -0.006312 0.000003 0.004782 -0.000001
# 3 -0.002112 -0.006312 0.019826 -0.000003 -0.006264 0.000002
# 4 0.000000 0.000003 -0.000003 0.022693 0.000007 -0.001805
# 5 -0.002916 0.004782 -0.006264 0.000007 0.049705 -0.000001
# 6 0.000000 -0.000001 0.000002 -0.001805 -0.000001 0.026918
#
#
# Mechanical properties :
#
#
# Convention : Reuss Voigt Hill
#
# Bulk Modulus (GPa) = 56.11209 64.78538 60.44873
# Shear Modulus (GPa) = 30.34544 35.67636 33.01090
#
# Velocity S-wave (km/s) = 4.05242 4.39398 4.22665
# Velocity P-wave (km/s) = 7.22928 7.79761 7.51882
#
# Compressibility (1/GPa) = 0.01782147
#
# Stress axis : x y z
#
# Youngs Moduli (GPa) = 111.30186 101.45617 50.43809
#
# Poissons Ratio (x) = 0.20281 0.10652
# Poissons Ratio (y) = 0.22249 0.31837
# Poissons Ratio (z) = 0.23506 0.64040
#
# Static dielectric constant tensor:
#      x y z
#    x 1.645990 0.000000 0.020090 
#    y 0.000000 1.646720 0.000000 
#    z 0.020090 0.000000 1.654580 
# 
# From -- ./inp_files/311548.got.cif
#   From: 2010.05.17/outbox.ucp.g08.bks.cvg/sg15_156_cif.got.tgz:311548.got - 2010.06.11 12:40:34.
