data_PCOD9309257
_publ_section_title
;
Structure prediction by ZEFSAII (Michael W. Deem and Ramdas Pophale) SiO2 
 PCOD9309257
Probable space group: C 2/C
;
_chemical_formula_sum "Si O2"
_cell_formula_units_Z 24
_cell_length_a 15.000000
_cell_length_b 9.000000
_cell_length_c 27.000000
_cell_angle_alpha 90.000000
_cell_angle_beta 40.000000
_cell_angle_gamma 90.000000
_cell_volume 2342.960837
_symmetry_space_group_name_H-M "C 2/C"
_symmetry_group_IT_number 15
_symmetry_cell_setting 'monoclinic'
loop_
_space_group_symop_operation_xyz
x,y,z
-x,y,1/2-z
-x,-y,-z
x,-y,1/2+z
1/2+x,1/2+y,z
1/2-x,1/2+y,1/2-z
1/2-x,1/2-y,-z
1/2+x,1/2-y,1/2+z
loop_
_atom_site_type_symbol
_atom_site_label
_atom_site_fract_x
_atom_site_fract_y
_atom_site_fract_z
Si Si1 0.996915 0.162272 0.103112
Si Si2 0.845786 0.403963 0.903213
Si Si3 0.300224 0.564447 0.932028
Si Si4 0.401180 0.137789 0.026953
Si Si5 0.065495 0.641445 0.775527
Si Si6 0.833270 0.058829 0.604725
O O1 0.937175 0.245204 0.177228
O O2 0.909441 0.078419 0.098121
O O3 0.082146 0.025596 0.089616
O O4 0.074285 0.289761 0.037999
O O5 0.841020 0.227008 0.894422
O O6 0.731388 0.492763 0.918867
O O7 0.982974 0.493726 0.828874
O O8 0.814100 0.412269 0.975471
O O9 0.244715 0.448603 0.914836
O O10 0.404597 0.282519 0.061083
O O11 0.500000 0.000000 0.000000
O O12 0.217980 0.599742 0.693986
O O13 0.000000 0.692394 0.750000
#
# Coordination Sequence:
#
# PCOD9309257 Si02
#       6
#     8   8   8   8   8   8
#     4  12  24  41  68  95 131 171 217 270 323 385
#     4  10  21  41  66  96 127 169 211 266 320 386
#     4  11  22  38  68  96 128 164 217 265 323 379
#     4  12  25  41  66  98 131 170 217 272 323 385
#     4  10  23  45  66  90 132 179 217 264 329 388
#     4  11  25  43  64  97 136 170 216 270 326 389
#
# _framework density 10.243449
#
# number of rings (size 3 to 8) (size 9 to 14) (size 15 to 20)
#    0.000    1.000    3.333    4.000    4.667    2.667 
#    0.000    9.167    0.000    0.000    0.000    0.000 
#    0.000    0.000    0.000    0.000    0.000    0.000 
#
# Total GULP energy -133769.622158 kJ/mol
# GULP energy per Si atom -5573.734257 kJ/mol
# Density = 1.022013 g / cm^3
# Si number density = 10.243449 Si / 1000 Ang^3
#
#
#
# Elastic Constant Matrix: (Units=GPa)
#
#
# Indices 1 2 3 4 5 6 
#
# 1 30.6263 33.5429 15.4710 0.0000 9.7555 0.0002
# 2 33.5429 177.5510 52.8657 0.0000 7.7235 0.0002
# 3 15.4710 52.8657 90.7520 0.0000 10.3795 0.0000
# 4 0.0000 0.0000 0.0000 28.4611 0.0000 9.9026
# 5 9.7555 7.7235 10.3795 0.0000 20.8421 0.0000
# 6 0.0002 0.0002 0.0000 9.9026 0.0000 53.0072
#
#
#
# Elastic Compliance Matrix: (Units=1/GPa)
#
#
# Indices 1 2 3 4 5 6 
#
# 1 0.047928 -0.007796 -0.001478 0.000000 -0.018808 0.000000
# 2 -0.007796 0.008089 -0.003666 0.000000 0.002477 0.000000
# 3 -0.001478 -0.003666 0.013968 0.000000 -0.004906 0.000000
# 4 0.000000 0.000000 0.000000 0.037578 0.000000 -0.007020
# 5 -0.018808 0.002477 -0.004906 0.000000 0.058308 0.000000
# 6 0.000000 0.000000 0.000000 -0.007020 0.000000 0.020177
#
#
# Mechanical properties :
#
#
# Convention : Reuss Voigt Hill
#
# Bulk Modulus (GPa) = 22.67380 55.85428 39.26404
# Shear Modulus (GPa) = 22.06236 33.59873 27.83055
#
# Velocity S-wave (km/s) = 3.28518 4.05410 3.68972
# Velocity P-wave (km/s) = 5.04790 7.01690 6.11221
#
# Compressibility (1/GPa) = 0.04410376
#
# Stress axis : x y z
#
# Youngs Moduli (GPa) = 20.86462 123.62562 71.59337
#
# Poissons Ratio (x) = 0.96383 0.10580
# Poissons Ratio (y) = 0.16267 0.26248
# Poissons Ratio (z) = 0.03083 0.45325
#
# Static dielectric constant tensor:
#      x y z
#    x 1.873630 0.000000 -0.061000 
#    y 0.000000 1.704120 0.000000 
#    z -0.061000 0.000000 1.767730 
# 
# From -- ./inp_files/295405.got.cif
#   From: 2010.05.17/outbox.ucp.g08.bks.cvg/sg15_148_cif.got.tgz:295405.got - 2010.06.11 12:40:34.
