data_PCOD9309551
_publ_section_title
;
Structure prediction by ZEFSAII (Michael W. Deem and Ramdas Pophale) SiO2 
 PCOD9309551
Probable space group: C 2/C
;
_chemical_formula_sum "Si O2"
_cell_formula_units_Z 24
_cell_length_a 30.000000
_cell_length_b 6.000000
_cell_length_c 15.000000
_cell_angle_alpha 90.000000
_cell_angle_beta 60.000000
_cell_angle_gamma 90.000000
_cell_volume 2338.268590
_symmetry_space_group_name_H-M "C 2/C"
_symmetry_group_IT_number 15
_symmetry_cell_setting 'monoclinic'
loop_
_space_group_symop_operation_xyz
x,y,z
-x,y,1/2-z
-x,-y,-z
x,-y,1/2+z
1/2+x,1/2+y,z
1/2-x,1/2+y,1/2-z
1/2-x,1/2-y,-z
1/2+x,1/2-y,1/2+z
loop_
_atom_site_type_symbol
_atom_site_label
_atom_site_fract_x
_atom_site_fract_y
_atom_site_fract_z
Si Si1 0.449248 0.917832 0.941266
Si Si2 0.584462 0.602620 0.687073
Si Si3 0.746189 0.601773 0.801887
Si Si4 0.847447 0.507276 0.318156
Si Si5 0.549630 0.765416 0.358512
Si Si6 0.143500 0.263140 0.009684
O O1 0.500281 0.076171 0.884828
O O2 0.398717 0.080709 0.998843
O O3 0.443064 0.775432 0.855261
O O4 0.451312 0.767557 0.030806
O O5 0.551368 0.463432 0.795603
O O6 0.611170 0.427664 0.593119
O O7 0.629513 0.742467 0.692962
O O8 0.759010 0.853359 0.744249
O O9 0.795785 0.541602 0.814060
O O10 0.691263 0.659129 0.905952
O O11 0.896452 0.378792 0.225726
O O12 0.836460 0.416923 0.428938
#
# Coordination Sequence:
#
# PCOD9309551 Si02
#       6
#     8   8   8   8   8   8
#     4  10  23  44  71 109 148 190 247 304 371 447
#     4  10  24  43  76  99 148 189 245 307 370 458
#     4  12  29  45  74 106 146 196 251 318 373 452
#     4  10  24  44  69 105 144 189 246 309 373 449
#     4  10  23  43  72 107 145 192 242 303 374 446
#     4  10  24  44  70 103 143 192 246 308 378 445
#
# _framework density 10.264004999999999
#
# number of rings (size 3 to 8) (size 9 to 14) (size 15 to 20)
#    0.000    1.667    0.000    1.500   11.667   10.667 
#    0.000    3.333    3.667    1.000    0.000    0.000 
#    0.000    0.000    0.000    0.000    0.000    0.000 
#
# Total GULP energy -133885.523256 kJ/mol
# GULP energy per Si atom -5578.563469 kJ/mol
# Density = 1.024064 g / cm^3
# Si number density = 10.264005 Si / 1000 Ang^3
#
#
#
# Elastic Constant Matrix: (Units=GPa)
#
#
# Indices 1 2 3 4 5 6 
#
# 1 162.0241 52.7625 52.9196 0.0000 3.1769 0.0000
# 2 52.7625 133.1814 52.5921 0.0001 9.9473 0.0000
# 3 52.9196 52.5921 133.3969 0.0000 -6.2100 0.0000
# 4 0.0000 0.0001 0.0000 51.1360 0.0000 -0.0205
# 5 3.1769 9.9473 -6.2100 0.0000 36.9790 0.0000
# 6 0.0000 0.0000 0.0000 -0.0205 0.0000 40.5780
#
#
#
# Elastic Compliance Matrix: (Units=1/GPa)
#
#
# Indices 1 2 3 4 5 6 
#
# 1 0.007584 -0.002101 -0.002202 0.000000 -0.000456 0.000000
# 2 -0.002101 0.009819 -0.003177 0.000000 -0.002994 0.000000
# 3 -0.002202 -0.003177 0.009747 0.000000 0.002681 0.000000
# 4 0.000000 0.000000 0.000000 0.019556 0.000000 0.000010
# 5 -0.000456 -0.002994 0.002681 0.000000 0.028337 0.000000
# 6 0.000000 0.000000 0.000000 0.000010 0.000000 0.024644
#
#
# Mechanical properties :
#
#
# Convention : Reuss Voigt Hill
#
# Bulk Modulus (GPa) = 82.02823 82.79453 82.41138
# Shear Modulus (GPa) = 42.11921 43.76048 42.93985
#
# Velocity S-wave (km/s) = 4.53459 4.62209 4.57855
# Velocity P-wave (km/s) = 8.21356 8.30090 8.25735
#
# Compressibility (1/GPa) = 0.01219092
#
# Stress axis : x y z
#
# Youngs Moduli (GPa) = 131.85376 101.84086 102.59401
#
# Poissons Ratio (x) = 0.21399 0.22586
# Poissons Ratio (y) = 0.27705 0.32595
# Poissons Ratio (z) = 0.29028 0.32356
#
# Static dielectric constant tensor:
#      x y z
#    x 1.744790 0.000000 0.030250 
#    y 0.000000 1.789300 0.000000 
#    z 0.030250 0.000000 1.740680 
# 
# From -- ./inp_files/179984.got.cif
#   From: 2010.05.17/outbox.ucp.g08.bks.cvg/sg15_90_cif.got.tgz:179984.got - 2010.06.11 12:40:34.
