data_PCOD9309618
_publ_section_title
;
Structure prediction by ZEFSAII (Michael W. Deem and Ramdas Pophale) SiO2 
 PCOD9309618
Probable space group: C 2/C
;
_chemical_formula_sum "Si O2"
_cell_formula_units_Z 22
_cell_length_a 9.000000
_cell_length_b 27.000000
_cell_length_c 12.000000
_cell_angle_alpha 90.000000
_cell_angle_beta 50.000000
_cell_angle_gamma 90.000000
_cell_volume 2233.785596
_symmetry_space_group_name_H-M "C 2/C"
_symmetry_group_IT_number 15
_symmetry_cell_setting 'monoclinic'
loop_
_space_group_symop_operation_xyz
x,y,z
-x,y,1/2-z
-x,-y,-z
x,-y,1/2+z
1/2+x,1/2+y,z
1/2-x,1/2+y,1/2-z
1/2-x,1/2-y,-z
1/2+x,1/2-y,1/2+z
loop_
_atom_site_type_symbol
_atom_site_label
_atom_site_fract_x
_atom_site_fract_y
_atom_site_fract_z
Si Si1 0.280656 0.919313 0.870936
Si Si2 0.571585 0.399408 0.589192
Si Si3 0.113588 0.680598 0.507784
Si Si4 0.774439 0.110992 0.854194
Si Si5 0.000000 0.239568 0.250000
Si Si6 0.720925 0.966008 0.175640
O O1 0.500000 0.901452 0.750000
O O2 0.119303 0.885433 0.889637
O O3 0.265133 0.974225 0.822664
O O4 0.247276 0.918541 0.019040
O O5 0.500000 0.406338 0.750000
O O6 0.748985 0.360481 0.498659
O O7 0.649797 0.448380 0.490646
O O8 0.294138 0.707335 0.347439
O O9 0.914750 0.649521 0.563888
O O10 0.031895 0.723741 0.628532
O O11 0.767072 0.070177 0.757708
O O12 0.000000 0.131955 0.750000
O O13 0.500000 0.956155 0.250000
#
# Coordination Sequence:
#
# PCOD9309618 Si02
#       6
#     8   8   8   8   4   8
#     4  11  27  39  62 101 142 186 232 283 329 380
#     4  12  23  40  69  95 135 179 227 281 330 410
#     4  11  23  46  72 102 124 178 225 279 355 418
#     4  12  25  44  68  99 144 183 228 287 337 394
#     4  10  24  44  80  96 128 162 234 282 346 450
#     4  11  24  41  63  95 137 194 233 271 316 402
#
# _framework density 9.8487519999999993
#
# number of rings (size 3 to 8) (size 9 to 14) (size 15 to 20)
#    0.000    0.727    4.545    2.727    2.545    1.455 
#    0.000    0.909    0.000    0.000    0.000    0.000 
#    0.000    0.000    0.000    0.000    0.000    0.000 
#
# Total GULP energy -122534.970008 kJ/mol
# GULP energy per Si atom -5569.771364 kJ/mol
# Density = 0.982634 g / cm^3
# Si number density = 9.848752 Si / 1000 Ang^3
#
#
#
# Elastic Constant Matrix: (Units=GPa)
#
#
# Indices 1 2 3 4 5 6 
#
# 1 157.4987 42.2385 51.0267 0.0000 -32.8744 0.0000
# 2 42.2385 47.7147 20.4736 0.0000 0.7656 0.0000
# 3 51.0267 20.4736 126.3184 0.0000 -13.8256 0.0000
# 4 0.0000 0.0000 0.0000 42.7361 0.0000 -5.3363
# 5 -32.8744 0.7656 -13.8256 0.0000 56.4317 0.0000
# 6 0.0000 0.0000 0.0000 -5.3363 0.0000 22.3716
#
#
#
# Elastic Compliance Matrix: (Units=1/GPa)
#
#
# Indices 1 2 3 4 5 6 
#
# 1 0.010538 -0.008449 -0.002264 0.000000 0.005699 0.000000
# 2 -0.008449 0.029382 -0.001985 0.000000 -0.005807 0.000000
# 3 -0.002264 -0.001985 0.009260 0.000000 0.000977 0.000000
# 4 0.000000 0.000000 0.000000 0.024118 0.000000 0.005753
# 5 0.005699 -0.005807 0.000977 0.000000 0.021359 0.000000
# 6 0.000000 0.000000 0.000000 0.005753 0.000000 0.046072
#
#
# Mechanical properties :
#
#
# Convention : Reuss Voigt Hill
#
# Bulk Modulus (GPa) = 42.04373 62.11216 52.07795
# Shear Modulus (GPa) = 28.72738 38.82743 33.77740
#
# Velocity S-wave (km/s) = 3.82308 4.44462 4.14551
# Velocity P-wave (km/s) = 6.39366 7.61190 7.02922
#
# Compressibility (1/GPa) = 0.02378476
#
# Stress axis : x y z
#
# Youngs Moduli (GPa) = 94.89483 34.03479 107.99650
#
# Poissons Ratio (x) = 0.28755 0.24448
# Poissons Ratio (y) = 0.80173 0.21436
# Poissons Ratio (z) = 0.21482 0.06755
#
# Static dielectric constant tensor:
#      x y z
#    x 1.740920 0.000000 -0.037050 
#    y 0.000000 1.718860 0.000000 
#    z -0.037050 0.000000 1.757210 
# 
# From -- ./inp_files/25608.got.cif
#   From: 2010.05.17/outbox.ucp.g08.bks.cvg/sg15_13_cif.got.tgz:25608.got - 2010.06.11 12:40:34.
