data_PCOD9309276
_publ_section_title
;
Structure prediction by ZEFSAII (Michael W. Deem and Ramdas Pophale) SiO2 
 PCOD9309276
Probable space group: C 2/C
;
_chemical_formula_sum "Si O2"
_cell_formula_units_Z 32
_cell_length_a 30.000000
_cell_length_b 9.000000
_cell_length_c 24.000000
_cell_angle_alpha 90.000000
_cell_angle_beta 150.000000
_cell_angle_gamma 90.000000
_cell_volume 3240.000000
_symmetry_space_group_name_H-M "C 2/C"
_symmetry_group_IT_number 15
_symmetry_cell_setting 'monoclinic'
loop_
_space_group_symop_operation_xyz
x,y,z
-x,y,1/2-z
-x,-y,-z
x,-y,1/2+z
1/2+x,1/2+y,z
1/2-x,1/2+y,1/2-z
1/2-x,1/2-y,-z
1/2+x,1/2-y,1/2+z
loop_
_atom_site_type_symbol
_atom_site_label
_atom_site_fract_x
_atom_site_fract_y
_atom_site_fract_z
Si Si1 0.365766 0.495171 0.487777
Si Si2 0.302661 0.185471 0.654823
Si Si3 0.089708 0.524834 0.313278
Si Si4 0.957960 0.141666 0.765876
Si Si5 0.742153 0.522782 0.920288
Si Si6 0.397251 0.365699 0.401988
Si Si7 0.099569 0.782530 0.623103
Si Si8 0.720656 0.208601 0.651014
O O1 0.292464 0.403063 0.444224
O O2 0.463925 0.559416 0.612970
O O3 0.382245 0.394490 0.451167
O O4 0.309513 0.640804 0.411189
O O5 0.274906 0.346740 0.601706
O O6 0.354494 0.218982 0.770352
O O7 0.369944 0.093032 0.687450
O O8 0.056110 0.678406 0.247080
O O9 0.174111 0.556091 0.447027
O O10 0.000000 0.472999 0.250000
O O11 0.856470 0.084410 0.667754
O O12 0.000000 0.115073 0.750000
O O13 0.769593 0.588522 0.888707
O O14 0.491650 0.279933 0.499015
O O15 0.390349 0.535459 0.369433
O O16 0.316431 0.280828 0.284899
O O17 0.148960 0.700263 0.624580
#
# Coordination Sequence:
#
# PCOD9309276 Si02
#       8
#     8   8   8   8   8   8   8   8
#     4  11  24  42  71 102 138 188 230 286 353 416
#     4  12  24  45  69 104 145 177 231 289 358 416
#     4  11  26  47  68 101 139 177 237 294 344 418
#     4  11  24  47  73  98 131 183 241 290 344 419
#     4  12  25  43  74 102 139 187 225 294 354 412
#     4  10  21  42  68 100 141 182 235 278 347 408
#     4  10  22  41  68 100 139 185 228 283 342 415
#     4  11  22  41  68 102 140 184 236 280 339 426
#
# _framework density 9.8765429999999999
#
# number of rings (size 3 to 8) (size 9 to 14) (size 15 to 20)
#    0.000    1.000    2.500    4.500    3.500    2.500 
#    2.250    1.875    0.000    0.000    0.000    0.000 
#    0.000    0.000    0.000    0.000    0.000    0.000 
#
# Total GULP energy -178453.943686 kJ/mol
# GULP energy per Si atom -5576.685740 kJ/mol
# Density = 0.985406 g / cm^3
# Si number density = 9.876543 Si / 1000 Ang^3
#
#
#
# Elastic Constant Matrix: (Units=GPa)
#
#
# Indices 1 2 3 4 5 6 
#
# 1 129.7167 50.8785 47.2109 0.0000 28.0315 0.0000
# 2 50.8785 82.6631 33.3837 0.0000 13.2784 0.0000
# 3 47.2109 33.3837 147.0470 0.0000 26.1824 0.0000
# 4 0.0000 0.0000 0.0000 37.0777 0.0000 6.4305
# 5 28.0315 13.2784 26.1824 0.0000 45.5186 0.0000
# 6 0.0000 0.0000 0.0000 6.4305 0.0000 35.0697
#
#
#
# Elastic Compliance Matrix: (Units=1/GPa)
#
#
# Indices 1 2 3 4 5 6 
#
# 1 0.011503 -0.005713 -0.001595 0.000000 -0.004500 0.000000
# 2 -0.005713 0.016393 -0.001852 0.000000 -0.000199 0.000000
# 3 -0.001595 -0.001852 0.008313 0.000000 -0.003259 0.000000
# 4 0.000000 0.000000 0.000000 0.027856 0.000000 -0.005108
# 5 -0.004500 -0.000199 -0.003259 0.000000 0.026673 0.000000
# 6 0.000000 0.000000 0.000000 -0.005108 0.000000 0.029451
#
#
# Mechanical properties :
#
#
# Convention : Reuss Voigt Hill
#
# Bulk Modulus (GPa) = 55.89827 69.15256 62.52542
# Shear Modulus (GPa) = 34.60848 38.73011 36.66929
#
# Velocity S-wave (km/s) = 4.19030 4.43280 4.31325
# Velocity P-wave (km/s) = 7.19523 7.82841 7.51849
#
# Compressibility (1/GPa) = 0.01788964
#
# Stress axis : x y z
#
# Youngs Moduli (GPa) = 86.93590 60.99981 120.28698
#
# Poissons Ratio (x) = 0.34849 0.19184
# Poissons Ratio (y) = 0.49666 0.22280
# Poissons Ratio (z) = 0.13865 0.11298
#
# Static dielectric constant tensor:
#      x y z
#    x 1.748040 0.000000 -0.017570 
#    y 0.000000 1.700430 0.000000 
#    z -0.017570 0.000000 1.702810 
# 
# From -- ./inp_files/284444.got.cif
#   From: 2010.05.17/outbox.ucp.g08.bks.cvg/sg15_143_cif.got.tgz:284444.got - 2010.06.11 12:40:34.
