data_PCOD9309523
_publ_section_title
;
Structure prediction by ZEFSAII (Michael W. Deem and Ramdas Pophale) SiO2 
 PCOD9309523
Probable space group: C 2/C
;
_chemical_formula_sum "Si O2"
_cell_formula_units_Z 32
_cell_length_a 15.000000
_cell_length_b 18.000000
_cell_length_c 15.000000
_cell_angle_alpha 90.000000
_cell_angle_beta 130.000000
_cell_angle_gamma 90.000000
_cell_volume 3102.479995
_symmetry_space_group_name_H-M "C 2/C"
_symmetry_group_IT_number 15
_symmetry_cell_setting 'monoclinic'
loop_
_space_group_symop_operation_xyz
x,y,z
-x,y,1/2-z
-x,-y,-z
x,-y,1/2+z
1/2+x,1/2+y,z
1/2-x,1/2+y,1/2-z
1/2-x,1/2-y,-z
1/2+x,1/2-y,1/2+z
loop_
_atom_site_type_symbol
_atom_site_label
_atom_site_fract_x
_atom_site_fract_y
_atom_site_fract_z
Si Si1 0.137437 0.832677 0.487193
Si Si2 0.013107 0.509163 0.403179
Si Si3 0.247153 0.778073 0.741649
Si Si4 0.798990 0.397150 0.261577
Si Si5 0.547028 0.417139 0.023420
Si Si6 0.002050 0.687544 0.356787
Si Si7 0.770717 0.964888 0.089958
Si Si8 0.405213 0.388449 0.752141
O O1 0.213310 0.818471 0.625536
O O2 0.107300 0.746673 0.442189
O O3 0.186771 0.895788 0.448218
O O4 0.015652 0.869316 0.440178
O O5 0.913250 0.448564 0.306091
O O6 0.000000 0.500000 0.500000
O O7 0.999470 0.598523 0.376634
O O8 0.151791 0.498930 0.472208
O O9 0.194484 0.693994 0.722104
O O10 0.387061 0.778252 0.829106
O O11 0.199279 0.834203 0.786514
O O12 0.686397 0.412039 0.125403
O O13 0.763264 0.427227 0.337142
O O14 0.500000 0.500000 0.000000
O O15 0.485609 0.396053 0.891613
O O16 0.000000 0.689608 0.250000
O O17 0.857602 0.033814 0.175556
O O18 0.500000 0.351075 0.750000
#
# Coordination Sequence:
#
# PCOD9309523 Si02
#       8
#     8   8   8   8   8   8   8   8
#     4  11  24  39  70 103 141 177 225 295 364 432
#     4  10  23  41  64  91 140 187 224 271 346 428
#     4  11  24  43  69 100 142 182 234 289 355 425
#     4  11  22  42  70  98 138 188 232 287 355 427
#     4  11  22  40  67 100 131 175 235 287 352 416
#     4  12  24  41  65 106 143 176 223 289 360 429
#     4  11  22  41  68 104 135 183 232 287 367 434
#     4  11  25  45  69  95 133 183 245 304 344 411
#
# _framework density 10.314329000000001
#
# number of rings (size 3 to 8) (size 9 to 14) (size 15 to 20)
#    0.000    1.000    2.500    5.250    1.750    1.500 
#    2.250    1.250    0.000    0.000    0.000    0.000 
#    0.000    0.000    0.000    0.000    0.000    0.000 
#
# Total GULP energy -178208.367681 kJ/mol
# GULP energy per Si atom -5569.011490 kJ/mol
# Density = 1.029085 g / cm^3
# Si number density = 10.314329 Si / 1000 Ang^3
#
#
#
# Elastic Constant Matrix: (Units=GPa)
#
#
# Indices 1 2 3 4 5 6 
#
# 1 108.5875 36.4392 35.0759 0.0000 13.9133 0.0000
# 2 36.4392 130.7746 30.3840 0.0000 6.6186 0.0000
# 3 35.0759 30.3840 75.0404 0.0000 28.2090 0.0000
# 4 0.0000 0.0000 0.0000 37.6948 0.0000 11.6301
# 5 13.9133 6.6186 28.2090 0.0000 34.7295 0.0000
# 6 0.0000 0.0000 0.0000 11.6301 0.0000 39.8955
#
#
#
# Elastic Compliance Matrix: (Units=1/GPa)
#
#
# Indices 1 2 3 4 5 6 
#
# 1 0.011376 -0.002167 -0.004149 0.000000 -0.000774 0.000000
# 2 -0.002167 0.008922 -0.003292 0.000000 0.001842 0.000000
# 3 -0.004149 -0.003292 0.022655 0.000000 -0.016112 0.000000
# 4 0.000000 0.000000 0.000000 0.029151 0.000000 -0.008498
# 5 -0.000774 0.001842 -0.016112 0.000000 0.041840 0.000000
# 6 0.000000 0.000000 0.000000 -0.008498 0.000000 0.027543
#
#
# Mechanical properties :
#
#
# Convention : Reuss Voigt Hill
#
# Bulk Modulus (GPa) = 42.12701 57.57785 49.85243
# Shear Modulus (GPa) = 29.65340 36.63086 33.14213
#
# Velocity S-wave (km/s) = 3.79553 4.21851 4.01260
# Velocity P-wave (km/s) = 6.29873 7.19027 6.75921
#
# Compressibility (1/GPa) = 0.02373774
#
# Stress axis : x y z
#
# Youngs Moduli (GPa) = 87.90736 112.08075 44.13978
#
# Poissons Ratio (x) = 0.24283 0.18313
# Poissons Ratio (y) = 0.19046 0.14532
# Poissons Ratio (z) = 0.36472 0.36899
#
# Static dielectric constant tensor:
#      x y z
#    x 1.772350 0.000000 0.041370 
#    y 0.000000 1.823260 0.000000 
#    z 0.041370 0.000000 1.753540 
# 
# From -- ./inp_files/155527.got.cif
#   From: 2010.05.17/outbox.ucp.g08.bks.cvg/sg15_78_cif.got.tgz:155527.got - 2010.06.11 12:40:34.
