data_PCOD9309759
_publ_section_title
;
Structure prediction by ZEFSAII (Michael W. Deem and Ramdas Pophale) SiO2 
 PCOD9309759
Probable space group: C 2/C
;
_chemical_formula_sum "Si O2"
_cell_formula_units_Z 28
_cell_length_a 12.000000
_cell_length_b 24.000000
_cell_length_c 21.000000
_cell_angle_alpha 90.000000
_cell_angle_beta 30.000000
_cell_angle_gamma 90.000000
_cell_volume 3024.000000
_symmetry_space_group_name_H-M "C 2/C"
_symmetry_group_IT_number 15
_symmetry_cell_setting 'monoclinic'
loop_
_space_group_symop_operation_xyz
x,y,z
-x,y,1/2-z
-x,-y,-z
x,-y,1/2+z
1/2+x,1/2+y,z
1/2-x,1/2+y,1/2-z
1/2-x,1/2-y,-z
1/2+x,1/2-y,1/2+z
loop_
_atom_site_type_symbol
_atom_site_label
_atom_site_fract_x
_atom_site_fract_y
_atom_site_fract_z
Si Si1 0.681323 0.255464 0.461394
Si Si2 0.000000 0.161119 0.250000
Si Si3 0.612986 0.426315 0.383302
Si Si4 0.904891 0.137688 0.866466
Si Si5 0.124618 0.637990 0.339575
Si Si6 0.271191 0.948988 0.824303
Si Si7 0.146908 0.257888 0.737201
Si Si8 0.500000 0.147711 0.750000
O O1 0.750000 0.250000 0.500000
O O2 0.411126 0.252955 0.587810
O O3 0.805377 0.202337 0.370660
O O4 0.811405 0.310718 0.372747
O O5 0.155099 0.128979 0.224548
O O6 0.499576 0.400458 0.376511
O O7 0.426011 0.423944 0.532651
O O8 0.679555 0.491430 0.344951
O O9 0.841061 0.392022 0.285743
O O10 0.000000 0.119720 0.750000
O O11 0.020294 0.199618 0.817210
O O12 0.631083 0.136399 0.005390
O O13 0.159162 0.593059 0.266269
O O14 0.141585 0.699059 0.298258
O O15 0.500000 0.959045 0.750000
O O16 0.000000 0.279929 0.750000
#
# Coordination Sequence:
#
# PCOD9309759 Si02
#       8
#     8   4   8   8   8   8   8   4
#     4  11  22  40  58  93 138 172 215 265 323 405
#     4  11  24  38  60  96 134 172 215 262 334 402
#     4  11  24  44  72  98 132 169 225 281 331 384
#     4  11  25  44  65  96 138 174 216 269 333 401
#     4  12  24  43  67  95 133 178 221 273 331 397
#     4  11  23  47  72 101 128 167 228 285 327 389
#     4  11  23  40  65  97 131 176 222 270 332 395
#     4  11  24  36  66  98 126 178 215 272 334 376
#
# _framework density 9.2592590000000001
#
# number of rings (size 3 to 8) (size 9 to 14) (size 15 to 20)
#    0.000    0.857    3.571    4.286    4.000    0.000 
#    1.286    0.714    0.000    0.000    0.000    0.000 
#    0.000    0.000    0.000    0.000    0.000    0.000 
#
# Total GULP energy -156168.380362 kJ/mol
# GULP energy per Si atom -5577.442156 kJ/mol
# Density = 0.923818 g / cm^3
# Si number density = 9.259259 Si / 1000 Ang^3
#
#
#
# Elastic Constant Matrix: (Units=GPa)
#
#
# Indices 1 2 3 4 5 6 
#
# 1 138.1309 40.1452 53.7725 0.0076 -24.8846 -0.0198
# 2 40.1452 85.4748 41.3502 0.0235 6.7086 -0.0458
# 3 53.7725 41.3502 170.6690 0.0237 -24.8436 -0.0294
# 4 0.0076 0.0235 0.0237 28.1528 -0.0117 -1.2631
# 5 -24.8846 6.7086 -24.8436 -0.0117 47.5806 0.0167
# 6 -0.0198 -0.0458 -0.0294 -1.2631 0.0167 32.3060
#
#
#
# Elastic Compliance Matrix: (Units=1/GPa)
#
#
# Indices 1 2 3 4 5 6 
#
# 1 0.009975 -0.004455 -0.001312 0.000004 0.005160 -0.000004
# 2 -0.004455 0.015923 -0.003377 -0.000011 -0.006338 0.000020
# 3 -0.001312 -0.003377 0.007641 -0.000002 0.003779 -0.000001
# 4 0.000004 -0.000011 -0.000002 0.035583 0.000011 0.001391
# 5 0.005160 -0.006338 0.003779 0.000011 0.026583 -0.000016
# 6 -0.000004 0.000020 -0.000001 0.001391 -0.000016 0.031008
#
#
# Mechanical properties :
#
#
# Convention : Reuss Voigt Hill
#
# Bulk Modulus (GPa) = 65.57196 73.86785 69.71991
# Shear Modulus (GPa) = 33.31467 38.87498 36.09483
#
# Velocity S-wave (km/s) = 4.24605 4.58673 4.41967
# Velocity P-wave (km/s) = 7.71520 8.24779 7.98594
#
# Compressibility (1/GPa) = 0.01525042
#
# Stress axis : x y z
#
# Youngs Moduli (GPa) = 100.25429 62.80294 130.87179
#
# Poissons Ratio (x) = 0.27978 0.17174
# Poissons Ratio (y) = 0.44663 0.44193
# Poissons Ratio (z) = 0.13156 0.21207
#
# Static dielectric constant tensor:
#      x y z
#    x 1.703870 0.000050 0.053770 
#    y 0.000050 1.714490 0.000040 
#    z 0.053770 0.000040 1.654960 
# 
# From -- ./inp_files/240784.got.cif
#   From: 2010.05.17/outbox.ucp.g08.bks.cvg/sg15_121_cif.got.tgz:240784.got - 2010.06.11 12:40:34.
