data_PCOD9309298
_publ_section_title
;
Structure prediction by ZEFSAII (Michael W. Deem and Ramdas Pophale) SiO2 
 PCOD9309298
Probable space group: C 2/C
;
_chemical_formula_sum "Si O2"
_cell_formula_units_Z 24
_cell_length_a 6.000000
_cell_length_b 24.000000
_cell_length_c 21.000000
_cell_angle_alpha 90.000000
_cell_angle_beta 50.000000
_cell_angle_gamma 90.000000
_cell_volume 2316.518396
_symmetry_space_group_name_H-M "C 2/C"
_symmetry_group_IT_number 15
_symmetry_cell_setting 'monoclinic'
loop_
_space_group_symop_operation_xyz
x,y,z
-x,y,1/2-z
-x,-y,-z
x,-y,1/2+z
1/2+x,1/2+y,z
1/2-x,1/2+y,1/2-z
1/2-x,1/2-y,-z
1/2+x,1/2-y,1/2+z
loop_
_atom_site_type_symbol
_atom_site_label
_atom_site_fract_x
_atom_site_fract_y
_atom_site_fract_z
Si Si1 0.129651 0.375372 0.016821
Si Si2 0.702036 0.551642 0.401684
Si Si3 0.612051 0.442805 0.065927
Si Si4 0.675169 0.837944 0.150780
Si Si5 0.957228 0.719566 0.074073
Si Si6 0.849985 0.360136 0.708401
O O1 0.059370 0.353664 0.101082
O O2 0.907421 0.426898 0.047491
O O3 0.447158 0.401710 0.944840
O O4 0.110744 0.323834 0.970670
O O5 0.595923 0.496320 0.383473
O O6 0.713616 0.543287 0.475449
O O7 0.008785 0.578631 0.326032
O O8 0.434256 0.384424 0.105629
O O9 0.500000 0.844203 0.250000
O O10 0.751341 0.772207 0.128999
O O11 0.984997 0.681559 0.131445
O O12 0.250000 0.750000 0.000000
O O13 0.500000 0.360356 0.750000
O O14 0.000000 0.343231 0.750000
#
# Coordination Sequence:
#
# PCOD9309298 Si02
#       6
#     8   8   8   8   8   8
#     4  11  21  43  73 103 135 194 248 304 357 441
#     4  10  22  42  73 102 137 184 248 297 355 436
#     4  10  21  43  70 100 135 185 243 292 354 435
#     4  11  25  41  63 103 146 184 236 300 375 434
#     4  12  23  45  71 100 136 191 253 298 358 439
#     4  12  27  47  71 112 153 192 243 310 385 442
#
# _framework density 10.360374999999999
#
# number of rings (size 3 to 8) (size 9 to 14) (size 15 to 20)
#    0.000    1.000    3.333    3.500    0.000    4.000 
#    0.000    0.000    0.000    0.000    0.000    0.000 
#    0.000    0.000    0.000    0.000    0.000    0.000 
#
# Total GULP energy -133640.879297 kJ/mol
# GULP energy per Si atom -5568.369971 kJ/mol
# Density = 1.033679 g / cm^3
# Si number density = 10.360375 Si / 1000 Ang^3
#
#
#
# Elastic Constant Matrix: (Units=GPa)
#
#
# Indices 1 2 3 4 5 6 
#
# 1 118.3871 45.9094 50.1318 0.0000 7.6231 0.0000
# 2 45.9094 123.6795 23.4684 0.0000 0.5208 0.0000
# 3 50.1318 23.4684 92.3014 0.0000 15.8406 0.0000
# 4 0.0000 0.0000 0.0000 35.4704 0.0000 -3.5561
# 5 7.6231 0.5208 15.8406 0.0000 34.7849 0.0000
# 6 0.0000 0.0000 0.0000 -3.5561 0.0000 36.8203
#
#
#
# Elastic Compliance Matrix: (Units=1/GPa)
#
#
# Indices 1 2 3 4 5 6 
#
# 1 0.012223 -0.003444 -0.005762 0.000000 -0.000003 0.000000
# 2 -0.003444 0.009493 -0.000704 0.000000 0.000933 0.000000
# 3 -0.005762 -0.000704 0.015105 0.000000 -0.005605 0.000000
# 4 0.000000 0.000000 0.000000 0.028468 0.000000 0.002749
# 5 -0.000003 0.000933 -0.005605 0.000000 0.031287 0.000000
# 6 0.000000 0.000000 0.000000 0.002749 0.000000 0.027424
#
#
# Mechanical properties :
#
#
# Convention : Reuss Voigt Hill
#
# Bulk Modulus (GPa) = 58.81857 63.70968 61.26412
# Shear Modulus (GPa) = 33.44786 35.73902 34.59344
#
# Velocity S-wave (km/s) = 4.02210 4.15757 4.09039
# Velocity P-wave (km/s) = 7.07231 7.33899 7.20688
#
# Compressibility (1/GPa) = 0.01700143
#
# Stress axis : x y z
#
# Youngs Moduli (GPa) = 81.81600 105.33849 66.20480
#
# Poissons Ratio (x) = 0.36274 0.38150
# Poissons Ratio (y) = 0.28174 0.04658
# Poissons Ratio (z) = 0.47146 0.07411
#
# Static dielectric constant tensor:
#      x y z
#    x 1.819870 0.000000 0.001360 
#    y 0.000000 1.769290 0.000000 
#    z 0.001360 0.000000 1.721950 
# 
# From -- ./inp_files/228022.got.cif
#   From: 2010.05.17/outbox.ucp.g08.bks.cvg/sg15_115_cif.got.tgz:228022.got - 2010.06.11 12:40:34.
