data_PCOD9309735
_publ_section_title
;
Structure prediction by ZEFSAII (Michael W. Deem and Ramdas Pophale) SiO2 
 PCOD9309735
Probable space group: C 2/C
;
_chemical_formula_sum "Si O2"
_cell_formula_units_Z 24
_cell_length_a 15.000000
_cell_length_b 18.000000
_cell_length_c 9.000000
_cell_angle_alpha 90.000000
_cell_angle_beta 90.000000
_cell_angle_gamma 90.000000
_cell_volume 2430.000000
_symmetry_space_group_name_H-M "C 2/C"
_symmetry_group_IT_number 15
_symmetry_cell_setting 'monoclinic'
loop_
_space_group_symop_operation_xyz
x,y,z
-x,y,1/2-z
-x,-y,-z
x,-y,1/2+z
1/2+x,1/2+y,z
1/2-x,1/2+y,1/2-z
1/2-x,1/2-y,-z
1/2+x,1/2-y,1/2+z
loop_
_atom_site_type_symbol
_atom_site_label
_atom_site_fract_x
_atom_site_fract_y
_atom_site_fract_z
Si Si1 0.677968 0.683558 0.998348
Si Si2 0.508177 0.775206 0.925230
Si Si3 0.765954 0.421180 0.726421
Si Si4 0.422647 0.938670 0.504860
Si Si5 0.682561 0.181942 0.005553
Si Si6 0.272397 0.919692 0.271031
O O1 0.697405 0.628963 0.135198
O O2 0.750000 0.750000 0.000000
O O3 0.581201 0.719822 0.992101
O O4 0.706055 0.635757 0.856135
O O5 0.500000 0.758701 0.750000
O O6 0.540781 0.859541 0.944865
O O7 0.413101 0.778744 0.004377
O O8 0.843627 0.453781 0.620613
O O9 0.727936 0.498845 0.783596
O O10 0.810607 0.365811 0.843624
O O11 0.368056 0.927828 0.353345
O O12 0.500000 0.000000 0.500000
O O13 0.706106 0.121137 0.882056
O O14 0.750000 0.250000 0.000000
#
# Coordination Sequence:
#
# PCOD9309735 Si02
#       6
#     8   8   8   8   8   8
#     4  11  21  43  65  89 128 180 218 250 327 403
#     4  12  22  40  65  89 127 174 213 263 318 396
#     4  11  22  42  62  94 137 170 209 275 331 390
#     4  11  23  37  63  96 134 167 208 252 345 417
#     4  12  25  40  64  97 129 166 224 273 326 386
#     4  11  23  40  64  96 134 168 211 274 330 390
#
# _framework density 9.8765429999999999
#
# number of rings (size 3 to 8) (size 9 to 14) (size 15 to 20)
#    0.000    0.667    5.000    6.000    0.000    2.000 
#    0.000    0.833    0.000   11.000    0.000    0.000 
#    0.000    0.000    0.000    0.000    0.000    0.000 
#
# Total GULP energy -133992.013895 kJ/mol
# GULP energy per Si atom -5583.000579 kJ/mol
# Density = 0.985406 g / cm^3
# Si number density = 9.876543 Si / 1000 Ang^3
#
#
#
# Elastic Constant Matrix: (Units=GPa)
#
#
# Indices 1 2 3 4 5 6 
#
# 1 95.0503 72.0666 28.8356 0.0000 9.7249 0.0000
# 2 72.0666 143.5529 30.5435 0.0000 -0.2496 0.0000
# 3 28.8356 30.5435 61.8585 0.0000 21.5994 0.0000
# 4 0.0000 0.0000 0.0000 36.2264 0.0000 5.1434
# 5 9.7249 -0.2496 21.5994 0.0000 5.1544 0.0000
# 6 0.0000 0.0000 0.0000 5.1434 0.0000 49.1583
#
#
#
# Elastic Compliance Matrix: (Units=1/GPa)
#
#
# Indices 1 2 3 4 5 6 
#
# 1 0.016161 -0.005382 -0.012655 0.000000 0.022277 0.000000
# 2 -0.005382 0.007399 0.010395 0.000000 -0.033048 0.000000
# 3 -0.012655 0.010395 -0.018177 0.000000 0.100549 0.000000
# 4 0.000000 0.000000 0.000000 0.028020 0.000000 -0.002932
# 5 0.022277 -0.033048 0.100549 0.000000 -0.270969 0.000000
# 6 0.000000 0.000000 0.000000 -0.002932 0.000000 0.020649
#
#
# Mechanical properties :
#
#
# Convention : Reuss Voigt Hill
#
# Bulk Modulus (GPa) = -101.00873 62.59478 -19.20698
# Shear Modulus (GPa) = -24.39820 29.37558 2.48869
#
# Velocity S-wave (km/s) = -3.51830 3.86053 1.12367
# Velocity P-wave (km/s) = 8.23111 7.18533 2.83921
#
# Compressibility (1/GPa) = -0.00990013
#
# Stress axis : x y z
#
# Youngs Moduli (GPa) = 61.87662 135.15848 -55.01451
#
# Poissons Ratio (x) = 0.72742 -0.69619
# Poissons Ratio (y) = 0.33302 0.57189
# Poissons Ratio (z) = 0.78303 -1.40501
#
# Static dielectric constant tensor:
#      x y z
#    x 1.758530 0.000000 -0.068520 
#    y 0.000000 1.853780 0.000000 
#    z -0.068520 0.000000 1.850080 
# 
# From -- ./inp_files/39639.got.cif
#   From: 2010.05.17/outbox.ucp.g08.bks.cvg/sg15_20_cif.got.tgz:39639.got - 2010.06.11 12:40:34.
