data_PCOD9309417
_publ_section_title
;
Structure prediction by ZEFSAII (Michael W. Deem and Ramdas Pophale) SiO2 
 PCOD9309417
Probable space group: C 2/C
;
_chemical_formula_sum "Si O2"
_cell_formula_units_Z 30
_cell_length_a 27.000000
_cell_length_b 21.000000
_cell_length_c 15.000000
_cell_angle_alpha 90.000000
_cell_angle_beta 20.000000
_cell_angle_gamma 90.000000
_cell_volume 2908.881319
_symmetry_space_group_name_H-M "C 2/C"
_symmetry_group_IT_number 15
_symmetry_cell_setting 'monoclinic'
loop_
_space_group_symop_operation_xyz
x,y,z
-x,y,1/2-z
-x,-y,-z
x,-y,1/2+z
1/2+x,1/2+y,z
1/2-x,1/2+y,1/2-z
1/2-x,1/2-y,-z
1/2+x,1/2-y,1/2+z
loop_
_atom_site_type_symbol
_atom_site_label
_atom_site_fract_x
_atom_site_fract_y
_atom_site_fract_z
Si Si1 0.483497 0.233873 0.093757
Si Si2 0.900335 0.489371 0.290296
Si Si3 0.370922 0.377280 0.034338
Si Si4 0.500000 0.893380 0.250000
Si Si5 0.228424 0.740821 0.887404
Si Si6 0.102660 0.405100 0.370097
Si Si7 0.184362 0.153372 0.311606
Si Si8 0.386272 0.493553 0.612531
O O1 0.353447 0.243666 0.246022
O O2 0.412005 0.224802 0.313436
O O3 0.560673 0.168872 0.932299
O O4 0.585154 0.296958 0.923193
O O5 0.846931 0.444355 0.301242
O O6 0.773425 0.502500 0.574543
O O7 0.016558 0.442233 0.139629
O O8 0.970837 0.553514 0.133875
O O9 0.297301 0.318335 0.214288
O O10 0.236564 0.404692 0.208026
O O11 0.422319 0.442307 0.996108
O O12 0.500000 0.354389 0.750000
O O13 0.350395 0.854638 0.495746
O O14 0.198051 0.804829 0.880041
O O15 0.119733 0.079873 0.418766
O O16 0.500000 0.500000 0.500000
#
# Coordination Sequence:
#
# PCOD9309417 Si02
#       8
#     8   8   8   4   8   8   8   8
#     4  11  24  42  67  97 133 184 227 286 344 410
#     4  10  22  41  68  97 132 177 233 276 348 402
#     4  12  26  43  67  97 135 181 224 287 351 407
#     4  10  22  42  64  96 134 182 226 288 344 408
#     4  11  25  44  65  97 138 177 235 280 348 416
#     4  11  22  40  65  96 129 172 225 281 331 416
#     4  11  23  41  68  99 135 181 231 288 348 414
#     4  11  24  45  69 100 138 180 228 288 348 419
#
# _framework density 10.313243
#
# number of rings (size 3 to 8) (size 9 to 14) (size 15 to 20)
#    0.000    1.067    1.333    5.200    0.933    5.333 
#    0.000    6.667    0.000    0.000    0.000    0.000 
#    0.000    0.000    0.000    0.000    0.000    0.000 
#
# Total GULP energy -167258.336226 kJ/mol
# GULP energy per Si atom -5575.277874 kJ/mol
# Density = 1.028977 g / cm^3
# Si number density = 10.313243 Si / 1000 Ang^3
#
#
#
# Elastic Constant Matrix: (Units=GPa)
#
#
# Indices 1 2 3 4 5 6 
#
# 1 94.0096 19.6853 -12.5810 0.0024 -14.7336 0.0022
# 2 19.6853 123.9809 9.7510 0.0077 9.2249 0.0036
# 3 -12.5810 9.7510 49.8535 0.0080 5.8622 0.0045
# 4 0.0024 0.0077 0.0080 40.6758 -0.0019 11.7230
# 5 -14.7336 9.2249 5.8622 -0.0019 36.6817 -0.0020
# 6 0.0022 0.0036 0.0045 11.7230 -0.0020 63.8002
#
#
#
# Elastic Compliance Matrix: (Units=1/GPa)
#
#
# Indices 1 2 3 4 5 6 
#
# 1 0.012391 -0.002588 0.003028 -0.000001 0.005144 0.000000
# 2 -0.002588 0.008856 -0.002040 -0.000001 -0.002941 0.000000
# 3 0.003028 -0.002040 0.021421 -0.000004 -0.001694 -0.000001
# 4 -0.000001 -0.000001 -0.000004 0.025959 0.000002 -0.004770
# 5 0.005144 -0.002941 -0.001694 0.000002 0.030338 0.000001
# 6 0.000000 0.000000 -0.000001 -0.004770 0.000001 0.016550
#
#
# Mechanical properties :
#
#
# Convention : Reuss Voigt Hill
#
# Bulk Modulus (GPa) = 25.33654 33.50606 29.42130
# Shear Modulus (GPa) = 37.91599 44.96412 41.44006
#
# Velocity S-wave (km/s) = 4.29210 4.67403 4.48713
# Velocity P-wave (km/s) = 6.07231 6.73856 6.41409
#
# Compressibility (1/GPa) = 0.03946869
#
# Stress axis : x y z
#
# Youngs Moduli (GPa) = 80.70628 112.91868 46.68292
#
# Poissons Ratio (x) = 0.29226 -0.14137
# Poissons Ratio (y) = 0.20889 0.09521
# Poissons Ratio (z) = -0.24440 0.23030
#
# Static dielectric constant tensor:
#      x y z
#    x 1.961180 0.000000 0.032100 
#    y 0.000000 1.816570 0.000000 
#    z 0.032100 0.000000 1.747170 
# 
# From -- ./inp_files/179089.got.cif
#   From: 2010.05.17/outbox.ucp.g08.bks.cvg/sg15_90_cif.got.tgz:179089.got - 2010.06.11 12:40:34.
