data_PCOD9309955
_publ_section_title
;
Structure prediction by ZEFSAII (Michael W. Deem and Ramdas Pophale) SiO2 
 PCOD9309955
Probable space group: P 2 2 2
;
_chemical_formula_sum "Si O2"
_cell_formula_units_Z 32
_cell_length_a 7.315154
_cell_length_b 15.306542
_cell_length_c 11.979319
_cell_angle_alpha 90.000000
_cell_angle_beta 90.000000
_cell_angle_gamma 90.000000
_cell_volume 1341.320898
_symmetry_space_group_name_H-M "P 2 2 2"
_symmetry_group_IT_number 16
_symmetry_cell_setting 'orthorhombic'
loop_
_space_group_symop_operation_xyz
x,y,z
-x,-y,z
x,-y,-z
-x,y,-z
loop_
_atom_site_type_symbol
_atom_site_label
_atom_site_fract_x
_atom_site_fract_y
_atom_site_fract_z
Si Si1 0.261127 0.159513 0.580191
Si Si2 0.700370 0.982236 0.740976
Si Si3 0.276448 0.506449 0.371452
Si Si4 0.241164 0.654305 0.780193
Si Si5 0.154587 0.835312 0.662373
Si Si6 0.276721 0.715645 0.009761
Si Si7 0.329260 0.318071 0.741077
Si Si8 0.715347 0.094220 0.036935
O O1 0.324569 0.065741 0.623875
O O2 0.282448 0.170963 0.448219
O O3 0.337777 0.236986 0.656486
O O4 0.047461 0.158005 0.613373
O O5 0.764472 0.910536 0.831361
O O6 0.500000 0.000000 0.787425
O O7 0.800518 0.074460 0.727020
O O8 0.500000 0.500000 0.370892
O O9 0.219233 0.500000 0.500000
O O10 0.195045 0.429526 0.294814
O O11 0.236746 0.601174 0.321232
O O12 0.171817 0.746205 0.730763
O O13 0.201751 0.653426 0.912657
O O14 0.461433 0.659475 0.769232
O O15 0.500000 0.714163 0.000000
O O16 0.236042 0.697091 0.139005
O O17 0.215086 0.815343 0.987060
O O18 0.500000 0.096345 0.000000
O O19 0.786105 0.000000 0.000000
#
# Coordination Sequence:
#
# PCOD9309955 Si02
#       8
#     4   4   4   4   4   4   4   4
#     4  11  24  42  56  80 119 158 196 242 297 344
#     4  12  22  36  62  89 109 151 199 238 290 350
#     4   9  18  32  55  90 123 148 189 250 295 331
#     4  10  20  36  60  89 115 152 197 239 294 349
#     4  11  25  40  57  80 119 159 194 246 293 346
#     4   9  18  31  54  86 117 149 190 240 293 341
#     4  10  19  36  62  85 117 156 193 244 292 350
#     4  10  17  30  53  83 115 146 181 237 285 334
#
# _framework density 23.85708
#
# number of rings (size 3 to 8) (size 9 to 14) (size 15 to 20)
#    0.000    1.750    2.500    3.000    1.750    5.000 
#    0.000    3.750    0.000    3.000    0.000    1.750 
#    0.000    0.000    0.000    0.000    0.000    0.000 
#
# Total GULP energy -178785.248988 kJ/mol
# GULP energy per Si atom -5587.039031 kJ/mol
# Density = 2.380278 g / cm^3
# Si number density = 23.857080 Si / 1000 Ang^3
#
#
#
# Elastic Constant Matrix: (Units=GPa)
#
#
# Indices 1 2 3 4 5 6 
#
# 1 57.1175 1.1082 5.0768 0.0000 0.0000 0.0000
# 2 1.1082 140.8441 60.3783 0.0000 0.0000 0.0000
# 3 5.0768 60.3783 151.5262 0.0000 0.0000 0.0000
# 4 0.0000 0.0000 0.0000 40.9812 0.0000 0.0000
# 5 0.0000 0.0000 0.0000 0.0000 1.1377 0.0000
# 6 0.0000 0.0000 0.0000 0.0000 0.0000 26.6155
#
#
#
# Elastic Compliance Matrix: (Units=1/GPa)
#
#
# Indices 1 2 3 4 5 6 
#
# 1 0.017562 0.000138 -0.000643 0.000000 0.000000 0.000000
# 2 0.000138 0.008564 -0.003417 0.000000 0.000000 0.000000
# 3 -0.000643 -0.003417 0.007983 0.000000 0.000000 0.000000
# 4 0.000000 0.000000 0.000000 0.024401 0.000000 0.000000
# 5 0.000000 0.000000 0.000000 0.000000 0.878951 0.000000
# 6 0.000000 0.000000 0.000000 0.000000 0.000000 0.037572
#
#
# Mechanical properties :
#
#
# Convention : Reuss Voigt Hill
#
# Bulk Modulus (GPa) = 38.07586 53.62383 45.84984
# Shear Modulus (GPa) = 5.04219 32.60851 18.82535
#
# Velocity S-wave (km/s) = 1.45536 3.70107 2.81212
# Velocity P-wave (km/s) = 4.33806 6.38669 5.45933
#
# Compressibility (1/GPa) = 0.02626336
#
# Stress axis : x y z
#
# Youngs Moduli (GPa) = 56.94022 116.77053 125.27181
#
# Poissons Ratio (x) = -0.01606 0.08058
# Poissons Ratio (y) = -0.00783 0.42806
# Poissons Ratio (z) = 0.03663 0.39901
#
# Static dielectric constant tensor:
#      x y z
#    x 1.967420 0.000000 0.000000 
#    y 0.000000 1.967290 0.000000 
#    z 0.000000 0.000000 1.930360 
# 
# From -- ./inp_files/6627.got.cif
#   From: 2010.05.17/outbox.cif.g08.bks.cpg/sg16_4_cif.got.tgz:6627.got - 2010.06.03 22:28:35.
