data_PCOD9309770
_publ_section_title
;
Structure prediction by ZEFSAII (Michael W. Deem and Ramdas Pophale) SiO2 
 PCOD9309770
Probable space group: C 2/C
;
_chemical_formula_sum "Si O2"
_cell_formula_units_Z 28
_cell_length_a 9.000000
_cell_length_b 18.000000
_cell_length_c 27.000000
_cell_angle_alpha 90.000000
_cell_angle_beta 40.000000
_cell_angle_gamma 90.000000
_cell_volume 2811.553005
_symmetry_space_group_name_H-M "C 2/C"
_symmetry_group_IT_number 15
_symmetry_cell_setting 'monoclinic'
loop_
_space_group_symop_operation_xyz
x,y,z
-x,y,1/2-z
-x,-y,-z
x,-y,1/2+z
1/2+x,1/2+y,z
1/2-x,1/2+y,1/2-z
1/2-x,1/2-y,-z
1/2+x,1/2-y,1/2+z
loop_
_atom_site_type_symbol
_atom_site_label
_atom_site_fract_x
_atom_site_fract_y
_atom_site_fract_z
Si Si1 0.000000 0.458535 0.750000
Si Si2 0.385836 0.055131 0.689030
Si Si3 0.723992 0.306483 0.165609
Si Si4 0.736635 0.579679 0.092605
Si Si5 0.500000 0.443979 0.750000
Si Si6 0.936327 0.078422 0.540999
Si Si7 0.234290 0.093044 0.564158
Si Si8 0.901745 0.146002 0.098793
O O1 0.135403 0.516156 0.751433
O O2 0.179733 0.405277 0.673380
O O3 0.298109 0.132516 0.687962
O O4 0.227916 0.994926 0.700226
O O5 0.660304 0.069223 0.614607
O O6 0.500000 0.273983 0.250000
O O7 0.692502 0.350613 0.121098
O O8 0.874172 0.233199 0.117341
O O9 0.578580 0.599956 0.180702
O O10 0.729345 0.490343 0.087785
O O11 0.616125 0.614184 0.075307
O O12 0.005762 0.603232 0.024361
O O13 0.053765 0.093846 0.564410
O O14 0.036948 0.135549 0.474689
O O15 0.000000 0.000000 0.500000
#
# Coordination Sequence:
#
# PCOD9309770 Si02
#       8
#     4   8   8   8   4   8   8   8
#     4  12  24  43  73 106 136 180 236 294 336 421
#     4  12  24  41  73 101 135 182 235 289 345 421
#     4  12  27  47  70 103 146 188 225 294 366 423
#     4  11  22  41  70 103 138 186 240 289 336 429
#     4  12  22  39  69 108 136 182 238 298 344 409
#     4  12  24  41  70 106 137 180 239 295 342 416
#     4  11  24  42  70 104 139 183 241 288 352 416
#     4  12  26  45  70 105 144 184 230 287 364 413
#
# _framework density 9.9589090000000002
#
# number of rings (size 3 to 8) (size 9 to 14) (size 15 to 20)
#    0.000    0.286    7.143    1.714    2.000    2.857 
#    0.000    0.714    0.000    0.000    0.000    0.000 
#    0.000    0.000    0.000    0.000    0.000    0.000 
#
# Total GULP energy -156116.354003 kJ/mol
# GULP energy per Si atom -5575.584072 kJ/mol
# Density = 0.993624 g / cm^3
# Si number density = 9.958909 Si / 1000 Ang^3
#
#
#
# Elastic Constant Matrix: (Units=GPa)
#
#
# Indices 1 2 3 4 5 6 
#
# 1 110.0061 10.7363 27.3119 -0.0021 6.2994 -0.0008
# 2 10.7363 74.1690 -5.6118 0.0017 18.0009 -0.0033
# 3 27.3119 -5.6118 107.3377 -0.0023 4.1676 -0.0010
# 4 -0.0021 0.0017 -0.0023 33.6850 0.0013 5.2482
# 5 6.2994 18.0009 4.1676 0.0013 39.6601 0.0008
# 6 -0.0008 -0.0033 -0.0010 5.2482 0.0008 18.9298
#
#
#
# Elastic Compliance Matrix: (Units=1/GPa)
#
#
# Indices 1 2 3 4 5 6 
#
# 1 0.009910 -0.001475 -0.002574 0.000001 -0.000634 0.000000
# 2 -0.001475 0.015493 0.001455 -0.000001 -0.006951 0.000003
# 3 -0.002574 0.001455 0.010098 0.000000 -0.001313 0.000001
# 4 0.000001 -0.000001 0.000000 0.031027 -0.000001 -0.008602
# 5 -0.000634 -0.006951 -0.001313 -0.000001 0.028608 -0.000002
# 6 0.000000 0.000003 0.000001 -0.008602 -0.000002 0.055212
#
#
# Mechanical properties :
#
#
# Convention : Reuss Voigt Hill
#
# Bulk Modulus (GPa) = 32.98887 39.59839 36.29363
# Shear Modulus (GPa) = 30.18584 35.72674 32.95629
#
# Velocity S-wave (km/s) = 3.89719 4.23981 4.07211
# Velocity P-wave (km/s) = 6.07036 6.62511 6.35379
#
# Compressibility (1/GPa) = 0.03031325
#
# Stress axis : x y z
#
# Youngs Moduli (GPa) = 100.91048 64.54381 99.02540
#
# Poissons Ratio (x) = 0.09523 0.25490
# Poissons Ratio (y) = 0.14888 -0.14411
# Poissons Ratio (z) = 0.25975 -0.09393
#
# Static dielectric constant tensor:
#      x y z
#    x 1.767190 0.000020 -0.048010 
#    y 0.000020 1.685210 -0.000050 
#    z -0.048010 -0.000050 1.857030 
# 
# From -- ./inp_files/289727.got.cif
#   From: 2010.05.17/outbox.ucp.g08.bks.cvg/sg15_145_cif.got.tgz:289727.got - 2010.06.11 12:40:34.
