data_PCOD9309603
_publ_section_title
;
Structure prediction by ZEFSAII (Michael W. Deem and Ramdas Pophale) SiO2 
 PCOD9309603
Probable space group: C 2/C
;
_chemical_formula_sum "Si O2"
_cell_formula_units_Z 28
_cell_length_a 15.000000
_cell_length_b 24.000000
_cell_length_c 15.000000
_cell_angle_alpha 90.000000
_cell_angle_beta 30.000000
_cell_angle_gamma 90.000000
_cell_volume 2700.000000
_symmetry_space_group_name_H-M "C 2/C"
_symmetry_group_IT_number 15
_symmetry_cell_setting 'monoclinic'
loop_
_space_group_symop_operation_xyz
x,y,z
-x,y,1/2-z
-x,-y,-z
x,-y,1/2+z
1/2+x,1/2+y,z
1/2-x,1/2+y,1/2-z
1/2-x,1/2-y,-z
1/2+x,1/2-y,1/2+z
loop_
_atom_site_type_symbol
_atom_site_label
_atom_site_fract_x
_atom_site_fract_y
_atom_site_fract_z
Si Si1 0.254416 0.305082 0.718997
Si Si2 0.500000 0.438307 0.250000
Si Si3 0.738815 0.074178 0.701684
Si Si4 0.069201 0.889548 0.797082
Si Si5 0.786321 0.350021 0.945113
Si Si6 0.000000 0.529245 0.750000
Si Si7 0.223629 0.496860 0.886206
Si Si8 0.663563 0.180270 0.894185
O O1 0.373106 0.335201 0.693549
O O2 0.279075 0.321791 0.591793
O O3 0.276669 0.238502 0.700414
O O4 0.050212 0.320654 0.915798
O O5 0.346473 0.401479 0.427634
O O6 0.589345 0.475712 0.247671
O O7 0.617477 0.066198 0.717415
O O8 0.720747 0.128640 0.781475
O O9 0.928535 0.079954 0.486217
O O10 0.689715 0.024816 0.817440
O O11 0.240174 0.930821 0.648143
O O12 0.000000 0.883135 0.750000
O O13 0.000000 0.360514 0.750000
O O14 0.770216 0.322032 0.058895
O O15 0.105133 0.494477 0.580312
#
# Coordination Sequence:
#
# PCOD9309603 Si02
#       8
#     8   4   8   8   8   4   8   8
#     4  11  25  44  72 101 143 185 236 298 356 421
#     4  12  22  40  70 100 144 182 234 280 358 420
#     4  12  25  46  72  99 146 183 237 293 356 424
#     4  12  25  49  70 103 140 186 245 290 354 421
#     4  10  24  43  70 105 148 183 234 295 358 433
#     4  12  26  44  70 102 148 184 236 292 350 428
#     4  12  25  45  71 105 140 193 230 290 354 427
#     4  11  24  45  70 107 137 185 237 289 363 423
#
# _framework density 10.370369999999999
#
# number of rings (size 3 to 8) (size 9 to 14) (size 15 to 20)
#    0.000    0.571    3.571    3.857    3.000    1.143 
#    1.286    1.429    0.000    0.000    0.000    0.000 
#    0.000    0.000    0.000    0.000    0.000    0.000 
#
# Total GULP energy -156008.886981 kJ/mol
# GULP energy per Si atom -5571.745964 kJ/mol
# Density = 1.034677 g / cm^3
# Si number density = 10.370370 Si / 1000 Ang^3
#
#
#
# Elastic Constant Matrix: (Units=GPa)
#
#
# Indices 1 2 3 4 5 6 
#
# 1 164.8669 43.3770 21.7096 0.0371 38.4318 0.0099
# 2 43.3770 99.4705 20.8046 0.0178 13.3492 0.0379
# 3 21.7096 20.8046 99.1657 0.0528 33.2728 0.0796
# 4 0.0371 0.0178 0.0528 31.1296 -0.0361 -10.6123
# 5 38.4318 13.3492 33.2728 -0.0361 38.8705 -0.0362
# 6 0.0099 0.0379 0.0796 -10.6123 -0.0362 15.1451
#
#
#
# Elastic Compliance Matrix: (Units=1/GPa)
#
#
# Indices 1 2 3 4 5 6 
#
# 1 0.008742 -0.002956 0.001776 -0.000043 -0.009148 -0.000059
# 2 -0.002956 0.011678 -0.002017 -0.000005 0.000638 -0.000019
# 3 0.001776 -0.002017 0.014697 -0.000102 -0.013643 -0.000178
# 4 -0.000043 -0.000005 -0.000102 0.042207 0.000198 0.029576
# 5 -0.009148 0.000638 -0.013643 0.000198 0.046232 0.000325
# 6 -0.000059 -0.000019 -0.000178 0.029576 0.000325 0.086753
#
#
# Mechanical properties :
#
#
# Convention : Reuss Voigt Hill
#
# Bulk Modulus (GPa) = 34.81571 59.47617 47.14594
# Shear Modulus (GPa) = 22.09681 35.53649 28.81665
#
# Velocity S-wave (km/s) = 3.26756 4.14377 3.73147
# Velocity P-wave (km/s) = 5.57302 7.18559 6.43006
#
# Compressibility (1/GPa) = 0.02872266
#
# Stress axis : x y z
#
# Youngs Moduli (GPa) = 114.39129 85.62784 68.04339
#
# Poissons Ratio (x) = 0.25310 -0.12084
# Poissons Ratio (y) = 0.33812 0.13726
# Poissons Ratio (z) = -0.20315 0.17273
#
# Static dielectric constant tensor:
#      x y z
#    x 1.780210 -0.000020 -0.026670 
#    y -0.000020 1.783080 0.000030 
#    z -0.026670 0.000030 1.812490 
# 
# From -- ./inp_files/156930.got.cif
#   From: 2010.05.17/outbox.ucp.g08.bks.cvg/sg15_79_cif.got.tgz:156930.got - 2010.06.11 12:40:34.
