data_PCOD9309181
_publ_section_title
;
Structure prediction by ZEFSAII (Michael W. Deem and Ramdas Pophale) SiO2 
 PCOD9309181
Probable space group: C 2/C
;
_chemical_formula_sum "Si O2"
_cell_formula_units_Z 24
_cell_length_a 21.000000
_cell_length_b 12.000000
_cell_length_c 27.000000
_cell_angle_alpha 90.000000
_cell_angle_beta 20.000000
_cell_angle_gamma 90.000000
_cell_volume 2327.105055
_symmetry_space_group_name_H-M "C 2/C"
_symmetry_group_IT_number 15
_symmetry_cell_setting 'monoclinic'
loop_
_space_group_symop_operation_xyz
x,y,z
-x,y,1/2-z
-x,-y,-z
x,-y,1/2+z
1/2+x,1/2+y,z
1/2-x,1/2+y,1/2-z
1/2-x,1/2-y,-z
1/2+x,1/2-y,1/2+z
loop_
_atom_site_type_symbol
_atom_site_label
_atom_site_fract_x
_atom_site_fract_y
_atom_site_fract_z
Si Si1 0.743042 0.241998 0.361711
Si Si2 0.877402 0.436780 0.885759
Si Si3 0.797895 0.313962 0.796142
Si Si4 0.852603 0.659020 0.959181
Si Si5 0.884111 0.111541 0.160989
Si Si6 0.968729 0.867675 0.421848
O O1 0.729153 0.174949 0.424866
O O2 0.774955 0.163276 0.289025
O O3 0.554070 0.314858 0.511477
O O4 0.926476 0.318952 0.215905
O O5 0.813932 0.536148 0.967475
O O6 0.000000 0.484048 0.750000
O O7 0.019956 0.355074 0.808448
O O8 0.698057 0.374557 0.995712
O O9 0.755650 0.399585 0.782707
O O10 0.854721 0.199876 0.727475
O O11 0.626929 0.313005 0.959653
O O12 0.750000 0.750000 0.000000
O O13 0.972507 0.993986 0.110228
#
# Coordination Sequence:
#
# PCOD9309181 Si02
#       6
#     8   8   8   8   8   8
#     4  10  22  37  61  94 128 161 206 261 317 379
#     4  10  21  39  62  88 123 167 211 260 316 371
#     4  11  24  42  65  90 123 168 213 260 314 381
#     4  11  20  36  61  93 126 164 209 261 320 380
#     4  11  23  43  65  93 128 166 208 261 320 381
#     4  11  24  43  65  92 126 166 212 263 315 374
#
# _framework density 10.313243
#
# number of rings (size 3 to 8) (size 9 to 14) (size 15 to 20)
#    0.000    1.333    0.000    7.500    0.000    4.000 
#    0.000    4.167    0.000    0.000    0.000    0.000 
#    0.000    0.000    0.000    0.000    0.000    0.000 
#
# Total GULP energy -133795.943621 kJ/mol
# GULP energy per Si atom -5574.830984 kJ/mol
# Density = 1.028977 g / cm^3
# Si number density = 10.313243 Si / 1000 Ang^3
#
#
#
# Elastic Constant Matrix: (Units=GPa)
#
#
# Indices 1 2 3 4 5 6 
#
# 1 113.3698 29.3330 47.9039 0.0134 24.8008 -0.0042
# 2 29.3330 71.8725 39.4282 0.0542 17.3225 0.0023
# 3 47.9039 39.4282 114.6352 0.0484 42.0489 -0.0050
# 4 0.0134 0.0542 0.0484 36.9163 0.0005 8.9757
# 5 24.8008 17.3225 42.0489 0.0005 43.6787 0.0017
# 6 -0.0042 0.0023 -0.0050 8.9757 0.0017 19.7782
#
#
#
# Elastic Compliance Matrix: (Units=1/GPa)
#
#
# Indices 1 2 3 4 5 6 
#
# 1 0.011240 -0.002349 -0.002921 0.000003 -0.002638 0.000001
# 2 -0.002349 0.017726 -0.004677 -0.000020 -0.001193 0.000006
# 3 -0.002921 -0.004677 0.015867 -0.000016 -0.011761 0.000012
# 4 0.000003 -0.000020 -0.000016 0.030448 0.000022 -0.013818
# 5 -0.002638 -0.001193 -0.011761 0.000022 0.036188 -0.000016
# 6 0.000001 0.000006 0.000012 -0.013818 -0.000016 0.056831
#
#
# Mechanical properties :
#
#
# Convention : Reuss Voigt Hill
#
# Bulk Modulus (GPa) = 40.10068 59.24530 49.67299
# Shear Modulus (GPa) = 25.44431 32.28881 28.86656
#
# Velocity S-wave (km/s) = 3.51604 3.96081 3.74503
# Velocity P-wave (km/s) = 5.99724 7.05001 6.54483
#
# Compressibility (1/GPa) = 0.02493723
#
# Stress axis : x y z
#
# Youngs Moduli (GPa) = 88.96815 56.41516 63.02406
#
# Poissons Ratio (x) = 0.13251 0.18412
# Poissons Ratio (y) = 0.20897 0.29479
# Poissons Ratio (z) = 0.25991 0.26388
#
# Static dielectric constant tensor:
#      x y z
#    x 1.812580 0.000030 -0.044010 
#    y 0.000030 1.625180 -0.000050 
#    z -0.044010 -0.000050 1.731100 
# 
# From -- ./inp_files/300910.got.cif
#   From: 2010.05.17/outbox.ucp.g08.bks.cvg/sg15_151_cif.got.tgz:300910.got - 2010.06.11 12:40:34.
