data_PCOD9309214
_publ_section_title
;
Structure prediction by ZEFSAII (Michael W. Deem and Ramdas Pophale) SiO2 
 PCOD9309214
Probable space group: C 2/C
;
_chemical_formula_sum "Si O2"
_cell_formula_units_Z 24
_cell_length_a 9.000000
_cell_length_b 15.000000
_cell_length_c 27.000000
_cell_angle_alpha 90.000000
_cell_angle_beta 40.000000
_cell_angle_gamma 90.000000
_cell_volume 2342.960837
_symmetry_space_group_name_H-M "C 2/C"
_symmetry_group_IT_number 15
_symmetry_cell_setting 'monoclinic'
loop_
_space_group_symop_operation_xyz
x,y,z
-x,y,1/2-z
-x,-y,-z
x,-y,1/2+z
1/2+x,1/2+y,z
1/2-x,1/2+y,1/2-z
1/2-x,1/2-y,-z
1/2+x,1/2-y,1/2+z
loop_
_atom_site_type_symbol
_atom_site_label
_atom_site_fract_x
_atom_site_fract_y
_atom_site_fract_z
Si Si1 0.638188 0.878924 0.798619
Si Si2 0.622274 0.064682 0.668526
Si Si3 0.472543 0.253757 0.859656
Si Si4 0.653246 0.282472 0.160876
Si Si5 0.138434 0.937799 0.082791
Si Si6 0.142586 0.396867 0.914135
O O1 0.849381 0.823843 0.715951
O O2 0.436485 0.807184 0.841835
O O3 0.694992 0.892042 0.842013
O O4 0.523653 0.974256 0.809861
O O5 0.500000 0.092670 0.750000
O O6 0.573778 0.152350 0.647510
O O7 0.897755 0.051791 0.612628
O O8 0.593686 0.237719 0.881647
O O9 0.230880 0.305648 0.916744
O O10 0.500000 0.300981 0.250000
O O11 0.619649 0.360907 0.129682
O O12 0.212248 0.026067 0.094702
O O13 0.368039 0.914497 0.991843
#
# Coordination Sequence:
#
# PCOD9309214 Si02
#       6
#     8   8   8   8   8   8
#     4  11  23  40  66  94 125 164 209 259 307 368
#     4  12  23  40  65  93 124 162 210 259 311 369
#     4  11  23  40  66  96 125 163 209 257 310 368
#     4  10  21  40  63  93 124 159 211 260 309 365
#     4  11  25  42  64  92 127 167 207 256 310 368
#     4  11  24  42  61  92 131 166 208 255 308 367
#
# _framework density 10.243449
#
# number of rings (size 3 to 8) (size 9 to 14) (size 15 to 20)
#    0.000    1.000    0.000    9.000    0.000    5.333 
#    0.000    0.000    0.000    0.000    0.000    0.000 
#    0.000    0.000    0.000    0.000    0.000    0.000 
#
# Total GULP energy -133865.745323 kJ/mol
# GULP energy per Si atom -5577.739388 kJ/mol
# Density = 1.022013 g / cm^3
# Si number density = 10.243449 Si / 1000 Ang^3
#
#
#
# Elastic Constant Matrix: (Units=GPa)
#
#
# Indices 1 2 3 4 5 6 
#
# 1 126.1823 26.0365 13.7953 -0.0015 -20.0698 0.0009
# 2 26.0365 144.9466 6.3650 -0.0004 -2.4817 0.0000
# 3 13.7953 6.3650 43.9729 0.0000 -12.8906 0.0027
# 4 -0.0015 -0.0004 0.0000 26.5651 0.0007 -1.5123
# 5 -20.0698 -2.4817 -12.8906 0.0007 40.6716 -0.0011
# 6 0.0009 0.0000 0.0027 -1.5123 -0.0011 46.6951
#
#
#
# Elastic Compliance Matrix: (Units=1/GPa)
#
#
# Indices 1 2 3 4 5 6 
#
# 1 0.009012 -0.001488 -0.001472 0.000000 0.003890 0.000000
# 2 -0.001488 0.007189 -0.000728 0.000000 -0.000526 0.000000
# 3 -0.001472 -0.000728 0.025447 0.000000 0.007295 -0.000001
# 4 0.000000 0.000000 0.000000 0.037713 -0.000001 0.001221
# 5 0.003890 -0.000526 0.007295 -0.000001 0.028786 0.000000
# 6 0.000000 0.000000 -0.000001 0.001221 0.000000 0.021455
#
#
# Mechanical properties :
#
#
# Convention : Reuss Voigt Hill
#
# Bulk Modulus (GPa) = 29.17748 45.27726 37.22737
# Shear Modulus (GPa) = 33.69254 40.71336 37.20295
#
# Velocity S-wave (km/s) = 4.05975 4.46274 4.26601
# Velocity P-wave (km/s) = 6.02066 6.97877 6.51735
#
# Compressibility (1/GPa) = 0.03427301
#
# Stress axis : x y z
#
# Youngs Moduli (GPa) = 110.96901 139.09634 39.29775
#
# Poissons Ratio (x) = 0.20691 0.05783
# Poissons Ratio (y) = 0.16507 0.02862
# Poissons Ratio (z) = 0.16330 0.10129
#
# Static dielectric constant tensor:
#      x y z
#    x 1.752440 0.000000 -0.032600 
#    y 0.000000 1.754470 0.000000 
#    z -0.032600 0.000000 1.788190 
# 
# From -- ./inp_files/289019.got.cif
#   From: 2010.05.17/outbox.ucp.g08.bks.cvg/sg15_145_cif.got.tgz:289019.got - 2010.06.11 12:40:34.
