data_PCOD9309369
_publ_section_title
;
Structure prediction by ZEFSAII (Michael W. Deem and Ramdas Pophale) SiO2 
 PCOD9309369
Probable space group: C 2/C
;
_chemical_formula_sum "Si O2"
_cell_formula_units_Z 24
_cell_length_a 15.000000
_cell_length_b 30.000000
_cell_length_c 15.000000
_cell_angle_alpha 90.000000
_cell_angle_beta 160.000000
_cell_angle_gamma 90.000000
_cell_volume 2308.635967
_symmetry_space_group_name_H-M "C 2/C"
_symmetry_group_IT_number 15
_symmetry_cell_setting 'monoclinic'
loop_
_space_group_symop_operation_xyz
x,y,z
-x,y,1/2-z
-x,-y,-z
x,-y,1/2+z
1/2+x,1/2+y,z
1/2-x,1/2+y,1/2-z
1/2-x,1/2-y,-z
1/2+x,1/2-y,1/2+z
loop_
_atom_site_type_symbol
_atom_site_label
_atom_site_fract_x
_atom_site_fract_y
_atom_site_fract_z
Si Si1 0.690952 0.777720 0.808102
Si Si2 0.816594 0.053909 0.752031
Si Si3 0.289076 0.375508 0.981182
Si Si4 0.249018 0.551683 0.197517
Si Si5 0.719738 0.869938 0.531152
Si Si6 0.731157 0.275498 0.832206
O O1 0.412201 0.753794 0.560180
O O2 0.715479 0.830384 0.856521
O O3 0.732932 0.775510 0.740750
O O4 0.505596 0.063022 0.477846
O O5 0.785084 0.000507 0.702217
O O6 0.016585 0.084681 0.878588
O O7 0.977274 0.059566 0.994902
O O8 0.000000 0.390774 0.750000
O O9 0.500000 0.357469 0.250000
O O10 0.208682 0.585525 0.079517
O O11 0.703271 0.824856 0.573187
O O12 0.000000 0.868857 0.750000
O O13 0.500000 0.870152 0.250000
O O14 0.435951 0.258835 0.568974
#
# Coordination Sequence:
#
# PCOD9309369 Si02
#       6
#     8   8   8   8   8   8
#     4  10  22  40  62  88 124 173 222 263 307 373
#     4  10  22  43  68  90 119 164 215 260 306 373
#     4  12  25  39  62  97 133 166 205 265 333 385
#     4  10  22  43  68  90 118 164 215 258 306 375
#     4  12  25  39  62  96 131 163 199 258 326 379
#     4  10  22  40  62  87 119 165 214 255 300 366
#
# _framework density 10.395749
#
# number of rings (size 3 to 8) (size 9 to 14) (size 15 to 20)
#    0.000    1.333    0.000    5.000    0.000    8.667 
#    0.000    1.667    0.000    0.000    0.000    0.000 
#    0.000    0.000    0.000    0.000    0.000    0.000 
#
# Total GULP energy -133725.629627 kJ/mol
# GULP energy per Si atom -5571.901234 kJ/mol
# Density = 1.037209 g / cm^3
# Si number density = 10.395749 Si / 1000 Ang^3
#
#
#
# Elastic Constant Matrix: (Units=GPa)
#
#
# Indices 1 2 3 4 5 6 
#
# 1 53.8997 41.6278 40.7760 0.0040 5.4606 -0.0031
# 2 41.6278 114.6327 44.7509 0.0071 -3.9047 -0.0105
# 3 40.7760 44.7509 178.8979 0.0161 6.6528 -0.0223
# 4 0.0040 0.0071 0.0161 28.9705 0.0033 8.6462
# 5 5.4606 -3.9047 6.6528 0.0033 39.6907 -0.0037
# 6 -0.0031 -0.0105 -0.0223 8.6462 -0.0037 14.6658
#
#
#
# Elastic Compliance Matrix: (Units=1/GPa)
#
#
# Indices 1 2 3 4 5 6 
#
# 1 0.029201 -0.009099 -0.004223 0.000004 -0.004205 -0.000010
# 2 -0.009099 0.012577 -0.001172 -0.000004 0.002685 0.000008
# 3 -0.004223 -0.001172 0.006871 -0.000007 -0.000686 0.000012
# 4 0.000004 -0.000004 -0.000007 0.041888 -0.000006 -0.024695
# 5 -0.004205 0.002685 -0.000686 -0.000006 0.026152 0.000010
# 6 -0.000010 0.000008 0.000012 -0.024695 0.000010 0.082745
#
#
# Mechanical properties :
#
#
# Convention : Reuss Voigt Hill
#
# Bulk Modulus (GPa) = 50.86289 66.85996 58.86143
# Shear Modulus (GPa) = 21.27880 31.35045 26.31462
#
# Velocity S-wave (km/s) = 3.20259 3.88732 3.56145
# Velocity P-wave (km/s) = 6.17996 7.23709 6.72931
#
# Compressibility (1/GPa) = 0.01966070
#
# Stress axis : x y z
#
# Youngs Moduli (GPa) = 34.24545 79.51285 145.53684
#
# Poissons Ratio (x) = 0.72345 0.61466
# Poissons Ratio (y) = 0.31158 0.17058
# Poissons Ratio (z) = 0.14463 0.09319
#
# Static dielectric constant tensor:
#      x y z
#    x 1.812260 0.000000 -0.004180 
#    y 0.000000 1.745500 0.000000 
#    z -0.004180 0.000000 1.725350 
# 
# From -- ./inp_files/157712.got.cif
#   From: 2010.05.17/outbox.ucp.g08.bks.cvg/sg15_79_cif.got.tgz:157712.got - 2010.06.11 12:40:34.
