data_PCOD9309275
_publ_section_title
;
Structure prediction by ZEFSAII (Michael W. Deem and Ramdas Pophale) SiO2 
 PCOD9309275
Probable space group: C 2/C
;
_chemical_formula_sum "Si O2"
_cell_formula_units_Z 24
_cell_length_a 15.000000
_cell_length_b 18.000000
_cell_length_c 9.000000
_cell_angle_alpha 90.000000
_cell_angle_beta 90.000000
_cell_angle_gamma 90.000000
_cell_volume 2430.000000
_symmetry_space_group_name_H-M "C 2/C"
_symmetry_group_IT_number 15
_symmetry_cell_setting 'monoclinic'
loop_
_space_group_symop_operation_xyz
x,y,z
-x,y,1/2-z
-x,-y,-z
x,-y,1/2+z
1/2+x,1/2+y,z
1/2-x,1/2+y,1/2-z
1/2-x,1/2-y,-z
1/2+x,1/2-y,1/2+z
loop_
_atom_site_type_symbol
_atom_site_label
_atom_site_fract_x
_atom_site_fract_y
_atom_site_fract_z
Si Si1 0.410271 0.221263 0.504566
Si Si2 0.500000 0.674224 0.250000
Si Si3 0.170492 0.409474 0.293760
Si Si4 0.343684 0.063373 0.049921
Si Si5 0.799171 0.790542 0.234628
Si Si6 0.000000 0.370741 0.750000
Si Si7 0.673118 0.329140 0.589162
O O1 0.460213 0.277884 0.613171
O O2 0.376988 0.155994 0.614132
O O3 0.340558 0.259333 0.387704
O O4 0.471293 0.180420 0.385612
O O5 0.412397 0.637746 0.325549
O O6 0.175324 0.479155 0.403092
O O7 0.267023 0.373963 0.264322
O O8 0.132111 0.427171 0.126710
O O9 0.419135 0.085173 0.171682
O O10 0.255964 0.114156 0.074045
O O11 0.715315 0.738522 0.185903
O O12 0.850883 0.796799 0.075691
#
# Coordination Sequence:
#
# PCOD9309275 Si02
#       7
#     8   4   8   8   8   4   8
#     4  12  23  37  63  97 123 168 208 260 313 376
#     4  12  24  35  66  97 128 162 214 268 306 373
#     4  11  24  41  65  93 127 169 208 260 315 385
#     4  11  25  42  61  91 131 169 208 255 321 377
#     4  10  21  42  67  90 127 163 214 260 311 371
#     4  12  24  39  62  89 134 172 200 262 310 387
#     4  10  22  43  62  95 127 166 210 263 312 370
#
# _framework density 9.8765429999999999
#
# number of rings (size 3 to 8) (size 9 to 14) (size 15 to 20)
#    0.000    1.000    3.333    3.500    2.333    3.333 
#    0.000    0.000    0.000   10.000    0.000    0.000 
#    0.000    0.000    0.000    0.000    0.000    0.000 
#
# Total GULP energy -133734.088607 kJ/mol
# GULP energy per Si atom -5572.253692 kJ/mol
# Density = 0.985406 g / cm^3
# Si number density = 9.876543 Si / 1000 Ang^3
#
#
#
# Elastic Constant Matrix: (Units=GPa)
#
#
# Indices 1 2 3 4 5 6 
#
# 1 72.3231 20.6668 48.5318 0.0000 -0.3340 0.0000
# 2 20.6668 42.9070 20.7385 0.0000 17.6367 0.0000
# 3 48.5318 20.7385 149.2548 0.0000 17.0266 0.0000
# 4 0.0000 0.0000 0.0000 52.1935 0.0000 72.6987
# 5 -0.3340 17.6367 17.0266 0.0000 40.3133 0.0000
# 6 0.0000 0.0000 0.0000 72.6987 0.0000 481.7186
#
#
#
# Elastic Compliance Matrix: (Units=1/GPa)
#
#
# Indices 1 2 3 4 5 6 
#
# 1 0.020896 -0.010008 -0.006223 0.000000 0.007180 0.000000
# 2 -0.010008 0.034251 0.000225 0.000000 -0.015162 0.000000
# 3 -0.006223 0.000225 0.009150 0.000000 -0.004015 0.000000
# 4 0.000000 0.000000 0.000000 0.024259 0.000000 -0.003661
# 5 0.007180 -0.015162 -0.004015 0.000000 0.033194 0.000000
# 6 0.000000 0.000000 0.000000 -0.003661 0.000000 0.002628
#
#
# Mechanical properties :
#
#
# Convention : Reuss Voigt Hill
#
# Bulk Modulus (GPa) = 30.97519 49.37321 40.17420
# Shear Modulus (GPa) = 29.91293 126.48159 78.19726
#
# Velocity S-wave (km/s) = 3.89568 8.01064 6.29867
# Velocity P-wave (km/s) = 5.99586 10.51712 8.56038
#
# Compressibility (1/GPa) = 0.03228390
#
# Stress axis : x y z
#
# Youngs Moduli (GPa) = 47.85651 29.19660 109.28816
#
# Poissons Ratio (x) = 0.29221 0.68009
# Poissons Ratio (y) = 0.47896 -0.02459
# Poissons Ratio (z) = 0.29781 -0.00657
#
# Static dielectric constant tensor:
#      x y z
#    x 1.201170 0.000000 0.314570 
#    y 0.000000 1.717590 0.000000 
#    z 0.314570 0.000000 1.529530 
# 
# From -- ./inp_files/39681.got.cif
#   From: 2010.05.17/outbox.ucp.g08.bks.cvg/sg15_20_cif.got.tgz:39681.got - 2010.06.11 12:40:34.
