data_PCOD9309661
_publ_section_title
;
Structure prediction by ZEFSAII (Michael W. Deem and Ramdas Pophale) SiO2 
 PCOD9309661
Probable space group: C 2/C
;
_chemical_formula_sum "Si O2"
_cell_formula_units_Z 32
_cell_length_a 12.000000
_cell_length_b 21.000000
_cell_length_c 21.000000
_cell_angle_alpha 90.000000
_cell_angle_beta 140.000000
_cell_angle_gamma 90.000000
_cell_volume 3401.632030
_symmetry_space_group_name_H-M "C 2/C"
_symmetry_group_IT_number 15
_symmetry_cell_setting 'monoclinic'
loop_
_space_group_symop_operation_xyz
x,y,z
-x,y,1/2-z
-x,-y,-z
x,-y,1/2+z
1/2+x,1/2+y,z
1/2-x,1/2+y,1/2-z
1/2-x,1/2-y,-z
1/2+x,1/2-y,1/2+z
loop_
_atom_site_type_symbol
_atom_site_label
_atom_site_fract_x
_atom_site_fract_y
_atom_site_fract_z
Si Si1 0.117493 0.283400 0.737995
Si Si2 0.163963 0.059011 0.470656
Si Si3 0.080294 0.367420 0.948172
Si Si4 0.576420 0.347632 0.564857
Si Si5 0.030416 0.166165 0.899452
Si Si6 0.913875 0.037645 0.782485
Si Si7 0.029469 0.438539 0.056280
Si Si8 0.837526 0.457910 0.630896
O O1 0.311038 0.296184 0.847150
O O2 0.000000 0.295881 0.750000
O O3 0.063382 0.328556 0.654761
O O4 0.072559 0.214488 0.690570
O O5 0.347676 0.071244 0.514635
O O6 0.073437 0.122225 0.457826
O O7 0.220491 0.017183 0.557405
O O8 0.016682 0.021671 0.362798
O O9 0.102281 0.428963 0.911270
O O10 0.263182 0.330198 0.023519
O O11 0.054546 0.385099 0.011149
O O12 0.511255 0.324289 0.467023
O O13 0.713894 0.404809 0.608912
O O14 0.969358 0.096281 0.851485
O O15 0.704538 0.046021 0.675600
O O16 0.000000 0.042688 0.750000
O O17 0.000000 0.500000 0.000000
O O18 0.000000 0.470224 0.750000
#
# Coordination Sequence:
#
# PCOD9309661 Si02
#       8
#     8   8   8   8   8   8   8   8
#     4  12  23  38  70  97 122 164 215 287 333 376
#     4  12  26  40  63  93 140 182 208 259 326 404
#     4  11  20  39  59  96 134 157 216 266 325 381
#     4  11  24  41  59  97 133 168 218 263 336 394
#     4  11  23  40  64  98 124 161 219 277 332 373
#     4  12  22  39  64  94 132 170 214 267 323 383
#     4  12  24  39  60  96 136 171 214 261 312 393
#     4  11  19  37  63  92 131 173 208 269 318 390
#
# _framework density 9.4072490000000002
#
# number of rings (size 3 to 8) (size 9 to 14) (size 15 to 20)
#    0.000    0.500   10.000    1.125    3.500    0.000 
#    0.000    0.000    0.000    4.500    0.000    0.000 
#    0.000    0.000    0.000    0.000    0.000    0.000 
#
# Total GULP energy -178554.174833 kJ/mol
# GULP energy per Si atom -5579.817964 kJ/mol
# Density = 0.938584 g / cm^3
# Si number density = 9.407249 Si / 1000 Ang^3
#
#
#
# Elastic Constant Matrix: (Units=GPa)
#
#
# Indices 1 2 3 4 5 6 
#
# 1 107.7909 23.5718 42.4044 0.0000 5.7770 0.0000
# 2 23.5718 45.3247 20.3688 0.0000 -2.2340 0.0000
# 3 42.4044 20.3688 144.9258 0.0000 -7.3166 0.0000
# 4 0.0000 0.0000 0.0000 46.7896 0.0000 -5.8388
# 5 5.7770 -2.2340 -7.3166 0.0000 26.7359 0.0000
# 6 0.0000 0.0000 0.0000 -5.8388 0.0000 18.0183
#
#
#
# Elastic Compliance Matrix: (Units=1/GPa)
#
#
# Indices 1 2 3 4 5 6 
#
# 1 0.011711 -0.004964 -0.002918 0.000000 -0.003744 0.000000
# 2 -0.004964 0.025685 -0.002023 0.000000 0.002665 0.000000
# 3 -0.002918 -0.002023 0.008174 0.000000 0.002698 0.000000
# 4 0.000000 0.000000 0.000000 0.022273 0.000000 0.007218
# 5 -0.003744 0.002665 0.002698 0.000000 0.039173 0.000000
# 6 0.000000 0.000000 0.000000 0.007218 0.000000 0.057838
#
#
# Mechanical properties :
#
#
# Convention : Reuss Voigt Hill
#
# Bulk Modulus (GPa) = 38.81826 52.30348 45.56087
# Shear Modulus (GPa) = 25.87305 32.42186 29.14745
#
# Velocity S-wave (km/s) = 3.71235 4.15569 3.94026
# Velocity P-wave (km/s) = 6.24918 7.13346 6.70591
#
# Compressibility (1/GPa) = 0.02576107
#
# Stress axis : x y z
#
# Youngs Moduli (GPa) = 85.38763 38.93319 122.33258
#
# Poissons Ratio (x) = 0.19326 0.35697
# Poissons Ratio (y) = 0.42385 0.24748
# Poissons Ratio (z) = 0.24916 0.07876
#
# Static dielectric constant tensor:
#      x y z
#    x 1.669160 0.000000 0.013440 
#    y 0.000000 1.722880 0.000000 
#    z 0.013440 0.000000 1.657150 
# 
# From -- ./inp_files/240452.got.cif
#   From: 2010.05.17/outbox.ucp.g08.bks.cvg/sg15_121_cif.got.tgz:240452.got - 2010.06.11 12:40:34.
