data_PCOD9309517
_publ_section_title
;
Structure prediction by ZEFSAII (Michael W. Deem and Ramdas Pophale) SiO2 
 PCOD9309517
Probable space group: C 2/C
;
_chemical_formula_sum "Si O2"
_cell_formula_units_Z 26
_cell_length_a 30.000000
_cell_length_b 18.000000
_cell_length_c 27.000000
_cell_angle_alpha 90.000000
_cell_angle_beta 170.000000
_cell_angle_gamma 90.000000
_cell_volume 2531.790430
_symmetry_space_group_name_H-M "C 2/C"
_symmetry_group_IT_number 15
_symmetry_cell_setting 'monoclinic'
loop_
_space_group_symop_operation_xyz
x,y,z
-x,y,1/2-z
-x,-y,-z
x,-y,1/2+z
1/2+x,1/2+y,z
1/2-x,1/2+y,1/2-z
1/2-x,1/2-y,-z
1/2+x,1/2-y,1/2+z
loop_
_atom_site_type_symbol
_atom_site_label
_atom_site_fract_x
_atom_site_fract_y
_atom_site_fract_z
Si Si1 0.077429 0.944570 0.722629
Si Si2 0.987493 0.441131 0.829779
Si Si3 0.868826 0.451317 0.812769
Si Si4 0.000000 0.019723 0.250000
Si Si5 0.833067 0.282444 0.811995
Si Si6 0.418522 0.774741 0.732262
Si Si7 0.077424 0.223463 0.184464
O O1 0.069016 0.865460 0.684948
O O2 0.061436 0.935722 0.765619
O O3 0.860399 0.997291 0.460028
O O4 0.328339 0.993367 0.986923
O O5 0.012940 0.436976 0.917725
O O6 0.718464 0.466226 0.511401
O O7 0.024948 0.358802 0.849405
O O8 0.814728 0.370384 0.778469
O O9 0.000000 0.500000 0.000000
O O10 0.540432 0.251933 0.499405
O O11 0.961295 0.258262 0.005720
O O12 0.250000 0.750000 0.500000
O O13 0.191741 0.770200 0.526700
O O14 0.380365 0.244643 0.510738
#
# Coordination Sequence:
#
# PCOD9309517 Si02
#       7
#     8   8   8   4   8   8   8
#     4  11  26  45  77 107 144 192 248 305 366 444
#     4  11  26  43  73 105 143 197 243 300 367 437
#     4  11  26  44  70 107 148 192 248 300 362 438
#     4  10  24  46  72 104 146 182 250 302 372 430
#     4  10  23  42  68  97 145 195 241 294 364 428
#     4  10  23  40  68  97 143 189 237 288 358 426
#     4  10  23  45  74 102 143 191 240 295 374 435
#
# _framework density 10.269412000000001
#
# number of rings (size 3 to 8) (size 9 to 14) (size 15 to 20)
#    0.000    1.538    0.000    3.231   19.385    1.846 
#    0.000    0.769    0.000    0.000    0.000    0.000 
#    0.000    0.000    0.000    0.000    0.000    0.000 
#
# Total GULP energy -144744.773773 kJ/mol
# GULP energy per Si atom -5567.106684 kJ/mol
# Density = 1.024604 g / cm^3
# Si number density = 10.269412 Si / 1000 Ang^3
#
#
#
# Elastic Constant Matrix: (Units=GPa)
#
#
# Indices 1 2 3 4 5 6 
#
# 1 117.8946 48.8225 44.1371 0.0427 -8.9209 0.0273
# 2 48.8225 179.0843 23.3295 0.0414 10.2285 0.0374
# 3 44.1371 23.3295 63.6238 0.2088 14.1809 -0.0735
# 4 0.0427 0.0414 0.2088 28.4569 -0.0436 1.9145
# 5 -8.9209 10.2285 14.1809 -0.0436 53.6882 -0.0038
# 6 0.0273 0.0374 -0.0735 1.9145 -0.0038 38.4621
#
#
#
# Elastic Compliance Matrix: (Units=1/GPa)
#
#
# Indices 1 2 3 4 5 6 
#
# 1 0.013641 -0.002768 -0.009638 0.000064 0.005340 -0.000028
# 2 -0.002768 0.006443 -0.000070 -0.000007 -0.001669 -0.000004
# 3 -0.009638 -0.000070 0.024209 -0.000179 -0.007983 0.000061
# 4 0.000064 -0.000007 -0.000179 0.035260 0.000088 -0.001756
# 5 0.005340 -0.001669 -0.007983 0.000088 0.021940 -0.000020
# 6 -0.000028 -0.000004 0.000061 -0.001756 -0.000020 0.026087
#
#
# Mechanical properties :
#
#
# Convention : Reuss Voigt Hill
#
# Bulk Modulus (GPa) = 51.70660 65.90899 58.80779
# Shear Modulus (GPa) = 31.45027 40.40901 35.92964
#
# Velocity S-wave (km/s) = 3.91738 4.44040 4.18706
# Velocity P-wave (km/s) = 6.75950 7.64521 7.21595
#
# Compressibility (1/GPa) = 0.01933989
#
# Stress axis : x y z
#
# Youngs Moduli (GPa) = 73.30851 155.20440 41.30628
#
# Poissons Ratio (x) = 0.42964 0.39813
# Poissons Ratio (y) = 0.20294 0.00290
# Poissons Ratio (z) = 0.70658 0.01089
#
# Static dielectric constant tensor:
#      x y z
#    x 1.796770 -0.000420 0.045920 
#    y -0.000420 1.710700 -0.001560 
#    z 0.045920 -0.001560 1.777110 
# 
# From -- ./inp_files/304467.got.cif
#   From: 2010.05.17/outbox.ucp.g08.bks.cvg/sg15_153_cif.got.tgz:304467.got - 2010.06.11 12:40:34.
