data_PCOD9309344
_publ_section_title
;
Structure prediction by ZEFSAII (Michael W. Deem and Ramdas Pophale) SiO2 
 PCOD9309344
Probable space group: C 2/C
;
_chemical_formula_sum "Si O2"
_cell_formula_units_Z 32
_cell_length_a 18.000000
_cell_length_b 15.000000
_cell_length_c 15.000000
_cell_angle_alpha 90.000000
_cell_angle_beta 50.000000
_cell_angle_gamma 90.000000
_cell_volume 3102.479995
_symmetry_space_group_name_H-M "C 2/C"
_symmetry_group_IT_number 15
_symmetry_cell_setting 'monoclinic'
loop_
_space_group_symop_operation_xyz
x,y,z
-x,y,1/2-z
-x,-y,-z
x,-y,1/2+z
1/2+x,1/2+y,z
1/2-x,1/2+y,1/2-z
1/2-x,1/2-y,-z
1/2+x,1/2-y,1/2+z
loop_
_atom_site_type_symbol
_atom_site_label
_atom_site_fract_x
_atom_site_fract_y
_atom_site_fract_z
Si Si1 0.214094 0.044341 0.951547
Si Si2 0.589686 0.391624 0.118749
Si Si3 0.034075 0.694755 0.085925
Si Si4 0.781071 0.294300 0.286133
Si Si5 0.485202 0.863909 0.100147
Si Si6 0.789488 0.394620 0.580093
Si Si7 0.225309 0.396667 0.395353
Si Si8 0.921258 0.534006 0.236259
O O1 0.215085 0.131588 0.887731
O O2 0.312283 0.989206 0.850112
O O3 0.227781 0.088292 0.038385
O O4 0.127163 0.971191 0.023776
O O5 0.500000 0.421227 0.250000
O O6 0.557073 0.295752 0.100418
O O7 0.681515 0.380979 0.114358
O O8 0.945715 0.637878 0.197830
O O9 0.129979 0.633237 0.024200
O O10 0.014679 0.684873 0.995618
O O11 0.750230 0.191932 0.333435
O O12 0.771422 0.328691 0.191132
O O13 0.896162 0.313334 0.220596
O O14 0.447799 0.967025 0.133987
O O15 0.599584 0.870796 0.034162
O O16 0.784237 0.497283 0.623959
O O17 0.000000 0.505809 0.250000
#
# Coordination Sequence:
#
# PCOD9309344 Si02
#       8
#     8   8   8   8   8   8   8   8
#     4  10  23  43  65  93 127 169 217 274 319 381
#     4  11  25  43  61  89 134 178 215 256 330 404
#     4  11  22  37  64  97 128 164 215 265 328 388
#     4  10  24  39  67  99 125 168 219 267 325 384
#     4  10  22  38  62  97 127 163 213 270 321 375
#     4  11  21  42  64  91 136 165 216 268 322 386
#     4  10  23  43  64  95 133 170 211 277 323 381
#     4  11  18  36  64  96 120 163 208 273 327 361
#
# _framework density 10.314329000000001
#
# number of rings (size 3 to 8) (size 9 to 14) (size 15 to 20)
#    0.000    1.500    2.500    2.250    5.250    3.000 
#    4.500    0.625    0.000    0.000    0.000    0.000 
#    0.000    0.000    0.000    0.000    0.000    0.000 
#
# Total GULP energy -178456.424128 kJ/mol
# GULP energy per Si atom -5576.763254 kJ/mol
# Density = 1.029085 g / cm^3
# Si number density = 10.314329 Si / 1000 Ang^3
#
#
#
# Elastic Constant Matrix: (Units=GPa)
#
#
# Indices 1 2 3 4 5 6 
#
# 1 30.9035 10.1043 -0.4743 0.0000 -0.6600 0.0000
# 2 10.1043 164.4500 49.2157 0.0000 -1.7776 0.0000
# 3 -0.4743 49.2157 92.8379 0.0000 -8.9257 0.0000
# 4 0.0000 0.0000 0.0000 47.9564 0.0000 -2.0353
# 5 -0.6600 -1.7776 -8.9257 0.0000 38.0612 0.0000
# 6 0.0000 0.0000 0.0000 -2.0353 0.0000 32.5256
#
#
#
# Elastic Compliance Matrix: (Units=1/GPa)
#
#
# Indices 1 2 3 4 5 6 
#
# 1 0.033219 -0.002504 0.001577 0.000000 0.000829 0.000000
# 2 -0.002504 0.007429 -0.004012 0.000000 -0.000637 0.000000
# 3 0.001577 -0.004012 0.013188 0.000000 0.002933 0.000000
# 4 0.000000 0.000000 0.000000 0.020908 0.000000 0.001308
# 5 0.000829 -0.000637 0.002933 0.000000 0.026946 0.000000
# 6 0.000000 0.000000 0.000000 0.001308 0.000000 0.030827
#
#
# Mechanical properties :
#
#
# Convention : Reuss Voigt Hill
#
# Bulk Modulus (GPa) = 22.74914 45.09808 33.92361
# Shear Modulus (GPa) = 31.83737 38.99834 35.41785
#
# Velocity S-wave (km/s) = 3.93282 4.35270 4.14807
# Velocity P-wave (km/s) = 5.62802 6.86809 6.27874
#
# Compressibility (1/GPa) = 0.04395770
#
# Stress axis : x y z
#
# Youngs Moduli (GPa) = 30.10290 134.61534 75.82412
#
# Poissons Ratio (x) = 0.33708 -0.11956
# Poissons Ratio (y) = 0.07538 0.30422
# Poissons Ratio (z) = -0.04747 0.54010
#
# Static dielectric constant tensor:
#      x y z
#    x 1.800660 0.000000 0.033820 
#    y 0.000000 1.736400 0.000000 
#    z 0.033820 0.000000 1.803110 
# 
# From -- ./inp_files/162519.got.cif
#   From: 2010.05.17/outbox.ucp.g08.bks.cvg/sg15_82_cif.got.tgz:162519.got - 2010.06.11 12:40:34.
