data_PCOD9309027
_publ_section_title
;
Structure prediction by ZEFSAII (Michael W. Deem and Ramdas Pophale) SiO2 
 PCOD9309027
Probable space group: C 2/C
;
_chemical_formula_sum "Si O2"
_cell_formula_units_Z 32
_cell_length_a 18.000000
_cell_length_b 9.000000
_cell_length_c 30.000000
_cell_angle_alpha 90.000000
_cell_angle_beta 140.000000
_cell_angle_gamma 90.000000
_cell_volume 3123.947783
_symmetry_space_group_name_H-M "C 2/C"
_symmetry_group_IT_number 15
_symmetry_cell_setting 'monoclinic'
loop_
_space_group_symop_operation_xyz
x,y,z
-x,y,1/2-z
-x,-y,-z
x,-y,1/2+z
1/2+x,1/2+y,z
1/2-x,1/2+y,1/2-z
1/2-x,1/2-y,-z
1/2+x,1/2-y,1/2+z
loop_
_atom_site_type_symbol
_atom_site_label
_atom_site_fract_x
_atom_site_fract_y
_atom_site_fract_z
Si Si1 0.466527 0.612088 0.554237
Si Si2 0.516187 0.546677 0.343886
Si Si3 0.733273 0.548286 0.680990
Si Si4 0.561877 0.752524 0.823730
Si Si5 0.764366 0.148243 0.240284
Si Si6 0.143773 0.330072 0.427182
Si Si7 0.004799 0.590307 0.113993
Si Si8 0.246561 0.042269 0.094111
O O1 0.446406 0.517853 0.590351
O O2 0.601724 0.589999 0.609726
O O3 0.445252 0.784780 0.555990
O O4 0.387758 0.558446 0.477965
O O5 0.553300 0.422311 0.326751
O O6 0.378005 0.561522 0.277166
O O7 0.572290 0.707369 0.367293
O O8 0.777652 0.680001 0.733004
O O9 0.738606 0.391742 0.708802
O O10 0.788396 0.533620 0.658533
O O11 0.500000 0.797901 0.750000
O O12 0.507329 0.838292 0.841529
O O13 0.694512 0.798393 0.881720
O O14 0.641126 0.091156 0.165785
O O15 0.250000 0.250000 0.500000
O O16 0.055517 0.430336 0.415682
O O17 0.201591 0.447474 0.421542
#
# Coordination Sequence:
#
# PCOD9309027 Si02
#       8
#     8   8   8   8   8   8   8   8
#     4   9  19  37  59  85 110 155 201 245 285 358
#     4  10  21  36  59  85 116 158 194 241 302 351
#     4  10  21  37  63  87 114 153 202 244 305 352
#     4  10  22  36  55  84 114 151 198 240 287 354
#     4  10  20  39  61  83 116 151 198 249 295 353
#     4  11  22  35  57  88 125 155 191 239 304 360
#     4   9  20  36  61  84 112 158 203 238 296 351
#     4  11  22  37  60  83 122 153 197 245 291 361
#
# _framework density 10.243449
#
# number of rings (size 3 to 8) (size 9 to 14) (size 15 to 20)
#    0.000    2.000    1.250    2.625    1.750    3.500 
#    0.000    0.625    0.000    1.500    0.000    0.000 
#    0.000    0.000    0.000    0.000    0.000    0.000 
#
# Total GULP energy -178254.891273 kJ/mol
# GULP energy per Si atom -5570.465352 kJ/mol
# Density = 1.022013 g / cm^3
# Si number density = 10.243449 Si / 1000 Ang^3
#
#
#
# Elastic Constant Matrix: (Units=GPa)
#
#
# Indices 1 2 3 4 5 6 
#
# 1 21.7509 15.3483 26.5453 0.0000 0.4542 0.0000
# 2 15.3483 81.6585 53.5795 0.0000 7.4432 0.0000
# 3 26.5453 53.5795 74.9229 0.0000 4.5426 0.0000
# 4 0.0000 0.0000 0.0000 26.9288 0.0000 6.8674
# 5 0.4542 7.4432 4.5426 0.0000 25.1912 0.0000
# 6 0.0000 0.0000 0.0000 6.8674 0.0000 7.2734
#
#
#
# Elastic Compliance Matrix: (Units=1/GPa)
#
#
# Indices 1 2 3 4 5 6 
#
# 1 0.083232 0.006716 -0.034458 0.000000 0.002728 0.000000
# 2 0.006716 0.023996 -0.019314 0.000000 -0.003729 0.000000
# 3 -0.034458 -0.019314 0.039415 0.000000 -0.000779 0.000000
# 4 0.000000 0.000000 0.000000 0.048912 0.000000 -0.046181
# 5 0.002728 -0.003729 -0.000779 0.000000 0.040889 0.000000
# 6 0.000000 0.000000 0.000000 -0.046181 0.000000 0.181090
#
#
# Mechanical properties :
#
#
# Convention : Reuss Voigt Hill
#
# Bulk Modulus (GPa) = 19.03594 41.03094 30.03344
# Shear Modulus (GPa) = 9.44902 17.40262 13.42582
#
# Velocity S-wave (km/s) = 2.14994 2.91770 2.56273
# Velocity P-wave (km/s) = 3.93382 5.60553 4.84236
#
# Compressibility (1/GPa) = 0.05253222
#
# Stress axis : x y z
#
# Youngs Moduli (GPa) = 12.01465 41.67299 25.37121
#
# Poissons Ratio (x) = -0.27989 0.87423
# Poissons Ratio (y) = -0.08069 0.49002
# Poissons Ratio (z) = 0.41400 0.80487
#
# Static dielectric constant tensor:
#      x y z
#    x 1.782860 0.000000 0.019360 
#    y 0.000000 1.737320 0.000000 
#    z 0.019360 0.000000 1.736690 
# 
# From -- ./inp_files/279557.got.cif
#   From: 2010.05.17/outbox.ucp.g08.bks.cvg/sg15_140_cif.got.tgz:279557.got - 2010.06.11 12:40:34.
