data_PCOD9309297
_publ_section_title
;
Structure prediction by ZEFSAII (Michael W. Deem and Ramdas Pophale) SiO2 
 PCOD9309297
Probable space group: C 2/C
;
_chemical_formula_sum "Si O2"
_cell_formula_units_Z 24
_cell_length_a 15.000000
_cell_length_b 30.000000
_cell_length_c 15.000000
_cell_angle_alpha 90.000000
_cell_angle_beta 160.000000
_cell_angle_gamma 90.000000
_cell_volume 2308.635967
_symmetry_space_group_name_H-M "C 2/C"
_symmetry_group_IT_number 15
_symmetry_cell_setting 'monoclinic'
loop_
_space_group_symop_operation_xyz
x,y,z
-x,y,1/2-z
-x,-y,-z
x,-y,1/2+z
1/2+x,1/2+y,z
1/2-x,1/2+y,1/2-z
1/2-x,1/2-y,-z
1/2+x,1/2-y,1/2+z
loop_
_atom_site_type_symbol
_atom_site_label
_atom_site_fract_x
_atom_site_fract_y
_atom_site_fract_z
Si Si1 0.000000 0.093850 0.750000
Si Si2 0.664020 0.219882 0.242706
Si Si3 0.000000 0.864635 0.750000
Si Si4 0.799715 0.033666 0.707408
Si Si5 0.000000 0.654792 0.250000
Si Si6 0.110374 0.054885 0.499127
Si Si7 0.000000 0.504861 0.250000
Si Si8 0.756525 0.282343 0.890153
O O1 0.991956 0.063833 0.651767
O O2 0.745550 0.124915 0.509947
O O3 0.586337 0.184352 0.245430
O O4 0.694795 0.203770 0.168330
O O5 0.935332 0.243183 0.524361
O O6 0.942240 0.898600 0.608793
O O7 0.793920 0.827375 0.597883
O O8 0.777778 0.054092 0.790119
O O9 0.595201 0.031158 0.429808
O O10 0.872139 0.981014 0.786873
O O11 0.288575 0.028038 0.596012
O O12 0.502061 0.249136 0.649490
#
# Coordination Sequence:
#
# PCOD9309297 Si02
#       8
#     4   8   4   8   4   8   4   8
#     4  12  25  43  66 100 147 183 228 289 369 416
#     4  10  21  43  69  97 135 184 230 286 361 429
#     4  12  23  46  69 108 140 182 260 301 355 444
#     4  11  24  46  67  94 150 188 238 293 376 422
#     4  12  25  39  68 108 134 178 240 295 340 433
#     4  11  25  43  70 102 134 190 248 299 354 430
#     4  12  19  46  69 100 131 197 244 299 362 441
#     4  10  24  45  73 102 148 196 230 298 383 438
#
# _framework density 10.395749
#
# number of rings (size 3 to 8) (size 9 to 14) (size 15 to 20)
#    0.000    1.000    3.333    3.000    2.333    1.333 
#    3.000    0.000    0.000    0.000    0.000    0.000 
#    0.000    0.000    0.000    0.000    0.000    0.000 
#
# Total GULP energy -133623.483272 kJ/mol
# GULP energy per Si atom -5567.645136 kJ/mol
# Density = 1.037209 g / cm^3
# Si number density = 10.395749 Si / 1000 Ang^3
#
#
#
# Elastic Constant Matrix: (Units=GPa)
#
#
# Indices 1 2 3 4 5 6 
#
# 1 174.9519 61.8940 30.6240 -0.0021 -24.5154 -0.0019
# 2 61.8940 120.8739 24.5446 -0.0019 -1.7933 0.0003
# 3 30.6240 24.5446 95.4285 -0.0054 -7.3538 -0.0069
# 4 -0.0021 -0.0019 -0.0054 33.5350 -0.0016 -2.7686
# 5 -24.5154 -1.7933 -7.3538 -0.0016 43.9751 -0.0032
# 6 -0.0019 0.0003 -0.0069 -2.7686 -0.0032 58.6891
#
#
#
# Elastic Compliance Matrix: (Units=1/GPa)
#
#
# Indices 1 2 3 4 5 6 
#
# 1 0.007794 -0.003679 -0.001248 0.000000 0.003986 0.000000
# 2 -0.003679 0.010465 -0.001658 0.000000 -0.001901 0.000000
# 3 -0.001248 -0.001658 0.011394 0.000002 0.001142 0.000001
# 4 0.000000 0.000000 0.000002 0.029936 0.000002 0.001412
# 5 0.003986 -0.001901 0.001142 0.000002 0.025076 0.000002
# 6 0.000000 0.000000 0.000001 0.001412 0.000002 0.017106
#
#
# Mechanical properties :
#
#
# Convention : Reuss Voigt Hill
#
# Bulk Modulus (GPa) = 60.66134 69.48660 65.07397
# Shear Modulus (GPa) = 41.51639 45.51930 43.51784
#
# Velocity S-wave (km/s) = 4.47340 4.68410 4.57996
# Velocity P-wave (km/s) = 7.47804 7.92134 7.70288
#
# Compressibility (1/GPa) = 0.01648496
#
# Stress axis : x y z
#
# Youngs Moduli (GPa) = 128.29895 95.55568 87.76632
#
# Poissons Ratio (x) = 0.35151 0.10953
# Poissons Ratio (y) = 0.47195 0.14549
# Poissons Ratio (z) = 0.16011 0.15840
#
# Static dielectric constant tensor:
#      x y z
#    x 1.786360 0.000000 0.022240 
#    y 0.000000 1.767910 0.000000 
#    z 0.022240 0.000000 1.859220 
# 
# From -- ./inp_files/157777.got.cif
#   From: 2010.05.17/outbox.ucp.g08.bks.cvg/sg15_79_cif.got.tgz:157777.got - 2010.06.11 12:40:34.
