data_PCOD9309430
_publ_section_title
;
Structure prediction by ZEFSAII (Michael W. Deem and Ramdas Pophale) SiO2 
 PCOD9309430
Probable space group: C 2/C
;
_chemical_formula_sum "Si O2"
_cell_formula_units_Z 18
_cell_length_a 18.000000
_cell_length_b 21.000000
_cell_length_c 9.000000
_cell_angle_alpha 90.000000
_cell_angle_beta 150.000000
_cell_angle_gamma 90.000000
_cell_volume 1701.000000
_symmetry_space_group_name_H-M "C 2/C"
_symmetry_group_IT_number 15
_symmetry_cell_setting 'monoclinic'
loop_
_space_group_symop_operation_xyz
x,y,z
-x,y,1/2-z
-x,-y,-z
x,-y,1/2+z
1/2+x,1/2+y,z
1/2-x,1/2+y,1/2-z
1/2-x,1/2-y,-z
1/2+x,1/2-y,1/2+z
loop_
_atom_site_type_symbol
_atom_site_label
_atom_site_fract_x
_atom_site_fract_y
_atom_site_fract_z
Si Si1 0.801452 0.959400 0.657961
Si Si2 0.646793 0.096896 0.404966
Si Si3 0.178456 0.269148 0.035171
Si Si4 0.000000 0.011256 0.250000
Si Si5 0.348155 0.151602 0.424842
O O1 0.696968 0.904680 0.540261
O O2 0.876485 0.949641 0.627338
O O3 0.726480 0.029132 0.527465
O O4 0.928228 0.966078 0.002221
O O5 0.500000 0.084971 0.250000
O O6 0.724754 0.156303 0.625986
O O7 0.629934 0.122906 0.204893
O O8 0.234267 0.210328 0.230160
O O9 0.250000 0.250000 0.000000
O O10 0.000000 0.270945 0.750000
O O11 0.500000 0.179053 0.750000
#
# Coordination Sequence:
#
# PCOD9309430 Si02
#       5
#     8   8   8   4   8
#     4  11  22  40  64  96 136 169 226 270 337 394
#     4  10  22  42  65  91 130 175 218 270 335 395
#     4   9  21  43  68  90 129 180 221 267 335 398
#     4  10  24  38  60 102 128 176 218 274 330 404
#     4  11  24  40  69 100 132 175 224 279 334 397
#
# _framework density 10.582011
#
# number of rings (size 3 to 8) (size 9 to 14) (size 15 to 20)
#    0.000    1.778    2.222    0.667    4.667    3.556 
#    2.000   10.000    0.000    0.000    0.000    0.000 
#    0.000    0.000    0.000    0.000    0.000    0.000 
#
# Total GULP energy -100293.653467 kJ/mol
# GULP energy per Si atom -5571.869637 kJ/mol
# Density = 1.055793 g / cm^3
# Si number density = 10.582011 Si / 1000 Ang^3
#
#
#
# Elastic Constant Matrix: (Units=GPa)
#
#
# Indices 1 2 3 4 5 6 
#
# 1 145.3797 43.1750 10.0931 0.0000 19.8844 0.0000
# 2 43.1750 153.0639 41.4743 0.0000 9.5043 0.0000
# 3 10.0931 41.4743 50.7057 0.0000 5.3812 0.0000
# 4 0.0000 0.0000 0.0000 8.2463 0.0000 -2.6289
# 5 19.8844 9.5043 5.3812 0.0000 24.5936 0.0000
# 6 0.0000 0.0000 0.0000 -2.6289 0.0000 5.2621
#
#
#
# Elastic Compliance Matrix: (Units=1/GPa)
#
#
# Indices 1 2 3 4 5 6 
#
# 1 0.008296 -0.002173 0.000767 0.000000 -0.006036 0.000000
# 2 -0.002173 0.009040 -0.006938 0.000000 -0.000218 0.000000
# 3 0.000767 -0.006938 0.025620 0.000000 -0.003544 0.000000
# 4 0.000000 0.000000 0.000000 0.144239 0.000000 0.072061
# 5 -0.006036 -0.000218 -0.003544 0.000000 0.046401 0.000000
# 6 0.000000 0.000000 0.000000 0.072061 0.000000 0.226038
#
#
# Mechanical properties :
#
#
# Convention : Reuss Voigt Hill
#
# Bulk Modulus (GPa) = 38.07093 59.84824 48.95959
# Shear Modulus (GPa) = 10.30759 24.58087 17.44423
#
# Velocity S-wave (km/s) = 2.20928 3.41170 2.87407
# Velocity P-wave (km/s) = 4.95333 6.62263 5.84785
#
# Compressibility (1/GPa) = 0.02626676
#
# Stress axis : x y z
#
# Youngs Moduli (GPa) = 120.53711 110.62279 39.03162
#
# Poissons Ratio (x) = 0.24039 -0.02992
# Poissons Ratio (y) = 0.26194 0.27081
# Poissons Ratio (z) = -0.09240 0.76753
#
# Static dielectric constant tensor:
#      x y z
#    x 1.828940 0.000000 0.005980 
#    y 0.000000 1.754610 0.000000 
#    z 0.005980 0.000000 1.860260 
# 
# From -- ./inp_files/28982.got.cif
#   From: 2010.05.17/outbox.ucp.g08.bks.cvg/sg15_15_cif.got.tgz:28982.got - 2010.06.11 12:40:34.
