data_PCOD9309282
_publ_section_title
;
Structure prediction by ZEFSAII (Michael W. Deem and Ramdas Pophale) SiO2 
 PCOD9309282
Probable space group: C 2/C
;
_chemical_formula_sum "Si O2"
_cell_formula_units_Z 26
_cell_length_a 15.000000
_cell_length_b 12.000000
_cell_length_c 24.000000
_cell_angle_alpha 90.000000
_cell_angle_beta 140.000000
_cell_angle_gamma 90.000000
_cell_volume 2776.842474
_symmetry_space_group_name_H-M "C 2/C"
_symmetry_group_IT_number 15
_symmetry_cell_setting 'monoclinic'
loop_
_space_group_symop_operation_xyz
x,y,z
-x,y,1/2-z
-x,-y,-z
x,-y,1/2+z
1/2+x,1/2+y,z
1/2-x,1/2+y,1/2-z
1/2-x,1/2-y,-z
1/2+x,1/2-y,1/2+z
loop_
_atom_site_type_symbol
_atom_site_label
_atom_site_fract_x
_atom_site_fract_y
_atom_site_fract_z
Si Si1 0.948929 0.503738 0.847976
Si Si2 0.806357 0.650810 0.987556
Si Si3 0.173316 0.864605 0.717912
Si Si4 0.915673 0.976362 0.657075
Si Si5 0.750034 0.729991 0.369825
Si Si6 0.000000 0.399306 0.250000
Si Si7 0.557304 0.209634 0.566296
O O1 0.792357 0.457181 0.770419
O O2 0.980850 0.538078 0.799557
O O3 0.956541 0.602806 0.898257
O O4 0.060926 0.411491 0.921512
O O5 0.679607 0.564321 0.919774
O O6 0.854615 0.684911 0.947757
O O7 0.750000 0.750000 0.000000
O O8 0.238721 0.784666 0.797353
O O9 0.132511 0.801355 0.641522
O O10 0.030910 0.916460 0.674065
O O11 0.814388 0.882496 0.634465
O O12 0.000000 0.026695 0.750000
O O13 0.637165 0.825119 0.327177
O O14 0.903261 0.743515 0.469463
#
# Coordination Sequence:
#
# PCOD9309282 Si02
#       7
#     8   8   8   8   8   4   8
#     4  12  26  46  70  99 144 187 229 294 362 409
#     4  12  28  44  67 101 140 189 232 278 351 427
#     4  11  24  42  69 102 135 177 234 289 345 412
#     4  10  21  42  70  98 133 173 231 280 340 408
#     4  11  20  43  71 106 126 176 240 286 339 418
#     4  12  26  42  72 106 140 170 232 308 354 408
#     4  12  24  45  75  98 136 191 235 287 342 426
#
# _framework density 9.3631530000000005
#
# number of rings (size 3 to 8) (size 9 to 14) (size 15 to 20)
#    0.000    0.615    6.923    2.308    4.308    4.923 
#    0.000    1.538    0.000    0.000    0.000    0.000 
#    0.000    0.000    0.000    0.000    0.000    0.000 
#
# Total GULP energy -145186.187810 kJ/mol
# GULP energy per Si atom -5584.084147 kJ/mol
# Density = 0.934184 g / cm^3
# Si number density = 9.363153 Si / 1000 Ang^3
#
#
#
# Elastic Constant Matrix: (Units=GPa)
#
#
# Indices 1 2 3 4 5 6 
#
# 1 91.3409 25.7090 44.0148 0.0000 -27.3332 0.0000
# 2 25.7090 49.6472 46.8237 0.0000 -13.5051 0.0000
# 3 44.0148 46.8237 164.4287 0.0000 -4.8584 0.0000
# 4 0.0000 0.0000 0.0000 46.8067 0.0000 -4.1832
# 5 -27.3332 -13.5051 -4.8584 0.0000 39.2283 0.0000
# 6 0.0000 0.0000 0.0000 -4.1832 0.0000 39.0190
#
#
#
# Elastic Compliance Matrix: (Units=1/GPa)
#
#
# Indices 1 2 3 4 5 6 
#
# 1 0.016281 -0.002551 -0.003335 0.000000 0.010053 0.000000
# 2 -0.002551 0.031118 -0.007943 0.000000 0.007951 0.000000
# 3 -0.003335 -0.007943 0.009120 0.000000 -0.003929 0.000000
# 4 0.000000 0.000000 0.000000 0.021571 0.000000 0.002313
# 5 0.010053 0.007951 -0.003929 0.000000 0.034747 0.000000
# 6 0.000000 0.000000 0.000000 0.002313 0.000000 0.025876
#
#
# Mechanical properties :
#
#
# Convention : Reuss Voigt Hill
#
# Bulk Modulus (GPa) = 34.64938 59.83465 47.24201
# Shear Modulus (GPa) = 28.41015 37.60209 33.00612
#
# Velocity S-wave (km/s) = 3.89925 4.48591 4.20283
# Velocity P-wave (km/s) = 6.23021 7.67156 6.98814
#
# Compressibility (1/GPa) = 0.02886055
#
# Stress axis : x y z
#
# Youngs Moduli (GPa) = 61.42016 32.13587 109.64641
#
# Poissons Ratio (x) = 0.08199 0.36563
# Poissons Ratio (y) = 0.15671 0.87097
# Poissons Ratio (z) = 0.20482 0.25527
#
# Static dielectric constant tensor:
#      x y z
#    x 1.669610 0.000000 -0.001680 
#    y 0.000000 1.678820 0.000000 
#    z -0.001680 0.000000 1.617910 
# 
# From -- ./inp_files/273894.got.cif
#   From: 2010.05.17/outbox.ucp.g08.bks.cvg/sg15_137_cif.got.tgz:273894.got - 2010.06.11 12:40:34.
