data_PCOD9309242
_publ_section_title
;
Structure prediction by ZEFSAII (Michael W. Deem and Ramdas Pophale) SiO2 
 PCOD9309242
Probable space group: C 2/C
;
_chemical_formula_sum "Si O2"
_cell_formula_units_Z 28
_cell_length_a 12.000000
_cell_length_b 18.000000
_cell_length_c 18.000000
_cell_angle_alpha 90.000000
_cell_angle_beta 130.000000
_cell_angle_gamma 90.000000
_cell_volume 2978.380795
_symmetry_space_group_name_H-M "C 2/C"
_symmetry_group_IT_number 15
_symmetry_cell_setting 'monoclinic'
loop_
_space_group_symop_operation_xyz
x,y,z
-x,y,1/2-z
-x,-y,-z
x,-y,1/2+z
1/2+x,1/2+y,z
1/2-x,1/2+y,1/2-z
1/2-x,1/2-y,-z
1/2+x,1/2-y,1/2+z
loop_
_atom_site_type_symbol
_atom_site_label
_atom_site_fract_x
_atom_site_fract_y
_atom_site_fract_z
Si Si1 0.657441 0.152930 0.279068
Si Si2 0.635205 0.904703 0.603994
Si Si3 0.141364 0.890055 0.092906
Si Si4 0.323289 0.454455 0.965241
Si Si5 0.293653 0.814992 0.303074
Si Si6 0.887116 0.263389 0.006339
Si Si7 0.697900 0.059343 0.574629
O O1 0.500000 0.158819 0.250000
O O2 0.644651 0.110453 0.195279
O O3 0.758143 0.103062 0.376610
O O4 0.715363 0.235976 0.285294
O O5 0.662202 0.827523 0.572634
O O6 0.473234 0.925945 0.509281
O O7 0.727082 0.977490 0.620959
O O8 0.240667 0.855501 0.203016
O O9 0.210018 0.959534 0.074763
O O10 0.092789 0.816538 0.025653
O O11 0.992591 0.933015 0.050886
O O12 0.255952 0.439372 0.016452
O O13 0.466663 0.793482 0.388434
O O14 0.252481 0.874760 0.349422
O O15 0.750000 0.250000 0.000000
#
# Coordination Sequence:
#
# PCOD9309242 Si02
#       7
#     8   8   8   8   8   8   8
#     4  12  23  40  68  99 130 177 216 272 333 390
#     4  10  21  41  63  93 132 160 223 274 319 393
#     4  11  24  44  64  96 137 171 223 275 331 399
#     4  11  24  42  67  95 134 176 220 275 333 398
#     4  11  25  42  66  98 134 169 222 273 325 409
#     4  11  23  43  69  94 131 176 219 273 336 390
#     4  10  22  40  64  95 125 171 214 274 328 383
#
# _framework density 9.4010809999999996
#
# number of rings (size 3 to 8) (size 9 to 14) (size 15 to 20)
#    0.000    1.143    4.286    1.714    2.000    1.143 
#    2.571    0.000    0.000    0.000    0.000    0.000 
#    0.000    0.000    0.000    0.000    0.000    0.000 
#
# Total GULP energy -156058.883197 kJ/mol
# GULP energy per Si atom -5573.531543 kJ/mol
# Density = 0.937968 g / cm^3
# Si number density = 9.401081 Si / 1000 Ang^3
#
#
#
# Elastic Constant Matrix: (Units=GPa)
#
#
# Indices 1 2 3 4 5 6 
#
# 1 51.9897 31.0619 23.6513 0.0000 -19.6266 0.0000
# 2 31.0619 152.3623 47.2975 0.0000 -17.5703 0.0000
# 3 23.6513 47.2975 117.6598 0.0000 -16.1839 0.0000
# 4 0.0000 0.0000 0.0000 42.5667 0.0000 -9.7542
# 5 -19.6266 -17.5703 -16.1839 0.0000 26.5237 0.0000
# 6 0.0000 0.0000 0.0000 -9.7542 0.0000 22.2000
#
#
#
# Elastic Compliance Matrix: (Units=1/GPa)
#
#
# Indices 1 2 3 4 5 6 
#
# 1 0.028858 -0.003171 -0.002050 0.000000 0.018002 0.000000
# 2 -0.003171 0.008142 -0.002419 0.000000 0.001571 0.000000
# 3 -0.002050 -0.002419 0.010321 0.000000 0.003178 0.000000
# 4 0.000000 0.000000 0.000000 0.026123 0.000000 0.011478
# 5 0.018002 0.001571 0.003178 0.000000 0.054003 0.000000
# 6 0.000000 0.000000 0.000000 0.011478 0.000000 0.050088
#
#
# Mechanical properties :
#
#
# Convention : Reuss Voigt Hill
#
# Bulk Modulus (GPa) = 31.21099 58.44812 44.82956
# Shear Modulus (GPa) = 24.57066 32.92482 28.74774
#
# Velocity S-wave (km/s) = 3.61889 4.18918 3.91443
# Velocity P-wave (km/s) = 5.83931 7.38595 6.65770
#
# Compressibility (1/GPa) = 0.03203999
#
# Stress axis : x y z
#
# Youngs Moduli (GPa) = 34.65276 122.82046 96.89124
#
# Poissons Ratio (x) = 0.38944 0.19863
# Poissons Ratio (y) = 0.10988 0.23443
# Poissons Ratio (z) = 0.07104 0.29716
#
# Static dielectric constant tensor:
#      x y z
#    x 1.679090 0.000000 0.013420 
#    y 0.000000 1.672300 0.000000 
#    z 0.013420 0.000000 1.643580 
# 
# From -- ./inp_files/199602.got.cif
#   From: 2010.05.17/outbox.ucp.g08.bks.cvg/sg15_100_cif.got.tgz:199602.got - 2010.06.11 12:40:34.
