data_PCOD9309669
_publ_section_title
;
Structure prediction by ZEFSAII (Michael W. Deem and Ramdas Pophale) SiO2 
 PCOD9309669
Probable space group: C 2/C
;
_chemical_formula_sum "Si O2"
_cell_formula_units_Z 20
_cell_length_a 12.000000
_cell_length_b 18.000000
_cell_length_c 18.000000
_cell_angle_alpha 90.000000
_cell_angle_beta 30.000000
_cell_angle_gamma 90.000000
_cell_volume 1944.000000
_symmetry_space_group_name_H-M "C 2/C"
_symmetry_group_IT_number 15
_symmetry_cell_setting 'monoclinic'
loop_
_space_group_symop_operation_xyz
x,y,z
-x,y,1/2-z
-x,-y,-z
x,-y,1/2+z
1/2+x,1/2+y,z
1/2-x,1/2+y,1/2-z
1/2-x,1/2-y,-z
1/2+x,1/2-y,1/2+z
loop_
_atom_site_type_symbol
_atom_site_label
_atom_site_fract_x
_atom_site_fract_y
_atom_site_fract_z
Si Si1 0.306169 0.900563 0.455920
Si Si2 0.855627 0.119370 0.125839
Si Si3 0.340534 0.148055 0.099671
Si Si4 0.255900 0.235504 0.586163
Si Si5 0.000000 0.477708 0.750000
Si Si6 0.500000 0.226156 0.750000
O O1 0.282901 0.898992 0.558601
O O2 0.428878 0.825012 0.360071
O O3 0.099716 0.901179 0.516240
O O4 0.447813 0.970702 0.350140
O O5 0.733812 0.121643 0.276094
O O6 0.845065 0.195913 0.085274
O O7 0.716981 0.067628 0.149848
O O8 0.198057 0.222070 0.164225
O O9 0.596363 0.168196 0.967433
O O10 0.250000 0.250000 0.500000
O O11 0.000000 0.223205 0.750000
#
# Coordination Sequence:
#
# PCOD9309669 Si02
#       6
#     8   8   8   8   4   4
#     4  11  24  39  65  93 124 167 218 269 319 391
#     4  12  22  43  63  90 132 169 213 273 324 386
#     4  12  22  39  68  98 126 160 216 269 336 385
#     4  12  24  39  64  99 136 172 204 259 335 394
#     4  11  26  42  58  88 126 181 222 262 324 383
#     4  11  20  36  64 100 122 151 206 274 326 381
#
# _framework density 10.288066000000001
#
# number of rings (size 3 to 8) (size 9 to 14) (size 15 to 20)
#    0.000    0.400    7.000    2.400    0.000    0.800 
#    0.000    2.000    0.000    0.000    0.000    0.000 
#    0.000    0.000    0.000    0.000    0.000    0.000 
#
# Total GULP energy -111416.248343 kJ/mol
# GULP energy per Si atom -5570.812417 kJ/mol
# Density = 1.026465 g / cm^3
# Si number density = 10.288066 Si / 1000 Ang^3
#
#
#
# Elastic Constant Matrix: (Units=GPa)
#
#
# Indices 1 2 3 4 5 6 
#
# 1 125.2599 1.0134 19.5728 0.0164 7.4960 0.0018
# 2 1.0134 38.4888 9.9945 0.0132 3.5470 0.0050
# 3 19.5728 9.9945 71.5937 0.0247 -2.9429 -0.0032
# 4 0.0164 0.0132 0.0247 18.1963 -0.0121 -18.2865
# 5 7.4960 3.5470 -2.9429 -0.0121 55.3674 0.0095
# 6 0.0018 0.0050 -0.0032 -18.2865 0.0095 2.9668
#
#
#
# Elastic Compliance Matrix: (Units=1/GPa)
#
#
# Indices 1 2 3 4 5 6 
#
# 1 0.008438 0.000530 -0.002434 0.000002 -0.001306 0.000007
# 2 0.000530 0.027200 -0.004025 0.000012 -0.002028 0.000028
# 3 -0.002434 -0.004025 0.015253 -0.000001 0.001398 0.000014
# 4 0.000002 0.000012 -0.000001 -0.010580 0.000008 -0.065213
# 5 -0.001306 -0.002028 0.001398 0.000008 0.018442 -0.000005
# 6 0.000007 0.000028 0.000014 -0.065213 -0.000005 -0.064891
#
#
# Mechanical properties :
#
#
# Convention : Reuss Voigt Hill
#
# Bulk Modulus (GPa) = 25.62064 32.94485 29.28274
# Shear Modulus (GPa) = 266.94127 28.95688 147.94907
#
# Velocity S-wave (km/s) = 11.40242 3.75548 8.48878
# Velocity P-wave (km/s) = 13.63203 5.90345 10.50435
#
# Compressibility (1/GPa) = 0.03903103
#
# Stress axis : x y z
#
# Youngs Moduli (GPa) = 118.51641 36.76494 65.56224
#
# Poissons Ratio (x) = -0.01950 0.15961
# Poissons Ratio (y) = -0.06285 0.26392
# Poissons Ratio (z) = 0.28852 0.14800
#
# Static dielectric constant tensor:
#      x y z
#    x 1.902180 0.001500 0.033260 
#    y 0.001500 2.285130 -0.000080 
#    z 0.033260 -0.000080 1.883960 
# 
# From -- ./inp_files/30231.got.cif
#   From: 2010.05.17/outbox.ucp.g08.bks.cvg/sg15_16_cif.got.tgz:30231.got - 2010.06.11 12:40:34.
