data_PCOD9309467
_publ_section_title
;
Structure prediction by ZEFSAII (Michael W. Deem and Ramdas Pophale) SiO2 
 PCOD9309467
Probable space group: C 2/C
;
_chemical_formula_sum "Si O2"
_cell_formula_units_Z 30
_cell_length_a 6.000000
_cell_length_b 18.000000
_cell_length_c 27.000000
_cell_angle_alpha 90.000000
_cell_angle_beta 90.000000
_cell_angle_gamma 90.000000
_cell_volume 2916.000000
_symmetry_space_group_name_H-M "C 2/C"
_symmetry_group_IT_number 15
_symmetry_cell_setting 'monoclinic'
loop_
_space_group_symop_operation_xyz
x,y,z
-x,y,1/2-z
-x,-y,-z
x,-y,1/2+z
1/2+x,1/2+y,z
1/2-x,1/2+y,1/2-z
1/2-x,1/2-y,-z
1/2+x,1/2-y,1/2+z
loop_
_atom_site_type_symbol
_atom_site_label
_atom_site_fract_x
_atom_site_fract_y
_atom_site_fract_z
Si Si1 0.000000 0.259937 0.250000
Si Si2 0.344821 0.436064 0.892075
Si Si3 0.357965 0.326631 0.979412
Si Si4 0.478717 0.398286 0.422368
Si Si5 0.183881 0.350498 0.160088
Si Si6 0.995872 0.487691 0.809502
Si Si7 0.285253 0.342363 0.666588
Si Si8 0.339950 0.234207 0.589514
O O1 0.840335 0.309824 0.286093
O O2 0.862840 0.206471 0.213241
O O3 0.255033 0.380730 0.936090
O O4 0.434000 0.513375 0.916769
O O5 0.199443 0.466804 0.846030
O O6 0.519377 0.382662 0.864251
O O7 0.577040 0.290118 0.953169
O O8 0.250000 0.250000 0.000000
O O9 0.385324 0.378782 0.027721
O O10 0.594281 0.369057 0.371412
O O11 0.270597 0.342040 0.428575
O O12 0.086893 0.433322 0.168961
O O13 0.042712 0.296243 0.123786
O O14 0.000000 0.498831 0.750000
O O15 0.854000 0.412511 0.815758
O O16 0.186625 0.283383 0.626831
#
# Coordination Sequence:
#
# PCOD9309467 Si02
#       8
#     4   8   8   8   8   8   8   8
#     4  10  22  44  64  96 134 174 220 280 336 388
#     4  11  25  44  67  98 135 173 222 276 329 402
#     4  11  24  44  69  99 135 176 220 281 339 398
#     4  12  23  43  69  95 133 180 221 268 340 397
#     4  11  22  42  66  97 137 172 222 275 326 399
#     4  12  24  42  69  98 131 174 223 274 332 395
#     4  10  23  41  64  92 132 168 215 276 329 388
#     4  10  23  42  65  98 133 170 216 277 332 397
#
# _framework density 10.288066000000001
#
# number of rings (size 3 to 8) (size 9 to 14) (size 15 to 20)
#    0.000    1.067    4.667    1.600    1.867    1.067 
#    0.000    6.000    0.000    0.000    0.000    0.000 
#    0.000    0.000    0.000    0.000    0.000    0.000 
#
# Total GULP energy -167009.847144 kJ/mol
# GULP energy per Si atom -5566.994905 kJ/mol
# Density = 1.026465 g / cm^3
# Si number density = 10.288066 Si / 1000 Ang^3
#
#
#
# Elastic Constant Matrix: (Units=GPa)
#
#
# Indices 1 2 3 4 5 6 
#
# 1 17.8923 21.0213 24.0670 0.0000 -0.2738 0.0000
# 2 21.0213 154.9939 35.0244 0.0000 2.0596 0.0000
# 3 24.0670 35.0244 120.7543 0.0000 -1.6438 0.0000
# 4 0.0000 0.0000 0.0000 47.6189 0.0000 -10.8833
# 5 -0.2738 2.0596 -1.6438 0.0000 24.2707 0.0000
# 6 0.0000 0.0000 0.0000 -10.8833 0.0000 38.2554
#
#
#
# Elastic Compliance Matrix: (Units=1/GPa)
#
#
# Indices 1 2 3 4 5 6 
#
# 1 0.085230 -0.008274 -0.014578 0.000000 0.000676 0.000000
# 2 -0.008274 0.007720 -0.000601 0.000000 -0.000789 0.000000
# 3 -0.014578 -0.000601 0.011370 0.000000 0.000657 0.000000
# 4 0.000000 0.000000 0.000000 0.022460 0.000000 0.006390
# 5 0.000676 -0.000789 0.000657 0.000000 0.041321 0.000000
# 6 0.000000 0.000000 0.000000 0.006390 0.000000 0.027958
#
#
# Mechanical properties :
#
#
# Convention : Reuss Voigt Hill
#
# Bulk Modulus (GPa) = 17.41716 50.42953 33.92335
# Shear Modulus (GPa) = 19.07642 36.26419 27.67031
#
# Velocity S-wave (km/s) = 3.04816 4.20270 3.67110
# Velocity P-wave (km/s) = 4.56853 6.93629 5.87297
#
# Compressibility (1/GPa) = 0.05741463
#
# Stress axis : x y z
#
# Youngs Moduli (GPa) = 11.73295 129.52772 87.95148
#
# Poissons Ratio (x) = 1.07175 1.28213
# Poissons Ratio (y) = 0.09708 0.05285
# Poissons Ratio (z) = 0.17104 0.07783
#
# Static dielectric constant tensor:
#      x y z
#    x 1.845670 0.000000 0.038690 
#    y 0.000000 1.706280 0.000000 
#    z 0.038690 0.000000 1.817060 
# 
# From -- ./inp_files/286069.got.cif
#   From: 2010.05.17/outbox.ucp.g08.bks.cvg/sg15_144_cif.got.tgz:286069.got - 2010.06.11 12:40:34.
