data_PCOD9309150
_publ_section_title
;
Structure prediction by ZEFSAII (Michael W. Deem and Ramdas Pophale) SiO2 
 PCOD9309150
Probable space group: C 2/C
;
_chemical_formula_sum "Si O2"
_cell_formula_units_Z 28
_cell_length_a 12.000000
_cell_length_b 27.000000
_cell_length_c 9.000000
_cell_angle_alpha 90.000000
_cell_angle_beta 110.000000
_cell_angle_gamma 90.000000
_cell_volume 2740.143682
_symmetry_space_group_name_H-M "C 2/C"
_symmetry_group_IT_number 15
_symmetry_cell_setting 'monoclinic'
loop_
_space_group_symop_operation_xyz
x,y,z
-x,y,1/2-z
-x,-y,-z
x,-y,1/2+z
1/2+x,1/2+y,z
1/2-x,1/2+y,1/2-z
1/2-x,1/2-y,-z
1/2+x,1/2-y,1/2+z
loop_
_atom_site_type_symbol
_atom_site_label
_atom_site_fract_x
_atom_site_fract_y
_atom_site_fract_z
Si Si1 0.653075 0.943003 0.147343
Si Si2 0.633548 0.042515 0.975243
Si Si3 0.001946 0.800335 0.417651
Si Si4 0.854039 0.639435 0.362180
Si Si5 0.250317 0.804768 0.068647
Si Si6 0.574440 0.797762 0.094450
Si Si7 0.747629 0.650678 0.993691
O O1 0.509707 0.949646 0.096456
O O2 0.687300 0.945227 0.337501
O O3 0.709867 0.895108 0.092295
O O4 0.678726 0.989790 0.053193
O O5 0.657014 0.081512 0.115188
O O6 0.029370 0.757731 0.550300
O O7 0.107922 0.840769 0.459706
O O8 0.000000 0.777876 0.250000
O O9 0.868240 0.816952 0.393982
O O10 0.757257 0.661530 0.428407
O O11 0.820408 0.648533 0.179263
O O12 0.977494 0.664860 0.476087
O O13 0.372664 0.810374 0.218957
O O14 0.250000 0.750000 0.000000
O O15 0.696946 0.801282 0.058866
#
# Coordination Sequence:
#
# PCOD9309150 Si02
#       7
#     8   8   8   8   8   8   8
#     4  10  21  38  63  96 134 170 210 271 332 402
#     4  10  21  37  63  97 135 166 212 269 340 390
#     4  12  26  43  64  90 130 178 227 269 322 394
#     4  12  24  38  66  96 131 170 214 275 332 390
#     4  12  26  43  63  92 127 176 225 275 325 388
#     4  12  24  41  63  91 133 171 220 272 331 388
#     4  12  24  41  64  92 133 173 218 264 333 394
#
# _framework density 10.218442
#
# number of rings (size 3 to 8) (size 9 to 14) (size 15 to 20)
#    0.000    0.571    4.286    4.714    2.000    2.857 
#    0.000    0.000    0.000    0.857    0.000    0.000 
#    0.000    0.000    0.000    0.000    0.000    0.000 
#
# Total GULP energy -156092.262280 kJ/mol
# GULP energy per Si atom -5574.723653 kJ/mol
# Density = 1.019518 g / cm^3
# Si number density = 10.218442 Si / 1000 Ang^3
#
#
#
# Elastic Constant Matrix: (Units=GPa)
#
#
# Indices 1 2 3 4 5 6 
#
# 1 123.2700 25.5162 27.2312 0.0000 -1.2062 0.0000
# 2 25.5162 64.1099 11.3720 0.0000 10.2807 0.0000
# 3 27.2312 11.3720 115.6849 0.0000 -8.0969 0.0000
# 4 0.0000 0.0000 0.0000 24.9332 0.0000 -7.4578
# 5 -1.2062 10.2807 -8.0969 0.0000 30.5465 0.0000
# 6 0.0000 0.0000 0.0000 -7.4578 0.0000 19.3417
#
#
#
# Elastic Compliance Matrix: (Units=1/GPa)
#
#
# Indices 1 2 3 4 5 6 
#
# 1 0.009243 -0.003544 -0.001751 0.000000 0.001094 0.000000
# 2 -0.003544 0.018337 -0.001437 0.000000 -0.006692 0.000000
# 3 -0.001751 -0.001437 0.009401 0.000000 0.002906 0.000000
# 4 0.000000 0.000000 0.000000 0.045336 0.000000 0.017481
# 5 0.001094 -0.006692 0.002906 0.000000 0.035803 0.000000
# 6 0.000000 0.000000 0.000000 0.017481 0.000000 0.058442
#
#
# Mechanical properties :
#
#
# Convention : Reuss Voigt Hill
#
# Bulk Modulus (GPa) = 42.52025 47.92262 45.22143
# Shear Modulus (GPa) = 25.26992 30.89398 28.08195
#
# Velocity S-wave (km/s) = 3.52018 3.89225 3.71088
# Velocity P-wave (km/s) = 6.11335 6.61056 6.36681
#
# Compressibility (1/GPa) = 0.02351821
#
# Stress axis : x y z
#
# Youngs Moduli (GPa) = 108.18678 54.53570 106.37202
#
# Poissons Ratio (x) = 0.19326 0.18625
# Poissons Ratio (y) = 0.38338 0.15283
# Poissons Ratio (z) = 0.18942 0.07835
#
# Static dielectric constant tensor:
#      x y z
#    x 1.745750 0.000000 -0.014330 
#    y 0.000000 1.667870 0.000000 
#    z -0.014330 0.000000 1.731050 
# 
# From -- ./inp_files/34358.got.cif
#   From: 2010.05.17/outbox.ucp.g08.bks.cvg/sg15_18_cif.got.tgz:34358.got - 2010.06.11 12:40:34.
