data_PCOD9309267
_publ_section_title
;
Structure prediction by ZEFSAII (Michael W. Deem and Ramdas Pophale) SiO2 
 PCOD9309267
Probable space group: C 2/C
;
_chemical_formula_sum "Si O2"
_cell_formula_units_Z 26
_cell_length_a 15.000000
_cell_length_b 30.000000
_cell_length_c 9.000000
_cell_angle_alpha 90.000000
_cell_angle_beta 40.000000
_cell_angle_gamma 90.000000
_cell_volume 2603.289819
_symmetry_space_group_name_H-M "C 2/C"
_symmetry_group_IT_number 15
_symmetry_cell_setting 'monoclinic'
loop_
_space_group_symop_operation_xyz
x,y,z
-x,y,1/2-z
-x,-y,-z
x,-y,1/2+z
1/2+x,1/2+y,z
1/2-x,1/2+y,1/2-z
1/2-x,1/2-y,-z
1/2+x,1/2-y,1/2+z
loop_
_atom_site_type_symbol
_atom_site_label
_atom_site_fract_x
_atom_site_fract_y
_atom_site_fract_z
Si Si1 0.130899 0.446992 0.795425
Si Si2 0.500000 0.252410 0.250000
Si Si3 0.187033 0.460554 0.377950
Si Si4 0.648805 0.615055 0.976557
Si Si5 0.841744 0.371950 0.511016
Si Si6 0.344550 0.773094 0.502026
Si Si7 0.214470 0.201634 0.686055
O O1 0.181969 0.454856 0.562308
O O2 0.182775 0.488225 0.830283
O O3 0.176975 0.402958 0.822668
O O4 0.962877 0.444422 0.995179
O O5 0.378513 0.216336 0.461805
O O6 0.387445 0.288260 0.323045
O O7 0.313927 0.431362 0.153193
O O8 0.686707 0.655168 0.810854
O O9 0.500000 0.619429 0.250000
O O10 0.753203 0.615576 0.981364
O O11 0.796245 0.321880 0.607456
O O12 0.000000 0.374173 0.250000
O O13 0.250000 0.750000 0.500000
O O14 0.347291 0.740006 0.632246
O O15 0.500000 0.778372 0.250000
#
# Coordination Sequence:
#
# PCOD9309267 Si02
#       7
#     8   4   8   8   8   8   8
#     4  10  21  41  73 100 132 176 230 291 340 411
#     4  10  26  42  64  94 138 186 232 286 340 412
#     4  10  22  41  68 102 136 174 227 286 351 410
#     4  12  26  44  65 101 141 179 226 286 349 419
#     4  11  23  40  67 104 132 176 239 283 337 409
#     4  11  22  37  63  94 127 174 227 284 332 396
#     4  11  24  44  65  95 138 183 230 282 346 404
#
# _framework density 9.9873630000000002
#
# number of rings (size 3 to 8) (size 9 to 14) (size 15 to 20)
#    0.000    1.231    3.077    2.308    6.462    3.692 
#    0.000    3.077    0.000    0.000    0.000    0.000 
#    0.000    0.000    0.000    0.000    0.000    0.000 
#
# Total GULP energy -144752.278201 kJ/mol
# GULP energy per Si atom -5567.395315 kJ/mol
# Density = 0.996463 g / cm^3
# Si number density = 9.987363 Si / 1000 Ang^3
#
#
#
# Elastic Constant Matrix: (Units=GPa)
#
#
# Indices 1 2 3 4 5 6 
#
# 1 87.4773 45.4536 23.4280 0.0000 -5.6511 0.0000
# 2 45.4536 140.9288 41.4387 0.0000 19.6092 0.0000
# 3 23.4280 41.4387 92.9827 0.0000 -15.2504 0.0000
# 4 0.0000 0.0000 0.0000 42.6339 0.0000 14.1753
# 5 -5.6511 19.6092 -15.2504 0.0000 18.8628 0.0000
# 6 0.0000 0.0000 0.0000 14.1753 0.0000 38.2598
#
#
#
# Elastic Compliance Matrix: (Units=1/GPa)
#
#
# Indices 1 2 3 4 5 6 
#
# 1 0.015784 -0.007498 0.001636 0.000000 0.013846 0.000000
# 2 -0.007498 0.016086 -0.009674 0.000000 -0.026791 0.000000
# 3 0.001636 -0.009674 0.018888 0.000000 0.025818 0.000000
# 4 0.000000 0.000000 0.000000 0.026751 0.000000 -0.009911
# 5 0.013846 -0.026791 0.025818 0.000000 0.105887 0.000000
# 6 0.000000 0.000000 0.000000 -0.009911 0.000000 0.029809
#
#
# Mechanical properties :
#
#
# Convention : Reuss Voigt Hill
#
# Bulk Modulus (GPa) = 50.79792 60.22548 55.51170
# Shear Modulus (GPa) = 19.93300 34.02254 26.97777
#
# Velocity S-wave (km/s) = 3.16240 4.13156 3.67903
# Velocity P-wave (km/s) = 6.23062 7.27846 6.77483
#
# Compressibility (1/GPa) = 0.01968585
#
# Stress axis : x y z
#
# Youngs Moduli (GPa) = 63.35468 62.16422 52.94320
#
# Poissons Ratio (x) = 0.46614 -0.08660
# Poissons Ratio (y) = 0.47506 0.51216
# Poissons Ratio (z) = -0.10363 0.60136
#
# Static dielectric constant tensor:
#      x y z
#    x -1.320240 0.000000 -0.412620 
#    y 0.000000 1.921720 0.000000 
#    z -0.412620 0.000000 1.667310 
# 
# From -- ./inp_files/44787.got.cif
#   From: 2010.05.17/outbox.ucp.g08.bks.cvg/sg15_23_cif.got.tgz:44787.got - 2010.06.11 12:40:34.
