data_PCOD9309761
_publ_section_title
;
Structure prediction by ZEFSAII (Michael W. Deem and Ramdas Pophale) SiO2 
 PCOD9309761
Probable space group: C 2/C
;
_chemical_formula_sum "Si O2"
_cell_formula_units_Z 20
_cell_length_a 12.000000
_cell_length_b 18.000000
_cell_length_c 9.000000
_cell_angle_alpha 90.000000
_cell_angle_beta 90.000000
_cell_angle_gamma 90.000000
_cell_volume 1944.000000
_symmetry_space_group_name_H-M "C 2/C"
_symmetry_group_IT_number 15
_symmetry_cell_setting 'monoclinic'
loop_
_space_group_symop_operation_xyz
x,y,z
-x,y,1/2-z
-x,-y,-z
x,-y,1/2+z
1/2+x,1/2+y,z
1/2-x,1/2+y,1/2-z
1/2-x,1/2-y,-z
1/2+x,1/2-y,1/2+z
loop_
_atom_site_type_symbol
_atom_site_label
_atom_site_fract_x
_atom_site_fract_y
_atom_site_fract_z
Si Si1 0.921538 0.140624 0.372640
Si Si2 0.263735 0.498104 0.922996
Si Si3 0.619262 0.943128 0.168700
Si Si4 0.779557 0.279189 0.331800
Si Si5 0.590176 0.639905 0.628793
O O1 0.838265 0.076639 0.432863
O O2 0.854802 0.207564 0.289639
O O3 0.000000 0.103427 0.250000
O O4 0.004812 0.170607 0.502236
O O5 0.216966 0.516124 0.760878
O O6 0.338464 0.572774 0.946960
O O7 0.148622 0.481513 0.012218
O O8 0.500000 0.951907 0.250000
O O9 0.648519 0.855112 0.159926
O O10 0.750000 0.250000 0.500000
O O11 0.676165 0.303831 0.219799
O O12 0.500000 0.610536 0.750000
#
# Coordination Sequence:
#
# PCOD9309761 Si02
#       5
#     8   8   8   8   8
#     4  12  23  40  67  97 134 173 218 276 338 388
#     4  11  22  40  65  98 133 168 227 272 320 404
#     4  11  23  42  66  92 135 179 216 271 336 391
#     4  11  22  43  65  95 134 175 224 276 321 405
#     4  11  22  40  68  97 132 176 222 272 339 384
#
# _framework density 10.288066000000001
#
# number of rings (size 3 to 8) (size 9 to 14) (size 15 to 20)
#    0.000    0.800    4.000    4.800    0.000    0.800 
#    0.000    5.000    0.000    0.000    0.000    0.000 
#    0.000    0.000    0.000    0.000    0.000    0.000 
#
# Total GULP energy -111355.154852 kJ/mol
# GULP energy per Si atom -5567.757743 kJ/mol
# Density = 1.026465 g / cm^3
# Si number density = 10.288066 Si / 1000 Ang^3
#
#
#
# Elastic Constant Matrix: (Units=GPa)
#
#
# Indices 1 2 3 4 5 6 
#
# 1 127.4014 49.9320 31.8741 0.0000 -1.3010 0.0000
# 2 49.9320 112.6918 26.8183 0.0000 14.8539 0.0000
# 3 31.8741 26.8183 66.9970 0.0000 2.2863 0.0000
# 4 0.0000 0.0000 0.0000 34.5013 0.0000 -4.0114
# 5 -1.3010 14.8539 2.2863 0.0000 59.3096 0.0000
# 6 0.0000 0.0000 0.0000 -4.0114 0.0000 40.2340
#
#
#
# Elastic Compliance Matrix: (Units=1/GPa)
#
#
# Indices 1 2 3 4 5 6 
#
# 1 0.010234 -0.003914 -0.003348 0.000000 0.001334 0.000000
# 2 -0.003914 0.011631 -0.002695 0.000000 -0.002895 0.000000
# 3 -0.003348 -0.002695 0.017600 0.000000 -0.000077 0.000000
# 4 0.000000 0.000000 0.000000 0.029324 0.000000 0.002924
# 5 0.001334 -0.002895 -0.000077 0.000000 0.017618 0.000000
# 6 0.000000 0.000000 0.000000 0.002924 0.000000 0.025146
#
#
# Mechanical properties :
#
#
# Convention : Reuss Voigt Hill
#
# Bulk Modulus (GPa) = 51.14524 58.25991 54.70257
# Shear Modulus (GPa) = 36.23602 40.04002 38.13802
#
# Velocity S-wave (km/s) = 4.20106 4.41607 4.30991
# Velocity P-wave (km/s) = 6.96006 7.37415 7.17009
#
# Compressibility (1/GPa) = 0.01955216
#
# Stress axis : x y z
#
# Youngs Moduli (GPa) = 97.71039 85.97869 56.81752
#
# Poissons Ratio (x) = 0.33650 0.19022
# Poissons Ratio (y) = 0.38241 0.15312
# Poissons Ratio (z) = 0.32713 0.23171
#
# Static dielectric constant tensor:
#      x y z
#    x 1.787670 0.000000 -0.038640 
#    y 0.000000 1.721520 0.000000 
#    z -0.038640 0.000000 1.815920 
# 
# From -- ./inp_files/29245.got.cif
#   From: 2010.05.17/outbox.ucp.g08.bks.cvg/sg15_15_cif.got.tgz:29245.got - 2010.06.11 12:40:34.
