data_PCOD9309073
_publ_section_title
;
Structure prediction by ZEFSAII (Michael W. Deem and Ramdas Pophale) SiO2 
 PCOD9309073
Probable space group: C 2/C
;
_chemical_formula_sum "Si O2"
_cell_formula_units_Z 24
_cell_length_a 12.000000
_cell_length_b 24.000000
_cell_length_c 9.000000
_cell_angle_alpha 90.000000
_cell_angle_beta 70.000000
_cell_angle_gamma 90.000000
_cell_volume 2435.683273
_symmetry_space_group_name_H-M "C 2/C"
_symmetry_group_IT_number 15
_symmetry_cell_setting 'monoclinic'
loop_
_space_group_symop_operation_xyz
x,y,z
-x,y,1/2-z
-x,-y,-z
x,-y,1/2+z
1/2+x,1/2+y,z
1/2-x,1/2+y,1/2-z
1/2-x,1/2-y,-z
1/2+x,1/2-y,1/2+z
loop_
_atom_site_type_symbol
_atom_site_label
_atom_site_fract_x
_atom_site_fract_y
_atom_site_fract_z
Si Si1 0.063132 0.123498 0.982918
Si Si2 0.226397 0.069007 0.687347
Si Si3 0.232868 0.644445 0.358697
Si Si4 0.338916 0.546991 0.119610
Si Si5 0.412553 0.273198 0.647346
Si Si6 0.039039 0.647539 0.903826
O O1 0.128616 0.111234 0.798839
O O2 0.174769 0.133346 0.045355
O O3 0.975623 0.071456 0.070523
O O4 0.978566 0.178145 0.022740
O O5 0.191889 0.050222 0.539018
O O6 0.356206 0.100426 0.624107
O O7 0.201838 0.013272 0.798753
O O8 0.260168 0.593045 0.238783
O O9 0.286906 0.700798 0.258893
O O10 0.091723 0.644799 0.456949
O O11 0.500000 0.269157 0.750000
O O12 0.408225 0.209911 0.589251
O O13 0.000000 0.643635 0.750000
#
# Coordination Sequence:
#
# PCOD9309073 Si02
#       6
#     8   8   8   8   8   8
#     4  10  20  41  68  98 128 167 210 270 319 377
#     4  12  25  41  67  94 129 172 220 265 327 380
#     4  10  21  42  66  96 135 164 215 262 321 385
#     4  11  25  43  64  93 128 170 219 272 319 379
#     4   8  19  35  66  99 127 167 210 265 312 376
#     4  11  23  39  66 100 128 173 215 262 320 384
#
# _framework density 9.8534980000000001
#
# number of rings (size 3 to 8) (size 9 to 14) (size 15 to 20)
#    0.000    1.667    1.667    3.500    2.333    4.667 
#    0.000    3.333    7.333    0.000    0.000    0.000 
#    0.000    0.000    0.000    0.000    0.000    0.000 
#
# Total GULP energy -133816.146045 kJ/mol
# GULP energy per Si atom -5575.672752 kJ/mol
# Density = 0.983107 g / cm^3
# Si number density = 9.853498 Si / 1000 Ang^3
#
#
#
# Elastic Constant Matrix: (Units=GPa)
#
#
# Indices 1 2 3 4 5 6 
#
# 1 114.4496 59.0255 51.1301 0.0000 -39.3637 0.0000
# 2 59.0255 131.0347 47.1416 0.0000 -12.9642 0.0000
# 3 51.1301 47.1416 123.6305 0.0000 -20.8777 0.0000
# 4 0.0000 0.0000 0.0000 23.3867 0.0000 -1.9311
# 5 -39.3637 -12.9642 -20.8777 0.0000 52.1983 0.0000
# 6 0.0000 0.0000 0.0000 -1.9311 0.0000 31.3817
#
#
#
# Elastic Compliance Matrix: (Units=1/GPa)
#
#
# Indices 1 2 3 4 5 6 
#
# 1 0.016090 -0.005200 -0.003047 0.000000 0.009624 0.000000
# 2 -0.005200 0.010566 -0.002249 0.000000 -0.002197 0.000000
# 3 -0.003047 -0.002249 0.010428 0.000000 0.001315 0.000000
# 4 0.000000 0.000000 0.000000 0.042978 0.000000 0.002645
# 5 0.009624 -0.002197 0.001315 0.000000 0.026396 0.000000
# 6 0.000000 0.000000 0.000000 0.002645 0.000000 0.032028
#
#
# Mechanical properties :
#
#
# Convention : Reuss Voigt Hill
#
# Bulk Modulus (GPa) = 62.13849 75.96770 69.05309
# Shear Modulus (GPa) = 30.33212 35.51452 32.92332
#
# Velocity S-wave (km/s) = 3.92746 4.24975 4.09178
# Velocity P-wave (km/s) = 7.22262 7.91914 7.57889
#
# Compressibility (1/GPa) = 0.01609309
#
# Stress axis : x y z
#
# Youngs Moduli (GPa) = 62.14933 94.64570 95.89276
#
# Poissons Ratio (x) = 0.49214 0.29214
# Poissons Ratio (y) = 0.32316 0.21569
# Poissons Ratio (z) = 0.18934 0.21289
#
# Static dielectric constant tensor:
#      x y z
#    x 1.694860 0.000000 0.011660 
#    y 0.000000 1.732680 0.000000 
#    z 0.011660 0.000000 1.745830 
# 
# From -- ./inp_files/32508.got.cif
#   From: 2010.05.17/outbox.ucp.g08.bks.cvg/sg15_17_cif.got.tgz:32508.got - 2010.06.11 12:40:34.
