data_PCOD9309022
_publ_section_title
;
Structure prediction by ZEFSAII (Michael W. Deem and Ramdas Pophale) SiO2 
 PCOD9309022
Probable space group: C 2/C
;
_chemical_formula_sum "Si O2"
_cell_formula_units_Z 22
_cell_length_a 18.000000
_cell_length_b 12.000000
_cell_length_c 30.000000
_cell_angle_alpha 90.000000
_cell_angle_beta 160.000000
_cell_angle_gamma 90.000000
_cell_volume 2216.290529
_symmetry_space_group_name_H-M "C 2/C"
_symmetry_group_IT_number 15
_symmetry_cell_setting 'monoclinic'
loop_
_space_group_symop_operation_xyz
x,y,z
-x,y,1/2-z
-x,-y,-z
x,-y,1/2+z
1/2+x,1/2+y,z
1/2-x,1/2+y,1/2-z
1/2-x,1/2-y,-z
1/2+x,1/2-y,1/2+z
loop_
_atom_site_type_symbol
_atom_site_label
_atom_site_fract_x
_atom_site_fract_y
_atom_site_fract_z
Si Si1 0.179268 0.343317 0.022035
Si Si2 0.977970 0.880632 0.960062
Si Si3 0.607379 0.123309 0.858226
Si Si4 0.000000 0.022650 0.250000
Si Si5 0.963130 0.365733 0.659441
Si Si6 0.238823 0.792510 0.822868
O O1 0.322171 0.441546 0.125703
O O2 0.321841 0.227630 0.106782
O O3 0.146291 0.362887 0.950924
O O4 0.926503 0.338324 0.895603
O O5 0.725948 0.848749 0.809251
O O6 0.131212 0.876477 0.001878
O O7 0.099052 0.787204 0.057394
O O8 0.000000 0.000000 0.000000
O O9 0.500000 0.151823 0.750000
O O10 0.464703 0.211147 0.807464
O O11 0.557663 0.993968 0.837712
O O12 0.126778 0.105759 0.287092
#
# Coordination Sequence:
#
# PCOD9309022 Si02
#       6
#     8   8   8   4   8   8
#     4  11  27  43  66  93 140 179 214 267 320 407
#     4  11  19  37  71  97 125 164 215 278 323 372
#     4  10  20  38  70  98 125 162 220 281 315 377
#     4  12  24  48  66  94 134 180 220 254 336 400
#     4  11  24  43  63 104 129 171 225 265 333 375
#     4  11  22  44  67  99 127 172 226 262 328 394
#
# _framework density 9.9264960000000002
#
# number of rings (size 3 to 8) (size 9 to 14) (size 15 to 20)
#    0.000    1.091    6.364    2.727    1.273    1.455 
#    6.545    1.818    0.000    0.000    0.000    0.000 
#    0.000    0.000    0.000    0.000    0.000    0.000 
#
# Total GULP energy -122475.224748 kJ/mol
# GULP energy per Si atom -5567.055670 kJ/mol
# Density = 0.990390 g / cm^3
# Si number density = 9.926496 Si / 1000 Ang^3
#
#
#
# Elastic Constant Matrix: (Units=GPa)
#
#
# Indices 1 2 3 4 5 6 
#
# 1 60.7014 33.9286 33.6014 0.0004 30.8006 -0.0001
# 2 33.9286 132.2537 28.6827 0.0056 18.1319 -0.0009
# 3 33.6014 28.6827 111.2268 0.0255 37.2601 -0.0040
# 4 0.0004 0.0056 0.0255 38.5042 -0.0044 15.2870
# 5 30.8006 18.1319 37.2601 -0.0044 48.1491 -0.0010
# 6 -0.0001 -0.0009 -0.0040 15.2870 -0.0010 29.4003
#
#
#
# Elastic Compliance Matrix: (Units=1/GPa)
#
#
# Indices 1 2 3 4 5 6 
#
# 1 0.027482 -0.004608 -0.002438 0.000001 -0.013958 -0.000001
# 2 -0.004608 0.008915 -0.001039 -0.000001 0.000395 0.000000
# 3 -0.002438 -0.001039 0.012611 -0.000012 -0.007808 0.000008
# 4 0.000001 -0.000001 -0.000012 0.032727 0.000012 -0.017017
# 5 -0.013958 0.000395 -0.007808 0.000012 0.035591 -0.000006
# 6 -0.000001 0.000000 0.000008 -0.017017 -0.000006 0.042861
#
#
# Mechanical properties :
#
#
# Convention : Reuss Voigt Hill
#
# Bulk Modulus (GPa) = 30.45357 55.17857 42.81607
# Shear Modulus (GPa) = 26.69487 37.07535 31.88511
#
# Velocity S-wave (km/s) = 3.67089 4.32614 4.01192
# Velocity P-wave (km/s) = 5.77409 7.26690 6.56308
#
# Compressibility (1/GPa) = 0.03283688
#
# Stress axis : x y z
#
# Youngs Moduli (GPa) = 36.38809 112.17607 79.29768
#
# Poissons Ratio (x) = 0.51688 0.19334
# Poissons Ratio (y) = 0.16767 0.08239
# Poissons Ratio (z) = 0.08872 0.11655
#
# Static dielectric constant tensor:
#      x y z
#    x 1.823770 0.000000 0.047060 
#    y 0.000000 1.714790 0.000000 
#    z 0.047060 0.000000 1.698850 
# 
# From -- ./inp_files/316280.got.cif
#   From: 2010.05.17/outbox.ucp.g08.bks.cvg/sg15_159_cif.got.tgz:316280.got - 2010.06.11 12:40:34.
