data_PCOD9309159
_publ_section_title
;
Structure prediction by ZEFSAII (Michael W. Deem and Ramdas Pophale) SiO2 
 PCOD9309159
Probable space group: C 2/C
;
_chemical_formula_sum "Si O2"
_cell_formula_units_Z 28
_cell_length_a 18.000000
_cell_length_b 12.000000
_cell_length_c 18.000000
_cell_angle_alpha 90.000000
_cell_angle_beta 130.000000
_cell_angle_gamma 90.000000
_cell_volume 2978.380795
_symmetry_space_group_name_H-M "C 2/C"
_symmetry_group_IT_number 15
_symmetry_cell_setting 'monoclinic'
loop_
_space_group_symop_operation_xyz
x,y,z
-x,y,1/2-z
-x,-y,-z
x,-y,1/2+z
1/2+x,1/2+y,z
1/2-x,1/2+y,1/2-z
1/2-x,1/2-y,-z
1/2+x,1/2-y,1/2+z
loop_
_atom_site_type_symbol
_atom_site_label
_atom_site_fract_x
_atom_site_fract_y
_atom_site_fract_z
Si Si1 0.819969 0.491800 0.484961
Si Si2 0.852186 0.113655 0.200343
Si Si3 0.043412 0.096433 0.389618
Si Si4 0.558991 0.806893 0.498329
Si Si5 0.292388 0.526485 0.430916
Si Si6 0.233990 0.811211 0.186501
Si Si7 0.836001 0.276711 0.406717
O O1 0.738457 0.536487 0.375242
O O2 0.909208 0.574047 0.517785
O O3 0.779993 0.496674 0.544576
O O4 0.830889 0.362789 0.471708
O O5 0.911291 0.104774 0.162477
O O6 0.813587 0.236583 0.193585
O O7 0.928251 0.079040 0.312434
O O8 0.069761 0.214456 0.441758
O O9 0.100075 0.001990 0.469874
O O10 0.634947 0.760491 0.609281
O O11 0.448298 0.792120 0.453370
O O12 0.271804 0.433226 0.354569
O O13 0.299855 0.653021 0.406583
O O14 0.269167 0.812979 0.293908
#
# Coordination Sequence:
#
# PCOD9309159 Si02
#       7
#     8   8   8   8   8   8   8
#     4  10  22  40  60  84 125 162 196 244 304 369
#     4   9  17  34  61  88 114 152 201 247 296 352
#     4   9  17  34  62  88 113 150 202 251 295 352
#     4  10  21  38  61  89 118 153 202 251 296 351
#     4  10  23  40  60  87 120 162 201 248 304 361
#     4  10  22  37  61  89 120 150 200 254 297 353
#     4  12  24  38  62  87 125 159 200 244 309 360
#
# _framework density 9.4010809999999996
#
# number of rings (size 3 to 8) (size 9 to 14) (size 15 to 20)
#    0.000    2.000    1.429    1.714    4.000    6.857 
#    0.000    0.000    0.000    1.714    0.000    0.000 
#    0.000    0.000    0.000    0.000    0.000    0.000 
#
# Total GULP energy -155919.943342 kJ/mol
# GULP energy per Si atom -5568.569405 kJ/mol
# Density = 0.937968 g / cm^3
# Si number density = 9.401081 Si / 1000 Ang^3
#
#
#
# Elastic Constant Matrix: (Units=GPa)
#
#
# Indices 1 2 3 4 5 6 
#
# 1 49.3668 29.7313 25.1946 0.0000 1.9405 0.0000
# 2 29.7313 106.1919 18.1261 0.0000 -20.3709 0.0000
# 3 25.1946 18.1261 90.4973 0.0000 -5.2597 0.0000
# 4 0.0000 0.0000 0.0000 49.0337 0.0000 -23.0016
# 5 1.9405 -20.3709 -5.2597 0.0000 20.3684 0.0000
# 6 0.0000 0.0000 0.0000 -23.0016 0.0000 32.3772
#
#
#
# Elastic Compliance Matrix: (Units=1/GPa)
#
#
# Indices 1 2 3 4 5 6 
#
# 1 0.030806 -0.010260 -0.007399 0.000000 -0.015107 0.000000
# 2 -0.010260 0.015327 0.000745 0.000000 0.016499 0.000000
# 3 -0.007399 0.000745 0.013244 0.000000 0.004870 0.000000
# 4 0.000000 0.000000 0.000000 0.030588 0.000000 0.021730
# 5 -0.015107 0.016499 0.004870 0.000000 0.068294 0.000000
# 6 0.000000 0.000000 0.000000 0.021730 0.000000 0.046324
#
#
# Mechanical properties :
#
#
# Convention : Reuss Voigt Hill
#
# Bulk Modulus (GPa) = 39.14044 43.57332 41.35688
# Shear Modulus (GPa) = 20.24901 31.88948 26.06924
#
# Velocity S-wave (km/s) = 3.28525 4.12279 3.72762
# Velocity P-wave (km/s) = 5.93740 6.77407 6.36949
#
# Compressibility (1/GPa) = 0.02554902
#
# Stress axis : x y z
#
# Youngs Moduli (GPa) = 32.46166 65.24336 75.50696
#
# Poissons Ratio (x) = 0.66938 0.55870
# Poissons Ratio (y) = 0.33305 -0.05628
# Poissons Ratio (z) = 0.24019 -0.04863
#
# Static dielectric constant tensor:
#      x y z
#    x 1.690870 0.000000 0.028440 
#    y 0.000000 1.643770 0.000000 
#    z 0.028440 0.000000 1.703570 
# 
# From -- ./inp_files/210683.got.cif
#   From: 2010.05.17/outbox.ucp.g08.bks.cvg/sg15_106_cif.got.tgz:210683.got - 2010.06.11 12:40:34.
