data_PCOD9309131
_publ_section_title
;
Structure prediction by ZEFSAII (Michael W. Deem and Ramdas Pophale) SiO2 
 PCOD9309131
Probable space group: C 2/C
;
_chemical_formula_sum "Si O2"
_cell_formula_units_Z 28
_cell_length_a 18.000000
_cell_length_b 18.000000
_cell_length_c 27.000000
_cell_angle_alpha 90.000000
_cell_angle_beta 160.000000
_cell_angle_gamma 90.000000
_cell_volume 2991.992214
_symmetry_space_group_name_H-M "C 2/C"
_symmetry_group_IT_number 15
_symmetry_cell_setting 'monoclinic'
loop_
_space_group_symop_operation_xyz
x,y,z
-x,y,1/2-z
-x,-y,-z
x,-y,1/2+z
1/2+x,1/2+y,z
1/2-x,1/2+y,1/2-z
1/2-x,1/2-y,-z
1/2+x,1/2-y,1/2+z
loop_
_atom_site_type_symbol
_atom_site_label
_atom_site_fract_x
_atom_site_fract_y
_atom_site_fract_z
Si Si1 0.809536 0.913061 0.172448
Si Si2 0.987462 0.149419 0.960519
Si Si3 0.400347 0.814892 0.900845
Si Si4 0.252430 0.420984 0.611592
Si Si5 0.342356 0.803385 0.603641
Si Si6 0.326950 0.890133 0.755550
Si Si7 0.686413 0.944204 0.207360
O O1 0.819846 0.924945 0.239290
O O2 0.000000 0.905092 0.250000
O O3 0.708902 0.992821 0.096268
O O4 0.646497 0.845599 0.060160
O O5 0.891668 0.230431 0.912226
O O6 0.807646 0.093743 0.828679
O O7 0.143722 0.165252 0.011110
O O8 0.121259 0.117447 0.090568
O O9 0.270389 0.869044 0.855389
O O10 0.326771 0.827946 0.798525
O O11 0.500000 0.415476 0.750000
O O12 0.050472 0.406383 0.448696
O O13 0.500000 0.776738 0.750000
O O14 0.250000 0.750000 0.500000
O O15 0.472567 0.867469 0.655047
O O16 0.336149 0.968919 0.790414
#
# Coordination Sequence:
#
# PCOD9309131 Si02
#       7
#     8   8   8   8   8   8   8
#     4  10  21  36  63  96 123 157 203 258 311 371
#     4  11  26  37  63  90 128 168 201 256 320 372
#     4  11  21  39  63  93 123 160 204 263 309 365
#     4  10  21  40  64  91 117 160 216 267 305 359
#     4  10  22  38  60  96 131 169 203 254 317 385
#     4  11  22  41  58  88 134 164 208 244 309 382
#     4  11  22  41  62  89 125 168 207 252 314 372
#
# _framework density 9.3583130000000008
#
# number of rings (size 3 to 8) (size 9 to 14) (size 15 to 20)
#    0.000    1.429    4.286    1.286    6.000    1.714 
#    0.000    1.429    0.000    0.000    0.000    0.000 
#    0.000    0.000    0.000    0.000    0.000    0.000 
#
# Total GULP energy -155877.899445 kJ/mol
# GULP energy per Si atom -5567.067837 kJ/mol
# Density = 0.933701 g / cm^3
# Si number density = 9.358313 Si / 1000 Ang^3
#
#
#
# Elastic Constant Matrix: (Units=GPa)
#
#
# Indices 1 2 3 4 5 6 
#
# 1 84.2687 29.4273 38.0586 0.0486 -21.0651 -0.0139
# 2 29.4273 64.2196 28.1402 0.0703 0.3806 -0.0130
# 3 38.0586 28.1402 80.4775 0.2139 -23.5923 -0.0290
# 4 0.0486 0.0703 0.2139 13.4555 0.0067 -3.1442
# 5 -21.0651 0.3806 -23.5923 0.0067 37.2317 -0.0077
# 6 -0.0139 -0.0130 -0.0290 -3.1442 -0.0077 19.8461
#
#
#
# Elastic Compliance Matrix: (Units=1/GPa)
#
#
# Indices 1 2 3 4 5 6 
#
# 1 0.017818 -0.006499 -0.003904 0.000030 0.007674 0.000010
# 2 -0.006499 0.021630 -0.006917 0.000025 -0.008282 0.000000
# 3 -0.003904 -0.006917 0.019730 -0.000273 0.010364 -0.000018
# 4 0.000030 0.000025 -0.000273 0.077181 -0.000167 0.012227
# 5 0.007674 -0.008282 0.010364 -0.000167 0.037852 0.000003
# 6 0.000010 0.000000 -0.000018 0.012227 0.000003 0.052325
#
#
# Mechanical properties :
#
#
# Convention : Reuss Voigt Hill
#
# Bulk Modulus (GPa) = 40.75710 46.69088 43.72399
# Shear Modulus (GPa) = 18.56277 22.99597 20.77937
#
# Velocity S-wave (km/s) = 3.15267 3.50900 3.33560
# Velocity P-wave (km/s) = 5.92247 6.43566 6.18439
#
# Compressibility (1/GPa) = 0.02453560
#
# Stress axis : x y z
#
# Youngs Moduli (GPa) = 56.12343 46.23207 50.68456
#
# Poissons Ratio (x) = 0.30048 0.19788
# Poissons Ratio (y) = 0.36477 0.35061
# Poissons Ratio (z) = 0.21911 0.31981
#
# Static dielectric constant tensor:
#      x y z
#    x 1.655380 0.000000 0.008570 
#    y 0.000000 1.655150 -0.000040 
#    z 0.008570 -0.000040 1.715710 
# 
# From -- ./inp_files/299369.got.cif
#   From: 2010.05.17/outbox.ucp.g08.bks.cvg/sg15_150_cif.got.tgz:299369.got - 2010.06.11 12:40:34.
