data_PCOD9309635
_publ_section_title
;
Structure prediction by ZEFSAII (Michael W. Deem and Ramdas Pophale) SiO2 
 PCOD9309635
Probable space group: C 2/C
;
_chemical_formula_sum "Si O2"
_cell_formula_units_Z 30
_cell_length_a 27.000000
_cell_length_b 21.000000
_cell_length_c 15.000000
_cell_angle_alpha 90.000000
_cell_angle_beta 20.000000
_cell_angle_gamma 90.000000
_cell_volume 2908.881319
_symmetry_space_group_name_H-M "C 2/C"
_symmetry_group_IT_number 15
_symmetry_cell_setting 'monoclinic'
loop_
_space_group_symop_operation_xyz
x,y,z
-x,y,1/2-z
-x,-y,-z
x,-y,1/2+z
1/2+x,1/2+y,z
1/2-x,1/2+y,1/2-z
1/2-x,1/2-y,-z
1/2+x,1/2-y,1/2+z
loop_
_atom_site_type_symbol
_atom_site_label
_atom_site_fract_x
_atom_site_fract_y
_atom_site_fract_z
Si Si1 0.675080 0.991073 0.708549
Si Si2 0.828914 0.363867 0.874041
Si Si3 0.045388 0.310133 0.025219
Si Si4 0.000000 0.407706 0.750000
Si Si5 0.780341 0.350084 0.593678
Si Si6 0.472833 0.324109 0.035556
Si Si7 0.965847 0.934789 0.706968
Si Si8 0.252168 0.012063 0.212711
O O1 0.795917 0.046114 0.489685
O O2 0.711587 0.937334 0.575161
O O3 0.710717 0.968590 0.748519
O O4 0.500000 0.000000 0.000000
O O5 0.901174 0.341849 0.658384
O O6 0.944211 0.365893 0.760508
O O7 0.679679 0.328697 0.153139
O O8 0.890957 0.333255 0.326309
O O9 0.154717 0.322678 0.923076
O O10 0.032204 0.236809 0.019953
O O11 0.136371 0.453881 0.495244
O O12 0.778826 0.426715 0.606750
O O13 0.618349 0.324380 0.849585
O O14 0.492761 0.384549 0.937800
O O15 0.000000 0.911354 0.750000
O O16 0.083596 0.991556 0.494507
#
# Coordination Sequence:
#
# PCOD9309635 Si02
#       8
#     8   8   8   4   8   8   8   8
#     4  11  23  40  69 104 147 183 235 298 367 429
#     4  12  26  45  69 107 147 195 239 297 367 431
#     4  11  27  49  71 105 143 195 249 300 353 430
#     4  12  24  38  70 104 146 190 232 292 366 438
#     4  11  26  46  78 104 136 190 250 303 358 427
#     4  12  27  47  72 104 148 192 244 297 360 436
#     4  10  25  42  68 106 147 188 231 299 370 432
#     4  11  22  44  67 107 143 183 235 299 365 431
#
# _framework density 10.313243
#
# number of rings (size 3 to 8) (size 9 to 14) (size 15 to 20)
#    0.000    0.800    4.000    2.400    5.600    2.667 
#    0.000    0.000    0.000    0.000    0.000    0.000 
#    0.000    0.000    0.000    0.000    0.000    0.000 
#
# Total GULP energy -167707.491907 kJ/mol
# GULP energy per Si atom -5590.249730 kJ/mol
# Density = 1.028977 g / cm^3
# Si number density = 10.313243 Si / 1000 Ang^3
#
#
#
# Elastic Constant Matrix: (Units=GPa)
#
#
# Indices 1 2 3 4 5 6 
#
# 1 145.6451 45.3149 69.5561 0.0026 -3.6076 -0.0011
# 2 45.3149 63.3103 43.7216 0.0045 -6.9692 -0.0024
# 3 69.5561 43.7216 163.0822 0.0048 -3.5875 -0.0030
# 4 0.0026 0.0045 0.0048 27.5574 -0.0026 17.3514
# 5 -3.6076 -6.9692 -3.5875 -0.0026 47.4733 0.0015
# 6 -0.0011 -0.0024 -0.0030 17.3514 0.0015 32.9750
#
#
#
# Elastic Compliance Matrix: (Units=1/GPa)
#
#
# Indices 1 2 3 4 5 6 
#
# 1 0.009787 -0.005084 -0.002816 0.000001 -0.000215 -0.000001
# 2 -0.005084 0.022316 -0.003757 -0.000004 0.002606 0.000003
# 3 -0.002816 -0.003757 0.008337 -0.000001 -0.000135 0.000001
# 4 0.000001 -0.000004 -0.000001 0.054268 0.000003 -0.028556
# 5 -0.000215 0.002606 -0.000135 0.000003 0.021420 -0.000002
# 6 -0.000001 0.000003 0.000001 -0.028556 -0.000002 0.045352
#
#
# Mechanical properties :
#
#
# Convention : Reuss Voigt Hill
#
# Bulk Modulus (GPa) = 58.39196 76.58032 67.48614
# Shear Modulus (GPa) = 26.24622 35.83081 31.03851
#
# Velocity S-wave (km/s) = 3.57101 4.17241 3.88337
# Velocity P-wave (km/s) = 6.73599 7.77301 7.27301
#
# Compressibility (1/GPa) = 0.01712564
#
# Stress axis : x y z
#
# Youngs Moduli (GPa) = 102.17134 44.81143 119.94456
#
# Poissons Ratio (x) = 0.22784 0.33777
# Poissons Ratio (y) = 0.51948 0.45062
# Poissons Ratio (z) = 0.28772 0.16835
#
# Static dielectric constant tensor:
#      x y z
#    x 1.743500 0.000000 -0.002360 
#    y 0.000000 1.765060 0.000000 
#    z -0.002360 0.000000 1.722270 
# 
# From -- ./inp_files/179103.got.cif
#   From: 2010.05.17/outbox.ucp.g08.bks.cvg/sg15_90_cif.got.tgz:179103.got - 2010.06.11 12:40:34.
