data_PCOD9309142
_publ_section_title
;
Structure prediction by ZEFSAII (Michael W. Deem and Ramdas Pophale) SiO2 
 PCOD9309142
Probable space group: C 2/C
;
_chemical_formula_sum "Si O2"
_cell_formula_units_Z 28
_cell_length_a 21.000000
_cell_length_b 21.000000
_cell_length_c 18.000000
_cell_angle_alpha 90.000000
_cell_angle_beta 20.000000
_cell_angle_gamma 90.000000
_cell_volume 2714.955898
_symmetry_space_group_name_H-M "C 2/C"
_symmetry_group_IT_number 15
_symmetry_cell_setting 'monoclinic'
loop_
_space_group_symop_operation_xyz
x,y,z
-x,y,1/2-z
-x,-y,-z
x,-y,1/2+z
1/2+x,1/2+y,z
1/2-x,1/2+y,1/2-z
1/2-x,1/2-y,-z
1/2+x,1/2-y,1/2+z
loop_
_atom_site_type_symbol
_atom_site_label
_atom_site_fract_x
_atom_site_fract_y
_atom_site_fract_z
Si Si1 0.718767 0.088813 0.105109
Si Si2 0.445934 0.332101 0.064977
Si Si3 0.398723 0.297547 0.942201
Si Si4 0.928906 0.525915 0.910146
Si Si5 0.872795 0.928004 0.274576
Si Si6 0.161302 0.307439 0.787602
Si Si7 0.993706 0.662728 0.897749
O O1 0.658190 0.153017 0.214914
O O2 0.569100 0.031819 0.280059
O O3 0.758722 0.098624 0.972733
O O4 0.915009 0.069430 0.928608
O O5 0.364675 0.389567 0.205330
O O6 0.345438 0.268606 0.207309
O O7 0.451416 0.328339 0.967492
O O8 0.657178 0.327019 0.863836
O O9 0.500000 0.302859 0.750000
O O10 0.385555 0.222058 0.977883
O O11 0.200822 0.328094 0.141508
O O12 0.000000 0.543087 0.750000
O O13 0.928956 0.591234 0.954997
O O14 0.723960 0.495798 0.132149
O O15 0.996219 0.325871 0.024657
#
# Coordination Sequence:
#
# PCOD9309142 Si02
#       7
#     8   8   8   8   8   8   8
#     4   9  20  40  60  93 127 168 208 253 305 363
#     4  10  21  38  61  91 122 167 204 260 317 357
#     4  11  23  41  63  89 123 157 206 263 312 375
#     4  10  22  40  64  91 125 167 208 254 310 374
#     4   9  20  41  63  88 133 165 207 257 301 372
#     4  10  21  37  61  90 127 159 211 258 305 373
#     4  11  23  41  62  92 120 162 205 257 318 373
#
# _framework density 10.313243
#
# number of rings (size 3 to 8) (size 9 to 14) (size 15 to 20)
#    0.000    2.000    0.000    4.286    4.000    2.286 
#   10.286    1.429    0.000    0.000    0.000    0.000 
#    0.000    0.000    0.000    0.000    0.000    0.000 
#
# Total GULP energy -156072.489827 kJ/mol
# GULP energy per Si atom -5574.017494 kJ/mol
# Density = 1.028977 g / cm^3
# Si number density = 10.313243 Si / 1000 Ang^3
#
#
#
# Elastic Constant Matrix: (Units=GPa)
#
#
# Indices 1 2 3 4 5 6 
#
# 1 95.0553 38.8721 9.8048 0.0367 22.1907 -0.0008
# 2 38.8721 67.2571 14.3683 0.0518 8.0616 0.0189
# 3 9.8048 14.3683 68.5290 0.0494 13.8007 0.0240
# 4 0.0367 0.0518 0.0494 14.7900 0.0099 -6.6952
# 5 22.1907 8.0616 13.8007 0.0099 25.4900 0.0033
# 6 -0.0008 0.0189 0.0240 -6.6952 0.0033 20.5027
#
#
#
# Elastic Compliance Matrix: (Units=1/GPa)
#
#
# Indices 1 2 3 4 5 6 
#
# 1 0.016892 -0.008628 0.002025 -0.000007 -0.013073 0.000006
# 2 -0.008628 0.020263 -0.003632 -0.000054 0.003070 -0.000033
# 3 0.002025 -0.003632 0.017047 -0.000058 -0.009843 -0.000034
# 4 -0.000007 -0.000054 -0.000058 0.079342 0.000020 0.025910
# 5 -0.013073 0.003070 -0.009843 0.000020 0.054970 0.000006
# 6 0.000006 -0.000033 -0.000034 0.025910 0.000006 0.057235
#
#
# Mechanical properties :
#
#
# Convention : Reuss Voigt Hill
#
# Bulk Modulus (GPa) = 29.64688 39.65908 34.65298
# Shear Modulus (GPa) = 18.02036 23.34295 20.68165
#
# Velocity S-wave (km/s) = 2.95897 3.36772 3.16994
# Velocity P-wave (km/s) = 5.10670 5.86439 5.49861
#
# Compressibility (1/GPa) = 0.03373036
#
# Stress axis : x y z
#
# Youngs Moduli (GPa) = 59.20071 49.35030 58.66283
#
# Poissons Ratio (x) = 0.42582 -0.11879
# Poissons Ratio (y) = 0.51081 0.21307
# Poissons Ratio (z) = -0.11988 0.17925
#
# Static dielectric constant tensor:
#      x y z
#    x 1.741410 -0.000020 -0.022800 
#    y -0.000020 1.723880 0.000030 
#    z -0.022800 0.000030 1.830350 
# 
# From -- ./inp_files/216629.got.cif
#   From: 2010.05.17/outbox.ucp.g08.bks.cvg/sg15_109_cif.got.tgz:216629.got - 2010.06.11 12:40:34.
