data_PCOD9309921
_publ_section_title
;
Structure prediction by ZEFSAII (Michael W. Deem and Ramdas Pophale) SiO2 
 PCOD9309921
Probable space group: P 2 2 2
;
_chemical_formula_sum "Si O2"
_cell_formula_units_Z 25
_cell_length_a 7.266435
_cell_length_b 26.551835
_cell_length_c 5.599895
_cell_angle_alpha 90.000000
_cell_angle_beta 90.000000
_cell_angle_gamma 90.000000
_cell_volume 1080.427967
_symmetry_space_group_name_H-M "P 2 2 2"
_symmetry_group_IT_number 16
_symmetry_cell_setting 'orthorhombic'
loop_
_space_group_symop_operation_xyz
x,y,z
-x,-y,z
x,-y,-z
-x,y,-z
loop_
_atom_site_type_symbol
_atom_site_label
_atom_site_fract_x
_atom_site_fract_y
_atom_site_fract_z
Si Si1 0.715678 0.180115 0.762123
Si Si2 0.710303 0.020102 0.251615
Si Si3 0.000000 0.500000 0.000000
Si Si4 0.707703 0.140383 0.258479
Si Si5 0.280869 0.299531 0.225097
Si Si6 0.202242 0.552634 0.384138
Si Si7 0.301433 0.338449 0.719855
O O1 0.789545 0.162039 0.504957
O O2 0.500660 0.162797 0.751158
O O3 0.731795 0.239744 0.795459
O O4 0.792417 0.155948 0.004588
O O5 0.704123 0.080231 0.264156
O O6 0.500000 0.000000 0.250675
O O7 0.793026 0.000000 0.500000
O O8 0.789618 0.000000 0.000000
O O9 0.858988 0.463288 0.125016
O O10 0.205843 0.314636 0.486472
O O11 0.496215 0.314743 0.250772
O O12 0.214552 0.327095 0.981266
O O13 0.273248 0.500000 0.500000
O O14 0.316154 0.602910 0.353513
O O15 0.000000 0.563005 0.500000
#
# Coordination Sequence:
#
# PCOD9309921 Si02
#       7
#     4   4   1   4   4   4   4
#     4  10  16  26  38  54  76 102 148 172 220 269
#     4  10  16  22  28  42  66  90 130 182 238 266
#     4   8  18  36  56  72  92 116 158 184 220 248
#     4  10  16  22  36  48  66 104 138 184 224 266
#     4  10  20  32  48  70  96 126 144 192 235 283
#     4   9  20  35  56  75  93 122 155 192 223 268
#     4  10  19  33  51  70  97 120 151 177 237 277
#
# _framework density 23.13898
#
# number of rings (size 3 to 8) (size 9 to 14) (size 15 to 20)
#    0.000    2.400    0.000    9.600    4.480    0.000 
#    0.000    1.600    0.000    0.000    0.000    0.000 
#    0.000    0.000    0.000    0.000    0.000    0.000 
#
# Total GULP energy -139336.277606 kJ/mol
# GULP energy per Si atom -5573.451104 kJ/mol
# Density = 2.308631 g / cm^3
# Si number density = 23.138980 Si / 1000 Ang^3
#
#
#
# Elastic Constant Matrix: (Units=GPa)
#
#
# Indices 1 2 3 4 5 6 
#
# 1 74.7188 10.8710 21.6715 0.0000 0.0000 0.0000
# 2 10.8710 226.9241 82.8600 0.0000 0.0000 0.0000
# 3 21.6715 82.8600 247.3455 0.0000 0.0000 0.0000
# 4 0.0000 0.0000 0.0000 69.8932 0.0000 0.0000
# 5 0.0000 0.0000 0.0000 0.0000 10.9542 0.0000
# 6 0.0000 0.0000 0.0000 0.0000 0.0000 -32.2654
#
#
#
# Elastic Compliance Matrix: (Units=1/GPa)
#
#
# Indices 1 2 3 4 5 6 
#
# 1 0.013745 -0.000249 -0.001121 0.000000 0.000000 0.000000
# 2 -0.000249 0.005025 -0.001662 0.000000 0.000000 0.000000
# 3 -0.001121 -0.001662 0.004698 0.000000 0.000000 0.000000
# 4 0.000000 0.000000 0.000000 0.014308 0.000000 0.000000
# 5 0.000000 0.000000 0.000000 0.000000 0.091289 0.000000
# 6 0.000000 0.000000 0.000000 0.000000 0.000000 -0.030993
#
#
# Mechanical properties :
#
#
# Convention : Reuss Voigt Hill
#
# Bulk Modulus (GPa) = 57.45565 86.64370 72.04967
# Shear Modulus (GPa) = 45.48064 38.62214 42.05139
#
# Velocity S-wave (km/s) = 4.43825 4.08994 4.26765
# Velocity P-wave (km/s) = 7.15183 7.73496 7.44911
#
# Compressibility (1/GPa) = 0.01740473
#
# Stress axis : x y z
#
# Youngs Moduli (GPa) = 72.75457 198.98716 212.86638
#
# Poissons Ratio (x) = 0.04959 0.23858
# Poissons Ratio (y) = 0.01813 0.35371
# Poissons Ratio (z) = 0.08154 0.33065
#
# Static dielectric constant tensor:
#      x y z
#    x 0.147430 0.000000 0.000000 
#    y 0.000000 1.730900 0.000000 
#    z 0.000000 0.000000 1.997610 
# 
# From -- ./inp_files/1633.got.cif
#   From: 2010.05.17/outbox.cif.g08.bks.cpg/sg16_1_cif.got.tgz:1633.got - 2010.06.03 22:28:35.
