data_PCOD9309259
_publ_section_title
;
Structure prediction by ZEFSAII (Michael W. Deem and Ramdas Pophale) SiO2 
 PCOD9309259
Probable space group: C 2/C
;
_chemical_formula_sum "Si O2"
_cell_formula_units_Z 28
_cell_length_a 18.000000
_cell_length_b 9.000000
_cell_length_c 18.000000
_cell_angle_alpha 90.000000
_cell_angle_beta 70.000000
_cell_angle_gamma 90.000000
_cell_volume 2740.143682
_symmetry_space_group_name_H-M "C 2/C"
_symmetry_group_IT_number 15
_symmetry_cell_setting 'monoclinic'
loop_
_space_group_symop_operation_xyz
x,y,z
-x,y,1/2-z
-x,-y,-z
x,-y,1/2+z
1/2+x,1/2+y,z
1/2-x,1/2+y,1/2-z
1/2-x,1/2-y,-z
1/2+x,1/2-y,1/2+z
loop_
_atom_site_type_symbol
_atom_site_label
_atom_site_fract_x
_atom_site_fract_y
_atom_site_fract_z
Si Si1 0.625707 0.815700 0.074711
Si Si2 0.086038 0.418372 0.690841
Si Si3 0.247529 0.581243 0.415700
Si Si4 0.665802 0.655369 0.362408
Si Si5 0.492352 0.554636 0.419020
Si Si6 0.709647 0.029036 0.766550
Si Si7 0.140253 0.830674 0.055335
O O1 0.694861 0.722809 0.092595
O O2 0.563360 0.697080 0.067035
O O3 0.583397 0.930045 0.143914
O O4 0.668647 0.893180 0.990538
O O5 0.134873 0.461119 0.748367
O O6 0.130607 0.307765 0.616309
O O7 0.000000 0.368177 0.750000
O O8 0.230272 0.557317 0.335422
O O9 0.291689 0.439153 0.436693
O O10 0.579054 0.604171 0.364434
O O11 0.694123 0.803148 0.305919
O O12 0.722225 0.516920 0.317709
O O13 0.656727 0.683755 0.457808
O O14 0.500000 0.500000 0.500000
O O15 0.441983 0.419896 0.401969
#
# Coordination Sequence:
#
# PCOD9309259 Si02
#       7
#     8   8   8   8   8   8   8
#     4  10  21  41  67  93 128 169 211 265 325 387
#     4  12  26  42  63  96 132 170 219 273 327 382
#     4  10  22  41  67  96 126 169 216 260 324 389
#     4  11  24  43  67  98 132 172 217 267 327 385
#     4   9  21  42  67  91 121 165 214 260 315 385
#     4  12  25  39  63  95 130 167 214 271 318 379
#     4  10  23  45  69  93 132 178 216 263 325 394
#
# _framework density 10.218442
#
# number of rings (size 3 to 8) (size 9 to 14) (size 15 to 20)
#    0.000    1.429    0.000    4.286    0.000   10.857 
#    0.000    7.857    0.000    0.000    0.000    0.000 
#    0.000    0.000    0.000    0.000    0.000    0.000 
#
# Total GULP energy -156137.892316 kJ/mol
# GULP energy per Si atom -5576.353297 kJ/mol
# Density = 1.019518 g / cm^3
# Si number density = 10.218442 Si / 1000 Ang^3
#
#
#
# Elastic Constant Matrix: (Units=GPa)
#
#
# Indices 1 2 3 4 5 6 
#
# 1 84.0846 19.0166 32.5257 0.0000 -0.5853 0.0000
# 2 19.0166 100.8140 45.8346 0.0000 4.7672 0.0000
# 3 32.5257 45.8346 128.6235 0.0000 4.3630 0.0000
# 4 0.0000 0.0000 0.0000 37.2196 0.0000 -6.7893
# 5 -0.5853 4.7672 4.3630 0.0000 47.2669 0.0000
# 6 0.0000 0.0000 0.0000 -6.7893 0.0000 18.1971
#
#
#
# Elastic Compliance Matrix: (Units=1/GPa)
#
#
# Indices 1 2 3 4 5 6 
#
# 1 0.013311 -0.001191 -0.002960 0.000000 0.000558 0.000000
# 2 -0.001191 0.011974 -0.003937 0.000000 -0.000859 0.000000
# 3 -0.002960 -0.003937 0.009945 0.000000 -0.000558 0.000000
# 4 0.000000 0.000000 0.000000 0.028830 0.000000 0.010756
# 5 0.000558 -0.000859 -0.000558 0.000000 0.021301 0.000000
# 6 0.000000 0.000000 0.000000 0.010756 0.000000 0.058967
#
#
# Mechanical properties :
#
#
# Convention : Reuss Voigt Hill
#
# Bulk Modulus (GPa) = 52.48323 56.47511 54.47917
# Shear Modulus (GPa) = 29.96579 34.94640 32.45609
#
# Velocity S-wave (km/s) = 3.83333 4.13966 3.98944
# Velocity P-wave (km/s) = 6.73268 7.10936 6.92358
#
# Compressibility (1/GPa) = 0.01905371
#
# Stress axis : x y z
#
# Youngs Moduli (GPa) = 75.12418 83.51170 100.55322
#
# Poissons Ratio (x) = 0.09949 0.29769
# Poissons Ratio (y) = 0.08950 0.39584
# Poissons Ratio (z) = 0.22241 0.32875
#
# Static dielectric constant tensor:
#      x y z
#    x 1.755930 0.000000 0.008000 
#    y 0.000000 1.772080 0.000000 
#    z 0.008000 0.000000 1.686020 
# 
# From -- ./inp_files/209535.got.cif
#   From: 2010.05.17/outbox.ucp.g08.bks.cvg/sg15_105_cif.got.tgz:209535.got - 2010.06.11 12:40:34.
