data_PCOD9309398
_publ_section_title
;
Structure prediction by ZEFSAII (Michael W. Deem and Ramdas Pophale) SiO2 
 PCOD9309398
Probable space group: C 2/C
;
_chemical_formula_sum "Si O2"
_cell_formula_units_Z 28
_cell_length_a 21.000000
_cell_length_b 12.000000
_cell_length_c 12.000000
_cell_angle_alpha 90.000000
_cell_angle_beta 70.000000
_cell_angle_gamma 90.000000
_cell_volume 2841.630485
_symmetry_space_group_name_H-M "C 2/C"
_symmetry_group_IT_number 15
_symmetry_cell_setting 'monoclinic'
loop_
_space_group_symop_operation_xyz
x,y,z
-x,y,1/2-z
-x,-y,-z
x,-y,1/2+z
1/2+x,1/2+y,z
1/2-x,1/2+y,1/2-z
1/2-x,1/2-y,-z
1/2+x,1/2-y,1/2+z
loop_
_atom_site_type_symbol
_atom_site_label
_atom_site_fract_x
_atom_site_fract_y
_atom_site_fract_z
Si Si1 0.500000 0.436604 0.250000
Si Si2 0.781439 0.712700 0.305194
Si Si3 0.961277 0.616657 0.534533
Si Si4 0.424700 0.281553 0.132338
Si Si5 0.093184 0.886600 0.588274
Si Si6 0.500000 0.798976 0.250000
Si Si7 0.806965 0.595475 0.527997
Si Si8 0.739130 0.640854 0.088708
O O1 0.448197 0.359747 0.217006
O O2 0.458557 0.513675 0.359384
O O3 0.858078 0.719050 0.213100
O O4 0.789823 0.637431 0.411958
O O5 0.744454 0.828042 0.366335
O O6 0.741133 0.671865 0.218892
O O7 0.885144 0.615582 0.525713
O O8 0.000000 0.500000 0.500000
O O9 0.011029 0.707054 0.445060
O O10 0.965543 0.639669 0.665373
O O11 0.401383 0.357756 0.043688
O O12 0.058778 0.778980 0.665107
O O13 0.165670 0.906117 0.599169
O O14 0.791093 0.462852 0.542365
O O15 0.750000 0.750000 0.000000
#
# Coordination Sequence:
#
# PCOD9309398 Si02
#       8
#     4   8   8   8   8   4   8   8
#     4  11  22  37  66  94 128 163 208 277 330 390
#     4  11  25  47  69  98 138 177 227 282 338 405
#     4  11  24  42  65  98 131 176 220 270 335 398
#     4  11  22  42  66  94 129 168 220 269 329 400
#     4  10  22  41  62  95 123 169 217 266 331 388
#     4   9  22  41  66  90 132 167 218 275 324 400
#     4  11  27  44  68 102 137 181 226 282 343 398
#     4  12  25  42  69  95 132 178 226 274 333 405
#
# _framework density 9.8534980000000001
#
# number of rings (size 3 to 8) (size 9 to 14) (size 15 to 20)
#    0.000    1.143    1.429    3.857    4.000    5.143 
#    0.000    0.000    0.000    0.000    0.000    0.000 
#    0.000    0.000    0.000    0.000    0.000    0.000 
#
# Total GULP energy -156265.017589 kJ/mol
# GULP energy per Si atom -5580.893485 kJ/mol
# Density = 0.983107 g / cm^3
# Si number density = 9.853498 Si / 1000 Ang^3
#
#
#
# Elastic Constant Matrix: (Units=GPa)
#
#
# Indices 1 2 3 4 5 6 
#
# 1 114.6542 0.4652 -4.7170 0.0000 8.4522 0.0000
# 2 0.4652 58.0594 -6.0052 0.0000 12.2053 0.0000
# 3 -4.7170 -6.0052 58.7908 0.0000 22.5229 0.0000
# 4 0.0000 0.0000 0.0000 2.8962 0.0000 -16.2762
# 5 8.4522 12.2053 22.5229 0.0000 39.7975 0.0000
# 6 0.0000 0.0000 0.0000 -16.2762 0.0000 39.3935
#
#
#
# Elastic Compliance Matrix: (Units=1/GPa)
#
#
# Indices 1 2 3 4 5 6 
#
# 1 0.009054 0.000856 0.002108 0.000000 -0.003378 0.000000
# 2 0.000856 0.019807 0.005731 0.000000 -0.009500 0.000000
# 3 0.002108 0.005731 0.023760 0.000000 -0.015652 0.000000
# 4 0.000000 0.000000 0.000000 -0.261193 0.000000 -0.107917
# 5 -0.003378 -0.009500 -0.015652 0.000000 0.037616 0.000000
# 6 0.000000 0.000000 0.000000 -0.107917 0.000000 -0.019203
#
#
# Mechanical properties :
#
#
# Convention : Reuss Voigt Hill
#
# Bulk Modulus (GPa) = 14.28340 23.44337 18.86338
# Shear Modulus (GPa) = -27.14267 32.53488 2.69610
#
# Velocity S-wave (km/s) = -3.71524 4.06757 1.17092
# Velocity P-wave (km/s) = 3.33772 5.82941 3.37947
#
# Compressibility (1/GPa) = 0.07001136
#
# Stress axis : x y z
#
# Youngs Moduli (GPa) = 110.44607 50.48801 42.08675
#
# Poissons Ratio (x) = -0.04320 -0.08873
# Poissons Ratio (y) = -0.09451 -0.24121
# Poissons Ratio (z) = -0.23284 -0.28935
#
# Static dielectric constant tensor:
#      x y z
#    x 1.861080 0.000000 -0.110000 
#    y 0.000000 1.699620 0.000000 
#    z -0.110000 0.000000 1.784710 
# 
# From -- ./inp_files/111619.got.cif
#   From: 2010.05.17/outbox.ucp.g08.bks.cvg/sg15_56_cif.got.tgz:111619.got - 2010.06.11 12:40:34.
