data_PCOD9309818
_publ_section_title
;
Structure prediction by ZEFSAII (Michael W. Deem and Ramdas Pophale) SiO2 
 PCOD9309818
Probable space group: C 2/C
;
_chemical_formula_sum "Si O2"
_cell_formula_units_Z 28
_cell_length_a 9.000000
_cell_length_b 15.000000
_cell_length_c 24.000000
_cell_angle_alpha 90.000000
_cell_angle_beta 60.000000
_cell_angle_gamma 90.000000
_cell_volume 2805.922308
_symmetry_space_group_name_H-M "C 2/C"
_symmetry_group_IT_number 15
_symmetry_cell_setting 'monoclinic'
loop_
_space_group_symop_operation_xyz
x,y,z
-x,y,1/2-z
-x,-y,-z
x,-y,1/2+z
1/2+x,1/2+y,z
1/2-x,1/2+y,1/2-z
1/2-x,1/2-y,-z
1/2+x,1/2-y,1/2+z
loop_
_atom_site_type_symbol
_atom_site_label
_atom_site_fract_x
_atom_site_fract_y
_atom_site_fract_z
Si Si1 0.772330 0.776033 0.429623
Si Si2 0.500000 0.407048 0.250000
Si Si3 0.108802 0.058126 0.145041
Si Si4 0.571009 0.043584 0.930440
Si Si5 0.337943 0.677812 0.680866
Si Si6 0.761735 0.071961 0.581854
Si Si7 0.953128 0.111316 0.056407
Si Si8 0.000000 0.797227 0.750000
O O1 0.750000 0.750000 0.500000
O O2 0.685405 0.871073 0.428915
O O3 0.664026 0.699386 0.417491
O O4 0.974647 0.783637 0.374189
O O5 0.544844 0.470773 0.189716
O O6 0.638455 0.349764 0.258009
O O7 0.055682 0.074429 0.091241
O O8 0.019532 0.138817 0.193402
O O9 0.310849 0.038330 0.114051
O O10 0.424522 0.074072 0.913694
O O11 0.500000 0.000000 0.000000
O O12 0.282061 0.607058 0.641962
O O13 0.175108 0.742409 0.714583
O O14 0.902247 0.125027 0.518281
O O15 0.825907 0.969876 0.565327
#
# Coordination Sequence:
#
# PCOD9309818 Si02
#       8
#     8   4   8   8   8   8   8   4
#     4  12  26  44  76 110 146 186 239 310 372 438
#     4  11  24  50  70  89 142 210 231 292 350 438
#     4  11  25  49  70  99 147 193 244 293 365 438
#     4  12  25  43  75 110 145 192 233 301 382 433
#     4  12  27  49  71 102 146 192 254 295 368 433
#     4  11  24  43  73 107 146 183 233 301 368 440
#     4  11  23  44  71 111 145 182 235 301 370 430
#     4  11  32  46  70 105 142 198 249 312 338 454
#
# _framework density 9.9788940000000004
#
# number of rings (size 3 to 8) (size 9 to 14) (size 15 to 20)
#    0.000    0.571    5.714    0.857   10.000    0.571 
#    0.000    0.000    0.000    0.000    0.000    0.000 
#    0.000    0.000    0.000    0.000    0.000    0.000 
#
# Total GULP energy -156027.514131 kJ/mol
# GULP energy per Si atom -5572.411219 kJ/mol
# Density = 0.995618 g / cm^3
# Si number density = 9.978894 Si / 1000 Ang^3
#
#
#
# Elastic Constant Matrix: (Units=GPa)
#
#
# Indices 1 2 3 4 5 6 
#
# 1 139.7667 39.2380 39.1886 0.0000 -1.4574 0.0000
# 2 39.2380 76.7970 33.5775 0.0000 -14.3546 0.0000
# 3 39.1886 33.5775 61.6853 0.0000 -0.5633 0.0000
# 4 0.0000 0.0000 0.0000 23.4509 0.0000 -15.2774
# 5 -1.4574 -14.3546 -0.5633 0.0000 51.3275 0.0000
# 6 0.0000 0.0000 0.0000 -15.2774 0.0000 15.9603
#
#
#
# Elastic Compliance Matrix: (Units=1/GPa)
#
#
# Indices 1 2 3 4 5 6 
#
# 1 0.009159 -0.002949 -0.004219 0.000000 -0.000611 0.000000
# 2 -0.002949 0.019240 -0.008552 0.000000 0.005203 0.000000
# 3 -0.004219 -0.008552 0.023526 0.000000 -0.002253 0.000000
# 4 0.000000 0.000000 0.000000 0.113285 0.000000 0.108438
# 5 -0.000611 0.005203 -0.002253 0.000000 0.020896 0.000000
# 6 0.000000 0.000000 0.000000 0.108438 0.000000 0.166454
#
#
# Mechanical properties :
#
#
# Convention : Reuss Voigt Hill
#
# Bulk Modulus (GPa) = 48.81605 55.80635 52.31120
# Shear Modulus (GPa) = 12.79333 29.23073 21.01203
#
# Velocity S-wave (km/s) = 2.53458 3.83120 3.24824
# Velocity P-wave (km/s) = 5.75137 6.89882 6.35106
#
# Compressibility (1/GPa) = 0.02048506
#
# Stress axis : x y z
#
# Youngs Moduli (GPa) = 109.17774 51.97555 42.50594
#
# Poissons Ratio (x) = 0.15329 0.17934
# Poissons Ratio (y) = 0.32200 0.36350
# Poissons Ratio (z) = 0.46063 0.44448
#
# Static dielectric constant tensor:
#      x y z
#    x 2.085770 0.000000 -0.352960 
#    y 0.000000 1.741590 0.000000 
#    z -0.352960 0.000000 2.035060 
# 
# From -- ./inp_files/264633.got.cif
#   From: 2010.05.17/outbox.ucp.g08.bks.cvg/sg15_133_cif.got.tgz:264633.got - 2010.06.11 12:40:34.
