data_PCOD9309839
_publ_section_title
;
Structure prediction by ZEFSAII (Michael W. Deem and Ramdas Pophale) SiO2 
 PCOD9309839
Probable space group: C 2/C
;
_chemical_formula_sum "Si O2"
_cell_formula_units_Z 22
_cell_length_a 30.000000
_cell_length_b 9.000000
_cell_length_c 9.000000
_cell_angle_alpha 90.000000
_cell_angle_beta 60.000000
_cell_angle_gamma 90.000000
_cell_volume 2104.441731
_symmetry_space_group_name_H-M "C 2/C"
_symmetry_group_IT_number 15
_symmetry_cell_setting 'monoclinic'
loop_
_space_group_symop_operation_xyz
x,y,z
-x,y,1/2-z
-x,-y,-z
x,-y,1/2+z
1/2+x,1/2+y,z
1/2-x,1/2+y,1/2-z
1/2-x,1/2-y,-z
1/2+x,1/2-y,1/2+z
loop_
_atom_site_type_symbol
_atom_site_label
_atom_site_fract_x
_atom_site_fract_y
_atom_site_fract_z
Si Si1 0.601060 0.211716 0.097891
Si Si2 0.100806 0.427876 0.270174
Si Si3 0.848083 0.006836 0.126675
Si Si4 0.500000 0.155542 0.750000
Si Si5 0.044202 0.123703 0.932898
Si Si6 0.306820 0.303726 0.951896
O O1 0.554470 0.299070 0.256676
O O2 0.618688 0.094091 0.195214
O O3 0.591161 0.121667 0.958754
O O4 0.640033 0.345133 0.991223
O O5 0.046906 0.417417 0.267006
O O6 0.147056 0.317780 0.142618
O O7 0.818352 0.065731 0.317297
O O8 0.903209 0.948520 0.093493
O O9 0.816419 0.880521 0.094461
O O10 0.527821 0.254767 0.579957
O O11 0.000000 0.000000 0.000000
O O12 0.250000 0.250000 0.000000
#
# Coordination Sequence:
#
# PCOD9309839 Si02
#       6
#     8   8   8   4   8   8
#     4  11  25  45  69 100 147 183 237 289 351 435
#     4  11  26  44  68 106 142 188 233 293 366 419
#     4  11  23  47  70 104 137 187 241 294 355 428
#     4  12  24  40  66 100 148 180 230 296 346 432
#     4  12  23  41  70 102 142 187 236 286 354 428
#     4  11  25  47  72 102 142 184 244 296 359 425
#
# _framework density 10.454079
#
# number of rings (size 3 to 8) (size 9 to 14) (size 15 to 20)
#    0.000    0.727    3.636    4.364    0.000    9.455 
#    0.000    1.818    0.000    0.000    0.000    0.000 
#    0.000    0.000    0.000    0.000    0.000    0.000 
#
# Total GULP energy -122858.815737 kJ/mol
# GULP energy per Si atom -5584.491624 kJ/mol
# Density = 1.043028 g / cm^3
# Si number density = 10.454079 Si / 1000 Ang^3
#
#
#
# Elastic Constant Matrix: (Units=GPa)
#
#
# Indices 1 2 3 4 5 6 
#
# 1 143.2905 40.8113 10.0466 0.0000 -9.9468 0.0000
# 2 40.8113 82.5004 9.5776 0.0000 7.3494 0.0000
# 3 10.0466 9.5776 39.1025 0.0000 9.1537 0.0000
# 4 0.0000 0.0000 0.0000 45.3182 0.0000 10.1442
# 5 -9.9468 7.3494 9.1537 0.0000 26.1822 0.0000
# 6 0.0000 0.0000 0.0000 10.1442 0.0000 31.9345
#
#
#
# Elastic Compliance Matrix: (Units=1/GPa)
#
#
# Indices 1 2 3 4 5 6 
#
# 1 0.008834 -0.004577 -0.002434 0.000000 0.005492 0.000000
# 2 -0.004577 0.015018 -0.001208 0.000000 -0.005532 0.000000
# 3 -0.002434 -0.001208 0.029006 0.000000 -0.010727 0.000000
# 4 0.000000 0.000000 0.000000 0.023755 0.000000 -0.007546
# 5 0.005492 -0.005532 -0.010727 0.000000 0.045584 0.000000
# 6 0.000000 0.000000 0.000000 -0.007546 0.000000 0.033711
#
#
# Mechanical properties :
#
#
# Convention : Reuss Voigt Hill
#
# Bulk Modulus (GPa) = 27.45653 42.86271 35.15962
# Shear Modulus (GPa) = 27.10221 34.31748 30.70985
#
# Velocity S-wave (km/s) = 3.60425 4.05575 3.83665
# Velocity P-wave (km/s) = 5.52099 6.51744 6.03980
#
# Compressibility (1/GPa) = 0.03642120
#
# Stress axis : x y z
#
# Youngs Moduli (GPa) = 113.19519 66.58587 34.47539
#
# Poissons Ratio (x) = 0.30475 0.08393
# Poissons Ratio (y) = 0.51807 0.04163
# Poissons Ratio (z) = 0.27557 0.08040
#
# Static dielectric constant tensor:
#      x y z
#    x 1.735680 0.000000 0.067710 
#    y 0.000000 1.824630 0.000000 
#    z 0.067710 0.000000 1.778370 
# 
# From -- ./inp_files/68499.got.cif
#   From: 2010.05.17/outbox.ucp.g08.bks.cvg/sg15_35_cif.got.tgz:68499.got - 2010.06.11 12:40:34.
