data_PCOD9309691
_publ_section_title
;
Structure prediction by ZEFSAII (Michael W. Deem and Ramdas Pophale) SiO2 
 PCOD9309691
Probable space group: C 2/C
;
_chemical_formula_sum "Si O2"
_cell_formula_units_Z 28
_cell_length_a 15.000000
_cell_length_b 15.000000
_cell_length_c 24.000000
_cell_angle_alpha 90.000000
_cell_angle_beta 30.000000
_cell_angle_gamma 90.000000
_cell_volume 2700.000000
_symmetry_space_group_name_H-M "C 2/C"
_symmetry_group_IT_number 15
_symmetry_cell_setting 'monoclinic'
loop_
_space_group_symop_operation_xyz
x,y,z
-x,y,1/2-z
-x,-y,-z
x,-y,1/2+z
1/2+x,1/2+y,z
1/2-x,1/2+y,1/2-z
1/2-x,1/2-y,-z
1/2+x,1/2-y,1/2+z
loop_
_atom_site_type_symbol
_atom_site_label
_atom_site_fract_x
_atom_site_fract_y
_atom_site_fract_z
Si Si1 0.398055 0.084932 0.956056
Si Si2 0.381504 0.517309 0.007577
Si Si3 0.642968 0.909677 0.822543
Si Si4 0.171625 0.332106 0.117842
Si Si5 0.530145 0.204337 0.486406
Si Si6 0.005935 0.008913 0.178825
Si Si7 0.313277 0.829308 0.825791
O O1 0.402488 0.162883 0.906004
O O2 0.506281 0.992871 0.885663
O O3 0.489121 0.120587 0.962535
O O4 0.188965 0.066059 0.081219
O O5 0.461174 0.539970 0.901867
O O6 0.500000 0.500000 0.000000
O O7 0.278588 0.424557 0.058595
O O8 0.245021 0.592871 0.100225
O O9 0.567108 0.833095 0.904629
O O10 0.678991 0.868733 0.741539
O O11 0.820915 0.942518 0.760659
O O12 0.308245 0.260904 0.071697
O O13 0.000000 0.334264 0.250000
O O14 0.348958 0.260031 0.585226
O O15 0.000000 0.977544 0.250000
O O16 0.500000 0.793932 0.750000
#
# Coordination Sequence:
#
# PCOD9309691 Si02
#       7
#     8   8   8   8   8   8   8
#     4  11  25  47  69 105 146 192 247 295 370 453
#     4  11  20  44  73 103 141 188 246 295 355 451
#     4  12  26  49  75 105 152 194 239 309 371 442
#     4  11  24  40  74 106 136 188 244 307 366 431
#     4  12  27  44  70 110 147 179 248 309 366 438
#     4  11  23  42  75 103 139 190 238 304 363 425
#     4  12  26  50  74 102 148 196 240 302 366 439
#
# _framework density 10.370369999999999
#
# number of rings (size 3 to 8) (size 9 to 14) (size 15 to 20)
#    0.000    0.571    4.286    4.714    4.000    0.571 
#    2.571    0.000    0.000    0.000    0.000    0.000 
#    0.000    0.000    0.000    0.000    0.000    0.000 
#
# Total GULP energy -155955.057268 kJ/mol
# GULP energy per Si atom -5569.823474 kJ/mol
# Density = 1.034677 g / cm^3
# Si number density = 10.370370 Si / 1000 Ang^3
#
#
#
# Elastic Constant Matrix: (Units=GPa)
#
#
# Indices 1 2 3 4 5 6 
#
# 1 143.8140 19.9709 49.3045 0.0021 27.5527 0.0006
# 2 19.9709 66.9714 40.3623 -0.0010 6.5635 0.0008
# 3 49.3045 40.3623 118.4538 0.0042 23.8212 0.0071
# 4 0.0021 -0.0010 0.0042 34.5623 -0.0059 6.5305
# 5 27.5527 6.5635 23.8212 -0.0059 48.9335 -0.0025
# 6 0.0006 0.0008 0.0071 6.5305 -0.0025 24.4675
#
#
#
# Elastic Compliance Matrix: (Units=1/GPa)
#
#
# Indices 1 2 3 4 5 6 
#
# 1 0.008623 -0.000615 -0.002682 -0.000001 -0.003467 0.000000
# 2 -0.000615 0.018854 -0.006351 0.000001 0.000909 0.000001
# 3 -0.002682 -0.006351 0.012468 -0.000002 -0.003707 -0.000003
# 4 -0.000001 0.000001 -0.000002 0.030470 0.000004 -0.008133
# 5 -0.003467 0.000909 -0.003707 0.000004 0.024071 0.000002
# 6 0.000000 0.000001 -0.000003 -0.008133 0.000002 0.043041
#
#
# Mechanical properties :
#
#
# Convention : Reuss Voigt Hill
#
# Bulk Modulus (GPa) = 48.43130 60.94607 54.68868
# Shear Modulus (GPa) = 30.54261 36.23277 33.38769
#
# Velocity S-wave (km/s) = 3.84160 4.18417 4.01654
# Velocity P-wave (km/s) = 6.56343 7.26578 6.92352
#
# Compressibility (1/GPa) = 0.02064781
#
# Stress axis : x y z
#
# Youngs Moduli (GPa) = 115.97432 53.03996 80.20364
#
# Poissons Ratio (x) = 0.03262 0.21513
# Poissons Ratio (y) = 0.07132 0.50939
# Poissons Ratio (z) = 0.31108 0.33686
#
# Static dielectric constant tensor:
#      x y z
#    x 1.754490 0.000000 0.018250 
#    y 0.000000 1.772860 0.000000 
#    z 0.018250 0.000000 1.777580 
# 
# From -- ./inp_files/274459.got.cif
#   From: 2010.05.17/outbox.ucp.g08.bks.cvg/sg15_138_cif.got.tgz:274459.got - 2010.06.11 12:40:34.
