data_PCOD9309423
_publ_section_title
;
Structure prediction by ZEFSAII (Michael W. Deem and Ramdas Pophale) SiO2 
 PCOD9309423
Probable space group: C 2/C
;
_chemical_formula_sum "Si O2"
_cell_formula_units_Z 22
_cell_length_a 12.000000
_cell_length_b 15.000000
_cell_length_c 12.000000
_cell_angle_alpha 90.000000
_cell_angle_beta 100.000000
_cell_angle_gamma 90.000000
_cell_volume 2127.184747
_symmetry_space_group_name_H-M "C 2/C"
_symmetry_group_IT_number 15
_symmetry_cell_setting 'monoclinic'
loop_
_space_group_symop_operation_xyz
x,y,z
-x,y,1/2-z
-x,-y,-z
x,-y,1/2+z
1/2+x,1/2+y,z
1/2-x,1/2+y,1/2-z
1/2-x,1/2-y,-z
1/2+x,1/2-y,1/2+z
loop_
_atom_site_type_symbol
_atom_site_label
_atom_site_fract_x
_atom_site_fract_y
_atom_site_fract_z
Si Si1 0.874104 0.097963 0.680353
Si Si2 0.199664 0.433730 0.662783
Si Si3 0.622483 0.726857 0.019291
Si Si4 0.062108 0.358242 0.445933
Si Si5 0.293859 0.238821 0.724869
Si Si6 0.000000 0.488920 0.250000
O O1 0.895335 0.139038 0.559460
O O2 0.800590 0.170033 0.741443
O O3 0.000000 0.083747 0.750000
O O4 0.797415 0.008510 0.670644
O O5 0.131822 0.425736 0.535424
O O6 0.242398 0.332890 0.681343
O O7 0.114018 0.454425 0.751228
O O8 0.518367 0.797225 0.988627
O O9 0.629514 0.731746 0.155305
O O10 0.750000 0.750000 0.000000
O O11 0.140529 0.303442 0.370550
O O12 0.991336 0.422646 0.353315
#
# Coordination Sequence:
#
# PCOD9309423 Si02
#       6
#     8   8   8   8   8   4
#     4  11  25  47  68 107 149 191 245 295 356 434
#     4  12  28  41  75 106 142 190 244 294 362 424
#     4  10  22  41  75 100 140 191 238 291 361 423
#     4  12  23  48  70 103 145 188 239 302 351 431
#     4  11  24  46  69 104 146 188 238 293 364 425
#     4  12  24  44  72 104 142 176 250 298 352 428
#
# _framework density 10.342307999999999
#
# number of rings (size 3 to 8) (size 9 to 14) (size 15 to 20)
#    0.000    0.727    3.636    3.273    8.909    1.455 
#    0.000    2.727    0.000    0.000    0.000    0.000 
#    0.000    0.000    0.000    0.000    0.000    0.000 
#
# Total GULP energy -122702.562168 kJ/mol
# GULP energy per Si atom -5577.389189 kJ/mol
# Density = 1.031877 g / cm^3
# Si number density = 10.342308 Si / 1000 Ang^3
#
#
#
# Elastic Constant Matrix: (Units=GPa)
#
#
# Indices 1 2 3 4 5 6 
#
# 1 132.4054 57.4147 29.1069 0.0000 -16.6309 0.0000
# 2 57.4147 118.2687 19.9113 0.0000 -12.5010 0.0000
# 3 29.1069 19.9113 65.9762 0.0000 -7.6111 0.0000
# 4 0.0000 0.0000 0.0000 31.8234 0.0000 -1.4223
# 5 -16.6309 -12.5010 -7.6111 0.0000 44.1885 0.0000
# 6 0.0000 0.0000 0.0000 -1.4223 0.0000 43.2302
#
#
#
# Elastic Compliance Matrix: (Units=1/GPa)
#
#
# Indices 1 2 3 4 5 6 
#
# 1 0.010347 -0.004286 -0.003022 0.000000 0.002161 0.000000
# 2 -0.004286 0.010878 -0.001248 0.000000 0.001249 0.000000
# 3 -0.003022 -0.001248 0.017033 0.000000 0.001443 0.000000
# 4 0.000000 0.000000 0.000000 0.031470 0.000000 0.001035
# 5 0.002161 0.001249 0.001443 0.000000 0.024046 0.000000
# 6 0.000000 0.000000 0.000000 0.001035 0.000000 0.023166
#
#
# Mechanical properties :
#
#
# Convention : Reuss Voigt Hill
#
# Bulk Modulus (GPa) = 47.28879 58.83511 53.06195
# Shear Modulus (GPa) = 35.43583 37.86292 36.64938
#
# Velocity S-wave (km/s) = 4.14351 4.28306 4.21386
# Velocity P-wave (km/s) = 6.76779 7.27771 7.02738
#
# Compressibility (1/GPa) = 0.02114666
#
# Stress axis : x y z
#
# Youngs Moduli (GPa) = 96.64869 91.92821 58.70829
#
# Poissons Ratio (x) = 0.39398 0.17742
# Poissons Ratio (y) = 0.41421 0.07327
# Poissons Ratio (z) = 0.29207 0.11473
#
# Static dielectric constant tensor:
#      x y z
#    x 1.788430 0.000000 0.097460 
#    y 0.000000 1.757100 0.000000 
#    z 0.097460 0.000000 1.818810 
# 
# From -- ./inp_files/86158.got.cif
#   From: 2010.05.17/outbox.ucp.g08.bks.cvg/sg15_44_cif.got.tgz:86158.got - 2010.06.11 12:40:34.
