data_PCOD9309693
_publ_section_title
;
Structure prediction by ZEFSAII (Michael W. Deem and Ramdas Pophale) SiO2 
 PCOD9309693
Probable space group: C 2/C
;
_chemical_formula_sum "Si O2"
_cell_formula_units_Z 20
_cell_length_a 15.000000
_cell_length_b 21.000000
_cell_length_c 21.000000
_cell_angle_alpha 90.000000
_cell_angle_beta 160.000000
_cell_angle_gamma 90.000000
_cell_volume 2262.463248
_symmetry_space_group_name_H-M "C 2/C"
_symmetry_group_IT_number 15
_symmetry_cell_setting 'monoclinic'
loop_
_space_group_symop_operation_xyz
x,y,z
-x,y,1/2-z
-x,-y,-z
x,-y,1/2+z
1/2+x,1/2+y,z
1/2-x,1/2+y,1/2-z
1/2-x,1/2-y,-z
1/2+x,1/2-y,1/2+z
loop_
_atom_site_type_symbol
_atom_site_label
_atom_site_fract_x
_atom_site_fract_y
_atom_site_fract_z
Si Si1 0.348059 0.906073 0.858332
Si Si2 0.891329 0.818640 0.605748
Si Si3 0.509588 0.064738 0.831819
Si Si4 0.305003 0.447021 0.262841
Si Si5 0.766872 0.065314 0.542871
O O1 0.136195 0.850218 0.729646
O O2 0.210401 0.976146 0.759986
O O3 0.562258 0.916118 0.059391
O O4 0.524295 0.897454 0.912393
O O5 0.750000 0.750000 0.500000
O O6 0.664097 0.870335 0.445326
O O7 0.000000 0.817706 0.750000
O O8 0.500000 0.052542 0.750000
O O9 0.245308 0.066142 0.696311
O O10 0.664786 0.006524 0.967801
O O11 0.579319 0.420627 0.419650
O O12 0.000000 0.067457 0.750000
#
# Coordination Sequence:
#
# PCOD9309693 Si02
#       5
#     8   8   8   8   8
#     4   9  17  31  57  84 108 142 187 233 285 337
#     4  12  23  39  57  78 111 152 194 235 276 337
#     4  11  21  32  50  84 120 149 183 230 286 337
#     4   9  16  31  57  84 113 146 178 238 288 343
#     4   9  17  32  56  83 110 143 183 228 288 345
#
# _framework density 8.8399230000000006
#
# number of rings (size 3 to 8) (size 9 to 14) (size 15 to 20)
#    0.000    2.000    4.000    2.400    0.000    0.800 
#    0.000    0.000    0.000    1.200    0.000    0.000 
#    0.000    0.000    0.000    0.000    0.000    0.000 
#
# Total GULP energy -111362.182909 kJ/mol
# GULP energy per Si atom -5568.109145 kJ/mol
# Density = 0.881980 g / cm^3
# Si number density = 8.839923 Si / 1000 Ang^3
#
#
#
# Elastic Constant Matrix: (Units=GPa)
#
#
# Indices 1 2 3 4 5 6 
#
# 1 164.3970 27.8476 32.9902 -0.0348 47.8620 -0.0108
# 2 27.8476 83.2677 30.6201 0.0666 21.0600 -0.0206
# 3 32.9902 30.6201 36.0394 -0.0074 30.5909 -0.0385
# 4 -0.0348 0.0666 -0.0074 33.0942 -0.0485 6.8312
# 5 47.8620 21.0600 30.5909 -0.0485 33.6317 -0.0125
# 6 -0.0108 -0.0206 -0.0385 6.8312 -0.0125 17.6706
#
#
#
# Elastic Compliance Matrix: (Units=1/GPa)
#
#
# Indices 1 2 3 4 5 6 
#
# 1 0.012529 -0.002917 0.020154 -0.000035 -0.034335 0.000037
# 2 -0.002917 0.019170 -0.030499 -0.000014 0.019889 -0.000027
# 3 0.020154 -0.030499 0.190174 -0.000214 -0.182563 0.000345
# 4 -0.000035 -0.000014 -0.000214 0.032838 0.000295 -0.012695
# 5 -0.034335 0.019889 -0.182563 0.000295 0.232199 -0.000346
# 6 0.000037 -0.000027 0.000345 -0.012695 -0.000346 0.061499
#
#
# Mechanical properties :
#
#
# Convention : Reuss Voigt Hill
#
# Bulk Modulus (GPa) = 5.11905 51.84666 28.48285
# Shear Modulus (GPa) = 7.81188 29.69572 18.75380
#
# Velocity S-wave (km/s) = 2.10431 4.10278 3.26044
# Velocity P-wave (km/s) = 2.96747 7.19949 5.50630
#
# Compressibility (1/GPa) = 0.19534881
#
# Stress axis : x y z
#
# Youngs Moduli (GPa) = 79.81587 52.16392 5.25833
#
# Poissons Ratio (x) = 0.15218 -0.10598
# Poissons Ratio (y) = 0.23285 0.16038
# Poissons Ratio (z) = -1.60862 1.59096
#
# Static dielectric constant tensor:
#      x y z
#    x 1.713980 0.000000 0.021970 
#    y 0.000000 1.567440 -0.000020 
#    z 0.021970 -0.000020 1.634640 
# 
# From -- ./inp_files/38971.got.cif
#   From: 2010.05.17/outbox.ucp.g08.bks.cvg/sg15_20_cif.got.tgz:38971.got - 2010.06.11 12:40:34.
