data_PCOD9309642
_publ_section_title
;
Structure prediction by ZEFSAII (Michael W. Deem and Ramdas Pophale) SiO2 
 PCOD9309642
Probable space group: C 2/C
;
_chemical_formula_sum "Si O2"
_cell_formula_units_Z 22
_cell_length_a 15.000000
_cell_length_b 18.000000
_cell_length_c 24.000000
_cell_angle_alpha 90.000000
_cell_angle_beta 160.000000
_cell_angle_gamma 90.000000
_cell_volume 2216.290529
_symmetry_space_group_name_H-M "C 2/C"
_symmetry_group_IT_number 15
_symmetry_cell_setting 'monoclinic'
loop_
_space_group_symop_operation_xyz
x,y,z
-x,y,1/2-z
-x,-y,-z
x,-y,1/2+z
1/2+x,1/2+y,z
1/2-x,1/2+y,1/2-z
1/2-x,1/2-y,-z
1/2+x,1/2-y,1/2+z
loop_
_atom_site_type_symbol
_atom_site_label
_atom_site_fract_x
_atom_site_fract_y
_atom_site_fract_z
Si Si1 0.717913 0.676581 0.114619
Si Si2 0.930439 0.350863 0.461025
Si Si3 0.875226 0.956142 0.374174
Si Si4 0.000000 0.038180 0.750000
Si Si5 0.827433 0.413393 0.009478
Si Si6 0.356392 0.607522 0.304282
O O1 0.640279 0.763858 0.071966
O O2 0.702181 0.645275 0.169675
O O3 0.000000 0.670498 0.250000
O O4 0.526709 0.622733 0.965838
O O5 0.683632 0.406410 0.322183
O O6 0.059903 0.366170 0.476597
O O7 0.125457 0.375593 0.625285
O O8 0.898557 0.019055 0.340050
O O9 0.567302 0.938487 0.189860
O O10 0.000000 0.000000 0.500000
O O11 0.819300 0.983415 0.606418
O O12 0.619925 0.370188 0.926271
#
# Coordination Sequence:
#
# PCOD9309642 Si02
#       6
#     8   8   8   4   8   8
#     4  11  28  48  70 104 145 190 238 298 363 425
#     4  12  25  46  72 112 143 186 237 297 367 419
#     4  10  25  45  72 103 141 194 241 286 352 426
#     4  12  22  44  74 106 144 184 238 294 354 424
#     4  12  24  45  72 108 142 187 245 291 350 432
#     4  11  25  46  74 102 144 193 237 294 355 432
#
# _framework density 9.9264960000000002
#
# number of rings (size 3 to 8) (size 9 to 14) (size 15 to 20)
#    0.000    0.727    4.545    1.636    7.636    5.091 
#    3.273    0.000    0.000    0.000    0.000    0.000 
#    0.000    0.000    0.000    0.000    0.000    0.000 
#
# Total GULP energy -122838.746411 kJ/mol
# GULP energy per Si atom -5583.579382 kJ/mol
# Density = 0.990390 g / cm^3
# Si number density = 9.926496 Si / 1000 Ang^3
#
#
#
# Elastic Constant Matrix: (Units=GPa)
#
#
# Indices 1 2 3 4 5 6 
#
# 1 147.8207 43.5136 49.6229 0.0097 23.4633 0.0108
# 2 43.5136 143.3506 60.0826 0.0471 8.6296 0.0048
# 3 49.6229 60.0826 157.8218 0.0497 2.7473 0.0030
# 4 0.0097 0.0471 0.0497 35.8513 -0.0085 -1.2486
# 5 23.4633 8.6296 2.7473 -0.0085 39.9981 0.0034
# 6 0.0108 0.0048 0.0030 -1.2486 0.0034 29.0829
#
#
#
# Elastic Compliance Matrix: (Units=1/GPa)
#
#
# Indices 1 2 3 4 5 6 
#
# 1 0.008624 -0.001473 -0.002071 0.000001 -0.004599 -0.000002
# 2 -0.001473 0.008652 -0.002817 -0.000007 -0.000809 -0.000001
# 3 -0.002071 -0.002817 0.008038 -0.000007 0.001270 0.000000
# 4 0.000001 -0.000007 -0.000007 0.027935 0.000007 0.001199
# 5 -0.004599 -0.000809 0.001270 0.000007 0.027786 -0.000001
# 6 -0.000002 -0.000001 0.000000 0.001199 -0.000001 0.034436
#
#
# Mechanical properties :
#
#
# Convention : Reuss Voigt Hill
#
# Bulk Modulus (GPa) = 79.41042 83.93678 81.67360
# Shear Modulus (GPa) = 37.76761 40.70472 39.23616
#
# Velocity S-wave (km/s) = 4.36634 4.53294 4.45042
# Velocity P-wave (km/s) = 8.09358 8.35271 8.22416
#
# Compressibility (1/GPa) = 0.01259281
#
# Stress axis : x y z
#
# Youngs Moduli (GPa) = 115.96088 115.57627 124.41637
#
# Poissons Ratio (x) = 0.17024 0.25762
# Poissons Ratio (y) = 0.17080 0.35044
# Poissons Ratio (z) = 0.24012 0.32554
#
# Static dielectric constant tensor:
#      x y z
#    x 1.720200 0.000010 0.017400 
#    y 0.000010 1.699610 -0.000020 
#    z 0.017400 -0.000020 1.712830 
# 
# From -- ./inp_files/274893.got.cif
#   From: 2010.05.17/outbox.ucp.g08.bks.cvg/sg15_138_cif.got.tgz:274893.got - 2010.06.11 12:40:34.
