data_PCOD9309894
_publ_section_title
;
Structure prediction by ZEFSAII (Michael W. Deem and Ramdas Pophale) SiO2 
 PCOD9309894
Probable space group: C 2/C
;
_chemical_formula_sum "Si O2"
_cell_formula_units_Z 24
_cell_length_a 15.000000
_cell_length_b 12.000000
_cell_length_c 21.000000
_cell_angle_alpha 90.000000
_cell_angle_beta 40.000000
_cell_angle_gamma 90.000000
_cell_volume 2429.737165
_symmetry_space_group_name_H-M "C 2/C"
_symmetry_group_IT_number 15
_symmetry_cell_setting 'monoclinic'
loop_
_space_group_symop_operation_xyz
x,y,z
-x,y,1/2-z
-x,-y,-z
x,-y,1/2+z
1/2+x,1/2+y,z
1/2-x,1/2+y,1/2-z
1/2-x,1/2-y,-z
1/2+x,1/2-y,1/2+z
loop_
_atom_site_type_symbol
_atom_site_label
_atom_site_fract_x
_atom_site_fract_y
_atom_site_fract_z
Si Si1 0.749148 0.277387 0.924537
Si Si2 0.060835 0.254941 0.910883
Si Si3 0.470468 0.008414 0.623102
Si Si4 0.778720 0.323011 0.549063
Si Si5 0.815785 0.888391 0.274000
Si Si6 0.500000 0.057112 0.250000
Si Si7 0.500000 0.445416 0.750000
O O1 0.789690 0.177401 0.854433
O O2 0.865734 0.369424 0.844285
O O3 0.750000 0.250000 0.000000
O O4 0.588592 0.303340 0.995700
O O5 0.026214 0.381558 0.905909
O O6 0.153260 0.261777 0.925255
O O7 0.132175 0.191825 0.811882
O O8 0.606743 0.080312 0.529430
O O9 0.330338 0.060091 0.669456
O O10 0.462503 0.006437 0.704828
O O11 0.750000 0.250000 0.500000
O O12 0.630404 0.374520 0.651736
O O13 0.931818 0.979196 0.230899
#
# Coordination Sequence:
#
# PCOD9309894 Si02
#       7
#     8   8   8   8   8   4   4
#     4  12  22  43  72 106 143 182 245 305 361 420
#     4  12  25  47  75 105 147 195 245 308 366 437
#     4  12  26  49  72 107 153 197 242 301 383 433
#     4  12  30  49  74 107 150 199 241 302 373 448
#     4  12  26  45  75 110 145 192 247 305 366 437
#     4  12  27  41  74 112 144 188 247 311 362 444
#     4  12  27  47  76 110 144 190 251 303 362 440
#
# _framework density 9.8776119999999992
#
# number of rings (size 3 to 8) (size 9 to 14) (size 15 to 20)
#    0.000    0.000    6.667    3.000    7.000    1.333 
#    0.000    1.667    0.000    0.000    0.000    0.000 
#    0.000    0.000    0.000    0.000    0.000    0.000 
#
# Total GULP energy -134233.766112 kJ/mol
# GULP energy per Si atom -5593.073588 kJ/mol
# Density = 0.985513 g / cm^3
# Si number density = 9.877612 Si / 1000 Ang^3
#
#
#
# Elastic Constant Matrix: (Units=GPa)
#
#
# Indices 1 2 3 4 5 6 
#
# 1 200.5451 56.9915 78.2156 0.0000 5.4713 0.0000
# 2 56.9915 81.8910 58.5485 0.0000 -5.2086 0.0000
# 3 78.2156 58.5485 170.0342 0.0000 -7.0129 0.0000
# 4 0.0000 0.0000 0.0000 37.8217 0.0000 2.9355
# 5 5.4713 -5.2086 -7.0129 0.0000 61.0296 0.0000
# 6 0.0000 0.0000 0.0000 2.9355 0.0000 45.3827
#
#
#
# Elastic Compliance Matrix: (Units=1/GPa)
#
#
# Indices 1 2 3 4 5 6 
#
# 1 0.006745 -0.003335 -0.002000 0.000000 -0.001119 0.000000
# 2 -0.003335 0.017882 -0.004570 0.000000 0.001300 0.000000
# 3 -0.002000 -0.004570 0.008406 0.000000 0.000755 0.000000
# 4 0.000000 0.000000 0.000000 0.026573 0.000000 -0.001719
# 5 -0.001119 0.001300 0.000755 0.000000 0.016684 0.000000
# 6 0.000000 0.000000 0.000000 -0.001719 0.000000 0.022146
#
#
# Mechanical properties :
#
#
# Convention : Reuss Voigt Hill
#
# Bulk Modulus (GPa) = 75.62725 93.33127 84.47926
# Shear Modulus (GPa) = 40.76512 46.09445 43.42978
#
# Velocity S-wave (km/s) = 4.54752 4.83564 4.69379
# Velocity P-wave (km/s) = 8.12025 8.86140 8.49891
#
# Compressibility (1/GPa) = 0.01322275
#
# Stress axis : x y z
#
# Youngs Moduli (GPa) = 148.26003 55.92163 118.96219
#
# Poissons Ratio (x) = 0.18650 0.23798
# Poissons Ratio (y) = 0.49445 0.54362
# Poissons Ratio (z) = 0.29659 0.25555
#
# Static dielectric constant tensor:
#      x y z
#    x 1.689640 0.000000 -0.003230 
#    y 0.000000 1.731660 0.000000 
#    z -0.003230 0.000000 1.691610 
# 
# From -- ./inp_files/243931.got.cif
#   From: 2010.05.17/outbox.ucp.g08.bks.cvg/sg15_122_cif.got.tgz:243931.got - 2010.06.11 12:40:34.
