data_PCOD9309928
_publ_section_title
;
Structure prediction by ZEFSAII (Michael W. Deem and Ramdas Pophale) SiO2 
 PCOD9309928
Probable space group: P 2 2 2
;
_chemical_formula_sum "Si O2"
_cell_formula_units_Z 24
_cell_length_a 5.189702
_cell_length_b 21.239134
_cell_length_c 13.039797
_cell_angle_alpha 90.000000
_cell_angle_beta 90.000000
_cell_angle_gamma 90.000000
_cell_volume 1437.308706
_symmetry_space_group_name_H-M "P 2 2 2"
_symmetry_group_IT_number 16
_symmetry_cell_setting 'orthorhombic'
loop_
_space_group_symop_operation_xyz
x,y,z
-x,-y,z
x,-y,-z
-x,y,-z
loop_
_atom_site_type_symbol
_atom_site_label
_atom_site_fract_x
_atom_site_fract_y
_atom_site_fract_z
Si Si1 0.561487 0.146118 0.611348
Si Si2 0.926989 0.071085 0.331176
Si Si3 0.464988 0.205088 0.174738
Si Si4 0.755461 0.528674 0.117572
Si Si5 0.037796 0.871272 0.114450
Si Si6 0.748926 0.672281 0.069536
O O1 0.500000 0.173527 0.500000
O O2 0.349403 0.090987 0.625247
O O3 0.506768 0.194506 0.703823
O O4 0.847170 0.117200 0.626494
O O5 0.907762 0.081278 0.207822
O O6 0.000000 0.000000 0.355519
O O7 0.732111 0.181507 0.121605
O O8 0.349641 0.272671 0.144244
O O9 0.238185 0.158656 0.139831
O O10 0.500000 0.500000 0.164528
O O11 0.789350 0.603323 0.116539
O O12 0.000000 0.500000 0.171659
O O13 0.754418 0.500000 0.000000
O O14 0.000000 0.897186 0.000000
O O15 0.500000 0.662102 0.000000
O O16 0.000000 0.688815 0.000000
#
# Coordination Sequence:
#
# PCOD9309928 Si02
#       6
#     4   4   4   4   4   4
#     4  10  21  37  53  68  95 123 147 204 258 281
#     4  10  21  34  52  77  94 116 159 194 233 302
#     4  10  21  32  46  71  91 121 170 193 225 283
#     4  10  16  28  38  59  93 128 161 185 220 268
#     4  10  19  34  48  65 100 128 152 193 229 270
#     4  12  19  27  46  66  94 132 161 189 224 270
#
# _framework density 16.697873999999999
#
# number of rings (size 3 to 8) (size 9 to 14) (size 15 to 20)
#    0.000    1.667    3.333    4.000    0.000    2.333 
#    0.000    0.000    0.000    6.000    0.000    0.000 
#    0.000    0.667    0.000    4.000    0.000    0.000 
#
# Total GULP energy -133675.658768 kJ/mol
# GULP energy per Si atom -5569.819115 kJ/mol
# Density = 1.665987 g / cm^3
# Si number density = 16.697874 Si / 1000 Ang^3
#
#
#
# Elastic Constant Matrix: (Units=GPa)
#
#
# Indices 1 2 3 4 5 6 
#
# 1 113.2182 1.0899 13.8473 0.0000 0.0000 0.0000
# 2 1.0899 50.8399 -0.0315 0.0000 0.0000 0.0000
# 3 13.8473 -0.0315 60.9941 0.0000 0.0000 0.0000
# 4 0.0000 0.0000 0.0000 7.0023 0.0000 0.0000
# 5 0.0000 0.0000 0.0000 0.0000 13.2738 0.0000
# 6 0.0000 0.0000 0.0000 0.0000 0.0000 25.6665
#
#
#
# Elastic Compliance Matrix: (Units=1/GPa)
#
#
# Indices 1 2 3 4 5 6 
#
# 1 0.009087 -0.000196 -0.002063 0.000000 0.000000 0.000000
# 2 -0.000196 0.019674 0.000055 0.000000 0.000000 0.000000
# 3 -0.002063 0.000055 0.016863 0.000000 0.000000 0.000000
# 4 0.000000 0.000000 0.000000 0.142810 0.000000 0.000000
# 5 0.000000 0.000000 0.000000 0.000000 0.075336 0.000000
# 6 0.000000 0.000000 0.000000 0.000000 0.000000 0.038961
#
#
# Mechanical properties :
#
#
# Convention : Reuss Voigt Hill
#
# Bulk Modulus (GPa) = 24.26294 28.31815 26.29055
# Shear Modulus (GPa) = 15.58220 23.19830 19.39025
#
# Velocity S-wave (km/s) = 3.05812 3.73137 3.41140
# Velocity P-wave (km/s) = 5.19919 5.96323 5.59427
#
# Compressibility (1/GPa) = 0.04121512
#
# Stress axis : x y z
#
# Youngs Moduli (GPa) = 110.05079 50.82897 59.29997
#
# Poissons Ratio (x) = 0.00997 0.12234
# Poissons Ratio (y) = 0.02158 -0.00324
# Poissons Ratio (z) = 0.22704 -0.00278
#
# Static dielectric constant tensor:
#      x y z
#    x 1.588270 0.000000 0.000000 
#    y 0.000000 1.683080 0.000000 
#    z 0.000000 0.000000 1.554430 
# 
# From -- ./inp_files/6055.got.cif
#   From: 2010.05.17/outbox.cif.g08.bks.cpg/sg16_4_cif.got.tgz:6055.got - 2010.06.03 22:28:35.
