data_PCOD9309933
_publ_section_title
;
Structure prediction by ZEFSAII (Michael W. Deem and Ramdas Pophale) SiO2 
 PCOD9309933
Probable space group: P 2 2 2
;
_chemical_formula_sum "Si O2"
_cell_formula_units_Z 25
_cell_length_a 5.628061
_cell_length_b 9.233655
_cell_length_c 25.382870
_cell_angle_alpha 90.000000
_cell_angle_beta 90.000000
_cell_angle_gamma 90.000000
_cell_volume 1319.086165
_symmetry_space_group_name_H-M "P 2 2 2"
_symmetry_group_IT_number 16
_symmetry_cell_setting 'orthorhombic'
loop_
_space_group_symop_operation_xyz
x,y,z
-x,-y,z
x,-y,-z
-x,y,-z
loop_
_atom_site_type_symbol
_atom_site_label
_atom_site_fract_x
_atom_site_fract_y
_atom_site_fract_z
Si Si1 0.821135 0.246135 0.837467
Si Si2 0.748757 0.833063 0.520887
Si Si3 0.210559 0.753028 0.250911
Si Si4 0.248468 0.090837 0.642088
Si Si5 0.500000 0.500000 0.000000
Si Si6 0.500000 0.500000 0.798305
Si Si7 0.500000 0.000000 0.190840
Si Si8 0.103518 0.338843 0.053019
O O1 0.652493 0.386728 0.832258
O O2 0.679012 0.097456 0.841744
O O3 0.956773 0.264080 0.892233
O O4 0.968921 0.242040 0.783114
O O5 0.500000 0.767779 0.500000
O O6 0.740867 0.841828 0.583865
O O7 0.000000 0.770186 0.500000
O O8 0.748994 0.000000 0.500000
O O9 0.212033 0.790117 0.312281
O O10 0.330977 0.600622 0.237077
O O11 0.363415 0.883928 0.226284
O O12 0.500000 0.000000 0.649470
O O13 0.000000 0.000000 0.644277
O O14 0.370364 0.385343 0.038738
O O15 0.000000 0.500000 0.056729
O O16 0.000000 0.267855 0.000000
#
# Coordination Sequence:
#
# PCOD9309933 Si02
#       8
#     4   4   4   4   1   2   2   4
#     4  11  21  39  59  83 117 152 190 250 295 362
#     4  10  16  30  48  79 119 154 193 244 308 360
#     4  11  23  38  57  83 117 155 195 243 297 359
#     4  12  21  33  57  86 125 161 197 251 309 371
#     4   8  16  32  52  84 108 132 188 246 292 352
#     4  10  23  38  58  83 115 152 201 234 312 352
#     4  10  22  36  56  81 111 150 194 222 294 358
#     4   9  18  31  55  84 107 139 188 238 298 349
#
# _framework density 18.952511999999999
#
# number of rings (size 3 to 8) (size 9 to 14) (size 15 to 20)
#    0.000    1.760    4.000    3.360    2.240    3.840 
#    0.000    0.000    0.000    7.200    0.000    1.680 
#    0.000    0.000    0.000    0.000    0.000    0.000 
#
# Total GULP energy -139169.544067 kJ/mol
# GULP energy per Si atom -5566.781763 kJ/mol
# Density = 1.890938 g / cm^3
# Si number density = 18.952512 Si / 1000 Ang^3
#
#
#
# Elastic Constant Matrix: (Units=GPa)
#
#
# Indices 1 2 3 4 5 6 
#
# 1 98.0514 16.8084 24.9147 0.0000 0.0000 0.0000
# 2 16.8084 64.0382 25.5798 0.0000 0.0000 0.0000
# 3 24.9147 25.5798 152.5529 0.0000 0.0000 0.0000
# 4 0.0000 0.0000 0.0000 23.8242 0.0000 0.0000
# 5 0.0000 0.0000 0.0000 0.0000 31.5412 0.0000
# 6 0.0000 0.0000 0.0000 0.0000 0.0000 -13.7633
#
#
#
# Elastic Compliance Matrix: (Units=1/GPa)
#
#
# Indices 1 2 3 4 5 6 
#
# 1 0.010951 -0.002315 -0.001400 0.000000 0.000000 0.000000
# 2 -0.002315 0.017226 -0.002510 0.000000 0.000000 0.000000
# 3 -0.001400 -0.002510 0.007205 0.000000 0.000000 0.000000
# 4 0.000000 0.000000 0.000000 0.041974 0.000000 0.000000
# 5 0.000000 0.000000 0.000000 0.000000 0.031705 0.000000
# 6 0.000000 0.000000 0.000000 0.000000 0.000000 -0.072657
#
#
# Mechanical properties :
#
#
# Convention : Reuss Voigt Hill
#
# Bulk Modulus (GPa) = 43.60981 49.91647 46.76314
# Shear Modulus (GPa) = 88.49686 24.80972 56.65329
#
# Velocity S-wave (km/s) = 6.84071 3.62200 5.47331
# Velocity P-wave (km/s) = 9.24412 6.62470 8.04178
#
# Compressibility (1/GPa) = 0.02293062
#
# Stress axis : x y z
#
# Youngs Moduli (GPa) = 91.31226 58.05149 138.79753
#
# Poissons Ratio (x) = 0.13439 0.19437
# Poissons Ratio (y) = 0.21140 0.34843
# Poissons Ratio (z) = 0.12787 0.14573
#
# Static dielectric constant tensor:
#      x y z
#    x 2.615290 0.000000 0.000000 
#    y 0.000000 1.614830 0.000000 
#    z 0.000000 0.000000 1.682420 
# 
# From -- ./inp_files/9494.got.cif
#   From: 2010.05.17/outbox.cif.g08.bks.cpg/sg16_5_cif.got.tgz:9494.got - 2010.06.03 22:28:35.
