data_PCOD9309697
_publ_section_title
;
Structure prediction by ZEFSAII (Michael W. Deem and Ramdas Pophale) SiO2 
 PCOD9309697
Probable space group: C 2/C
;
_chemical_formula_sum "Si O2"
_cell_formula_units_Z 20
_cell_length_a 15.000000
_cell_length_b 27.000000
_cell_length_c 15.000000
_cell_angle_alpha 90.000000
_cell_angle_beta 160.000000
_cell_angle_gamma 90.000000
_cell_volume 2077.772371
_symmetry_space_group_name_H-M "C 2/C"
_symmetry_group_IT_number 15
_symmetry_cell_setting 'monoclinic'
loop_
_space_group_symop_operation_xyz
x,y,z
-x,y,1/2-z
-x,-y,-z
x,-y,1/2+z
1/2+x,1/2+y,z
1/2-x,1/2+y,1/2-z
1/2-x,1/2-y,-z
1/2+x,1/2-y,1/2+z
loop_
_atom_site_type_symbol
_atom_site_label
_atom_site_fract_x
_atom_site_fract_y
_atom_site_fract_z
Si Si1 0.509430 0.083611 0.585307
Si Si2 0.725292 0.281181 0.721492
Si Si3 0.217691 0.319183 0.529101
Si Si4 0.500000 0.990306 0.250000
Si Si5 0.077520 0.105288 0.029653
Si Si6 0.500000 0.438747 0.250000
O O1 0.405937 0.131707 0.541981
O O2 0.534476 0.042681 0.690105
O O3 0.300449 0.077723 0.304140
O O4 0.795559 0.094533 0.811400
O O5 0.513421 0.242708 0.482322
O O6 0.715236 0.286055 0.820583
O O7 0.661830 0.336215 0.621385
O O8 0.500000 0.329383 0.750000
O O9 0.000000 0.302328 0.250000
O O10 0.746184 0.025501 0.506106
O O11 0.035671 0.090259 0.882785
#
# Coordination Sequence:
#
# PCOD9309697 Si02
#       6
#     8   8   8   4   8   4
#     4  11  23  41  68  97 132 180 204 252 328 388
#     4  11  23  39  61  92 124 167 218 263 313 383
#     4  11  21  35  60  92 133 173 205 252 314 383
#     4  12  26  40  72 103 130 165 222 256 302 424
#     4  11  25  46  67  90 137 172 208 275 332 366
#     4  12  28  46  66  99 124 167 228 282 318 360
#
# _framework density 9.6256939999999993
#
# number of rings (size 3 to 8) (size 9 to 14) (size 15 to 20)
#    0.000    0.800    1.000    8.400    1.400    7.200 
#    0.000    1.000    0.000    0.000    0.000    0.000 
#    0.000    0.000    0.000    0.000    0.000    0.000 
#
# Total GULP energy -111439.883826 kJ/mol
# GULP energy per Si atom -5571.994191 kJ/mol
# Density = 0.960378 g / cm^3
# Si number density = 9.625694 Si / 1000 Ang^3
#
#
#
# Elastic Constant Matrix: (Units=GPa)
#
#
# Indices 1 2 3 4 5 6 
#
# 1 112.2752 42.7492 48.0188 0.0007 -25.8659 0.0009
# 2 42.7492 93.0003 49.0049 0.0000 -14.2569 0.0002
# 3 48.0188 49.0049 206.0028 -0.0052 -15.5854 -0.0017
# 4 0.0007 0.0000 -0.0052 50.1573 -0.0019 -13.1710
# 5 -25.8659 -14.2569 -15.5854 -0.0019 51.6836 -0.0004
# 6 0.0009 0.0002 -0.0017 -13.1710 -0.0004 35.4573
#
#
#
# Elastic Compliance Matrix: (Units=1/GPa)
#
#
# Indices 1 2 3 4 5 6 
#
# 1 0.012151 -0.004097 -0.001518 0.000000 0.004493 0.000000
# 2 -0.004097 0.014017 -0.002294 0.000000 0.001124 0.000000
# 3 -0.001518 -0.002294 0.005780 0.000001 0.000351 0.000001
# 4 0.000000 0.000000 0.000001 0.022092 0.000001 0.008206
# 5 0.004493 0.001124 0.000351 0.000001 0.022013 0.000001
# 6 0.000000 0.000000 0.000001 0.008206 0.000001 0.031251
#
#
# Mechanical properties :
#
#
# Convention : Reuss Voigt Hill
#
# Bulk Modulus (GPa) = 61.99465 76.75824 69.37645
# Shear Modulus (GPa) = 38.91049 45.55999 42.23524
#
# Velocity S-wave (km/s) = 4.50063 4.87003 4.68897
# Velocity P-wave (km/s) = 7.69936 8.46056 8.08892
#
# Compressibility (1/GPa) = 0.01613042
#
# Stress axis : x y z
#
# Youngs Moduli (GPa) = 82.29865 71.34093 172.99689
#
# Poissons Ratio (x) = 0.29226 0.26258
# Poissons Ratio (y) = 0.33716 0.39694
# Poissons Ratio (z) = 0.12492 0.16369
#
# Static dielectric constant tensor:
#      x y z
#    x 1.702770 0.000000 -0.001960 
#    y 0.000000 1.731390 0.000000 
#    z -0.001960 0.000000 1.690430 
# 
# From -- ./inp_files/157171.got.cif
#   From: 2010.05.17/outbox.ucp.g08.bks.cvg/sg15_79_cif.got.tgz:157171.got - 2010.06.11 12:40:34.
