data_PCOD9309888
_publ_section_title
;
Structure prediction by ZEFSAII (Michael W. Deem and Ramdas Pophale) SiO2 
 PCOD9309888
Probable space group: C 2/C
;
_chemical_formula_sum "Si O2"
_cell_formula_units_Z 22
_cell_length_a 12.000000
_cell_length_b 15.000000
_cell_length_c 12.000000
_cell_angle_alpha 90.000000
_cell_angle_beta 100.000000
_cell_angle_gamma 90.000000
_cell_volume 2127.184747
_symmetry_space_group_name_H-M "C 2/C"
_symmetry_group_IT_number 15
_symmetry_cell_setting 'monoclinic'
loop_
_space_group_symop_operation_xyz
x,y,z
-x,y,1/2-z
-x,-y,-z
x,-y,1/2+z
1/2+x,1/2+y,z
1/2-x,1/2+y,1/2-z
1/2-x,1/2-y,-z
1/2+x,1/2-y,1/2+z
loop_
_atom_site_type_symbol
_atom_site_label
_atom_site_fract_x
_atom_site_fract_y
_atom_site_fract_z
Si Si1 0.000000 0.968412 0.750000
Si Si2 0.367977 0.102054 0.248887
Si Si3 0.272444 0.430894 0.224942
Si Si4 0.273827 0.351162 0.981049
Si Si5 0.805718 0.773506 0.390062
Si Si6 0.014767 0.896502 0.967729
O O1 0.061044 0.906544 0.851491
O O2 0.103219 0.029084 0.724526
O O3 0.500000 0.102006 0.250000
O O4 0.332365 0.185969 0.320868
O O5 0.318221 0.009708 0.285985
O O6 0.317384 0.109819 0.116718
O O7 0.283693 0.399202 0.100364
O O8 0.244043 0.347648 0.301156
O O9 0.250000 0.250000 0.000000
O O10 0.390157 0.359157 0.936144
O O11 0.750000 0.750000 0.500000
O O12 0.917599 0.828754 0.444606
O O13 0.000000 0.000000 0.000000
#
# Coordination Sequence:
#
# PCOD9309888 Si02
#       6
#     4   8   8   8   8   8
#     4  12  22  40  78 108 132 180 240 302 356 408
#     4  12  28  48  71 103 151 194 233 291 367 431
#     4  12  25  46  74 104 146 183 242 296 357 427
#     4  12  24  44  73 103 134 190 240 288 351 424
#     4  12  27  47  71 111 145 185 242 305 357 422
#     4  12  23  41  74 104 136 181 237 299 353 409
#
# _framework density 10.342307999999999
#
# number of rings (size 3 to 8) (size 9 to 14) (size 15 to 20)
#    0.000    0.000    7.273    2.182    3.818    0.727 
#    3.273    0.000    0.000    0.000    0.000    0.000 
#    0.000    0.000    0.000    0.000    0.000    0.000 
#
# Total GULP energy -122714.798780 kJ/mol
# GULP energy per Si atom -5577.945399 kJ/mol
# Density = 1.031877 g / cm^3
# Si number density = 10.342308 Si / 1000 Ang^3
#
#
#
# Elastic Constant Matrix: (Units=GPa)
#
#
# Indices 1 2 3 4 5 6 
#
# 1 80.7434 39.9141 15.7406 0.0000 -0.1157 0.0000
# 2 39.9141 124.4668 23.5728 0.0000 -13.8161 0.0000
# 3 15.7406 23.5728 107.2197 0.0000 0.5876 0.0000
# 4 0.0000 0.0000 0.0000 50.4512 0.0000 7.6509
# 5 -0.1157 -13.8161 0.5876 0.0000 31.3348 0.0000
# 6 0.0000 0.0000 0.0000 7.6509 0.0000 39.3217
#
#
#
# Elastic Compliance Matrix: (Units=1/GPa)
#
#
# Indices 1 2 3 4 5 6 
#
# 1 0.014984 -0.004819 -0.001129 0.000000 -0.002048 0.000000
# 2 -0.004819 0.010393 -0.001603 0.000000 0.004595 0.000000
# 3 -0.001129 -0.001603 0.009850 0.000000 -0.000896 0.000000
# 4 0.000000 0.000000 0.000000 0.020424 0.000000 -0.003974
# 5 -0.002048 0.004595 -0.000896 0.000000 0.033948 0.000000
# 6 0.000000 0.000000 0.000000 -0.003974 0.000000 0.026204
#
#
# Mechanical properties :
#
#
# Convention : Reuss Voigt Hill
#
# Bulk Modulus (GPa) = 49.68732 52.32054 51.00393
# Shear Modulus (GPa) = 36.33373 39.76838 38.05106
#
# Velocity S-wave (km/s) = 4.19568 4.38951 4.29369
# Velocity P-wave (km/s) = 6.89530 7.14421 7.02086
#
# Compressibility (1/GPa) = 0.02012586
#
# Stress axis : x y z
#
# Youngs Moduli (GPa) = 66.73742 96.21797 101.52605
#
# Poissons Ratio (x) = 0.46364 0.11464
# Poissons Ratio (y) = 0.32158 0.16272
# Poissons Ratio (z) = 0.07536 0.15421
#
# Static dielectric constant tensor:
#      x y z
#    x 1.770500 0.000000 -0.215200 
#    y 0.000000 1.694440 0.000000 
#    z -0.215200 0.000000 3.549440 
# 
# From -- ./inp_files/86166.got.cif
#   From: 2010.05.17/outbox.ucp.g08.bks.cvg/sg15_44_cif.got.tgz:86166.got - 2010.06.11 12:40:34.
