data_PCOD9309620
_publ_section_title
;
Structure prediction by ZEFSAII (Michael W. Deem and Ramdas Pophale) SiO2 
 PCOD9309620
Probable space group: C 2/C
;
_chemical_formula_sum "Si O2"
_cell_formula_units_Z 28
_cell_length_a 9.000000
_cell_length_b 30.000000
_cell_length_c 12.000000
_cell_angle_alpha 90.000000
_cell_angle_beta 120.000000
_cell_angle_gamma 90.000000
_cell_volume 2805.922308
_symmetry_space_group_name_H-M "C 2/C"
_symmetry_group_IT_number 15
_symmetry_cell_setting 'monoclinic'
loop_
_space_group_symop_operation_xyz
x,y,z
-x,y,1/2-z
-x,-y,-z
x,-y,1/2+z
1/2+x,1/2+y,z
1/2-x,1/2+y,1/2-z
1/2-x,1/2-y,-z
1/2+x,1/2-y,1/2+z
loop_
_atom_site_type_symbol
_atom_site_label
_atom_site_fract_x
_atom_site_fract_y
_atom_site_fract_z
Si Si1 0.627353 0.873649 0.091691
Si Si2 0.500000 0.662830 0.750000
Si Si3 0.817172 0.981454 0.474679
Si Si4 0.000000 0.566168 0.750000
Si Si5 0.511742 0.397046 0.624731
Si Si6 0.075189 0.194653 0.530491
Si Si7 0.656613 0.930334 0.889353
Si Si8 0.037912 0.281760 0.392808
O O1 0.545316 0.903829 0.158803
O O2 0.556031 0.824358 0.089890
O O3 0.833057 0.868267 0.174757
O O4 0.596274 0.894037 0.957651
O O5 0.541313 0.690559 0.651290
O O6 0.672480 0.962304 0.336761
O O7 0.874981 0.937811 0.564476
O O8 0.724770 0.026386 0.483830
O O9 0.000000 0.000000 0.500000
O O10 0.500000 0.384014 0.750000
O O11 0.472367 0.353403 0.536904
O O12 0.689851 0.414452 0.635965
O O13 0.987217 0.238894 0.447537
O O14 0.264499 0.203503 0.550060
O O15 0.500000 0.942046 0.750000
O O16 0.000000 0.271185 0.250000
#
# Coordination Sequence:
#
# PCOD9309620 Si02
#       8
#     8   4   8   4   8   8   8   8
#     4  12  25  43  73  98 142 182 234 283 352 421
#     4  12  22  46  66 103 136 183 228 286 346 418
#     4  10  24  45  70 101 138 184 238 293 356 413
#     4  12  24  44  76  99 138 191 236 288 354 424
#     4  11  24  45  70  98 136 184 231 283 354 413
#     4  11  24  44  71  98 137 179 229 288 347 418
#     4  11  26  45  63 101 139 178 230 289 342 414
#     4  11  23  45  68 102 133 178 231 282 348 426
#
# _framework density 9.9788940000000004
#
# number of rings (size 3 to 8) (size 9 to 14) (size 15 to 20)
#    0.000    0.857    4.286    2.143    6.000    3.429 
#    1.286    0.000    0.000    0.000    0.000    0.000 
#    0.000    0.000    0.000    0.000    0.000    0.000 
#
# Total GULP energy -156015.059642 kJ/mol
# GULP energy per Si atom -5571.966416 kJ/mol
# Density = 0.995618 g / cm^3
# Si number density = 9.978894 Si / 1000 Ang^3
#
#
#
# Elastic Constant Matrix: (Units=GPa)
#
#
# Indices 1 2 3 4 5 6 
#
# 1 91.8252 31.1382 35.6112 0.0000 -9.0787 0.0000
# 2 31.1382 106.3767 43.4675 0.0000 -6.6503 0.0000
# 3 35.6112 43.4675 77.0399 0.0000 -19.1037 0.0000
# 4 0.0000 0.0000 0.0000 18.9517 0.0000 19.6964
# 5 -9.0787 -6.6503 -19.1037 0.0000 46.9852 0.0000
# 6 0.0000 0.0000 0.0000 19.6964 0.0000 -20.2994
#
#
#
# Elastic Compliance Matrix: (Units=1/GPa)
#
#
# Indices 1 2 3 4 5 6 
#
# 1 0.013539 -0.001840 -0.005156 0.000000 0.000259 0.000000
# 2 -0.001840 0.012528 -0.006524 0.000000 -0.001235 0.000000
# 3 -0.005156 -0.006524 0.020651 0.000000 0.006477 0.000000
# 4 0.000000 0.000000 0.000000 0.026272 0.000000 0.025492
# 5 0.000259 -0.001235 0.006477 0.000000 0.023792 0.000000
# 6 0.000000 0.000000 0.000000 0.025492 0.000000 -0.024528
#
#
# Mechanical properties :
#
#
# Convention : Reuss Voigt Hill
#
# Bulk Modulus (GPa) = 50.81951 55.07508 52.94730
# Shear Modulus (GPa) = 47.23496 20.12917 33.68206
#
# Velocity S-wave (km/s) = 4.87020 3.17927 4.11258
# Velocity P-wave (km/s) = 7.55936 6.41348 7.00987
#
# Compressibility (1/GPa) = 0.01967748
#
# Stress axis : x y z
#
# Youngs Moduli (GPa) = 73.85809 79.82202 48.42464
#
# Poissons Ratio (x) = 0.14689 0.24968
# Poissons Ratio (y) = 0.13591 0.31593
# Poissons Ratio (z) = 0.38081 0.52077
#
# Static dielectric constant tensor:
#      x y z
#    x 1.629030 0.000000 0.048550 
#    y 0.000000 1.742120 0.000000 
#    z 0.048550 0.000000 1.754520 
# 
# From -- ./inp_files/82736.got.cif
#   From: 2010.05.17/outbox.ucp.g08.bks.cvg/sg15_42_cif.got.tgz:82736.got - 2010.06.11 12:40:34.
