data_PCOD9309997
_publ_section_title
;
Structure prediction by ZEFSAII (Michael W. Deem and Ramdas Pophale) SiO2 
 PCOD9309997
Probable space group: P 2 2 2
;
_chemical_formula_sum "Si O2"
_cell_formula_units_Z 11
_cell_length_a 11.220823
_cell_length_b 4.910537
_cell_length_c 9.060879
_cell_angle_alpha 90.000000
_cell_angle_beta 90.000000
_cell_angle_gamma 90.000000
_cell_volume 499.256848
_symmetry_space_group_name_H-M "P 2 2 2"
_symmetry_group_IT_number 16
_symmetry_cell_setting 'orthorhombic'
loop_
_space_group_symop_operation_xyz
x,y,z
-x,-y,z
x,-y,-z
-x,y,-z
loop_
_atom_site_type_symbol
_atom_site_label
_atom_site_fract_x
_atom_site_fract_y
_atom_site_fract_z
Si Si1 0.000000 0.000000 0.500000
Si Si2 0.804442 0.636317 0.655737
Si Si3 0.500000 0.000000 0.000000
Si Si4 0.500000 0.000000 0.500000
Si Si5 0.667681 0.834243 0.249095
O O1 0.077321 0.197854 0.606213
O O2 0.770843 0.500000 0.500000
O O3 0.778550 0.374413 0.757499
O O4 0.720578 0.866144 0.723272
O O5 0.585470 0.826368 0.106049
O O6 0.579299 0.815533 0.390271
#
# Coordination Sequence:
#
# PCOD9309997 Si02
#       5
#     1   4   1   1   4
#     4  12  24  40  74 112 138 172 236 314 378 374
#     4  12  22  40  66 109 131 174 229 301 346 417
#     4  10  28  48  64 106 148 208 216 276 344 434
#     4  10  18  36  60  94 132 176 226 288 332 402
#     4  11  24  39  67  99 143 182 235 273 346 420
#
# _framework density 22.032748999999999
#
# number of rings (size 3 to 8) (size 9 to 14) (size 15 to 20)
#    0.000    0.727    7.273    0.545    0.000   10.182 
#    0.000    0.000    0.000    1.091    9.455    0.000 
#    0.000    0.000    0.000    0.000    0.000    0.000 
#
# Total GULP energy -61249.185332 kJ/mol
# GULP energy per Si atom -5568.107757 kJ/mol
# Density = 2.198260 g / cm^3
# Si number density = 22.032749 Si / 1000 Ang^3
#
#
#
# Elastic Constant Matrix: (Units=GPa)
#
#
# Indices 1 2 3 4 5 6 
#
# 1 89.6128 40.4987 49.6924 0.0000 0.0000 0.0000
# 2 40.4987 138.6660 28.6456 0.0000 0.0000 0.0000
# 3 49.6924 28.6456 106.4535 0.0000 0.0000 0.0000
# 4 0.0000 0.0000 0.0000 13.5520 0.0000 0.0000
# 5 0.0000 0.0000 0.0000 0.0000 56.1765 0.0000
# 6 0.0000 0.0000 0.0000 0.0000 0.0000 9.4218
#
#
#
# Elastic Compliance Matrix: (Units=1/GPa)
#
#
# Indices 1 2 3 4 5 6 
#
# 1 0.016448 -0.003407 -0.006761 0.000000 0.000000 0.000000
# 2 -0.003407 0.008342 -0.000654 0.000000 0.000000 0.000000
# 3 -0.006761 -0.000654 0.012726 0.000000 0.000000 0.000000
# 4 0.000000 0.000000 0.000000 0.073790 0.000000 0.000000
# 5 0.000000 0.000000 0.000000 0.000000 0.017801 0.000000
# 6 0.000000 0.000000 0.000000 0.000000 0.000000 0.106137
#
#
# Mechanical properties :
#
#
# Convention : Reuss Voigt Hill
#
# Bulk Modulus (GPa) = 63.00877 63.60065 63.30471
# Shear Modulus (GPa) = 19.07096 30.22309 24.64702
#
# Velocity S-wave (km/s) = 2.94525 3.70771 3.34826
# Velocity P-wave (km/s) = 6.34239 6.87449 6.61379
#
# Compressibility (1/GPa) = 0.01587081
#
# Stress axis : x y z
#
# Youngs Moduli (GPa) = 60.79734 119.87802 78.57980
#
# Poissons Ratio (x) = 0.40844 0.53129
# Poissons Ratio (y) = 0.20714 0.05141
# Poissons Ratio (z) = 0.41106 0.07843
#
# Static dielectric constant tensor:
#      x y z
#    x 1.881600 0.000000 0.000000 
#    y 0.000000 1.861100 0.000000 
#    z 0.000000 0.000000 3.036920 
# 
# From -- ./inp_files/1088.got.cif
#   From: 2010.05.17/outbox.cif.g08.bks.cpg/sg16_1_cif.got.tgz:1088.got - 2010.06.03 22:28:35.
