data_PCOD9309507
_publ_section_title
;
Structure prediction by ZEFSAII (Michael W. Deem and Ramdas Pophale) SiO2 
 PCOD9309507
Probable space group: C 2/C
;
_chemical_formula_sum "Si O2"
_cell_formula_units_Z 20
_cell_length_a 15.000000
_cell_length_b 18.000000
_cell_length_c 21.000000
_cell_angle_alpha 90.000000
_cell_angle_beta 20.000000
_cell_angle_gamma 90.000000
_cell_volume 1939.254213
_symmetry_space_group_name_H-M "C 2/C"
_symmetry_group_IT_number 15
_symmetry_cell_setting 'monoclinic'
loop_
_space_group_symop_operation_xyz
x,y,z
-x,y,1/2-z
-x,-y,-z
x,-y,1/2+z
1/2+x,1/2+y,z
1/2-x,1/2+y,1/2-z
1/2-x,1/2-y,-z
1/2+x,1/2-y,1/2+z
loop_
_atom_site_type_symbol
_atom_site_label
_atom_site_fract_x
_atom_site_fract_y
_atom_site_fract_z
Si Si1 0.310609 0.088593 0.812925
Si Si2 0.341748 0.636953 0.293436
Si Si3 0.502355 0.801321 0.826013
Si Si4 0.708761 0.942766 0.756788
Si Si5 0.593919 0.230328 0.841075
O O1 0.500000 0.087671 0.750000
O O2 0.315181 0.166870 0.771045
O O3 0.371027 0.022834 0.720053
O O4 0.011681 0.071937 0.033802
O O5 0.500000 0.608042 0.250000
O O6 0.219767 0.576000 0.325928
O O7 0.480743 0.696765 0.151445
O O8 0.130720 0.689227 0.469209
O O9 0.500000 0.813145 0.750000
O O10 0.525447 0.881921 0.844300
O O11 0.710315 0.757088 0.733107
O O12 0.250000 0.750000 0.000000
#
# Coordination Sequence:
#
# PCOD9309507 Si02
#       5
#     8   8   8   8   8
#     4  11  22  40  63  88 124 166 203 256 314 366
#     4  11  21  38  60  86 120 155 198 255 305 360
#     4  11  21  38  60  84 118 158 202 257 307 355
#     4  10  23  40  60  90 121 160 215 253 304 380
#     4  11  22  36  59  89 117 154 207 249 303 374
#
# _framework density 10.313243
#
# number of rings (size 3 to 8) (size 9 to 14) (size 15 to 20)
#    0.000    1.200    0.000    9.000    0.000    2.400 
#    0.000    1.000    0.000    0.000    0.000    0.000 
#    0.000    0.000    0.000    0.000    0.000    0.000 
#
# Total GULP energy -111406.947056 kJ/mol
# GULP energy per Si atom -5570.347353 kJ/mol
# Density = 1.028977 g / cm^3
# Si number density = 10.313243 Si / 1000 Ang^3
#
#
#
# Elastic Constant Matrix: (Units=GPa)
#
#
# Indices 1 2 3 4 5 6 
#
# 1 230.4499 49.5665 -0.7472 0.0370 1.3007 -0.0137
# 2 49.5665 114.3403 -13.4385 0.0454 -3.0681 -0.1221
# 3 -0.7472 -13.4385 24.2853 -0.2603 0.7653 0.0440
# 4 0.0370 0.0454 -0.2603 27.8082 0.0437 8.9769
# 5 1.3007 -3.0681 0.7653 0.0437 36.9036 -0.0237
# 6 -0.0137 -0.1221 0.0440 8.9769 -0.0237 35.5823
#
#
#
# Elastic Compliance Matrix: (Units=1/GPa)
#
#
# Indices 1 2 3 4 5 6 
#
# 1 0.004816 -0.002222 -0.001071 -0.000012 -0.000332 -0.000002
# 2 -0.002222 0.010397 0.005659 0.000031 0.000825 0.000021
# 3 -0.001071 0.005659 0.044294 0.000456 -0.000411 -0.000151
# 4 -0.000012 0.000031 0.000456 0.039154 -0.000059 -0.009879
# 5 -0.000332 0.000825 -0.000411 -0.000059 0.027187 0.000036
# 6 -0.000002 0.000021 -0.000151 -0.009879 0.000036 0.030596
#
#
# Mechanical properties :
#
#
# Convention : Reuss Voigt Hill
#
# Bulk Modulus (GPa) = 15.56752 48.87080 32.21916
# Shear Modulus (GPa) = 28.88093 42.30511 35.59302
#
# Velocity S-wave (km/s) = 3.74597 4.53372 4.15854
# Velocity P-wave (km/s) = 5.12576 7.15198 6.22191
#
# Compressibility (1/GPa) = 0.06423629
#
# Stress axis : x y z
#
# Youngs Moduli (GPa) = 207.65144 96.18609 22.57657
#
# Poissons Ratio (x) = 0.21377 0.02419
# Poissons Ratio (y) = 0.46150 -0.12776
# Poissons Ratio (z) = 0.22246 -0.54431
#
# Static dielectric constant tensor:
#      x y z
#    x 1.771140 0.000000 0.023290 
#    y 0.000000 1.762660 0.000070 
#    z 0.023290 0.000070 1.834470 
# 
# From -- ./inp_files/39399.got.cif
#   From: 2010.05.17/outbox.ucp.g08.bks.cvg/sg15_20_cif.got.tgz:39399.got - 2010.06.11 12:40:34.
