data_PCOD9309028
_publ_section_title
;
Structure prediction by ZEFSAII (Michael W. Deem and Ramdas Pophale) SiO2 
 PCOD9309028
Probable space group: C 2/C
;
_chemical_formula_sum "Si O2"
_cell_formula_units_Z 22
_cell_length_a 24.000000
_cell_length_b 6.000000
_cell_length_c 15.000000
_cell_angle_alpha 90.000000
_cell_angle_beta 80.000000
_cell_angle_gamma 90.000000
_cell_volume 2127.184747
_symmetry_space_group_name_H-M "C 2/C"
_symmetry_group_IT_number 15
_symmetry_cell_setting 'monoclinic'
loop_
_space_group_symop_operation_xyz
x,y,z
-x,y,1/2-z
-x,-y,-z
x,-y,1/2+z
1/2+x,1/2+y,z
1/2-x,1/2+y,1/2-z
1/2-x,1/2-y,-z
1/2+x,1/2-y,1/2+z
loop_
_atom_site_type_symbol
_atom_site_label
_atom_site_fract_x
_atom_site_fract_y
_atom_site_fract_z
Si Si1 0.652537 0.683856 0.006149
Si Si2 0.101759 0.348988 0.196595
Si Si3 0.257367 0.002930 0.096465
Si Si4 0.798540 0.666076 0.275400
Si Si5 0.402517 0.551726 0.670960
Si Si6 0.500000 0.815962 0.750000
O O1 0.609773 0.721861 0.100414
O O2 0.705945 0.560216 0.041897
O O3 0.683855 0.913891 0.964554
O O4 0.619011 0.581238 0.927697
O O5 0.162504 0.464398 0.200424
O O6 0.050231 0.523941 0.199187
O O7 0.090811 0.192540 0.286203
O O8 0.263972 0.121294 0.193353
O O9 0.243338 0.754268 0.135764
O O10 0.848139 0.844083 0.238234
O O11 0.461655 0.675597 0.687167
#
# Coordination Sequence:
#
# PCOD9309028 Si02
#       6
#     8   8   8   8   8   4
#     4  10  22  40  67 102 135 171 220 261 324 390
#     4  11  22  44  67  95 130 171 221 280 326 390
#     4  10  20  39  62 102 137 179 213 251 319 390
#     4  10  21  38  65  94 140 177 210 254 321 388
#     4  10  22  44  64  93 129 171 217 272 326 395
#     4  10  24  44  70  88 122 174 218 280 356 374
#
# _framework density 10.342307999999999
#
# number of rings (size 3 to 8) (size 9 to 14) (size 15 to 20)
#    0.000    1.818    1.818    1.636    0.000    1.455 
#    9.818    3.636    0.000    0.000    0.000    0.000 
#    0.000    0.000    0.000    0.000    0.000    0.000 
#
# Total GULP energy -122565.101314 kJ/mol
# GULP energy per Si atom -5571.140969 kJ/mol
# Density = 1.031877 g / cm^3
# Si number density = 10.342308 Si / 1000 Ang^3
#
#
#
# Elastic Constant Matrix: (Units=GPa)
#
#
# Indices 1 2 3 4 5 6 
#
# 1 138.1955 37.1875 40.2569 0.0000 34.5381 0.0000
# 2 37.1875 64.8483 29.1149 0.0000 11.1972 0.0000
# 3 40.2569 29.1149 126.5917 0.0000 30.3726 0.0000
# 4 0.0000 0.0000 0.0000 32.9125 0.0000 -2.4092
# 5 34.5381 11.1972 30.3726 0.0000 44.0318 0.0000
# 6 0.0000 0.0000 0.0000 -2.4092 0.0000 49.0569
#
#
#
# Elastic Compliance Matrix: (Units=1/GPa)
#
#
# Indices 1 2 3 4 5 6 
#
# 1 0.010241 -0.004453 -0.000691 0.000000 -0.006424 0.000000
# 2 -0.004453 0.019277 -0.003211 0.000000 0.000806 0.000000
# 3 -0.000691 -0.003211 0.010224 0.000000 -0.005693 0.000000
# 4 0.000000 0.000000 0.000000 0.030493 0.000000 0.001498
# 5 -0.006424 0.000806 -0.005693 0.000000 0.031472 0.000000
# 6 0.000000 0.000000 0.000000 0.001498 0.000000 0.020458
#
#
# Mechanical properties :
#
#
# Convention : Reuss Voigt Hill
#
# Bulk Modulus (GPa) = 43.41941 60.30602 51.86272
# Shear Modulus (GPa) = 34.11744 40.07199 37.09472
#
# Velocity S-wave (km/s) = 4.06570 4.40623 4.23939
# Velocity P-wave (km/s) = 6.56328 7.42326 7.00648
#
# Compressibility (1/GPa) = 0.02303117
#
# Stress axis : x y z
#
# Youngs Moduli (GPa) = 97.64348 51.87600 97.81228
#
# Poissons Ratio (x) = 0.23102 0.06762
# Poissons Ratio (y) = 0.43484 0.31404
# Poissons Ratio (z) = 0.06750 0.16655
#
# Static dielectric constant tensor:
#      x y z
#    x 1.712660 0.000000 -0.005460 
#    y 0.000000 1.888610 0.000000 
#    z -0.005460 0.000000 1.740540 
# 
# From -- ./inp_files/170798.got.cif
#   From: 2010.05.17/outbox.ucp.g08.bks.cvg/sg15_86_cif.got.tgz:170798.got - 2010.06.11 12:40:34.
