data_PCOD9309633
_publ_section_title
;
Structure prediction by ZEFSAII (Michael W. Deem and Ramdas Pophale) SiO2 
 PCOD9309633
Probable space group: C 2/C
;
_chemical_formula_sum "Si O2"
_cell_formula_units_Z 28
_cell_length_a 12.000000
_cell_length_b 9.000000
_cell_length_c 30.000000
_cell_angle_alpha 90.000000
_cell_angle_beta 60.000000
_cell_angle_gamma 90.000000
_cell_volume 2805.922308
_symmetry_space_group_name_H-M "C 2/C"
_symmetry_group_IT_number 15
_symmetry_cell_setting 'monoclinic'
loop_
_space_group_symop_operation_xyz
x,y,z
-x,y,1/2-z
-x,-y,-z
x,-y,1/2+z
1/2+x,1/2+y,z
1/2-x,1/2+y,1/2-z
1/2-x,1/2-y,-z
1/2+x,1/2-y,1/2+z
loop_
_atom_site_type_symbol
_atom_site_label
_atom_site_fract_x
_atom_site_fract_y
_atom_site_fract_z
Si Si1 0.048724 0.563678 0.036763
Si Si2 0.357149 0.310564 0.174975
Si Si3 0.186417 0.087806 0.001256
Si Si4 0.922141 0.696809 0.724560
Si Si5 0.637361 0.973906 0.351589
Si Si6 0.056737 0.023010 0.692917
Si Si7 0.053246 0.899732 0.432515
O O1 0.198134 0.527308 0.013445
O O2 0.962032 0.469732 0.088400
O O3 0.016835 0.738519 0.048700
O O4 0.000000 0.500000 0.000000
O O5 0.225429 0.314049 0.228915
O O6 0.379782 0.137462 0.164771
O O7 0.483226 0.386201 0.170176
O O8 0.348863 0.385889 0.128223
O O9 0.137217 0.081728 0.960220
O O10 0.250000 0.250000 0.000000
O O11 0.056102 0.027370 0.051788
O O12 0.908685 0.634297 0.677888
O O13 0.000000 0.620870 0.750000
O O14 0.997314 0.855163 0.704088
O O15 0.788228 0.966259 0.336375
O O16 0.000000 0.088312 0.750000
#
# Coordination Sequence:
#
# PCOD9309633 Si02
#       7
#     8   8   8   8   8   8   8
#     4  11  24  43  67  93 132 172 220 275 329 385
#     4  11  22  41  66  95 129 171 209 269 325 383
#     4  11  23  45  68  92 129 173 218 272 329 388
#     4  11  22  42  67  93 135 167 212 270 319 389
#     4  11  25  43  63  97 127 176 219 264 329 388
#     4  11  22  43  65  90 135 170 213 265 318 387
#     4  10  25  42  65  97 132 167 223 270 330 391
#
# _framework density 9.9788940000000004
#
# number of rings (size 3 to 8) (size 9 to 14) (size 15 to 20)
#    0.000    1.143    5.714    0.429    4.000    1.714 
#    2.571    0.000    0.000    0.000    0.000    0.000 
#    0.000    0.000    0.000    0.000    0.000    0.000 
#
# Total GULP energy -156038.661498 kJ/mol
# GULP energy per Si atom -5572.809339 kJ/mol
# Density = 0.995618 g / cm^3
# Si number density = 9.978894 Si / 1000 Ang^3
#
#
#
# Elastic Constant Matrix: (Units=GPa)
#
#
# Indices 1 2 3 4 5 6 
#
# 1 143.2976 27.0277 10.8541 0.0000 3.5612 0.0000
# 2 27.0277 15.3860 -15.9217 0.0000 6.1696 0.0000
# 3 10.8541 -15.9217 47.5536 0.0000 9.7492 0.0000
# 4 0.0000 0.0000 0.0000 4.6606 0.0000 10.8305
# 5 3.5612 6.1696 9.7492 0.0000 23.6307 0.0000
# 6 0.0000 0.0000 0.0000 10.8305 0.0000 24.4213
#
#
#
# Elastic Compliance Matrix: (Units=1/GPa)
#
#
# Indices 1 2 3 4 5 6 
#
# 1 -0.086560 0.438250 0.204577 0.000000 -0.185776 0.000000
# 2 0.438250 -2.050529 -0.964365 0.000000 0.867175 0.000000
# 3 0.204577 -0.964365 -0.430239 0.000000 0.398450 0.000000
# 4 0.000000 0.000000 0.000000 -7.017012 0.000000 3.111936
# 5 -0.185776 0.867175 0.398450 0.000000 -0.320476 0.000000
# 6 0.000000 0.000000 0.000000 3.111936 0.000000 -1.339147
#
#
# Mechanical properties :
#
#
# Convention : Reuss Voigt Hill
#
# Bulk Modulus (GPa) = -0.31149 27.79525 13.74188
# Shear Modulus (GPa) = -0.42841 22.82765 11.19962
#
# Velocity S-wave (km/s) = -0.46382 3.38568 2.37146
# Velocity P-wave (km/s) = 0.66577 5.40749 3.79458
#
# Compressibility (1/GPa) = -3.21040279
#
# Stress axis : x y z
#
# Youngs Moduli (GPa) = -11.55271 -0.48768 -2.32429
#
# Poissons Ratio (x) = 0.21373 0.47550
# Poissons Ratio (y) = 5.06298 -2.24146
# Poissons Ratio (z) = 2.36342 -0.47030
#
# Static dielectric constant tensor:
#      x y z
#    x 1.641840 0.000000 0.093240 
#    y 0.000000 1.716250 0.000000 
#    z 0.093240 0.000000 1.810640 
# 
# From -- ./inp_files/291618.got.cif
#   From: 2010.05.17/outbox.ucp.g08.bks.cvg/sg15_146_cif.got.tgz:291618.got - 2010.06.11 12:40:34.
