data_PCOD9309645
_publ_section_title
;
Structure prediction by ZEFSAII (Michael W. Deem and Ramdas Pophale) SiO2 
 PCOD9309645
Probable space group: C 2/C
;
_chemical_formula_sum "Si O2"
_cell_formula_units_Z 32
_cell_length_a 9.000000
_cell_length_b 30.000000
_cell_length_c 15.000000
_cell_angle_alpha 90.000000
_cell_angle_beta 50.000000
_cell_angle_gamma 90.000000
_cell_volume 3102.479995
_symmetry_space_group_name_H-M "C 2/C"
_symmetry_group_IT_number 15
_symmetry_cell_setting 'monoclinic'
loop_
_space_group_symop_operation_xyz
x,y,z
-x,y,1/2-z
-x,-y,-z
x,-y,1/2+z
1/2+x,1/2+y,z
1/2-x,1/2+y,1/2-z
1/2-x,1/2-y,-z
1/2+x,1/2-y,1/2+z
loop_
_atom_site_type_symbol
_atom_site_label
_atom_site_fract_x
_atom_site_fract_y
_atom_site_fract_z
Si Si1 0.387889 0.185006 0.622782
Si Si2 0.191153 0.939579 0.624212
Si Si3 0.054630 0.961503 0.123907
Si Si4 0.543179 0.929918 0.627934
Si Si5 0.224175 0.607586 0.696144
Si Si6 0.920580 0.676009 0.405728
Si Si7 0.195353 0.211245 0.319883
Si Si8 0.685394 0.651555 0.018029
O O1 0.299349 0.142340 0.711291
O O2 0.339835 0.180953 0.536492
O O3 0.336260 0.235363 0.673069
O O4 0.619771 0.179848 0.543821
O O5 0.371215 0.946070 0.625057
O O6 0.228247 0.896372 0.548863
O O7 0.000000 0.925282 0.750000
O O8 0.116891 0.985266 0.603464
O O9 0.000000 0.952822 0.250000
O O10 0.862391 0.936447 0.155775
O O11 0.247046 0.942775 0.997697
O O12 0.500000 0.943749 0.750000
O O13 0.546234 0.876232 0.626843
O O14 0.326525 0.637281 0.580612
O O15 0.000000 0.596905 0.750000
O O16 0.783725 0.697846 0.383132
O O17 0.133392 0.698094 0.314391
O O18 0.003336 0.180353 0.381091
#
# Coordination Sequence:
#
# PCOD9309645 Si02
#       8
#     8   8   8   8   8   8   8   8
#     4  11  24  45  69 100 144 194 234 302 363 425
#     4  11  26  47  74 108 144 188 246 305 375 439
#     4  11  26  49  76 108 145 193 248 300 379 442
#     4  12  24  49  77 108 147 190 247 307 368 441
#     4  10  25  47  72 104 148 190 244 298 367 440
#     4  11  23  43  69  99 142 184 241 300 363 425
#     4  11  24  41  67 105 137 186 249 293 354 443
#     4  11  24  45  70  98 144 187 239 295 362 432
#
# _framework density 10.314329000000001
#
# number of rings (size 3 to 8) (size 9 to 14) (size 15 to 20)
#    0.000    1.000    2.500    3.375    5.250    0.500 
#   11.250    0.000    2.750    0.000    0.000    0.000 
#    0.000    0.000    0.000    0.000    0.000    0.000 
#
# Total GULP energy -178533.446500 kJ/mol
# GULP energy per Si atom -5579.170203 kJ/mol
# Density = 1.029085 g / cm^3
# Si number density = 10.314329 Si / 1000 Ang^3
#
#
#
# Elastic Constant Matrix: (Units=GPa)
#
#
# Indices 1 2 3 4 5 6 
#
# 1 90.8598 43.9366 29.1825 0.0000 -12.5185 0.0000
# 2 43.9366 141.4919 36.9393 0.0000 -7.7101 0.0000
# 3 29.1825 36.9393 124.9626 0.0000 -2.2085 0.0000
# 4 0.0000 0.0000 0.0000 34.3417 0.0000 -9.9038
# 5 -12.5185 -7.7101 -2.2085 0.0000 43.3276 0.0000
# 6 0.0000 0.0000 0.0000 -9.9038 0.0000 39.3068
#
#
#
# Elastic Compliance Matrix: (Units=1/GPa)
#
#
# Indices 1 2 3 4 5 6 
#
# 1 0.013866 -0.003573 -0.002124 0.000000 0.003262 0.000000
# 2 -0.003573 0.008648 -0.001714 0.000000 0.000419 0.000000
# 3 -0.002124 -0.001714 0.008997 0.000000 -0.000460 0.000000
# 4 0.000000 0.000000 0.000000 0.031401 0.000000 0.007912
# 5 0.003262 0.000419 -0.000460 0.000000 0.024074 0.000000
# 6 0.000000 0.000000 0.000000 0.007912 0.000000 0.027434
#
#
# Mechanical properties :
#
#
# Convention : Reuss Voigt Hill
#
# Bulk Modulus (GPa) = 59.92812 64.15902 62.04357
# Shear Modulus (GPa) = 37.09070 39.87892 38.48481
#
# Velocity S-wave (km/s) = 4.24490 4.40156 4.32394
# Velocity P-wave (km/s) = 7.28969 7.54991 7.42094
#
# Compressibility (1/GPa) = 0.01668666
#
# Stress axis : x y z
#
# Youngs Moduli (GPa) = 72.12118 115.63988 111.14732
#
# Poissons Ratio (x) = 0.41322 0.23609
# Poissons Ratio (y) = 0.25771 0.19055
# Poissons Ratio (z) = 0.15319 0.19825
#
# Static dielectric constant tensor:
#      x y z
#    x 1.776450 0.000000 0.036810 
#    y 0.000000 1.733060 0.000000 
#    z 0.036810 0.000000 1.763400 
# 
# From -- ./inp_files/139817.got.cif
#   From: 2010.05.17/outbox.ucp.g08.bks.cvg/sg15_70_cif.got.tgz:139817.got - 2010.06.11 12:40:34.
