data_PCOD9309683
_publ_section_title
;
Structure prediction by ZEFSAII (Michael W. Deem and Ramdas Pophale) SiO2 
 PCOD9309683
Probable space group: C 2/C
;
_chemical_formula_sum "Si O2"
_cell_formula_units_Z 32
_cell_length_a 15.000000
_cell_length_b 18.000000
_cell_length_c 24.000000
_cell_angle_alpha 90.000000
_cell_angle_beta 150.000000
_cell_angle_gamma 90.000000
_cell_volume 3240.000000
_symmetry_space_group_name_H-M "C 2/C"
_symmetry_group_IT_number 15
_symmetry_cell_setting 'monoclinic'
loop_
_space_group_symop_operation_xyz
x,y,z
-x,y,1/2-z
-x,-y,-z
x,-y,1/2+z
1/2+x,1/2+y,z
1/2-x,1/2+y,1/2-z
1/2-x,1/2-y,-z
1/2+x,1/2-y,1/2+z
loop_
_atom_site_type_symbol
_atom_site_label
_atom_site_fract_x
_atom_site_fract_y
_atom_site_fract_z
Si Si1 0.939455 0.208678 0.032918
Si Si2 0.198651 0.161076 0.357531
Si Si3 0.013447 0.833305 0.450412
Si Si4 0.413614 0.160597 0.145941
Si Si5 0.924331 0.003797 0.895874
Si Si6 0.509908 0.005230 0.694559
Si Si7 0.203662 0.912977 0.972517
Si Si8 0.699282 0.195564 0.205091
O O1 0.801740 0.164939 0.997448
O O2 0.002467 0.164226 0.011640
O O3 0.118752 0.213644 0.165190
O O4 0.847705 0.283831 0.962847
O O5 0.178997 0.096837 0.393235
O O6 0.256555 0.144514 0.325084
O O7 0.000000 0.196799 0.250000
O O8 0.210130 0.812643 0.534761
O O9 0.953794 0.911461 0.394016
O O10 0.873565 0.771593 0.358831
O O11 0.500000 0.190470 0.250000
O O12 0.545865 0.171735 0.165629
O O13 0.404457 0.071605 0.147133
O O14 0.712446 0.989017 0.785756
O O15 0.041602 0.955375 0.916636
O O16 0.000000 0.000000 0.000000
O O17 0.500000 0.044167 0.750000
O O18 0.392616 0.049659 0.587330
#
# Coordination Sequence:
#
# PCOD9309683 Si02
#       8
#     8   8   8   8   8   8   8   8
#     4  11  22  40  65  95 124 163 211 265 313 379
#     4  11  26  41  61  88 128 174 209 250 320 387
#     4  11  22  38  64  97 126 158 210 264 321 369
#     4  11  20  40  65  94 121 162 207 261 327 369
#     4  12  21  39  62  97 126 160 210 270 318 365
#     4  11  22  35  64  95 124 159 203 267 323 365
#     4  12  23  40  63  92 131 164 207 261 319 385
#     4  11  24  40  64  92 126 165 208 262 317 386
#
# _framework density 9.8765429999999999
#
# number of rings (size 3 to 8) (size 9 to 14) (size 15 to 20)
#    0.000    0.750    6.250    2.250    1.750    1.500 
#    0.000    0.625    0.000    0.750    0.000    0.000 
#    0.000    0.000    0.000    0.000    0.000    0.000 
#
# Total GULP energy -178509.420914 kJ/mol
# GULP energy per Si atom -5578.419404 kJ/mol
# Density = 0.985406 g / cm^3
# Si number density = 9.876543 Si / 1000 Ang^3
#
#
#
# Elastic Constant Matrix: (Units=GPa)
#
#
# Indices 1 2 3 4 5 6 
#
# 1 131.7349 19.4848 16.5023 0.0000 -16.0320 0.0001
# 2 19.4848 40.8076 31.3084 -0.0001 -7.9291 -0.0001
# 3 16.5023 31.3084 91.0243 -0.0009 -7.2475 -0.0002
# 4 0.0000 -0.0001 -0.0009 21.7469 -0.0002 2.5883
# 5 -16.0320 -7.9291 -7.2475 -0.0002 30.5191 0.0000
# 6 0.0001 -0.0001 -0.0002 2.5883 0.0000 25.3560
#
#
#
# Elastic Compliance Matrix: (Units=1/GPa)
#
#
# Indices 1 2 3 4 5 6 
#
# 1 0.008530 -0.003270 -0.000135 0.000000 0.003599 0.000000
# 2 -0.003270 0.035675 -0.011290 0.000000 0.004870 0.000000
# 3 -0.000135 -0.011290 0.014937 0.000001 0.000543 0.000000
# 4 0.000000 0.000000 0.000001 0.046549 0.000000 -0.004752
# 5 0.003599 0.004870 0.000543 0.000000 0.036051 0.000000
# 6 0.000000 0.000000 0.000000 -0.004752 0.000000 0.039924
#
#
# Mechanical properties :
#
#
# Convention : Reuss Voigt Hill
#
# Bulk Modulus (GPa) = 33.61166 44.23975 38.92571
# Shear Modulus (GPa) = 22.62732 28.60914 25.61823
#
# Velocity S-wave (km/s) = 3.38821 3.80983 3.60519
# Velocity P-wave (km/s) = 5.68854 6.46514 6.08923
#
# Compressibility (1/GPa) = 0.02975158
#
# Stress axis : x y z
#
# Youngs Moduli (GPa) = 117.23948 28.03120 66.94756
#
# Poissons Ratio (x) = 0.09165 0.00905
# Poissons Ratio (y) = 0.38333 0.75583
# Poissons Ratio (z) = 0.01585 0.31647
#
# Static dielectric constant tensor:
#      x y z
#    x 1.721290 0.000000 -0.036950 
#    y 0.000000 1.745440 0.000000 
#    z -0.036950 0.000000 1.721320 
# 
# From -- ./inp_files/155485.got.cif
#   From: 2010.05.17/outbox.ucp.g08.bks.cvg/sg15_78_cif.got.tgz:155485.got - 2010.06.11 12:40:34.
