data_PCOD9309502
_publ_section_title
;
Structure prediction by ZEFSAII (Michael W. Deem and Ramdas Pophale) SiO2 
 PCOD9309502
Probable space group: C 2/C
;
_chemical_formula_sum "Si O2"
_cell_formula_units_Z 24
_cell_length_a 15.000000
_cell_length_b 30.000000
_cell_length_c 15.000000
_cell_angle_alpha 90.000000
_cell_angle_beta 160.000000
_cell_angle_gamma 90.000000
_cell_volume 2308.635967
_symmetry_space_group_name_H-M "C 2/C"
_symmetry_group_IT_number 15
_symmetry_cell_setting 'monoclinic'
loop_
_space_group_symop_operation_xyz
x,y,z
-x,y,1/2-z
-x,-y,-z
x,-y,1/2+z
1/2+x,1/2+y,z
1/2-x,1/2+y,1/2-z
1/2-x,1/2-y,-z
1/2+x,1/2-y,1/2+z
loop_
_atom_site_type_symbol
_atom_site_label
_atom_site_fract_x
_atom_site_fract_y
_atom_site_fract_z
Si Si1 0.208762 0.561773 0.517348
Si Si2 0.920678 0.776170 0.775203
Si Si3 0.500000 0.117147 0.750000
Si Si4 0.664313 0.354143 0.104006
Si Si5 0.113769 0.602785 0.135235
Si Si6 0.352309 0.480559 0.776788
Si Si7 0.000000 0.066776 0.250000
O O1 0.500000 0.573639 0.750000
O O2 0.253354 0.521818 0.627079
O O3 0.028712 0.597062 0.402965
O O4 0.000000 0.544786 0.250000
O O5 0.000000 0.791847 0.750000
O O6 0.615028 0.765387 0.478046
O O7 0.005248 0.809336 0.932275
O O8 0.688637 0.138780 0.853229
O O9 0.270730 0.091340 0.482896
O O10 0.913970 0.362929 0.400644
O O11 0.421496 0.383493 0.915617
O O12 0.134892 0.554454 0.106385
O O13 0.548544 0.458119 0.888836
O O14 0.500000 0.500000 0.000000
#
# Coordination Sequence:
#
# PCOD9309502 Si02
#       7
#     8   8   4   8   8   8   4
#     4  12  27  45  65  86 122 167 215 272 341 394
#     4  10  23  39  60  92 132 175 211 242 296 377
#     4  12  24  40  56  91 120 170 210 262 302 365
#     4  12  24  40  63  89 128 164 211 256 304 361
#     4  12  26  42  61  92 121 161 217 273 316 373
#     4  12  25  44  62  91 125 170 223 283 330 383
#     4  12  26  40  62  83 124 166 228 268 318 383
#
# _framework density 10.395749
#
# number of rings (size 3 to 8) (size 9 to 14) (size 15 to 20)
#    0.000    0.333    4.167    4.500    8.167    1.333 
#    0.000    0.000    0.000    0.000    0.000    0.000 
#    0.000   46.667    0.000    0.000    0.000    0.000 
#
# Total GULP energy -133617.784115 kJ/mol
# GULP energy per Si atom -5567.407671 kJ/mol
# Density = 1.037209 g / cm^3
# Si number density = 10.395749 Si / 1000 Ang^3
#
#
#
# Elastic Constant Matrix: (Units=GPa)
#
#
# Indices 1 2 3 4 5 6 
#
# 1 108.1042 18.6611 36.1290 0.0023 18.4759 0.0068
# 2 18.6611 35.6916 17.4846 -0.0001 -1.2048 0.0036
# 3 36.1290 17.4846 139.8115 0.0088 6.1121 0.0440
# 4 0.0023 -0.0001 0.0088 32.9702 0.0078 14.2436
# 5 18.4759 -1.2048 6.1121 0.0078 59.9864 0.0230
# 6 0.0068 0.0036 0.0440 14.2436 0.0230 80.8026
#
#
#
# Elastic Compliance Matrix: (Units=1/GPa)
#
#
# Indices 1 2 3 4 5 6 
#
# 1 0.011425 -0.005022 -0.002176 0.000000 -0.003398 0.000001
# 2 -0.005022 0.032112 -0.002826 0.000001 0.002480 0.000000
# 3 -0.002176 -0.002826 0.008077 0.000000 -0.000210 -0.000004
# 4 0.000000 0.000001 0.000000 0.032831 -0.000002 -0.005787
# 5 -0.003398 0.002480 -0.000210 -0.000002 0.017788 -0.000004
# 6 0.000001 0.000000 -0.000004 -0.005787 -0.000004 0.013396
#
#
# Mechanical properties :
#
#
# Convention : Reuss Voigt Hill
#
# Bulk Modulus (GPa) = 31.68024 47.57295 39.62659
# Shear Modulus (GPa) = 34.19957 48.84070 41.52014
#
# Velocity S-wave (km/s) = 4.06012 4.85198 4.47360
# Velocity P-wave (km/s) = 6.10324 7.37018 6.76643
#
# Compressibility (1/GPa) = 0.03156542
#
# Stress axis : x y z
#
# Youngs Moduli (GPa) = 87.52541 31.14091 123.80274
#
# Poissons Ratio (x) = 0.15640 0.26937
# Poissons Ratio (y) = 0.43959 0.34992
# Poissons Ratio (z) = 0.19044 0.08802
#
# Static dielectric constant tensor:
#      x y z
#    x 1.791250 0.000000 -0.042400 
#    y 0.000000 1.930710 0.000000 
#    z -0.042400 0.000000 1.711440 
# 
# From -- ./inp_files/157743.got.cif
#   From: 2010.05.17/outbox.ucp.g08.bks.cvg/sg15_79_cif.got.tgz:157743.got - 2010.06.11 12:40:34.
