data_PCOD9309164
_publ_section_title
;
Structure prediction by ZEFSAII (Michael W. Deem and Ramdas Pophale) SiO2 
 PCOD9309164
Probable space group: C 2/C
;
_chemical_formula_sum "Si O2"
_cell_formula_units_Z 32
_cell_length_a 15.000000
_cell_length_b 21.000000
_cell_length_c 30.000000
_cell_angle_alpha 90.000000
_cell_angle_beta 160.000000
_cell_angle_gamma 90.000000
_cell_volume 3232.090354
_symmetry_space_group_name_H-M "C 2/C"
_symmetry_group_IT_number 15
_symmetry_cell_setting 'monoclinic'
loop_
_space_group_symop_operation_xyz
x,y,z
-x,y,1/2-z
-x,-y,-z
x,-y,1/2+z
1/2+x,1/2+y,z
1/2-x,1/2+y,1/2-z
1/2-x,1/2-y,-z
1/2+x,1/2-y,1/2+z
loop_
_atom_site_type_symbol
_atom_site_label
_atom_site_fract_x
_atom_site_fract_y
_atom_site_fract_z
Si Si1 0.688923 0.297439 0.713802
Si Si2 0.338624 0.910748 0.214389
Si Si3 0.134829 0.340478 0.036656
Si Si4 0.245887 0.771883 0.161382
Si Si5 0.937732 0.424034 0.872008
Si Si6 0.490653 0.495790 0.116621
Si Si7 0.811613 0.373915 0.044617
Si Si8 0.216316 0.173647 0.792058
O O1 0.695192 0.253392 0.760950
O O2 0.862409 0.361152 0.806138
O O3 0.397354 0.320628 0.566174
O O4 0.768678 0.249104 0.711929
O O5 0.500000 0.942353 0.250000
O O6 0.177986 0.846851 0.126815
O O7 0.573140 0.877770 0.352225
O O8 0.165566 0.959330 0.161732
O O9 0.203755 0.345706 0.120656
O O10 0.413544 0.342951 0.142569
O O11 0.991782 0.272952 0.964638
O O12 0.948869 0.393713 0.927029
O O13 0.500000 0.760355 0.250000
O O14 0.712593 0.477471 0.756374
O O15 0.230323 0.452575 0.003145
O O16 0.346578 0.560977 0.035687
O O17 0.073259 0.363383 0.138880
#
# Coordination Sequence:
#
# PCOD9309164 Si02
#       8
#     8   8   8   8   8   8   8   8
#     4  10  22  36  66  98 125 169 213 265 337 399
#     4  11  24  38  64  94 126 173 214 269 323 387
#     4  10  24  39  64  97 134 165 215 274 334 384
#     4  10  21  38  62  97 128 164 210 267 331 395
#     4  10  23  42  68  95 126 175 221 271 326 386
#     4  11  23  45  67  92 130 174 225 270 319 385
#     4  11  22  41  66  89 126 175 220 264 325 394
#     4  11  22  40  65  96 134 169 209 276 334 393
#
# _framework density 9.9007129999999997
#
# number of rings (size 3 to 8) (size 9 to 14) (size 15 to 20)
#    0.000    1.500    2.500    1.875    5.250    1.500 
#    0.000    0.625    8.250    0.000    0.000    0.000 
#    0.000    0.000    0.000    0.000    0.000    0.000 
#
# Total GULP energy -178243.112749 kJ/mol
# GULP energy per Si atom -5570.097273 kJ/mol
# Density = 0.987818 g / cm^3
# Si number density = 9.900713 Si / 1000 Ang^3
#
#
#
# Elastic Constant Matrix: (Units=GPa)
#
#
# Indices 1 2 3 4 5 6 
#
# 1 50.3354 23.6687 33.0699 0.0103 3.9777 -0.0033
# 2 23.6687 98.8335 36.1718 -0.0008 8.6441 -0.0002
# 3 33.0699 36.1718 104.7913 0.0804 7.8637 -0.0269
# 4 0.0103 -0.0008 0.0804 30.9442 -0.0290 6.9327
# 5 3.9777 8.6441 7.8637 -0.0290 17.9443 -0.0044
# 6 -0.0033 -0.0002 -0.0269 6.9327 -0.0044 20.9332
#
#
#
# Elastic Compliance Matrix: (Units=1/GPa)
#
#
# Indices 1 2 3 4 5 6 
#
# 1 0.026223 -0.003652 -0.006939 0.000010 -0.001013 -0.000008
# 2 -0.003652 0.012368 -0.002823 0.000007 -0.003911 -0.000007
# 3 -0.006939 -0.002823 0.012914 -0.000040 -0.002761 0.000028
# 4 0.000010 0.000007 -0.000040 0.034906 0.000066 -0.011560
# 5 -0.001013 -0.003911 -0.002761 0.000066 0.059047 -0.000013
# 6 -0.000008 -0.000007 0.000028 -0.011560 -0.000013 0.051600
#
#
# Mechanical properties :
#
#
# Convention : Reuss Voigt Hill
#
# Bulk Modulus (GPa) = 40.52317 48.86458 44.69387
# Shear Modulus (GPa) = 21.54145 24.70100 23.12123
#
# Velocity S-wave (km/s) = 3.30187 3.53574 3.42080
# Velocity P-wave (km/s) = 5.91994 6.43424 6.18244
#
# Compressibility (1/GPa) = 0.02467724
#
# Stress axis : x y z
#
# Youngs Moduli (GPa) = 38.13509 80.85459 77.43361
#
# Poissons Ratio (x) = 0.29526 0.53730
# Poissons Ratio (y) = 0.13926 0.21861
# Poissons Ratio (z) = 0.26461 0.22827
#
# Static dielectric constant tensor:
#      x y z
#    x 1.755990 0.000010 -0.048340 
#    y 0.000010 1.749820 -0.000040 
#    z -0.048340 -0.000040 1.738090 
# 
# From -- ./inp_files/314537.got.cif
#   From: 2010.05.17/outbox.ucp.g08.bks.cvg/sg15_158_cif.got.tgz:314537.got - 2010.06.11 12:40:34.
