data_PCOD9309617
_publ_section_title
;
Structure prediction by ZEFSAII (Michael W. Deem and Ramdas Pophale) SiO2 
 PCOD9309617
Probable space group: C 2/C
;
_chemical_formula_sum "Si O2"
_cell_formula_units_Z 28
_cell_length_a 18.000000
_cell_length_b 9.000000
_cell_length_c 18.000000
_cell_angle_alpha 90.000000
_cell_angle_beta 70.000000
_cell_angle_gamma 90.000000
_cell_volume 2740.143682
_symmetry_space_group_name_H-M "C 2/C"
_symmetry_group_IT_number 15
_symmetry_cell_setting 'monoclinic'
loop_
_space_group_symop_operation_xyz
x,y,z
-x,y,1/2-z
-x,-y,-z
x,-y,1/2+z
1/2+x,1/2+y,z
1/2-x,1/2+y,1/2-z
1/2-x,1/2-y,-z
1/2+x,1/2-y,1/2+z
loop_
_atom_site_type_symbol
_atom_site_label
_atom_site_fract_x
_atom_site_fract_y
_atom_site_fract_z
Si Si1 0.322886 0.172419 0.931787
Si Si2 0.644488 0.115943 0.337185
Si Si3 0.373718 0.235217 0.624695
Si Si4 0.466406 0.835525 0.496978
Si Si5 0.093760 0.200926 0.715261
Si Si6 0.221472 0.334229 0.582450
Si Si7 0.832971 0.876656 0.788840
O O1 0.401201 0.155704 0.954649
O O2 0.348491 0.276272 0.855095
O O3 0.290480 0.010399 0.920079
O O4 0.250000 0.250000 0.000000
O O5 0.588129 0.205007 0.413786
O O6 0.617054 0.174244 0.267374
O O7 0.738198 0.139791 0.311771
O O8 0.633449 0.941293 0.357192
O O9 0.454947 0.257727 0.550395
O O10 0.292183 0.293724 0.615671
O O11 0.377986 0.313609 0.702408
O O12 0.500000 0.000000 0.500000
O O13 0.134651 0.267190 0.628352
O O14 0.000000 0.178779 0.750000
O O15 0.139849 0.046515 0.712368
O O16 0.250000 0.250000 0.500000
#
# Coordination Sequence:
#
# PCOD9309617 Si02
#       7
#     8   8   8   8   8   8   8
#     4  12  26  45  74 105 139 186 237 293 356 427
#     4  11  21  48  71  96 140 187 236 278 356 430
#     4  11  25  43  71 103 135 188 233 288 352 419
#     4  10  24  44  70 102 135 182 233 289 349 424
#     4  12  29  44  71 108 143 183 237 300 348 418
#     4  12  25  46  73 102 140 186 235 291 357 423
#     4  12  24  46  68 101 144 185 230 287 357 424
#
# _framework density 10.218442
#
# number of rings (size 3 to 8) (size 9 to 14) (size 15 to 20)
#    0.000    0.571    4.286    3.429   10.000    0.000 
#    0.000    1.429    0.000    0.000    0.000    0.000 
#    0.000    0.000    0.000    0.000    0.000    0.000 
#
# Total GULP energy -156364.008263 kJ/mol
# GULP energy per Si atom -5584.428867 kJ/mol
# Density = 1.019518 g / cm^3
# Si number density = 10.218442 Si / 1000 Ang^3
#
#
#
# Elastic Constant Matrix: (Units=GPa)
#
#
# Indices 1 2 3 4 5 6 
#
# 1 103.8282 0.7340 16.3547 0.0000 -25.4377 0.0000
# 2 0.7340 33.2821 10.3800 0.0000 -9.1176 0.0000
# 3 16.3547 10.3800 92.2110 0.0000 -30.5548 0.0000
# 4 0.0000 0.0000 0.0000 36.0417 0.0000 0.5777
# 5 -25.4377 -9.1176 -30.5548 0.0000 46.9271 0.0000
# 6 0.0000 0.0000 0.0000 0.5777 0.0000 27.3509
#
#
#
# Elastic Compliance Matrix: (Units=1/GPa)
#
#
# Indices 1 2 3 4 5 6 
#
# 1 0.011176 0.001501 -0.000060 0.000000 0.006311 0.000000
# 2 0.001501 0.032214 -0.001975 0.000000 0.005787 0.000000
# 3 -0.000060 -0.001975 0.013949 0.000000 0.008666 0.000000
# 4 0.000000 0.000000 0.000000 0.027755 0.000000 -0.000586
# 5 0.006311 0.005787 0.008666 0.000000 0.031498 0.000000
# 6 0.000000 0.000000 0.000000 -0.000586 0.000000 0.036574
#
#
# Mechanical properties :
#
#
# Convention : Reuss Voigt Hill
#
# Bulk Modulus (GPa) = 17.77086 31.58430 24.67758
# Shear Modulus (GPa) = 28.90306 35.52079 32.21192
#
# Velocity S-wave (km/s) = 3.76474 4.17354 3.97440
# Velocity P-wave (km/s) = 5.25472 6.22195 5.75868
#
# Compressibility (1/GPa) = 0.05627188
#
# Stress axis : x y z
#
# Youngs Moduli (GPa) = 89.47513 31.04211 71.68823
#
# Poissons Ratio (x) = -0.04660 0.00431
# Poissons Ratio (y) = -0.13431 0.14159
# Poissons Ratio (z) = 0.00537 0.06131
#
# Static dielectric constant tensor:
#      x y z
#    x 1.635630 0.000000 -0.010630 
#    y 0.000000 1.600690 0.000000 
#    z -0.010630 0.000000 1.801310 
# 
# From -- ./inp_files/209534.got.cif
#   From: 2010.05.17/outbox.ucp.g08.bks.cvg/sg15_105_cif.got.tgz:209534.got - 2010.06.11 12:40:34.
