data_PCOD9309234
_publ_section_title
;
Structure prediction by ZEFSAII (Michael W. Deem and Ramdas Pophale) SiO2 
 PCOD9309234
Probable space group: C 2/C
;
_chemical_formula_sum "Si O2"
_cell_formula_units_Z 32
_cell_length_a 12.000000
_cell_length_b 24.000000
_cell_length_c 24.000000
_cell_angle_alpha 90.000000
_cell_angle_beta 30.000000
_cell_angle_gamma 90.000000
_cell_volume 3456.000000
_symmetry_space_group_name_H-M "C 2/C"
_symmetry_group_IT_number 15
_symmetry_cell_setting 'monoclinic'
loop_
_space_group_symop_operation_xyz
x,y,z
-x,y,1/2-z
-x,-y,-z
x,-y,1/2+z
1/2+x,1/2+y,z
1/2-x,1/2+y,1/2-z
1/2-x,1/2-y,-z
1/2+x,1/2-y,1/2+z
loop_
_atom_site_type_symbol
_atom_site_label
_atom_site_fract_x
_atom_site_fract_y
_atom_site_fract_z
Si Si1 0.068608 0.380793 0.535824
Si Si2 0.105250 0.915452 0.001865
Si Si3 0.228787 0.491043 0.671147
Si Si4 0.677351 0.545766 0.251472
Si Si5 0.267065 0.163480 0.885607
Si Si6 0.752548 0.296800 0.615877
Si Si7 0.740253 0.113167 0.485014
Si Si8 0.355696 0.044707 0.598112
O O1 0.228090 0.393822 0.520856
O O2 0.194481 0.408839 0.427889
O O3 0.834884 0.412829 0.648649
O O4 0.959189 0.320744 0.564957
O O5 0.938665 0.865687 0.057244
O O6 0.221801 0.942385 0.895902
O O7 0.937660 0.967106 0.088812
O O8 0.192971 0.466885 0.747735
O O9 0.000000 0.519710 0.750000
O O10 0.448460 0.574826 0.372075
O O11 0.678481 0.489926 0.212524
O O12 0.500000 0.155138 0.750000
O O13 0.229913 0.230572 0.903796
O O14 0.260360 0.134972 0.950641
O O15 0.500000 0.305502 0.750000
O O16 0.765656 0.333934 0.554052
O O17 0.522412 0.075558 0.568656
O O18 0.500000 0.000000 0.500000
#
# Coordination Sequence:
#
# PCOD9309234 Si02
#       8
#     8   8   8   8   8   8   8   8
#     4  10  21  41  59  93 128 158 212 256 320 382
#     4  11  24  38  58  91 129 167 205 257 319 379
#     4  11  23  37  59  89 128 170 210 251 304 388
#     4  11  21  36  62  88 125 160 210 251 305 377
#     4  11  25  42  64  93 122 166 222 273 322 366
#     4  10  21  42  69  93 121 162 215 275 321 373
#     4  11  22  41  65  93 124 168 213 264 315 378
#     4   9  23  35  56  93 126 161 202 253 309 378
#
# _framework density 9.2592590000000001
#
# number of rings (size 3 to 8) (size 9 to 14) (size 15 to 20)
#    0.000    1.500    3.750    0.750    7.000    0.500 
#    0.000    0.000    0.000    0.000    0.000    0.000 
#    0.000    0.000    0.000    0.000    0.000    0.000 
#
# Total GULP energy -178337.072200 kJ/mol
# GULP energy per Si atom -5573.033506 kJ/mol
# Density = 0.923818 g / cm^3
# Si number density = 9.259259 Si / 1000 Ang^3
#
#
#
# Elastic Constant Matrix: (Units=GPa)
#
#
# Indices 1 2 3 4 5 6 
#
# 1 144.3639 56.6996 44.4067 0.0319 -3.1561 0.0145
# 2 56.6996 122.1303 44.7301 0.1208 -0.7931 -0.0468
# 3 44.4067 44.7301 92.3762 0.0182 9.4053 -0.0292
# 4 0.0319 0.1208 0.0182 35.7756 0.0046 -1.7242
# 5 -3.1561 -0.7931 9.4053 0.0046 34.8228 -0.0171
# 6 0.0145 -0.0468 -0.0292 -1.7242 -0.0171 33.1993
#
#
#
# Elastic Compliance Matrix: (Units=1/GPa)
#
#
# Indices 1 2 3 4 5 6 
#
# 1 0.009117 -0.003110 -0.003037 0.000003 0.001576 -0.000010
# 2 -0.003110 0.011098 -0.003986 -0.000032 0.001047 0.000012
# 3 -0.003037 -0.003986 0.014656 0.000010 -0.004324 0.000007
# 4 0.000003 -0.000032 0.000010 0.028022 -0.000006 0.001455
# 5 0.001576 0.001047 -0.004324 -0.000006 0.030051 0.000012
# 6 -0.000010 0.000012 0.000007 0.001455 0.000012 0.030197
#
#
# Mechanical properties :
#
#
# Convention : Reuss Voigt Hill
#
# Bulk Modulus (GPa) = 68.46858 72.28258 70.37558
# Shear Modulus (GPa) = 33.72093 34.96179 34.34136
#
# Velocity S-wave (km/s) = 4.27187 4.34975 4.31099
# Velocity P-wave (km/s) = 7.83486 8.02150 7.92873
#
# Compressibility (1/GPa) = 0.01460524
#
# Stress axis : x y z
#
# Youngs Moduli (GPa) = 109.68335 90.10310 68.23360
#
# Poissons Ratio (x) = 0.28023 0.20724
# Poissons Ratio (y) = 0.34112 0.27195
# Poissons Ratio (z) = 0.33314 0.35911
#
# Static dielectric constant tensor:
#      x y z
#    x 1.663460 -0.000010 -0.007820 
#    y -0.000010 1.657380 0.000050 
#    z -0.007820 0.000050 1.670210 
# 
# From -- ./inp_files/271193.got.cif
#   From: 2010.05.17/outbox.ucp.g08.bks.cvg/sg15_136_cif.got.tgz:271193.got - 2010.06.11 12:40:34.
