data_PCOD9309880
_publ_section_title
;
Structure prediction by ZEFSAII (Michael W. Deem and Ramdas Pophale) SiO2 
 PCOD9309880
Probable space group: C 2/C
;
_chemical_formula_sum "Si O2"
_cell_formula_units_Z 28
_cell_length_a 15.000000
_cell_length_b 9.000000
_cell_length_c 24.000000
_cell_angle_alpha 90.000000
_cell_angle_beta 120.000000
_cell_angle_gamma 90.000000
_cell_volume 2805.922308
_symmetry_space_group_name_H-M "C 2/C"
_symmetry_group_IT_number 15
_symmetry_cell_setting 'monoclinic'
loop_
_space_group_symop_operation_xyz
x,y,z
-x,y,1/2-z
-x,-y,-z
x,-y,1/2+z
1/2+x,1/2+y,z
1/2-x,1/2+y,1/2-z
1/2-x,1/2-y,-z
1/2+x,1/2-y,1/2+z
loop_
_atom_site_type_symbol
_atom_site_label
_atom_site_fract_x
_atom_site_fract_y
_atom_site_fract_z
Si Si1 0.100578 0.397650 0.018267
Si Si2 0.891776 0.270319 0.244977
Si Si3 0.728356 0.572232 0.500301
Si Si4 0.482848 0.387276 0.077664
Si Si5 0.803827 0.278871 0.334978
Si Si6 0.415972 0.585162 0.767637
Si Si7 0.714378 0.450445 0.124070
O O1 0.149265 0.342904 0.092624
O O2 0.190865 0.488115 0.014678
O O3 0.066445 0.259137 0.967462
O O4 0.000000 0.500000 0.000000
O O5 0.878992 0.312740 0.306174
O O6 0.792326 0.335362 0.179927
O O7 0.000000 0.318475 0.250000
O O8 0.896239 0.090465 0.249869
O O9 0.750000 0.750000 0.500000
O O10 0.610281 0.511214 0.452010
O O11 0.751551 0.532298 0.572097
O O12 0.530755 0.383218 0.155626
O O13 0.592081 0.412108 0.079861
O O14 0.693385 0.339874 0.279883
O O15 0.787394 0.103534 0.341710
O O16 0.500000 0.639659 0.750000
#
# Coordination Sequence:
#
# PCOD9309880 Si02
#       7
#     8   8   8   8   8   8   8
#     4  12  30  47  77 108 151 202 254 312 382 459
#     4  11  26  47  73 109 144 196 252 305 370 455
#     4  12  29  48  77 109 148 194 257 317 379 454
#     4  12  25  51  74 110 150 199 253 311 383 451
#     4  12  25  50  69 110 150 194 249 308 376 448
#     4  11  26  44  78 103 149 196 250 311 377 447
#     4  12  27  45  76 107 150 196 245 315 377 448
#
# _framework density 9.9788940000000004
#
# number of rings (size 3 to 8) (size 9 to 14) (size 15 to 20)
#    0.000    0.286    4.286    2.571   14.000    1.714 
#    0.000    0.000    0.000    0.000    0.000    0.000 
#    0.000    0.000    0.000    0.000    0.000    0.000 
#
# Total GULP energy -156398.476835 kJ/mol
# GULP energy per Si atom -5585.659887 kJ/mol
# Density = 0.995618 g / cm^3
# Si number density = 9.978894 Si / 1000 Ang^3
#
#
#
# Elastic Constant Matrix: (Units=GPa)
#
#
# Indices 1 2 3 4 5 6 
#
# 1 176.4663 60.0519 66.6907 0.0000 0.0405 0.0000
# 2 60.0519 110.5783 62.0622 0.0000 17.5326 0.0000
# 3 66.6907 62.0622 178.5999 0.0000 4.0832 0.0000
# 4 0.0000 0.0000 0.0000 42.8574 0.0000 7.9111
# 5 0.0405 17.5326 4.0832 0.0000 52.8502 0.0000
# 6 0.0000 0.0000 0.0000 7.9111 0.0000 43.4598
#
#
#
# Elastic Compliance Matrix: (Units=1/GPa)
#
#
# Indices 1 2 3 4 5 6 
#
# 1 0.007410 -0.003290 -0.001652 0.000000 0.001213 0.000000
# 2 -0.003290 0.013352 -0.003316 0.000000 -0.004171 0.000000
# 3 -0.001652 -0.003316 0.007356 0.000000 0.000533 0.000000
# 4 0.000000 0.000000 0.000000 0.024144 0.000000 -0.004395
# 5 0.001213 -0.004171 0.000533 0.000000 0.020263 0.000000
# 6 0.000000 0.000000 0.000000 -0.004395 0.000000 0.023810
#
#
# Mechanical properties :
#
#
# Convention : Reuss Voigt Hill
#
# Bulk Modulus (GPa) = 86.17915 93.69490 89.93702
# Shear Modulus (GPa) = 42.83814 46.28947 44.56381
#
# Velocity S-wave (km/s) = 4.63799 4.82121 4.73049
# Velocity P-wave (km/s) = 8.48267 8.83405 8.66015
#
# Compressibility (1/GPa) = 0.01160373
#
# Stress axis : x y z
#
# Youngs Moduli (GPa) = 134.94934 74.89328 135.94386
#
# Poissons Ratio (x) = 0.24637 0.22453
# Poissons Ratio (y) = 0.44393 0.45080
# Poissons Ratio (z) = 0.22289 0.24835
#
# Static dielectric constant tensor:
#      x y z
#    x 1.734480 0.000000 -0.038260 
#    y 0.000000 1.727620 0.000000 
#    z -0.038260 0.000000 1.690810 
# 
# From -- ./inp_files/273242.got.cif
#   From: 2010.05.17/outbox.ucp.g08.bks.cvg/sg15_137_cif.got.tgz:273242.got - 2010.06.11 12:40:34.
