data_PCOD9309092
_publ_section_title
;
Structure prediction by ZEFSAII (Michael W. Deem and Ramdas Pophale) SiO2 
 PCOD9309092
Probable space group: C 2/C
;
_chemical_formula_sum "Si O2"
_cell_formula_units_Z 30
_cell_length_a 12.000000
_cell_length_b 30.000000
_cell_length_c 9.000000
_cell_angle_alpha 90.000000
_cell_angle_beta 110.000000
_cell_angle_gamma 90.000000
_cell_volume 3044.604091
_symmetry_space_group_name_H-M "C 2/C"
_symmetry_group_IT_number 15
_symmetry_cell_setting 'monoclinic'
loop_
_space_group_symop_operation_xyz
x,y,z
-x,y,1/2-z
-x,-y,-z
x,-y,1/2+z
1/2+x,1/2+y,z
1/2-x,1/2+y,1/2-z
1/2-x,1/2-y,-z
1/2+x,1/2-y,1/2+z
loop_
_atom_site_type_symbol
_atom_site_label
_atom_site_fract_x
_atom_site_fract_y
_atom_site_fract_z
Si Si1 0.824328 0.285391 0.125258
Si Si2 0.263078 0.877381 0.675527
Si Si3 0.021227 0.842182 0.437721
Si Si4 0.705369 0.378542 0.997241
Si Si5 0.091594 0.548490 0.421037
Si Si6 0.000000 0.320262 0.750000
Si Si7 0.049017 0.740153 0.544055
Si Si8 0.908981 0.551600 0.574880
O O1 0.837711 0.266519 0.298267
O O2 0.947315 0.283689 0.093409
O O3 0.750000 0.250000 0.000000
O O4 0.770536 0.334238 0.087717
O O5 0.156289 0.856499 0.532141
O O6 0.208176 0.879835 0.817593
O O7 0.305189 0.921778 0.604485
O O8 0.386228 0.849725 0.745396
O O9 0.014335 0.791266 0.496193
O O10 0.000000 0.843233 0.250000
O O11 0.924505 0.872828 0.484215
O O12 0.793146 0.420356 0.067891
O O13 0.127892 0.498790 0.492942
O O14 0.000000 0.539104 0.250000
O O15 0.000311 0.571983 0.494298
O O16 0.945653 0.287807 0.601870
O O17 0.000000 0.549494 0.750000
#
# Coordination Sequence:
#
# PCOD9309092 Si02
#       8
#     8   8   8   8   8   4   8   8
#     4  11  23  40  66  93 130 180 229 274 322 397
#     4  12  25  43  71  96 136 172 223 278 330 407
#     4  12  29  45  63  94 136 182 226 272 330 400
#     4  12  24  44  65  98 133 179 224 266 341 398
#     4  10  20  44  67 106 133 166 213 276 337 392
#     4  12  24  40  70 102 126 174 224 288 342 384
#     4  11  25  41  62  93 135 173 226 282 333 389
#     4  10  23  38  73 102 138 169 211 275 336 395
#
# _framework density 9.8534980000000001
#
# number of rings (size 3 to 8) (size 9 to 14) (size 15 to 20)
#    0.000    0.800    5.333    1.200    7.467    0.533 
#    0.000    0.667    0.000    0.000    0.000    0.000 
#    0.000    0.000    0.000    0.000    0.000    0.000 
#
# Total GULP energy -167133.569795 kJ/mol
# GULP energy per Si atom -5571.118993 kJ/mol
# Density = 0.983107 g / cm^3
# Si number density = 9.853498 Si / 1000 Ang^3
#
#
#
# Elastic Constant Matrix: (Units=GPa)
#
#
# Indices 1 2 3 4 5 6 
#
# 1 98.2497 43.0798 26.9978 0.0000 -1.3179 0.0000
# 2 43.0798 92.7236 19.6138 0.0000 5.4603 0.0000
# 3 26.9978 19.6138 120.4721 0.0000 -1.6717 0.0000
# 4 0.0000 0.0000 0.0000 26.0739 0.0000 2.5410
# 5 -1.3179 5.4603 -1.6717 0.0000 35.6292 0.0000
# 6 0.0000 0.0000 0.0000 2.5410 0.0000 37.1008
#
#
#
# Elastic Compliance Matrix: (Units=1/GPa)
#
#
# Indices 1 2 3 4 5 6 
#
# 1 0.013306 -0.005832 -0.002015 0.000000 0.001291 0.000000
# 2 -0.005832 0.013842 -0.000980 0.000000 -0.002383 0.000000
# 3 -0.002015 -0.000980 0.008918 0.000000 0.000494 0.000000
# 4 0.000000 0.000000 0.000000 0.038610 0.000000 -0.002644
# 5 0.001291 -0.002383 0.000494 0.000000 0.028503 0.000000
# 6 0.000000 0.000000 0.000000 -0.002644 0.000000 0.027135
#
#
# Mechanical properties :
#
#
# Convention : Reuss Voigt Hill
#
# Bulk Modulus (GPa) = 54.30606 54.53646 54.42126
# Shear Modulus (GPa) = 32.44539 34.54438 33.49489
#
# Velocity S-wave (km/s) = 4.06197 4.19131 4.12715
# Velocity P-wave (km/s) = 7.04387 7.15237 7.09833
#
# Compressibility (1/GPa) = 0.01841415
#
# Stress axis : x y z
#
# Youngs Moduli (GPa) = 75.15268 72.24432 112.12672
#
# Poissons Ratio (x) = 0.42133 0.22588
# Poissons Ratio (y) = 0.43830 0.10985
# Poissons Ratio (z) = 0.15140 0.07078
#
# Static dielectric constant tensor:
#      x y z
#    x 1.713460 0.000000 -0.021720 
#    y 0.000000 1.724850 0.000000 
#    z -0.021720 0.000000 1.626940 
# 
# From -- ./inp_files/35729.got.cif
#   From: 2010.05.17/outbox.ucp.g08.bks.cvg/sg15_18_cif.got.tgz:35729.got - 2010.06.11 12:40:34.
