data_PCOD9309363
_publ_section_title
;
Structure prediction by ZEFSAII (Michael W. Deem and Ramdas Pophale) SiO2 
 PCOD9309363
Probable space group: C 2/C
;
_chemical_formula_sum "Si O2"
_cell_formula_units_Z 30
_cell_length_a 15.000000
_cell_length_b 27.000000
_cell_length_c 15.000000
_cell_angle_alpha 90.000000
_cell_angle_beta 30.000000
_cell_angle_gamma 90.000000
_cell_volume 3037.500000
_symmetry_space_group_name_H-M "C 2/C"
_symmetry_group_IT_number 15
_symmetry_cell_setting 'monoclinic'
loop_
_space_group_symop_operation_xyz
x,y,z
-x,y,1/2-z
-x,-y,-z
x,-y,1/2+z
1/2+x,1/2+y,z
1/2-x,1/2+y,1/2-z
1/2-x,1/2-y,-z
1/2+x,1/2-y,1/2+z
loop_
_atom_site_type_symbol
_atom_site_label
_atom_site_fract_x
_atom_site_fract_y
_atom_site_fract_z
Si Si1 0.500000 0.879715 0.750000
Si Si2 0.016777 0.414495 0.540037
Si Si3 0.421698 0.443249 0.161318
Si Si4 0.423892 0.297424 0.060821
Si Si5 0.648026 0.552557 0.284558
Si Si6 0.364716 0.657595 0.289030
Si Si7 0.601545 0.348955 0.076502
Si Si8 0.496540 0.186868 0.550736
O O1 0.514318 0.912763 0.648849
O O2 0.684826 0.848983 0.598938
O O3 0.852419 0.446711 0.644440
O O4 0.985130 0.358373 0.534062
O O5 0.214662 0.427594 0.336010
O O6 0.411318 0.499847 0.202281
O O7 0.536574 0.405873 0.121021
O O8 0.516807 0.439800 0.982605
O O9 0.516200 0.321571 0.066520
O O10 0.211368 0.310152 0.238555
O O11 0.542230 0.317591 0.877006
O O12 0.451243 0.238663 0.038830
O O13 0.636966 0.598764 0.228098
O O14 0.500000 0.669815 0.250000
O O15 0.160058 0.675937 0.477879
O O16 0.500000 0.328320 0.250000
#
# Coordination Sequence:
#
# PCOD9309363 Si02
#       8
#     4   8   8   8   8   8   8   8
#     4  12  22  36  60  90 130 170 206 254 312 368
#     4  11  21  40  61  90 126 168 205 258 308 374
#     4  11  20  38  66  89 123 166 212 250 307 373
#     4  12  23  44  65  93 125 167 209 258 314 379
#     4  10  22  39  65  91 121 169 207 255 317 371
#     4  11  24  43  65  93 128 162 207 267 318 369
#     4  12  23  41  65  92 131 169 208 261 310 370
#     4  11  23  42  68  88 126 166 210 258 319 373
#
# _framework density 9.8765429999999999
#
# number of rings (size 3 to 8) (size 9 to 14) (size 15 to 20)
#    0.000    0.800    6.667    1.200    0.000    1.600 
#    1.200    1.333    0.000    0.000    0.000    0.000 
#    0.000    0.000    0.000    0.000    0.000    0.000 
#
# Total GULP energy -167475.651585 kJ/mol
# GULP energy per Si atom -5582.521720 kJ/mol
# Density = 0.985406 g / cm^3
# Si number density = 9.876543 Si / 1000 Ang^3
#
#
#
# Elastic Constant Matrix: (Units=GPa)
#
#
# Indices 1 2 3 4 5 6 
#
# 1 88.2780 5.4546 27.2030 0.0193 -25.6709 0.3115
# 2 5.4546 88.5322 -8.1929 0.0131 -11.0046 0.2781
# 3 27.2030 -8.1929 99.6300 0.0282 -50.5689 0.6287
# 4 0.0193 0.0131 0.0282 24.4902 -0.0029 4.9832
# 5 -25.6709 -11.0046 -50.5689 -0.0029 37.4542 -0.2867
# 6 0.3115 0.2781 0.6287 4.9832 -0.2867 196.1251
#
#
#
# Elastic Compliance Matrix: (Units=1/GPa)
#
#
# Indices 1 2 3 4 5 6 
#
# 1 0.014690 0.001627 0.004690 -0.000013 0.016879 -0.000016
# 2 0.001627 0.014810 0.011275 -0.000014 0.020690 -0.000029
# 3 0.004690 0.011275 0.041299 -0.000037 0.062286 -0.000064
# 4 -0.000013 -0.000014 -0.000037 0.041045 -0.000067 -0.001043
# 5 0.016879 0.020690 0.062286 -0.000067 0.128443 -0.000066
# 6 -0.000016 -0.000029 -0.000064 -0.001043 -0.000066 0.005125
#
#
# Mechanical properties :
#
#
# Convention : Reuss Voigt Hill
#
# Bulk Modulus (GPa) = 9.43537 36.15217 22.79377
# Shear Modulus (GPa) = 20.36194 68.41226 44.38710
#
# Velocity S-wave (km/s) = 3.21413 5.89143 4.74550
# Velocity P-wave (km/s) = 4.30827 8.03867 6.44909
#
# Compressibility (1/GPa) = 0.10598423
#
# Stress axis : x y z
#
# Youngs Moduli (GPa) = 68.07135 67.52034 24.21379
#
# Poissons Ratio (x) = -0.10986 -0.11356
# Poissons Ratio (y) = -0.11075 -0.27302
# Poissons Ratio (z) = -0.31925 -0.76131
#
# Static dielectric constant tensor:
#      x y z
#    x 1.718940 0.000000 0.009770 
#    y 0.000000 1.720960 -0.000010 
#    z 0.009770 -0.000010 1.690880 
# 
# From -- ./inp_files/157329.got.cif
#   From: 2010.05.17/outbox.ucp.g08.bks.cvg/sg15_79_cif.got.tgz:157329.got - 2010.06.11 12:40:34.
