data_PCOD9309405
_publ_section_title
;
Structure prediction by ZEFSAII (Michael W. Deem and Ramdas Pophale) SiO2 
 PCOD9309405
Probable space group: C 2/C
;
_chemical_formula_sum "Si O2"
_cell_formula_units_Z 28
_cell_length_a 15.000000
_cell_length_b 21.000000
_cell_length_c 18.000000
_cell_angle_alpha 90.000000
_cell_angle_beta 30.000000
_cell_angle_gamma 90.000000
_cell_volume 2835.000000
_symmetry_space_group_name_H-M "C 2/C"
_symmetry_group_IT_number 15
_symmetry_cell_setting 'monoclinic'
loop_
_space_group_symop_operation_xyz
x,y,z
-x,y,1/2-z
-x,-y,-z
x,-y,1/2+z
1/2+x,1/2+y,z
1/2-x,1/2+y,1/2-z
1/2-x,1/2-y,-z
1/2+x,1/2-y,1/2+z
loop_
_atom_site_type_symbol
_atom_site_label
_atom_site_fract_x
_atom_site_fract_y
_atom_site_fract_z
Si Si1 0.034630 0.658848 0.512240
Si Si2 0.706530 0.554460 0.125838
Si Si3 0.513996 0.986060 0.824081
Si Si4 0.840820 0.348707 0.821789
Si Si5 0.783244 0.251201 0.742973
Si Si6 0.727167 0.044977 0.800690
Si Si7 0.009286 0.139494 0.654154
O O1 0.187580 0.622108 0.449350
O O2 0.128508 0.706087 0.385476
O O3 0.884069 0.705483 0.657594
O O4 0.919636 0.597636 0.564161
O O5 0.500000 0.558810 0.250000
O O6 0.737410 0.521890 0.183872
O O7 0.819532 0.502898 0.996863
O O8 0.500000 0.008520 0.750000
O O9 0.578274 0.912535 0.774045
O O10 0.653316 0.026209 0.773264
O O11 0.739707 0.304301 0.836569
O O12 0.000000 0.313274 0.750000
O O13 0.709178 0.366505 0.982593
O O14 0.921191 0.203826 0.684890
O O15 0.906357 0.083253 0.685741
O O16 0.000000 0.135603 0.750000
#
# Coordination Sequence:
#
# PCOD9309405 Si02
#       7
#     8   8   8   8   8   8   8
#     4  10  22  41  65  94 125 169 219 267 322 382
#     4  11  23  43  68  95 128 176 216 269 327 389
#     4  10  23  42  63  97 128 165 216 273 322 380
#     4  11  24  36  59  92 135 165 211 266 321 381
#     4  11  21  41  63  89 129 173 218 263 318 386
#     4  10  22  41  69  91 132 169 218 260 329 389
#     4  11  25  38  60  98 133 177 213 256 324 399
#
# _framework density 9.8765429999999999
#
# number of rings (size 3 to 8) (size 9 to 14) (size 15 to 20)
#    0.000    1.429    1.429    4.286   12.000    1.714 
#    2.571    0.714    0.000    3.429    0.000    0.000 
#    0.000    0.000    0.000    0.000    0.000    0.000 
#
# Total GULP energy -155980.940763 kJ/mol
# GULP energy per Si atom -5570.747884 kJ/mol
# Density = 0.985406 g / cm^3
# Si number density = 9.876543 Si / 1000 Ang^3
#
#
#
# Elastic Constant Matrix: (Units=GPa)
#
#
# Indices 1 2 3 4 5 6 
#
# 1 102.6315 37.7903 36.4318 -0.0265 -11.8668 0.0207
# 2 37.7903 112.4021 25.9265 0.0329 -8.0166 0.0381
# 3 36.4318 25.9265 74.0185 0.0082 -24.1712 0.0590
# 4 -0.0265 0.0329 0.0082 3.2303 0.0251 -16.5205
# 5 -11.8668 -8.0166 -24.1712 0.0251 32.2680 -0.0241
# 6 0.0207 0.0381 0.0590 -16.5205 -0.0241 24.8015
#
#
#
# Elastic Compliance Matrix: (Units=1/GPa)
#
#
# Indices 1 2 3 4 5 6 
#
# 1 0.012717 -0.003081 -0.005167 -0.000076 0.000041 -0.000044
# 2 -0.003081 0.010426 -0.002197 0.000070 -0.000189 0.000038
# 3 -0.005167 -0.002197 0.021213 0.000137 0.013444 0.000062
# 4 -0.000076 0.000070 0.000137 -0.128630 0.000129 -0.085682
# 5 0.000041 -0.000189 0.013444 0.000129 0.041029 0.000094
# 6 -0.000044 0.000038 0.000062 -0.085682 0.000094 -0.016753
#
#
# Mechanical properties :
#
#
# Convention : Reuss Voigt Hill
#
# Bulk Modulus (GPa) = 42.61402 54.37213 48.49308
# Shear Modulus (GPa) = -159.80718 24.65352 -67.57683
#
# Velocity S-wave (km/s) = -9.00433 3.53666 -5.85534
# Velocity P-wave (km/s) = 9.29967 6.65304 4.59461
#
# Compressibility (1/GPa) = 0.02346645
#
# Stress axis : x y z
#
# Youngs Moduli (GPa) = 78.63652 95.91678 47.14107
#
# Poissons Ratio (x) = 0.29550 0.24356
# Poissons Ratio (y) = 0.24226 0.10357
# Poissons Ratio (z) = 0.40628 0.21074
#
# Static dielectric constant tensor:
#      x y z
#    x 1.802320 -0.000020 -0.010470 
#    y -0.000020 1.704510 0.000010 
#    z -0.010470 0.000010 1.790250 
# 
# From -- ./inp_files/206929.got.cif
#   From: 2010.05.17/outbox.ucp.g08.bks.cvg/sg15_104_cif.got.tgz:206929.got - 2010.06.11 12:40:34.
