data_PCOD9309543
_publ_section_title
;
Structure prediction by ZEFSAII (Michael W. Deem and Ramdas Pophale) SiO2 
 PCOD9309543
Probable space group: C 2/C
;
_chemical_formula_sum "Si O2"
_cell_formula_units_Z 32
_cell_length_a 18.000000
_cell_length_b 21.000000
_cell_length_c 24.000000
_cell_angle_alpha 90.000000
_cell_angle_beta 160.000000
_cell_angle_gamma 90.000000
_cell_volume 3102.806740
_symmetry_space_group_name_H-M "C 2/C"
_symmetry_group_IT_number 15
_symmetry_cell_setting 'monoclinic'
loop_
_space_group_symop_operation_xyz
x,y,z
-x,y,1/2-z
-x,-y,-z
x,-y,1/2+z
1/2+x,1/2+y,z
1/2-x,1/2+y,1/2-z
1/2-x,1/2-y,-z
1/2+x,1/2-y,1/2+z
loop_
_atom_site_type_symbol
_atom_site_label
_atom_site_fract_x
_atom_site_fract_y
_atom_site_fract_z
Si Si1 0.290783 0.006165 0.310817
Si Si2 0.486825 0.578577 0.804657
Si Si3 0.641284 0.819552 0.907554
Si Si4 0.144317 0.603191 0.723211
Si Si5 0.499053 0.624103 0.429557
Si Si6 0.624008 0.790113 0.678811
Si Si7 0.833163 0.317334 0.083238
Si Si8 0.821317 0.675560 0.868815
O O1 0.092842 0.972317 0.205566
O O2 0.354986 0.968970 0.299246
O O3 0.500000 0.000000 0.500000
O O4 0.188467 0.073663 0.220144
O O5 0.500000 0.554549 0.750000
O O6 0.287655 0.628261 0.664075
O O7 0.688313 0.621481 0.969099
O O8 0.500000 0.815213 0.750000
O O9 0.483030 0.832201 0.848405
O O10 0.750000 0.750000 0.000000
O O11 0.121775 0.638705 0.647425
O O12 0.957243 0.636839 0.627309
O O13 0.358111 0.609382 0.914220
O O14 0.371989 0.689727 0.348323
O O15 0.654234 0.638453 0.486871
O O16 0.635745 0.721458 0.714821
O O17 0.506834 0.791780 0.536656
O O18 0.000000 0.299858 0.250000
O O19 0.750000 0.250000 0.000000
#
# Coordination Sequence:
#
# PCOD9309543 Si02
#       8
#     8   8   8   8   8   8   8   8
#     4  11  26  45  67  94 127 172 228 269 331 388
#     4  11  23  43  63  92 131 171 213 270 318 386
#     4  12  24  39  63  98 136 173 216 259 323 395
#     4  10  23  44  69  91 131 169 218 277 331 391
#     4  11  24  44  66  97 129 171 223 277 326 394
#     4  12  23  37  63  94 138 170 218 264 324 386
#     4  10  23  43  68 100 131 168 216 273 337 393
#     4  11  22  37  61  97 130 175 214 259 328 391
#
# _framework density 10.313243
#
# number of rings (size 3 to 8) (size 9 to 14) (size 15 to 20)
#    0.000    1.000    2.500    4.500    3.500    5.000 
#    0.000    0.625    0.000    0.000    0.000    0.000 
#    0.000    0.000    0.000    0.000    0.000    0.000 
#
# Total GULP energy -178275.292370 kJ/mol
# GULP energy per Si atom -5571.102887 kJ/mol
# Density = 1.028977 g / cm^3
# Si number density = 10.313243 Si / 1000 Ang^3
#
#
#
# Elastic Constant Matrix: (Units=GPa)
#
#
# Indices 1 2 3 4 5 6 
#
# 1 105.5697 19.6505 44.3359 0.0247 -10.6704 0.0042
# 2 19.6505 49.3178 6.9407 -0.0529 -3.4515 -0.0032
# 3 44.3359 6.9407 91.7361 -0.1088 -23.6145 -0.0268
# 4 0.0247 -0.0529 -0.1088 34.0410 -0.0095 -4.7434
# 5 -10.6704 -3.4515 -23.6145 -0.0095 42.4183 0.0212
# 6 0.0042 -0.0032 -0.0268 -4.7434 0.0212 23.4886
#
#
#
# Elastic Compliance Matrix: (Units=1/GPa)
#
#
# Indices 1 2 3 4 5 6 
#
# 1 0.012714 -0.004262 -0.005939 -0.000037 -0.000455 -0.000017
# 2 -0.004262 0.021956 0.000680 0.000041 0.001093 0.000012
# 3 -0.005939 0.000680 0.015583 0.000061 0.007236 0.000025
# 4 -0.000037 0.000041 0.000061 0.030227 0.000031 0.006104
# 5 -0.000455 0.001093 0.007236 0.000031 0.027578 -0.000010
# 6 -0.000017 0.000012 0.000025 0.006104 -0.000010 0.043807
#
#
# Mechanical properties :
#
#
# Convention : Reuss Voigt Hill
#
# Bulk Modulus (GPa) = 32.04118 43.16421 37.60269
# Shear Modulus (GPa) = 27.57711 31.70268 29.63989
#
# Velocity S-wave (km/s) = 3.66043 3.92470 3.79487
# Velocity P-wave (km/s) = 5.78211 6.44280 6.12137
#
# Compressibility (1/GPa) = 0.03120984
#
# Stress axis : x y z
#
# Youngs Moduli (GPa) = 78.65273 45.54637 64.17365
#
# Poissons Ratio (x) = 0.19411 0.38116
# Poissons Ratio (y) = 0.33521 -0.04364
# Poissons Ratio (z) = 0.46715 -0.03097
#
# Static dielectric constant tensor:
#      x y z
#    x 1.812190 0.000000 0.092390 
#    y 0.000000 1.806600 -0.000060 
#    z 0.092390 -0.000060 1.788410 
# 
# From -- ./inp_files/278164.got.cif
#   From: 2010.05.17/outbox.ucp.g08.bks.cvg/sg15_140_cif.got.tgz:278164.got - 2010.06.11 12:40:34.
