data_PCOD9309776
_publ_section_title
;
Structure prediction by ZEFSAII (Michael W. Deem and Ramdas Pophale) SiO2 
 PCOD9309776
Probable space group: C 2/C
;
_chemical_formula_sum "Si O2"
_cell_formula_units_Z 32
_cell_length_a 15.000000
_cell_length_b 30.000000
_cell_length_c 21.000000
_cell_angle_alpha 90.000000
_cell_angle_beta 160.000000
_cell_angle_gamma 90.000000
_cell_volume 3232.090354
_symmetry_space_group_name_H-M "C 2/C"
_symmetry_group_IT_number 15
_symmetry_cell_setting 'monoclinic'
loop_
_space_group_symop_operation_xyz
x,y,z
-x,y,1/2-z
-x,-y,-z
x,-y,1/2+z
1/2+x,1/2+y,z
1/2-x,1/2+y,1/2-z
1/2-x,1/2-y,-z
1/2+x,1/2-y,1/2+z
loop_
_atom_site_type_symbol
_atom_site_label
_atom_site_fract_x
_atom_site_fract_y
_atom_site_fract_z
Si Si1 0.134402 0.874419 0.699567
Si Si2 0.053699 0.048220 0.861379
Si Si3 0.174838 0.945507 0.930984
Si Si4 0.394698 0.295590 0.109254
Si Si5 0.519925 0.878678 0.839144
Si Si6 0.439899 0.900474 0.402033
Si Si7 0.681704 0.715026 0.548337
Si Si8 0.682177 0.800862 0.218256
O O1 0.274765 0.879911 0.724089
O O2 0.915522 0.910301 0.575554
O O3 0.986243 0.825606 0.597732
O O4 0.363563 0.885640 0.906816
O O5 0.814037 0.073810 0.737699
O O6 0.000000 0.050266 0.750000
O O7 0.113595 0.995707 0.914858
O O8 0.317104 0.075908 0.047122
O O9 0.000000 0.939680 0.750000
O O10 0.447346 0.932831 0.078693
O O11 0.500000 0.293434 0.250000
O O12 0.622951 0.297978 0.210587
O O13 0.250000 0.250000 0.000000
O O14 0.202510 0.337548 0.981068
O O15 0.500000 0.871285 0.750000
O O16 0.401283 0.852744 0.341143
O O17 0.546128 0.762860 0.440211
O O18 0.666588 0.708190 0.614363
O O19 0.000000 0.713937 0.750000
#
# Coordination Sequence:
#
# PCOD9309776 Si02
#       8
#     8   8   8   8   8   8   8   8
#     4  11  23  43  66  98 131 177 218 279 329 392
#     4  11  22  42  69 100 129 177 219 277 341 394
#     4   9  23  39  68  99 130 170 220 277 334 397
#     4  12  23  40  63  95 129 170 216 272 332 394
#     4  12  24  41  63  94 132 172 220 270 332 397
#     4  11  22  42  70 100 138 168 227 279 334 402
#     4  12  26  44  67  95 137 181 225 270 326 395
#     4  12  24  42  65  97 132 179 223 271 331 390
#
# _framework density 9.9007129999999997
#
# number of rings (size 3 to 8) (size 9 to 14) (size 15 to 20)
#    0.000    0.750    2.500    5.625    1.750    3.000 
#    0.000    2.500    0.000    0.000    0.000    0.000 
#    0.000    0.000    0.000    0.000    0.000    0.000 
#
# Total GULP energy -178413.525933 kJ/mol
# GULP energy per Si atom -5575.422685 kJ/mol
# Density = 0.987818 g / cm^3
# Si number density = 9.900713 Si / 1000 Ang^3
#
#
#
# Elastic Constant Matrix: (Units=GPa)
#
#
# Indices 1 2 3 4 5 6 
#
# 1 119.8252 53.6761 36.0731 0.0156 15.9939 0.0030
# 2 53.6761 161.7480 41.7354 0.0159 13.0971 0.0025
# 3 36.0731 41.7354 51.8778 0.0066 10.9291 -0.0007
# 4 0.0156 0.0159 0.0066 63.5197 0.0130 5.9013
# 5 15.9939 13.0971 10.9291 0.0130 55.6703 0.0018
# 6 0.0030 0.0025 -0.0007 5.9013 0.0018 42.1540
#
#
#
# Elastic Compliance Matrix: (Units=1/GPa)
#
#
# Indices 1 2 3 4 5 6 
#
# 1 0.011246 -0.002110 -0.005786 -0.000001 -0.001599 -0.000001
# 2 -0.002110 0.008219 -0.005075 -0.000001 -0.000331 0.000000
# 3 -0.005786 -0.005075 0.027936 0.000000 -0.002628 0.000001
# 4 -0.000001 -0.000001 0.000000 0.015951 -0.000003 -0.002233
# 5 -0.001599 -0.000331 -0.002628 -0.000003 0.019016 0.000000
# 6 -0.000001 0.000000 0.000001 -0.002233 0.000000 0.024035
#
#
# Mechanical properties :
#
#
# Convention : Reuss Voigt Hill
#
# Bulk Modulus (GPa) = 46.60025 66.26891 56.43458
# Shear Modulus (GPa) = 35.84313 45.73322 40.78817
#
# Velocity S-wave (km/s) = 4.25918 4.81104 4.54349
# Velocity P-wave (km/s) = 6.91175 8.02501 7.48910
#
# Compressibility (1/GPa) = 0.02145911
#
# Stress axis : x y z
#
# Youngs Moduli (GPa) = 88.92340 121.67045 35.79616
#
# Poissons Ratio (x) = 0.25667 0.20711
# Poissons Ratio (y) = 0.18759 0.18168
# Poissons Ratio (z) = 0.51448 0.61753
#
# Static dielectric constant tensor:
#      x y z
#    x 1.686340 -0.000020 0.000740 
#    y -0.000020 1.677400 0.000240 
#    z 0.000740 0.000240 1.787630 
# 
# From -- ./inp_files/246006.got.cif
#   From: 2010.05.17/outbox.ucp.g08.bks.cvg/sg15_124_cif.got.tgz:246006.got - 2010.06.11 12:40:34.
