data_PCOD9309379
_publ_section_title
;
Structure prediction by ZEFSAII (Michael W. Deem and Ramdas Pophale) SiO2 
 PCOD9309379
Probable space group: C 2/C
;
_chemical_formula_sum "Si O2"
_cell_formula_units_Z 30
_cell_length_a 12.000000
_cell_length_b 30.000000
_cell_length_c 18.000000
_cell_angle_alpha 90.000000
_cell_angle_beta 150.000000
_cell_angle_gamma 90.000000
_cell_volume 3240.000000
_symmetry_space_group_name_H-M "C 2/C"
_symmetry_group_IT_number 15
_symmetry_cell_setting 'monoclinic'
loop_
_space_group_symop_operation_xyz
x,y,z
-x,y,1/2-z
-x,-y,-z
x,-y,1/2+z
1/2+x,1/2+y,z
1/2-x,1/2+y,1/2-z
1/2-x,1/2-y,-z
1/2+x,1/2-y,1/2+z
loop_
_atom_site_type_symbol
_atom_site_label
_atom_site_fract_x
_atom_site_fract_y
_atom_site_fract_z
Si Si1 0.807902 0.878035 0.198912
Si Si2 0.000000 0.290461 0.750000
Si Si3 0.789581 0.727280 0.683414
Si Si4 0.938490 0.149386 0.506592
Si Si5 0.368221 0.778456 0.397068
Si Si6 0.368695 0.435890 0.871491
Si Si7 0.952668 0.540762 0.028429
Si Si8 0.725902 0.998556 0.422048
O O1 0.687080 0.830194 0.121788
O O2 0.000000 0.877945 0.250000
O O3 0.936823 0.876165 0.353109
O O4 0.657958 0.920208 0.086282
O O5 0.205699 0.324153 0.895099
O O6 0.160248 0.254476 0.798924
O O7 0.624876 0.684281 0.585253
O O8 0.603990 0.765954 0.569365
O O9 0.894361 0.728410 0.824975
O O10 0.000000 0.727781 0.750000
O O11 0.886303 0.114402 0.411309
O O12 0.308758 0.464020 0.911445
O O13 0.176049 0.441785 0.698769
O O14 0.594582 0.458796 0.971728
O O15 0.813934 0.521020 0.019865
O O16 0.000000 0.500000 0.000000
O O17 0.500000 0.982186 0.250000
#
# Coordination Sequence:
#
# PCOD9309379 Si02
#       8
#     8   4   8   8   8   8   8   8
#     4  11  24  37  64  95 128 162 206 267 331 377
#     4  10  22  40  66 102 130 154 216 266 330 380
#     4  10  22  41  63  91 127 173 212 247 306 381
#     4  10  24  37  64  95 128 169 211 264 314 392
#     4  10  22  40  66  94 129 166 205 266 321 376
#     4  10  22  42  62  92 120 169 213 251 326 380
#     4  11  26  41  63  94 129 162 215 271 324 372
#     4   9  21  40  67  87 119 166 212 267 314 382
#
# _framework density 9.2592590000000001
#
# number of rings (size 3 to 8) (size 9 to 14) (size 15 to 20)
#    0.000    1.867    0.667    1.200   14.000    3.200 
#    2.400    0.000    0.000    0.000    0.000    0.000 
#    0.000    0.000    0.000    0.000    0.000    0.000 
#
# Total GULP energy -167077.246054 kJ/mol
# GULP energy per Si atom -5569.241535 kJ/mol
# Density = 0.923818 g / cm^3
# Si number density = 9.259259 Si / 1000 Ang^3
#
#
#
# Elastic Constant Matrix: (Units=GPa)
#
#
# Indices 1 2 3 4 5 6 
#
# 1 44.0220 60.4848 40.1643 0.0248 18.9019 0.0183
# 2 60.4848 91.0946 55.6169 0.0072 -20.7563 0.0054
# 3 40.1643 55.6169 96.3709 0.1524 1.0305 0.1129
# 4 0.0248 0.0072 0.1524 -413.9634 0.0565 -336.5898
# 5 18.9019 -20.7563 1.0305 0.0565 29.3188 0.0419
# 6 0.0183 0.0054 0.1129 -336.5898 0.0419 -221.2716
#
#
#
# Elastic Compliance Matrix: (Units=1/GPa)
#
#
# Indices 1 2 3 4 5 6 
#
# 1 -0.022896 0.026754 -0.006260 0.000001 0.033921 0.000001
# 2 0.026754 -0.008243 -0.006149 -0.000002 -0.022867 -0.000002
# 3 -0.006260 -0.006149 0.016544 0.000003 -0.000898 0.000003
# 4 0.000001 -0.000002 0.000003 0.010199 0.000000 -0.015515
# 5 0.033921 -0.022867 -0.000898 0.000000 -0.003919 0.000000
# 6 0.000001 -0.000002 0.000003 -0.015515 0.000000 0.019082
#
#
# Mechanical properties :
#
#
# Convention : Reuss Voigt Hill
#
# Bulk Modulus (GPa) = 70.94904 60.44660 65.69782
# Shear Modulus (GPa) = -378.12010 -116.16848 -247.14429
#
# Velocity S-wave (km/s) = -14.30483 -7.92888 -11.56493
# Velocity P-wave (km/s) = 15.31149 7.14919 11.94891
#
# Compressibility (1/GPa) = 0.01409462
#
# Stress axis : x y z
#
# Youngs Moduli (GPa) = -43.67628 -121.32084 60.44595
#
# Poissons Ratio (x) = 3.24576 0.37841
# Poissons Ratio (y) = 1.16849 0.37166
# Poissons Ratio (z) = -0.27343 -0.74595
#
# Static dielectric constant tensor:
#      x y z
#    x 1.636060 0.000000 -0.003000 
#    y 0.000000 1.701940 0.000000 
#    z -0.003000 0.000000 1.727270 
# 
# From -- ./inp_files/201422.got.cif
#   From: 2010.05.17/outbox.ucp.g08.bks.cvg/sg15_101_cif.got.tgz:201422.got - 2010.06.11 12:40:34.
