data_PCOD9309052
_publ_section_title
;
Structure prediction by ZEFSAII (Michael W. Deem and Ramdas Pophale) SiO2 
 PCOD9309052
Probable space group: C 2/C
;
_chemical_formula_sum "Si O2"
_cell_formula_units_Z 28
_cell_length_a 18.000000
_cell_length_b 21.000000
_cell_length_c 21.000000
_cell_angle_alpha 90.000000
_cell_angle_beta 160.000000
_cell_angle_gamma 90.000000
_cell_volume 2714.955898
_symmetry_space_group_name_H-M "C 2/C"
_symmetry_group_IT_number 15
_symmetry_cell_setting 'monoclinic'
loop_
_space_group_symop_operation_xyz
x,y,z
-x,y,1/2-z
-x,-y,-z
x,-y,1/2+z
1/2+x,1/2+y,z
1/2-x,1/2+y,1/2-z
1/2-x,1/2-y,-z
1/2+x,1/2-y,1/2+z
loop_
_atom_site_type_symbol
_atom_site_label
_atom_site_fract_x
_atom_site_fract_y
_atom_site_fract_z
Si Si1 0.893445 0.829340 0.566794
Si Si2 0.786155 0.323172 0.537311
Si Si3 0.217237 0.118482 0.656743
Si Si4 0.901268 0.505253 0.736373
Si Si5 0.162279 0.319210 0.504262
Si Si6 0.484201 0.592881 0.592137
Si Si7 0.226693 0.928044 0.397891
O O1 0.874971 0.863899 0.485964
O O2 0.840844 0.756063 0.509255
O O3 0.723419 0.848997 0.484777
O O4 0.134631 0.835361 0.788285
O O5 0.750000 0.250000 0.500000
O O6 0.591639 0.351818 0.421880
O O7 0.790316 0.357704 0.472990
O O8 0.000000 0.337244 0.750000
O O9 0.428511 0.160876 0.840566
O O10 0.042473 0.118904 0.570750
O O11 0.307936 0.049403 0.715963
O O12 0.708417 0.457452 0.563330
O O13 0.000000 0.532195 0.750000
O O14 0.096224 0.470472 0.927360
O O15 0.693814 0.564527 0.796624
O O16 0.000000 0.944488 0.250000
#
# Coordination Sequence:
#
# PCOD9309052 Si02
#       7
#     8   8   8   8   8   8   8
#     4  10  20  40  66  85 126 169 218 269 313 382
#     4  11  20  42  69  97 122 171 222 260 317 389
#     4  12  26  39  61 103 131 168 217 260 343 389
#     4  12  22  43  69  89 128 175 220 266 313 388
#     4  10  20  40  64  88 122 174 215 265 319 382
#     4  11  24  43  62  96 136 168 207 277 330 377
#     4  10  20  41  67  89 126 167 215 271 312 375
#
# _framework density 10.313243
#
# number of rings (size 3 to 8) (size 9 to 14) (size 15 to 20)
#    0.000    1.143    5.714    3.000    0.000    2.857 
#    7.714    0.000    0.000    0.000    0.000    0.000 
#    0.000    0.000    0.000    0.000    0.000    0.000 
#
# Total GULP energy -156051.058557 kJ/mol
# GULP energy per Si atom -5573.252091 kJ/mol
# Density = 1.028977 g / cm^3
# Si number density = 10.313243 Si / 1000 Ang^3
#
#
#
# Elastic Constant Matrix: (Units=GPa)
#
#
# Indices 1 2 3 4 5 6 
#
# 1 65.0958 1.6479 31.0037 1.2197 -8.8668 -1.5050
# 2 1.6479 52.6171 30.1302 20.0678 -6.6787 -25.1634
# 3 31.0037 30.1302 115.3458 13.3310 -27.7808 -16.5052
# 4 1.2197 20.0678 13.3310 910.9523 -6.3316-1133.7896
# 5 -8.8668 -6.6787 -27.7808 -6.3316 24.2488 8.0935
# 6 -1.5050 -25.1634 -16.5052-1133.7896 8.0935 1430.1542
#
#
#
# Elastic Compliance Matrix: (Units=1/GPa)
#
#
# Indices 1 2 3 4 5 6 
#
# 1 0.017943 0.002568 -0.005170 0.000031 0.001346 0.000021
# 2 0.002568 0.022881 -0.006770 -0.000088 -0.000625 0.000261
# 3 -0.005170 -0.006770 0.015085 -0.000323 0.013537 -0.000283
# 4 0.000031 -0.000088 -0.000323 0.082569 -0.000672 0.065457
# 5 0.001346 -0.000625 0.013537 -0.000672 0.057129 -0.000709
# 6 0.000021 0.000261 -0.000283 0.065457 -0.000709 0.052597
#
#
# Mechanical properties :
#
#
# Convention : Reuss Voigt Hill
#
# Bulk Modulus (GPa) = 26.90805 39.84692 33.37749
# Shear Modulus (GPa) = 17.89963 484.42286 251.16124
#
# Velocity S-wave (km/s) = 2.94904 15.34160 11.04675
# Velocity P-wave (km/s) = 4.96684 18.25321 13.37627
#
# Compressibility (1/GPa) = 0.03716360
#
# Stress axis : x y z
#
# Youngs Moduli (GPa) = 55.73355 43.70531 66.29176
#
# Poissons Ratio (x) = -0.11222 0.34271
# Poissons Ratio (y) = -0.14311 0.44880
# Poissons Ratio (z) = 0.28813 0.29589
#
# Static dielectric constant tensor:
#      x y z
#    x 1.769670 -0.000500 -0.047450 
#    y -0.000500 2.019960 0.001000 
#    z -0.047450 0.001000 1.786210 
# 
# From -- ./inp_files/250059.got.cif
#   From: 2010.05.17/outbox.ucp.g08.bks.cvg/sg15_126_cif.got.tgz:250059.got - 2010.06.11 12:40:34.
