data_PCOD9309329
_publ_section_title
;
Structure prediction by ZEFSAII (Michael W. Deem and Ramdas Pophale) SiO2 
 PCOD9309329
Probable space group: C 2/C
;
_chemical_formula_sum "Si O2"
_cell_formula_units_Z 32
_cell_length_a 15.000000
_cell_length_b 24.000000
_cell_length_c 18.000000
_cell_angle_alpha 90.000000
_cell_angle_beta 30.000000
_cell_angle_gamma 90.000000
_cell_volume 3240.000000
_symmetry_space_group_name_H-M "C 2/C"
_symmetry_group_IT_number 15
_symmetry_cell_setting 'monoclinic'
loop_
_space_group_symop_operation_xyz
x,y,z
-x,y,1/2-z
-x,-y,-z
x,-y,1/2+z
1/2+x,1/2+y,z
1/2-x,1/2+y,1/2-z
1/2-x,1/2-y,-z
1/2+x,1/2-y,1/2+z
loop_
_atom_site_type_symbol
_atom_site_label
_atom_site_fract_x
_atom_site_fract_y
_atom_site_fract_z
Si Si1 0.033794 0.307155 0.813173
Si Si2 0.308662 0.014148 0.430589
Si Si3 0.380637 0.350868 0.061929
Si Si4 0.998275 0.572107 0.087296
Si Si5 0.134906 0.949833 0.914127
Si Si6 0.816547 0.613649 0.929907
Si Si7 0.092627 0.748050 0.957624
Si Si8 0.041686 0.366809 0.405763
O O1 0.021231 0.369962 0.852740
O O2 0.226181 0.280424 0.690164
O O3 0.000000 0.306174 0.750000
O O4 0.904361 0.270754 0.958597
O O5 0.500000 0.014142 0.250000
O O6 0.343460 0.038995 0.486533
O O7 0.186230 0.050107 0.464284
O O8 0.249636 0.950131 0.477624
O O9 0.319889 0.350092 0.019942
O O10 0.217422 0.374713 0.228743
O O11 0.543402 0.393024 0.955194
O O12 0.435397 0.291009 0.052856
O O13 0.813608 0.540680 0.237336
O O14 0.025526 0.587435 0.982181
O O15 0.000000 0.000000 0.000000
O O16 0.000000 0.614849 0.750000
O O17 0.873808 0.631427 0.970975
O O18 0.062904 0.692510 0.931091
#
# Coordination Sequence:
#
# PCOD9309329 Si02
#       8
#     8   8   8   8   8   8   8   8
#     4  11  21  38  58  86 117 156 194 239 294 358
#     4   9  18  35  58  89 113 157 197 226 289 362
#     4  11  21  39  63  86 116 157 198 249 293 351
#     4  10  22  37  61  85 121 155 195 239 292 354
#     4  11  20  36  62  89 118 153 196 242 287 348
#     4   9  19  37  61  82 114 155 200 237 291 359
#     4  11  22  38  60  86 120 151 198 247 295 348
#     4  10  23  41  58  88 116 156 201 244 297 350
#
# _framework density 9.8765429999999999
#
# number of rings (size 3 to 8) (size 9 to 14) (size 15 to 20)
#    0.000    1.750    3.750    1.500    1.750    1.000 
#    0.000    1.250    0.000    0.000    0.000    0.000 
#    0.000    0.000    0.000    0.000    0.000    0.000 
#
# Total GULP energy -178588.224594 kJ/mol
# GULP energy per Si atom -5580.882019 kJ/mol
# Density = 0.985406 g / cm^3
# Si number density = 9.876543 Si / 1000 Ang^3
#
#
#
# Elastic Constant Matrix: (Units=GPa)
#
#
# Indices 1 2 3 4 5 6 
#
# 1 132.3337 10.0925 13.6197 -0.0117 13.6630 -0.0031
# 2 10.0925 32.3601 -4.5124 -0.0120 0.0745 0.0032
# 3 13.6197 -4.5124 28.0436 -0.0265 2.7593 0.0115
# 4 -0.0117 -0.0120 -0.0265 16.8150 0.0134 -4.3031
# 5 13.6630 0.0745 2.7593 0.0134 26.8523 0.0033
# 6 -0.0031 0.0032 0.0115 -4.3031 0.0033 26.2573
#
#
#
# Elastic Compliance Matrix: (Units=1/GPa)
#
#
# Indices 1 2 3 4 5 6 
#
# 1 0.008664 -0.003300 -0.004350 0.000001 -0.003952 0.000004
# 2 -0.003300 0.032878 0.006805 0.000031 0.000888 -0.000002
# 3 -0.004350 0.006805 0.039045 0.000063 -0.001818 -0.000008
# 4 0.000001 0.000031 0.000063 0.062074 -0.000039 0.010173
# 5 -0.003952 0.000888 -0.001818 -0.000039 0.039436 -0.000011
# 6 0.000004 -0.000002 -0.000008 0.010173 -0.000011 0.039752
#
#
# Mechanical properties :
#
#
# Convention : Reuss Voigt Hill
#
# Bulk Modulus (GPa) = 12.67432 25.68188 19.17810
# Shear Modulus (GPa) = 20.01298 25.55407 22.78353
#
# Velocity S-wave (km/s) = 3.18647 3.60067 3.39988
# Velocity P-wave (km/s) = 4.46860 5.50601 5.01421
#
# Compressibility (1/GPa) = 0.07889968
#
# Stress axis : x y z
#
# Youngs Moduli (GPa) = 115.41953 30.41515 25.61131
#
# Poissons Ratio (x) = 0.10036 0.11140
# Poissons Ratio (y) = 0.38084 -0.17430
# Poissons Ratio (z) = 0.50206 -0.20699
#
# Static dielectric constant tensor:
#      x y z
#    x 1.702170 -0.000010 -0.008850 
#    y -0.000010 1.688600 0.000020 
#    z -0.008850 0.000020 1.703120 
# 
# From -- ./inp_files/207323.got.cif
#   From: 2010.05.17/outbox.ucp.g08.bks.cvg/sg15_104_cif.got.tgz:207323.got - 2010.06.11 12:40:34.
