data_PCOD9309253
_publ_section_title
;
Structure prediction by ZEFSAII (Michael W. Deem and Ramdas Pophale) SiO2 
 PCOD9309253
Probable space group: C 2/C
;
_chemical_formula_sum "Si O2"
_cell_formula_units_Z 24
_cell_length_a 9.000000
_cell_length_b 18.000000
_cell_length_c 30.000000
_cell_angle_alpha 90.000000
_cell_angle_beta 30.000000
_cell_angle_gamma 90.000000
_cell_volume 2430.000000
_symmetry_space_group_name_H-M "C 2/C"
_symmetry_group_IT_number 15
_symmetry_cell_setting 'monoclinic'
loop_
_space_group_symop_operation_xyz
x,y,z
-x,y,1/2-z
-x,-y,-z
x,-y,1/2+z
1/2+x,1/2+y,z
1/2-x,1/2+y,1/2-z
1/2-x,1/2-y,-z
1/2+x,1/2-y,1/2+z
loop_
_atom_site_type_symbol
_atom_site_label
_atom_site_fract_x
_atom_site_fract_y
_atom_site_fract_z
Si Si1 0.158106 0.548659 0.160519
Si Si2 0.872857 0.700846 0.733656
Si Si3 0.152509 0.561788 0.828275
Si Si4 0.743728 0.279797 0.887530
Si Si5 0.327119 0.947472 0.509131
Si Si6 0.195648 0.218307 0.078331
O O1 0.171070 0.634248 0.140862
O O2 0.000000 0.544911 0.250000
O O3 0.990479 0.502432 0.165744
O O4 0.498366 0.523033 0.081272
O O5 0.883053 0.633471 0.695131
O O6 0.534055 0.731033 0.822264
O O7 0.000000 0.682067 0.750000
O O8 0.077545 0.765025 0.658194
O O9 0.500000 0.550981 0.750000
O O10 0.992930 0.564850 0.918425
O O11 0.572884 0.259508 0.885754
O O12 0.487222 0.266171 0.990743
O O13 0.273817 0.867062 0.546366
O O14 0.500000 0.000000 0.500000
#
# Coordination Sequence:
#
# PCOD9309253 Si02
#       6
#     8   8   8   8   8   8
#     4  11  23  40  64  95 130 168 210 257 312 376
#     4  12  25  40  64  96 126 160 207 261 314 373
#     4  12  25  43  65  89 127 170 210 260 314 374
#     4  10  21  41  66  91 124 165 208 253 309 370
#     4  11  24  42  67  94 126 167 211 259 313 373
#     4  10  21  41  66  91 122 165 207 251 311 371
#
# _framework density 9.8765429999999999
#
# number of rings (size 3 to 8) (size 9 to 14) (size 15 to 20)
#    0.000    1.000    0.000    9.500    0.000    4.000 
#    0.000    0.000    0.000    0.000    0.000    0.000 
#    0.000    0.000    0.000    0.000    0.000    0.000 
#
# Total GULP energy -134183.042420 kJ/mol
# GULP energy per Si atom -5590.960101 kJ/mol
# Density = 0.985406 g / cm^3
# Si number density = 9.876543 Si / 1000 Ang^3
#
#
#
# Elastic Constant Matrix: (Units=GPa)
#
#
# Indices 1 2 3 4 5 6 
#
# 1 164.6974 73.6495 83.7381 0.0096 -4.2662 -0.0241
# 2 73.6495 103.4774 48.1720 -0.0293 -7.3044 -0.0242
# 3 83.7381 48.1720 149.3217 -0.1103 -7.9973 -0.0598
# 4 0.0096 -0.0293 -0.1103 25.1076 -0.0354 -3.7314
# 5 -4.2662 -7.3044 -7.9973 -0.0354 34.0810 0.0024
# 6 -0.0241 -0.0242 -0.0598 -3.7314 0.0024 38.3378
#
#
#
# Elastic Compliance Matrix: (Units=1/GPa)
#
#
# Indices 1 2 3 4 5 6 
#
# 1 0.010778 -0.005763 -0.004232 -0.000032 -0.000879 -0.000007
# 2 -0.005763 0.014540 -0.001347 0.000017 0.002079 0.000005
# 3 -0.004232 -0.001347 0.009582 0.000046 0.001430 0.000016
# 4 -0.000032 0.000017 0.000046 0.040414 0.000052 0.003933
# 5 -0.000879 0.002079 0.001430 0.000052 0.030013 0.000006
# 6 -0.000007 0.000005 0.000016 0.003933 0.000006 0.026467
#
#
# Mechanical properties :
#
#
# Convention : Reuss Voigt Hill
#
# Bulk Modulus (GPa) = 81.87193 92.06842 86.97018
# Shear Modulus (GPa) = 31.53611 33.63438 32.58525
#
# Velocity S-wave (km/s) = 3.99998 4.13090 4.06597
# Velocity P-wave (km/s) = 7.92911 8.33447 8.13431
#
# Compressibility (1/GPa) = 0.01221420
#
# Stress axis : x y z
#
# Youngs Moduli (GPa) = 92.78375 68.77717 104.36740
#
# Poissons Ratio (x) = 0.39636 0.44168
# Poissons Ratio (y) = 0.53471 0.14063
# Poissons Ratio (z) = 0.39266 0.09267
#
# Static dielectric constant tensor:
#      x y z
#    x 1.653960 0.000000 0.000020 
#    y 0.000000 1.730040 0.000010 
#    z 0.000020 0.000010 1.718410 
# 
# From -- ./inp_files/308702.got.cif
#   From: 2010.05.17/outbox.ucp.g08.bks.cvg/sg15_155_cif.got.tgz:308702.got - 2010.06.11 12:40:34.
