data_PCOD9309565
_publ_section_title
;
Structure prediction by ZEFSAII (Michael W. Deem and Ramdas Pophale) SiO2 
 PCOD9309565
Probable space group: C 2/C
;
_chemical_formula_sum "Si O2"
_cell_formula_units_Z 20
_cell_length_a 24.000000
_cell_length_b 6.000000
_cell_length_c 27.000000
_cell_angle_alpha 90.000000
_cell_angle_beta 30.000000
_cell_angle_gamma 90.000000
_cell_volume 1944.000000
_symmetry_space_group_name_H-M "C 2/C"
_symmetry_group_IT_number 15
_symmetry_cell_setting 'monoclinic'
loop_
_space_group_symop_operation_xyz
x,y,z
-x,y,1/2-z
-x,-y,-z
x,-y,1/2+z
1/2+x,1/2+y,z
1/2-x,1/2+y,1/2-z
1/2-x,1/2-y,-z
1/2+x,1/2-y,1/2+z
loop_
_atom_site_type_symbol
_atom_site_label
_atom_site_fract_x
_atom_site_fract_y
_atom_site_fract_z
Si Si1 0.158684 0.939160 0.059358
Si Si2 0.009317 0.629439 0.118501
Si Si3 0.411448 0.440550 0.110922
Si Si4 0.765650 0.665149 0.065826
Si Si5 0.681234 0.783747 0.236795
O O1 0.044916 0.816639 0.131357
O O2 0.170704 0.087404 0.099624
O O3 0.250000 0.750000 0.000000
O O4 0.195790 0.092780 0.984342
O O5 0.967618 0.745830 0.100254
O O6 0.906517 0.472805 0.212421
O O7 0.122572 0.486666 0.023318
O O8 0.381845 0.633473 0.173603
O O9 0.293987 0.374287 0.175989
O O10 0.500000 0.500000 0.000000
O O11 0.720452 0.663287 0.156313
#
# Coordination Sequence:
#
# PCOD9309565 Si02
#       5
#     8   8   8   8   8
#     4   9  20  44  70  98 134 180 229 294 355 412
#     4  11  23  43  69  98 138 180 231 292 347 417
#     4  12  27  44  68 100 139 186 234 292 348 416
#     4  10  23  44  71  99 138 183 235 290 351 428
#     4  12  25  43  67 103 139 183 240 282 358 421
#
# _framework density 10.288066000000001
#
# number of rings (size 3 to 8) (size 9 to 14) (size 15 to 20)
#    0.000    1.200    2.000    3.600    2.800    4.800 
#    0.000   24.000    0.000    0.000    0.000    0.000 
#    0.000    0.000    0.000    0.000    0.000    0.000 
#
# Total GULP energy -111771.357692 kJ/mol
# GULP energy per Si atom -5588.567885 kJ/mol
# Density = 1.026465 g / cm^3
# Si number density = 10.288066 Si / 1000 Ang^3
#
#
#
# Elastic Constant Matrix: (Units=GPa)
#
#
# Indices 1 2 3 4 5 6 
#
# 1 120.5688 30.1297 54.7270 -0.0527 -15.3553 0.0434
# 2 30.1297 77.7525 41.4412 -0.0497 -7.9992 0.0730
# 3 54.7270 41.4412 109.3559 0.0027 -11.0613 0.0251
# 4 -0.0527 -0.0497 0.0027 30.3107 0.0251 -14.6982
# 5 -15.3553 -7.9992 -11.0613 0.0251 35.8197 -0.0439
# 6 0.0434 0.0730 0.0251 -14.6982 -0.0439 56.9913
#
#
#
# Elastic Compliance Matrix: (Units=1/GPa)
#
#
# Indices 1 2 3 4 5 6 
#
# 1 0.011201 -0.001511 -0.004729 0.000016 0.003004 0.000002
# 2 -0.001511 0.016430 -0.005331 0.000018 0.001375 -0.000012
# 3 -0.004729 -0.005331 0.013632 -0.000019 0.000992 0.000000
# 4 0.000016 0.000018 -0.000019 0.037707 -0.000010 0.009725
# 5 0.003004 0.001375 0.000992 -0.000010 0.029819 0.000016
# 6 0.000002 -0.000012 0.000000 0.009725 0.000016 0.020055
#
#
# Mechanical properties :
#
#
# Convention : Reuss Voigt Hill
#
# Bulk Modulus (GPa) = 55.18652 62.25256 58.71954
# Shear Modulus (GPa) = 31.64073 36.71629 34.17851
#
# Velocity S-wave (km/s) = 3.92566 4.22881 4.08005
# Velocity P-wave (km/s) = 6.88670 7.35964 7.12709
#
# Compressibility (1/GPa) = 0.01812037
#
# Stress axis : x y z
#
# Youngs Moduli (GPa) = 89.28055 60.86583 73.35906
#
# Poissons Ratio (x) = 0.09196 0.34691
# Poissons Ratio (y) = 0.13489 0.39107
# Poissons Ratio (z) = 0.42221 0.32447
#
# Static dielectric constant tensor:
#      x y z
#    x 1.718750 -0.000010 -0.000060 
#    y -0.000010 1.802890 0.000030 
#    z -0.000060 0.000030 1.696970 
# 
# From -- ./inp_files/170556.got.cif
#   From: 2010.05.17/outbox.ucp.g08.bks.cvg/sg15_86_cif.got.tgz:170556.got - 2010.06.11 12:40:34.
