data_PCOD9309412
_publ_section_title
;
Structure prediction by ZEFSAII (Michael W. Deem and Ramdas Pophale) SiO2 
 PCOD9309412
Probable space group: C 2/C
;
_chemical_formula_sum "Si O2"
_cell_formula_units_Z 30
_cell_length_a 21.000000
_cell_length_b 27.000000
_cell_length_c 15.000000
_cell_angle_alpha 90.000000
_cell_angle_beta 20.000000
_cell_angle_gamma 90.000000
_cell_volume 2908.881319
_symmetry_space_group_name_H-M "C 2/C"
_symmetry_group_IT_number 15
_symmetry_cell_setting 'monoclinic'
loop_
_space_group_symop_operation_xyz
x,y,z
-x,y,1/2-z
-x,-y,-z
x,-y,1/2+z
1/2+x,1/2+y,z
1/2-x,1/2+y,1/2-z
1/2-x,1/2-y,-z
1/2+x,1/2-y,1/2+z
loop_
_atom_site_type_symbol
_atom_site_label
_atom_site_fract_x
_atom_site_fract_y
_atom_site_fract_z
Si Si1 0.872040 0.695464 0.788412
Si Si2 0.673536 0.051864 0.457592
Si Si3 0.684633 0.542731 0.632614
Si Si4 0.269823 0.104378 0.817471
Si Si5 0.486067 0.380312 0.005552
Si Si6 0.000000 0.024594 0.250000
Si Si7 0.392699 0.949948 0.665469
Si Si8 0.785108 0.788791 0.816047
O O1 0.843189 0.640782 0.794443
O O2 0.839117 0.731551 0.747793
O O3 0.079250 0.704344 0.549846
O O4 0.729205 0.701760 0.058345
O O5 0.671162 0.061637 0.353309
O O6 0.709172 0.994460 0.439229
O O7 0.500000 0.066766 0.750000
O O8 0.853368 0.083840 0.244220
O O9 0.617624 0.590238 0.777325
O O10 0.514417 0.509473 0.819212
O O11 0.782324 0.549200 0.405650
O O12 0.135810 0.128427 0.921703
O O13 0.444361 0.088229 0.530093
O O14 0.172029 0.059768 0.999823
O O15 0.579502 0.328129 0.907719
O O16 0.500000 0.000000 0.500000
#
# Coordination Sequence:
#
# PCOD9309412 Si02
#       8
#     8   8   8   8   8   4   8   8
#     4  10  22  41  67  98 133 166 216 277 349 405
#     4  12  24  41  63  88 128 177 226 279 329 390
#     4  12  26  41  61  90 136 181 233 274 326 402
#     4  12  24  39  61  94 129 173 221 274 334 396
#     4  12  26  39  63  94 132 177 224 275 337 399
#     4  12  22  38  60  94 134 178 224 282 330 394
#     4  12  24  41  62  88 128 181 225 275 330 389
#     4  10  22  41  67  97 131 170 212 279 346 409
#
# _framework density 10.313243
#
# number of rings (size 3 to 8) (size 9 to 14) (size 15 to 20)
#    0.000    0.533    4.000    4.400    3.733    2.133 
#    0.000    0.000    0.000    0.800    0.000    1.867 
#    0.000    0.000    0.000    0.000    0.000    0.000 
#
# Total GULP energy -167128.758612 kJ/mol
# GULP energy per Si atom -5570.958620 kJ/mol
# Density = 1.028977 g / cm^3
# Si number density = 10.313243 Si / 1000 Ang^3
#
#
#
# Elastic Constant Matrix: (Units=GPa)
#
#
# Indices 1 2 3 4 5 6 
#
# 1 67.1395 16.0033 30.5886 -0.0147 2.6822 0.0423
# 2 16.0033 66.6203 32.0524 -0.0269 0.8454 0.0190
# 3 30.5886 32.0524 94.8765 -0.0501 22.8635 0.0132
# 4 -0.0147 -0.0269 -0.0501 26.3343 0.0095 -3.8619
# 5 2.6822 0.8454 22.8635 0.0095 34.9159 -0.0087
# 6 0.0423 0.0190 0.0132 -3.8619 -0.0087 25.1035
#
#
#
# Elastic Compliance Matrix: (Units=1/GPa)
#
#
# Indices 1 2 3 4 5 6 
#
# 1 0.017811 -0.001503 -0.005834 -0.000007 0.002489 -0.000026
# 2 -0.001503 0.018583 -0.006783 0.000003 0.004107 -0.000006
# 3 -0.005834 -0.006783 0.017294 0.000028 -0.010712 0.000006
# 4 -0.000007 0.000003 0.000028 0.038850 -0.000027 0.005977
# 5 0.002489 0.004107 -0.010712 -0.000027 0.035364 0.000006
# 6 -0.000026 -0.000006 0.000006 0.005977 0.000006 0.040755
#
#
# Mechanical properties :
#
#
# Convention : Reuss Voigt Hill
#
# Bulk Modulus (GPa) = 39.29711 42.88053 41.08882
# Shear Modulus (GPa) = 24.34512 27.27021 25.80767
#
# Velocity S-wave (km/s) = 3.43925 3.64001 3.54105
# Velocity P-wave (km/s) = 5.90461 6.20487 6.05660
#
# Compressibility (1/GPa) = 0.02544716
#
# Stress axis : x y z
#
# Youngs Moduli (GPa) = 56.14396 53.81307 57.82364
#
# Poissons Ratio (x) = 0.08089 0.33736
# Poissons Ratio (y) = 0.08439 0.39222
# Poissons Ratio (z) = 0.32756 0.36502
#
# Static dielectric constant tensor:
#      x y z
#    x 1.971160 -0.000580 -0.149330 
#    y -0.000580 1.842020 0.000720 
#    z -0.149330 0.000720 1.787660 
# 
# From -- ./inp_files/169909.got.cif
#   From: 2010.05.17/outbox.ucp.g08.bks.cvg/sg15_85_cif.got.tgz:169909.got - 2010.06.11 12:40:34.
