data_PCOD9309554
_publ_section_title
;
Structure prediction by ZEFSAII (Michael W. Deem and Ramdas Pophale) SiO2 
 PCOD9309554
Probable space group: C 2/C
;
_chemical_formula_sum "Si O2"
_cell_formula_units_Z 30
_cell_length_a 24.000000
_cell_length_b 9.000000
_cell_length_c 27.000000
_cell_angle_alpha 90.000000
_cell_angle_beta 150.000000
_cell_angle_gamma 90.000000
_cell_volume 2916.000000
_symmetry_space_group_name_H-M "C 2/C"
_symmetry_group_IT_number 15
_symmetry_cell_setting 'monoclinic'
loop_
_space_group_symop_operation_xyz
x,y,z
-x,y,1/2-z
-x,-y,-z
x,-y,1/2+z
1/2+x,1/2+y,z
1/2-x,1/2+y,1/2-z
1/2-x,1/2-y,-z
1/2+x,1/2-y,1/2+z
loop_
_atom_site_type_symbol
_atom_site_label
_atom_site_fract_x
_atom_site_fract_y
_atom_site_fract_z
Si Si1 0.446425 0.213867 0.797151
Si Si2 0.691790 0.696450 0.624415
Si Si3 0.043569 0.965174 0.936962
Si Si4 0.324879 0.678555 0.770725
Si Si5 0.004222 0.391471 0.638319
Si Si6 0.138848 0.849110 0.422539
Si Si7 0.611418 0.974043 0.052507
Si Si8 0.000000 0.060816 0.250000
O O1 0.316975 0.177349 0.702645
O O2 0.497894 0.307868 0.881925
O O3 0.463217 0.327982 0.765081
O O4 0.501416 0.051987 0.840560
O O5 0.608546 0.572803 0.537600
O O6 0.695859 0.699385 0.687035
O O7 0.655769 0.859783 0.578422
O O8 0.129285 0.042752 0.963770
O O9 0.932085 0.066797 0.851708
O O10 0.373978 0.830760 0.784773
O O11 0.213324 0.616099 0.657705
O O12 0.956191 0.271680 0.639244
O O13 0.929862 0.398996 0.530546
O O14 0.250000 0.750000 0.500000
O O15 0.099021 0.954258 0.346596
O O16 0.500000 0.000000 0.000000
#
# Coordination Sequence:
#
# PCOD9309554 Si02
#       8
#     8   8   8   8   8   8   8   4
#     4  11  24  44  69  97 133 177 229 283 345 402
#     4  12  24  39  71  95 138 183 225 275 333 405
#     4  10  23  44  64 101 135 178 229 280 340 404
#     4  11  25  42  67 103 143 181 226 282 332 403
#     4  11  25  44  70 102 136 182 227 277 340 416
#     4  10  25  45  72  98 131 174 228 286 346 406
#     4  12  24  44  66  99 142 184 225 275 332 403
#     4  10  26  48  70 100 134 172 228 296 346 400
#
# _framework density 10.288066000000001
#
# number of rings (size 3 to 8) (size 9 to 14) (size 15 to 20)
#    0.000    1.067    4.000    1.200    1.867    4.800 
#    0.000    2.667    0.000    0.000    0.000    0.000 
#    0.000    0.000    0.000    0.000    0.000    0.000 
#
# Total GULP energy -167537.892350 kJ/mol
# GULP energy per Si atom -5584.596412 kJ/mol
# Density = 1.026465 g / cm^3
# Si number density = 10.288066 Si / 1000 Ang^3
#
#
#
# Elastic Constant Matrix: (Units=GPa)
#
#
# Indices 1 2 3 4 5 6 
#
# 1 51.4043 11.4973 47.1876 0.0000 -3.8962 0.0000
# 2 11.4973 116.5891 41.9976 0.0000 -9.8035 0.0000
# 3 47.1876 41.9976 123.5683 0.0000 2.6382 0.0000
# 4 0.0000 0.0000 0.0000 48.7540 0.0000 -1.7171
# 5 -3.8962 -9.8035 2.6382 0.0000 27.6712 0.0000
# 6 0.0000 0.0000 0.0000 -1.7171 0.0000 29.2620
#
#
#
# Elastic Compliance Matrix: (Units=1/GPa)
#
#
# Indices 1 2 3 4 5 6 
#
# 1 0.031161 0.002044 -0.012730 0.000000 0.006326 0.000000
# 2 0.002044 0.010321 -0.004382 0.000000 0.004362 0.000000
# 3 -0.012730 -0.004382 0.014544 0.000000 -0.004731 0.000000
# 4 0.000000 0.000000 0.000000 0.020554 0.000000 0.001206
# 5 0.006326 0.004362 -0.004731 0.000000 0.039026 0.000000
# 6 0.000000 0.000000 0.000000 0.001206 0.000000 0.034245
#
#
# Mechanical properties :
#
#
# Convention : Reuss Voigt Hill
#
# Bulk Modulus (GPa) = 38.62144 54.76965 46.69554
# Shear Modulus (GPa) = 26.50915 33.86273 30.18594
#
# Velocity S-wave (km/s) = 3.59325 4.06116 3.83435
# Velocity P-wave (km/s) = 6.00216 6.97614 6.50740
#
# Compressibility (1/GPa) = 0.02589236
#
# Stress axis : x y z
#
# Youngs Moduli (GPa) = 32.09126 96.89336 68.75706
#
# Poissons Ratio (x) = -0.19809 0.87525
# Poissons Ratio (y) = -0.06561 0.30126
# Poissons Ratio (z) = 0.40851 0.42454
#
# Static dielectric constant tensor:
#      x y z
#    x 1.765250 0.000000 -0.002710 
#    y 0.000000 1.753640 0.000000 
#    z -0.002710 0.000000 1.759810 
# 
# From -- ./inp_files/302097.got.cif
#   From: 2010.05.17/outbox.ucp.g08.bks.cvg/sg15_152_cif.got.tgz:302097.got - 2010.06.11 12:40:34.
