data_PCOD9309474
_publ_section_title
;
Structure prediction by ZEFSAII (Michael W. Deem and Ramdas Pophale) SiO2 
 PCOD9309474
Probable space group: C 2/C
;
_chemical_formula_sum "Si O2"
_cell_formula_units_Z 32
_cell_length_a 24.000000
_cell_length_b 18.000000
_cell_length_c 15.000000
_cell_angle_alpha 90.000000
_cell_angle_beta 150.000000
_cell_angle_gamma 90.000000
_cell_volume 3240.000000
_symmetry_space_group_name_H-M "C 2/C"
_symmetry_group_IT_number 15
_symmetry_cell_setting 'monoclinic'
loop_
_space_group_symop_operation_xyz
x,y,z
-x,y,1/2-z
-x,-y,-z
x,-y,1/2+z
1/2+x,1/2+y,z
1/2-x,1/2+y,1/2-z
1/2-x,1/2-y,-z
1/2+x,1/2-y,1/2+z
loop_
_atom_site_type_symbol
_atom_site_label
_atom_site_fract_x
_atom_site_fract_y
_atom_site_fract_z
Si Si1 0.840047 0.317589 0.623720
Si Si2 0.718019 0.016887 0.191721
Si Si3 0.807645 0.350031 0.383845
Si Si4 0.502281 0.102836 0.646955
Si Si5 0.888468 0.982899 0.769001
Si Si6 0.551339 0.374384 0.059418
Si Si7 0.037080 0.282689 0.037172
Si Si8 0.201895 0.488400 0.877700
O O1 0.750000 0.250000 0.500000
O O2 0.866077 0.321886 0.554593
O O3 0.803979 0.402202 0.598858
O O4 0.937100 0.301630 0.829160
O O5 0.822747 0.030897 0.271978
O O6 0.736249 0.010057 0.322124
O O7 0.668952 0.937585 0.092402
O O8 0.622505 0.077028 0.047588
O O9 0.673988 0.344877 0.206149
O O10 0.852406 0.307859 0.360472
O O11 0.500000 0.117759 0.750000
O O12 0.527769 0.171541 0.616281
O O13 0.588631 0.035469 0.740893
O O14 0.929311 0.068352 0.831991
O O15 0.798084 0.973569 0.568376
O O16 0.991994 0.927913 0.905935
O O17 0.472073 0.305004 0.963413
#
# Coordination Sequence:
#
# PCOD9309474 Si02
#       8
#     8   8   8   8   8   8   8   8
#     4  12  22  39  67 101 136 171 209 278 339 396
#     4  11  21  39  67  98 128 176 217 270 326 398
#     4  11  22  42  64  96 135 171 219 267 337 395
#     4  12  23  39  64 100 136 174 224 273 329 393
#     4  10  22  44  68  87 133 174 221 275 319 398
#     4  10  23  45  65  93 129 177 218 269 335 391
#     4  12  24  40  67  99 135 173 217 275 340 398
#     4  12  21  39  66  98 131 171 228 266 331 396
#
# _framework density 9.8765429999999999
#
# number of rings (size 3 to 8) (size 9 to 14) (size 15 to 20)
#    0.000    0.750    7.500    1.500    0.000    2.000 
#    0.000   10.000    0.000    0.000    0.000    0.000 
#    0.000    0.000    0.000    0.000    0.000    0.000 
#
# Total GULP energy -178562.030471 kJ/mol
# GULP energy per Si atom -5580.063452 kJ/mol
# Density = 0.985406 g / cm^3
# Si number density = 9.876543 Si / 1000 Ang^3
#
#
#
# Elastic Constant Matrix: (Units=GPa)
#
#
# Indices 1 2 3 4 5 6 
#
# 1 111.3962 25.0053 35.6083 0.0000 -33.4835 0.0000
# 2 25.0053 86.7463 10.6769 0.0000 4.4409 0.0000
# 3 35.6083 10.6769 93.6970 0.0000 -4.0670 0.0000
# 4 0.0000 0.0000 0.0000 23.1042 0.0000 -0.8360
# 5 -33.4835 4.4409 -4.0670 0.0000 23.9462 0.0000
# 6 0.0000 0.0000 0.0000 -0.8360 0.0000 16.7770
#
#
#
# Elastic Compliance Matrix: (Units=1/GPa)
#
#
# Indices 1 2 3 4 5 6 
#
# 1 0.021749 -0.007086 -0.006126 0.000000 0.030685 0.000000
# 2 -0.007086 0.014141 0.000542 0.000000 -0.012439 0.000000
# 3 -0.006126 0.000542 0.012656 0.000000 -0.006517 0.000000
# 4 0.000000 0.000000 0.000000 0.043360 0.000000 0.002161
# 5 0.030685 -0.012439 -0.006517 0.000000 0.085867 0.000000
# 6 0.000000 0.000000 0.000000 0.002161 0.000000 0.059713
#
#
# Mechanical properties :
#
#
# Convention : Reuss Voigt Hill
#
# Bulk Modulus (GPa) = 43.09426 48.26895 45.68160
# Shear Modulus (GPa) = 18.48001 27.46876 22.97438
#
# Velocity S-wave (km/s) = 3.06200 3.73313 3.41409
# Velocity P-wave (km/s) = 5.86216 6.56284 6.22237
#
# Compressibility (1/GPa) = 0.02320495
#
# Stress axis : x y z
#
# Youngs Moduli (GPa) = 45.97853 70.71802 79.01249
#
# Poissons Ratio (x) = 0.50113 0.48404
# Poissons Ratio (y) = 0.32582 -0.04281
# Poissons Ratio (z) = 0.28167 -0.03831
#
# Static dielectric constant tensor:
#      x y z
#    x 1.713050 0.000000 0.010650 
#    y 0.000000 1.704740 0.000000 
#    z 0.010650 0.000000 1.723050 
# 
# From -- ./inp_files/174253.got.cif
#   From: 2010.05.17/outbox.ucp.g08.bks.cvg/sg15_88_cif.got.tgz:174253.got - 2010.06.11 12:40:34.
