data_PCOD9309791
_publ_section_title
;
Structure prediction by ZEFSAII (Michael W. Deem and Ramdas Pophale) SiO2 
 PCOD9309791
Probable space group: C 2/C
;
_chemical_formula_sum "Si O2"
_cell_formula_units_Z 24
_cell_length_a 15.000000
_cell_length_b 15.000000
_cell_length_c 30.000000
_cell_angle_alpha 90.000000
_cell_angle_beta 160.000000
_cell_angle_gamma 90.000000
_cell_volume 2308.635967
_symmetry_space_group_name_H-M "C 2/C"
_symmetry_group_IT_number 15
_symmetry_cell_setting 'monoclinic'
loop_
_space_group_symop_operation_xyz
x,y,z
-x,y,1/2-z
-x,-y,-z
x,-y,1/2+z
1/2+x,1/2+y,z
1/2-x,1/2+y,1/2-z
1/2-x,1/2-y,-z
1/2+x,1/2-y,1/2+z
loop_
_atom_site_type_symbol
_atom_site_label
_atom_site_fract_x
_atom_site_fract_y
_atom_site_fract_z
Si Si1 0.560624 0.733614 0.509391
Si Si2 0.241043 0.439087 0.597838
Si Si3 0.945652 0.322995 0.309413
Si Si4 0.745497 0.821112 0.775764
Si Si5 0.354365 0.358765 0.001436
Si Si6 0.667611 0.455698 0.963115
O O1 0.638174 0.836620 0.553309
O O2 0.837739 0.686303 0.627607
O O3 0.357188 0.725862 0.372727
O O4 0.423692 0.680996 0.485474
O O5 0.500000 0.448356 0.750000
O O6 0.312471 0.468228 0.580684
O O7 0.000000 0.500000 0.500000
O O8 0.100717 0.386300 0.416292
O O9 0.903547 0.225257 0.310027
O O10 0.644325 0.349038 0.159843
O O11 0.432985 0.815057 0.622679
O O12 0.878837 0.918175 0.839178
O O13 0.290930 0.460346 0.984982
#
# Coordination Sequence:
#
# PCOD9309791 Si02
#       6
#     8   8   8   8   8   8
#     4  11  24  49  70 104 142 197 238 294 374 437
#     4  12  28  46  75 104 146 188 250 303 365 437
#     4  11  22  45  74  95 146 194 238 290 374 440
#     4  11  23  45  74  98 147 194 242 294 366 441
#     4  12  26  38  74 111 148 177 254 307 352 436
#     4  11  25  47  68 104 145 196 230 302 376 433
#
# _framework density 10.395749
#
# number of rings (size 3 to 8) (size 9 to 14) (size 15 to 20)
#    0.000    0.667    3.333    4.500    4.667    5.333 
#    0.000    6.667    0.000    0.000    0.000    0.000 
#    0.000    0.000    0.000    0.000    0.000    0.000 
#
# Total GULP energy -133766.057799 kJ/mol
# GULP energy per Si atom -5573.585742 kJ/mol
# Density = 1.037209 g / cm^3
# Si number density = 10.395749 Si / 1000 Ang^3
#
#
#
# Elastic Constant Matrix: (Units=GPa)
#
#
# Indices 1 2 3 4 5 6 
#
# 1 102.2327 35.4890 30.4959 0.0060 26.1818 0.0027
# 2 35.4890 81.5210 28.5137 -0.0087 13.5279 0.0064
# 3 30.4959 28.5137 178.1973 -0.0110 25.2213 0.0331
# 4 0.0060 -0.0087 -0.0110 33.8339 0.0088 1.7027
# 5 26.1818 13.5279 25.2213 0.0088 32.5603 -0.0015
# 6 0.0027 0.0064 0.0331 1.7027 -0.0015 28.5361
#
#
#
# Elastic Compliance Matrix: (Units=1/GPa)
#
#
# Indices 1 2 3 4 5 6 
#
# 1 0.013684 -0.004345 -0.000387 -0.000001 -0.008898 0.000000
# 2 -0.004345 0.014921 -0.001416 0.000005 -0.001608 -0.000002
# 3 -0.000387 -0.001416 0.006489 0.000003 -0.004126 -0.000008
# 4 -0.000001 0.000005 0.000003 0.029645 -0.000011 -0.001769
# 5 -0.008898 -0.001608 -0.004126 -0.000011 0.041732 0.000009
# 6 0.000000 -0.000002 -0.000008 -0.001769 0.000009 0.035149
#
#
# Mechanical properties :
#
#
# Convention : Reuss Voigt Hill
#
# Bulk Modulus (GPa) = 43.86666 61.21647 52.54156
# Shear Modulus (GPa) = 30.95674 36.81623 33.88648
#
# Velocity S-wave (km/s) = 3.86283 4.21257 4.04149
# Velocity P-wave (km/s) = 6.40620 7.29164 6.86321
#
# Compressibility (1/GPa) = 0.02279636
#
# Stress axis : x y z
#
# Youngs Moduli (GPa) = 73.07598 67.02124 154.11487
#
# Poissons Ratio (x) = 0.29122 0.05967
# Poissons Ratio (y) = 0.31753 0.21827
# Poissons Ratio (z) = 0.02829 0.09492
#
# Static dielectric constant tensor:
#      x y z
#    x 1.789120 0.000000 -0.043390 
#    y 0.000000 1.802790 -0.000010 
#    z -0.043390 -0.000010 1.723310 
# 
# From -- ./inp_files/314137.got.cif
#   From: 2010.05.17/outbox.ucp.g08.bks.cvg/sg15_158_cif.got.tgz:314137.got - 2010.06.11 12:40:34.
