data_PCOD9309098
_publ_section_title
;
Structure prediction by ZEFSAII (Michael W. Deem and Ramdas Pophale) SiO2 
 PCOD9309098
Probable space group: C 2/C
;
_chemical_formula_sum "Si O2"
_cell_formula_units_Z 20
_cell_length_a 15.000000
_cell_length_b 24.000000
_cell_length_c 6.000000
_cell_angle_alpha 90.000000
_cell_angle_beta 70.000000
_cell_angle_gamma 90.000000
_cell_volume 2029.736061
_symmetry_space_group_name_H-M "C 2/C"
_symmetry_group_IT_number 15
_symmetry_cell_setting 'monoclinic'
loop_
_space_group_symop_operation_xyz
x,y,z
-x,y,1/2-z
-x,-y,-z
x,-y,1/2+z
1/2+x,1/2+y,z
1/2-x,1/2+y,1/2-z
1/2-x,1/2-y,-z
1/2+x,1/2-y,1/2+z
loop_
_atom_site_type_symbol
_atom_site_label
_atom_site_fract_x
_atom_site_fract_y
_atom_site_fract_z
Si Si1 0.604471 0.217413 0.556782
Si Si2 0.331502 0.122135 0.340848
Si Si3 0.759165 0.990904 0.687980
Si Si4 0.562783 0.945369 0.390187
Si Si5 0.266842 0.294675 0.290956
O O1 0.500000 0.218398 0.750000
O O2 0.624299 0.168720 0.358734
O O3 0.636542 0.275629 0.411652
O O4 0.681816 0.208755 0.685342
O O5 0.282216 0.071449 0.256468
O O6 0.411137 0.095973 0.433623
O O7 0.249373 0.147783 0.568874
O O8 0.804120 0.995229 0.395814
O O9 0.665729 0.030013 0.741946
O O10 0.500000 0.917567 0.250000
O O11 0.500000 0.000000 0.500000
O O12 0.250000 0.250000 0.500000
#
# Coordination Sequence:
#
# PCOD9309098 Si02
#       5
#     8   8   8   8   8
#     4  10  22  39  59  83 110 152 208 266 316 370
#     4  10  22  34  52  75 111 164 200 240 306 357
#     4  10  21  33  46  72 113 154 196 238 278 349
#     4  11  20  33  46  72 120 163 202 243 277 359
#     4   9  21  40  57  81 112 148 205 266 312 376
#
# _framework density 9.8534980000000001
#
# number of rings (size 3 to 8) (size 9 to 14) (size 15 to 20)
#    0.000    2.000    4.000    0.000    5.600    7.200 
#    0.000    0.000    0.000    0.000    0.000    0.000 
#    0.000    6.400    0.000   11.200    0.000    0.400 
#
# Total GULP energy -111484.943613 kJ/mol
# GULP energy per Si atom -5574.247181 kJ/mol
# Density = 0.983107 g / cm^3
# Si number density = 9.853498 Si / 1000 Ang^3
#
#
#
# Elastic Constant Matrix: (Units=GPa)
#
#
# Indices 1 2 3 4 5 6 
#
# 1 43.6704 35.1886 40.8118 0.0000 3.7996 0.0000
# 2 35.1886 97.2361 57.1989 0.0000 -9.6808 0.0000
# 3 40.8118 57.1989 138.7289 0.0000 4.0306 0.0000
# 4 0.0000 0.0000 0.0000 53.1224 0.0000 2.6769
# 5 3.7996 -9.6808 4.0306 0.0000 36.3410 0.0000
# 6 0.0000 0.0000 0.0000 2.6769 0.0000 21.5615
#
#
#
# Elastic Compliance Matrix: (Units=1/GPa)
#
#
# Indices 1 2 3 4 5 6 
#
# 1 0.038127 -0.010432 -0.006740 0.000000 -0.006018 0.000000
# 2 -0.010432 0.017119 -0.004167 0.000000 0.006113 0.000000
# 3 -0.006740 -0.004167 0.010956 0.000000 -0.001621 0.000000
# 4 0.000000 0.000000 0.000000 0.018943 0.000000 -0.002352
# 5 -0.006018 0.006113 -0.001621 0.000000 0.029955 0.000000
# 6 0.000000 0.000000 0.000000 -0.002352 0.000000 0.046671
#
#
# Mechanical properties :
#
#
# Convention : Reuss Voigt Hill
#
# Bulk Modulus (GPa) = 42.50947 60.67046 51.58997
# Shear Modulus (GPa) = 23.55242 31.96737 27.75990
#
# Velocity S-wave (km/s) = 3.46082 4.03194 3.75725
# Velocity P-wave (km/s) = 6.13084 7.24765 6.71252
#
# Compressibility (1/GPa) = 0.02352417
#
# Stress axis : x y z
#
# Youngs Moduli (GPa) = 26.22784 58.41325 91.27022
#
# Poissons Ratio (x) = 0.60936 0.61520
# Poissons Ratio (y) = 0.27361 0.38034
# Poissons Ratio (z) = 0.17679 0.24342
#
# Static dielectric constant tensor:
#      x y z
#    x 1.645340 0.000000 0.014570 
#    y 0.000000 1.757480 0.000000 
#    z 0.014570 0.000000 1.863380 
# 
# From -- ./inp_files/7488.got.cif
#   From: 2010.05.17/outbox.ucp.g08.bks.cvg/sg15_4_cif.got.tgz:7488.got - 2010.06.11 12:40:34.
