data_PCOD9309358
_publ_section_title
;
Structure prediction by ZEFSAII (Michael W. Deem and Ramdas Pophale) SiO2 
 PCOD9309358
Probable space group: C 2/C
;
_chemical_formula_sum "Si O2"
_cell_formula_units_Z 20
_cell_length_a 24.000000
_cell_length_b 9.000000
_cell_length_c 9.000000
_cell_angle_alpha 90.000000
_cell_angle_beta 90.000000
_cell_angle_gamma 90.000000
_cell_volume 1944.000000
_symmetry_space_group_name_H-M "C 2/C"
_symmetry_group_IT_number 15
_symmetry_cell_setting 'monoclinic'
loop_
_space_group_symop_operation_xyz
x,y,z
-x,y,1/2-z
-x,-y,-z
x,-y,1/2+z
1/2+x,1/2+y,z
1/2-x,1/2+y,1/2-z
1/2-x,1/2-y,-z
1/2+x,1/2-y,1/2+z
loop_
_atom_site_type_symbol
_atom_site_label
_atom_site_fract_x
_atom_site_fract_y
_atom_site_fract_z
Si Si1 0.719260 0.672594 0.141161
Si Si2 0.862843 0.639511 0.639843
Si Si3 0.832617 0.341684 0.787703
Si Si4 0.628502 0.412381 0.439588
Si Si5 0.436307 0.355141 0.763503
O O1 0.679183 0.775581 0.243361
O O2 0.767221 0.625272 0.255135
O O3 0.750000 0.750000 0.000000
O O4 0.680809 0.554888 0.050979
O O5 0.861528 0.472104 0.695022
O O6 0.846678 0.658968 0.464733
O O7 0.923605 0.699500 0.684035
O O8 0.850351 0.198522 0.690189
O O9 0.584203 0.356691 0.564746
O O10 0.601089 0.541324 0.344067
O O11 0.500000 0.400341 0.750000
#
# Coordination Sequence:
#
# PCOD9309358 Si02
#       5
#     8   8   8   8   8
#     4   9  20  36  58  88 122 156 191 236 296 361
#     4  11  23  39  61  89 122 160 203 248 298 361
#     4  11  22  40  61  91 126 160 196 246 302 366
#     4  10  22  39  61  90 121 157 204 248 299 367
#     4  11  23  42  63  88 119 159 207 260 303 345
#
# _framework density 10.288066000000001
#
# number of rings (size 3 to 8) (size 9 to 14) (size 15 to 20)
#    0.000    1.600    0.000    6.000    0.000   11.200 
#    0.000    5.000    0.000    0.000    0.000    0.000 
#    0.000    0.000    0.000    0.000    0.000    0.000 
#
# Total GULP energy -111388.205524 kJ/mol
# GULP energy per Si atom -5569.410276 kJ/mol
# Density = 1.026465 g / cm^3
# Si number density = 10.288066 Si / 1000 Ang^3
#
#
#
# Elastic Constant Matrix: (Units=GPa)
#
#
# Indices 1 2 3 4 5 6 
#
# 1 59.7878 12.4325 18.3773 0.0000 -2.8306 0.0000
# 2 12.4325 43.2949 4.6657 0.0000 4.9392 0.0000
# 3 18.3773 4.6657 183.7142 0.0000 -9.2120 0.0000
# 4 0.0000 0.0000 0.0000 34.1876 0.0000 3.8324
# 5 -2.8306 4.9392 -9.2120 0.0000 24.0278 0.0000
# 6 0.0000 0.0000 0.0000 3.8324 0.0000 10.6929
#
#
#
# Elastic Compliance Matrix: (Units=1/GPa)
#
#
# Indices 1 2 3 4 5 6 
#
# 1 0.018468 -0.005441 -0.001574 0.000000 0.002690 0.000000
# 2 -0.005441 0.025389 -0.000402 0.000000 -0.006014 0.000000
# 3 -0.001574 -0.000402 0.005716 0.000000 0.002089 0.000000
# 4 0.000000 0.000000 0.000000 0.030475 0.000000 -0.010922
# 5 0.002690 -0.006014 0.002089 0.000000 0.043972 0.000000
# 6 0.000000 0.000000 0.000000 -0.010922 0.000000 0.097435
#
#
# Mechanical properties :
#
#
# Convention : Reuss Voigt Hill
#
# Bulk Modulus (GPa) = 28.78607 39.74978 34.26792
# Shear Modulus (GPa) = 20.17194 30.53643 25.35418
#
# Velocity S-wave (km/s) = 3.13446 3.85654 3.51410
# Velocity P-wave (km/s) = 5.20771 6.26026 5.75809
#
# Compressibility (1/GPa) = 0.03473903
#
# Stress axis : x y z
#
# Youngs Moduli (GPa) = 54.14631 39.38682 174.95798
#
# Poissons Ratio (x) = 0.21429 0.27545
# Poissons Ratio (y) = 0.29459 0.07035
# Poissons Ratio (z) = 0.08525 0.01584
#
# Static dielectric constant tensor:
#      x y z
#    x 1.862150 0.000000 -0.017380 
#    y 0.000000 1.883330 0.000000 
#    z -0.017380 0.000000 1.672370 
# 
# From -- ./inp_files/59882.got.cif
#   From: 2010.05.17/outbox.ucp.g08.bks.cvg/sg15_30_cif.got.tgz:59882.got - 2010.06.11 12:40:34.
