data_PCOD9309216
_publ_section_title
;
Structure prediction by ZEFSAII (Michael W. Deem and Ramdas Pophale) SiO2 
 PCOD9309216
Probable space group: C 2/C
;
_chemical_formula_sum "Si O2"
_cell_formula_units_Z 32
_cell_length_a 9.000000
_cell_length_b 18.000000
_cell_length_c 30.000000
_cell_angle_alpha 90.000000
_cell_angle_beta 40.000000
_cell_angle_gamma 90.000000
_cell_volume 3123.947783
_symmetry_space_group_name_H-M "C 2/C"
_symmetry_group_IT_number 15
_symmetry_cell_setting 'monoclinic'
loop_
_space_group_symop_operation_xyz
x,y,z
-x,y,1/2-z
-x,-y,-z
x,-y,1/2+z
1/2+x,1/2+y,z
1/2-x,1/2+y,1/2-z
1/2-x,1/2-y,-z
1/2+x,1/2-y,1/2+z
loop_
_atom_site_type_symbol
_atom_site_label
_atom_site_fract_x
_atom_site_fract_y
_atom_site_fract_z
Si Si1 0.552376 0.819124 0.957572
Si Si2 0.393598 0.840663 0.891163
Si Si3 0.600782 0.673552 0.625863
Si Si4 0.838097 0.942481 0.129830
Si Si5 0.379708 0.540939 0.377780
Si Si6 0.865676 0.481390 0.710990
Si Si7 0.122213 0.421776 0.378640
Si Si8 0.133651 0.851495 0.467380
O O1 0.457985 0.828625 0.928652
O O2 0.758481 0.879747 0.913588
O O3 0.642743 0.735624 0.949221
O O4 0.326893 0.832682 0.040839
O O5 0.452259 0.760133 0.857476
O O6 0.537232 0.906587 0.835135
O O7 0.117227 0.856557 0.951033
O O8 0.394298 0.622908 0.653106
O O9 0.691355 0.639943 0.650975
O O10 0.878582 0.903559 0.073332
O O11 0.587152 0.982418 0.186184
O O12 0.032807 0.003386 0.096721
O O13 0.622128 0.536437 0.292619
O O14 0.185098 0.488149 0.399258
O O15 0.828702 0.541426 0.680322
O O16 0.866375 0.383010 0.438202
#
# Coordination Sequence:
#
# PCOD9309216 Si02
#       8
#     8   8   8   8   8   8   8   8
#     4  11  21  38  65  89 127 154 195 256 300 368
#     4  11  21  38  65  89 127 154 195 256 300 368
#     4  10  21  40  63  96 119 152 199 250 317 350
#     4  10  21  40  64  87 119 153 202 250 294 359
#     4  11  24  41  59  84 121 165 205 244 297 358
#     4  11  24  41  59  84 121 165 205 244 297 358
#     4  10  23  38  62  87 123 155 194 250 298 359
#     4  10  21  40  63  96 119 152 199 250 317 350
#
# _framework density 10.243449
#
# number of rings (size 3 to 8) (size 9 to 14) (size 15 to 20)
#    0.000    1.500    3.750    1.500    0.000   10.000 
#    0.000    7.500    0.000    0.000    0.000    0.000 
#    0.000    0.000    0.000    0.000    0.000    0.000 
#
# Total GULP energy -178716.281118 kJ/mol
# GULP energy per Si atom -5584.883785 kJ/mol
# Density = 1.022013 g / cm^3
# Si number density = 10.243449 Si / 1000 Ang^3
#
#
#
# Elastic Constant Matrix: (Units=GPa)
#
#
# Indices 1 2 3 4 5 6 
#
# 1 130.4269 51.8249 17.8540 0.0015 -16.0342 -0.0033
# 2 51.8249 154.0486 59.4718 -0.0028 -7.0529 0.0021
# 3 17.8540 59.4718 62.3789 -0.0012 -16.5007 -0.0013
# 4 0.0015 -0.0028 -0.0012 24.5058 -0.0011 -9.2893
# 5 -16.0342 -7.0529 -16.5007 -0.0011 26.9588 0.0033
# 6 -0.0033 0.0021 -0.0013 -9.2893 0.0033 33.4927
#
#
#
# Elastic Compliance Matrix: (Units=1/GPa)
#
#
# Indices 1 2 3 4 5 6 
#
# 1 0.009676 -0.004029 0.002763 0.000000 0.006392 0.000001
# 2 -0.004029 0.012314 -0.012372 0.000000 -0.006747 -0.000001
# 3 0.002763 -0.012372 0.031756 0.000001 0.017843 0.000001
# 4 0.000000 0.000000 0.000001 0.045601 0.000001 0.012647
# 5 0.006392 -0.006747 0.017843 0.000001 0.050051 -0.000003
# 6 0.000001 -0.000001 0.000001 0.012647 -0.000003 0.033365
#
#
# Mechanical properties :
#
#
# Convention : Reuss Voigt Hill
#
# Bulk Modulus (GPa) = 37.78023 67.23952 52.50988
# Shear Modulus (GPa) = 22.84537 31.50505 27.17521
#
# Velocity S-wave (km/s) = 3.34297 3.92575 3.64602
# Velocity P-wave (km/s) = 5.77770 7.31031 6.58872
#
# Compressibility (1/GPa) = 0.02646887
#
# Stress axis : x y z
#
# Youngs Moduli (GPa) = 103.35257 81.20637 31.49031
#
# Poissons Ratio (x) = 0.32718 -0.08699
# Poissons Ratio (y) = 0.41640 0.38960
# Poissons Ratio (z) = -0.28552 1.00469
#
# Static dielectric constant tensor:
#      x y z
#    x 1.776140 0.000000 0.025430 
#    y 0.000000 1.740540 0.000000 
#    z 0.025430 0.000000 1.721800 
# 
# From -- ./inp_files/308749.got.cif
#   From: 2010.05.17/outbox.ucp.g08.bks.cvg/sg15_155_cif.got.tgz:308749.got - 2010.06.11 12:40:34.
