data_PCOD9309426
_publ_section_title
;
Structure prediction by ZEFSAII (Michael W. Deem and Ramdas Pophale) SiO2 
 PCOD9309426
Probable space group: C 2/C
;
_chemical_formula_sum "Si O2"
_cell_formula_units_Z 24
_cell_length_a 27.000000
_cell_length_b 9.000000
_cell_length_c 15.000000
_cell_angle_alpha 90.000000
_cell_angle_beta 40.000000
_cell_angle_gamma 90.000000
_cell_volume 2342.960837
_symmetry_space_group_name_H-M "C 2/C"
_symmetry_group_IT_number 15
_symmetry_cell_setting 'monoclinic'
loop_
_space_group_symop_operation_xyz
x,y,z
-x,y,1/2-z
-x,-y,-z
x,-y,1/2+z
1/2+x,1/2+y,z
1/2-x,1/2+y,1/2-z
1/2-x,1/2-y,-z
1/2+x,1/2-y,1/2+z
loop_
_atom_site_type_symbol
_atom_site_label
_atom_site_fract_x
_atom_site_fract_y
_atom_site_fract_z
Si Si1 0.601358 0.617525 0.338464
Si Si2 0.171305 0.660563 0.623172
Si Si3 0.179730 0.562396 0.278531
Si Si4 0.313491 0.777140 0.122209
Si Si5 0.567387 0.279110 0.371472
Si Si6 0.584413 0.100200 0.162931
O O1 0.613128 0.708558 0.231235
O O2 0.662026 0.680559 0.326026
O O3 0.608289 0.440663 0.317986
O O4 0.519695 0.673345 0.488948
O O5 0.250000 0.750000 0.500000
O O6 0.179384 0.546732 0.694567
O O7 0.137619 0.546771 0.597404
O O8 0.241381 0.692298 0.181202
O O9 0.199095 0.446541 0.329416
O O10 0.100329 0.655565 0.395061
O O11 0.380823 0.788648 0.957726
O O12 0.577824 0.193578 0.263669
O O13 0.500000 0.052269 0.250000
#
# Coordination Sequence:
#
# PCOD9309426 Si02
#       6
#     8   8   8   8   8   8
#     4  10  22  42  64  87 127 163 208 255 310 386
#     4  10  25  41  62  91 126 169 208 253 317 376
#     4  10  24  38  64  88 123 165 206 258 314 378
#     4  11  23  40  64  93 124 160 213 261 312 372
#     4  10  22  42  64  89 122 170 205 254 320 371
#     4  11  24  41  64  94 126 163 211 262 311 368
#
# _framework density 10.243449
#
# number of rings (size 3 to 8) (size 9 to 14) (size 15 to 20)
#    0.000    1.667    1.667    1.000   11.667    3.333 
#    0.000    0.833    0.000    0.000    0.000    0.000 
#    0.000    0.000    0.000    0.000    0.000    0.000 
#
# Total GULP energy -133733.901574 kJ/mol
# GULP energy per Si atom -5572.245899 kJ/mol
# Density = 1.022013 g / cm^3
# Si number density = 10.243449 Si / 1000 Ang^3
#
#
#
# Elastic Constant Matrix: (Units=GPa)
#
#
# Indices 1 2 3 4 5 6 
#
# 1 22.0953 34.4342 13.9862 -0.0002 -11.4679 0.0001
# 2 34.4342 159.8863 35.6061 -0.0008 -7.8601 0.0000
# 3 13.9862 35.6061 42.3545 -0.0007 -3.3649 0.0001
# 4 -0.0002 -0.0008 -0.0007 24.2292 0.0002 -25.6711
# 5 -11.4679 -7.8601 -3.3649 0.0002 17.0773 0.0001
# 6 0.0001 0.0000 0.0001 -25.6711 0.0001 2.1672
#
#
#
# Elastic Compliance Matrix: (Units=1/GPa)
#
#
# Indices 1 2 3 4 5 6 
#
# 1 0.123271 -0.018788 -0.019325 0.000001 0.070325 0.000002
# 2 -0.018788 0.010649 -0.003414 0.000000 -0.008388 0.000000
# 3 -0.019325 -0.003414 0.032211 0.000000 -0.008202 -0.000001
# 4 0.000001 0.000000 0.000000 -0.003573 0.000001 -0.042327
# 5 0.070325 -0.008388 -0.008202 0.000001 0.100306 0.000002
# 6 0.000002 0.000000 -0.000001 -0.042327 0.000002 -0.039950
#
#
# Mechanical properties :
#
#
# Convention : Reuss Voigt Hill
#
# Bulk Modulus (GPa) = 12.03717 43.59878 27.81797
# Shear Modulus (GPa) = 14.98537 18.04872 16.51704
#
# Velocity S-wave (km/s) = 2.70749 2.97137 2.84249
# Velocity P-wave (km/s) = 3.95756 5.75322 4.93770
#
# Compressibility (1/GPa) = 0.08307600
#
# Stress axis : x y z
#
# Youngs Moduli (GPa) = 8.11222 93.90822 31.04578
#
# Poissons Ratio (x) = 1.76431 0.59996
# Poissons Ratio (y) = 0.15241 0.10600
# Poissons Ratio (z) = 0.15677 0.32064
#
# Static dielectric constant tensor:
#      x y z
#    x 1.819010 0.000000 0.006330 
#    y 0.000000 1.682670 0.000000 
#    z 0.006330 0.000000 1.762510 
# 
# From -- ./inp_files/176868.got.cif
#   From: 2010.05.17/outbox.ucp.g08.bks.cvg/sg15_89_cif.got.tgz:176868.got - 2010.06.11 12:40:34.
