data_PCOD9309364
_publ_section_title
;
Structure prediction by ZEFSAII (Michael W. Deem and Ramdas Pophale) SiO2 
 PCOD9309364
Probable space group: C 2/C
;
_chemical_formula_sum "Si O2"
_cell_formula_units_Z 32
_cell_length_a 9.000000
_cell_length_b 18.000000
_cell_length_c 21.000000
_cell_angle_alpha 90.000000
_cell_angle_beta 90.000000
_cell_angle_gamma 90.000000
_cell_volume 3402.000000
_symmetry_space_group_name_H-M "C 2/C"
_symmetry_group_IT_number 15
_symmetry_cell_setting 'monoclinic'
loop_
_space_group_symop_operation_xyz
x,y,z
-x,y,1/2-z
-x,-y,-z
x,-y,1/2+z
1/2+x,1/2+y,z
1/2-x,1/2+y,1/2-z
1/2-x,1/2-y,-z
1/2+x,1/2-y,1/2+z
loop_
_atom_site_type_symbol
_atom_site_label
_atom_site_fract_x
_atom_site_fract_y
_atom_site_fract_z
Si Si1 0.658874 0.513915 0.964160
Si Si2 0.699022 0.116890 0.643206
Si Si3 0.122077 0.407782 0.935008
Si Si4 0.338536 0.611862 0.778865
Si Si5 0.800939 0.360752 0.969941
Si Si6 0.699487 0.747983 0.927991
Si Si7 0.643500 0.292525 0.092691
Si Si8 0.569274 0.014410 0.818467
O O1 0.689395 0.566151 0.901450
O O2 0.715844 0.432636 0.944880
O O3 0.500000 0.500000 0.000000
O O4 0.768316 0.548506 0.017918
O O5 0.757961 0.135576 0.713668
O O6 0.688442 0.194742 0.607926
O O7 0.542873 0.076568 0.653955
O O8 0.195750 0.333123 0.907875
O O9 0.074738 0.454470 0.873953
O O10 0.974714 0.383078 0.973954
O O11 0.500000 0.591103 0.750000
O O12 0.344355 0.671903 0.836703
O O13 0.234311 0.546138 0.805916
O O14 0.794235 0.290390 0.922093
O O15 0.727297 0.340625 0.038196
O O16 0.533020 0.714803 0.921453
O O17 0.750000 0.750000 0.000000
O O18 0.500000 0.990726 0.750000
#
# Coordination Sequence:
#
# PCOD9309364 Si02
#       8
#     8   8   8   8   8   8   8   8
#     4  12  24  37  64 100 136 169 220 273 338 391
#     4  11  23  42  63  94 131 176 218 269 328 398
#     4  11  23  41  66  96 130 176 212 275 335 395
#     4  11  23  42  67  92 129 175 222 262 328 406
#     4  10  22  39  66  97 127 166 220 278 328 393
#     4  11  22  39  61  97 134 166 210 275 333 384
#     4  10  22  40  65  99 126 172 220 268 332 397
#     4  10  24  44  66  93 126 175 224 273 326 400
#
# _framework density 9.4062319999999993
#
# number of rings (size 3 to 8) (size 9 to 14) (size 15 to 20)
#    0.000    1.250    3.750    1.875    3.500    1.000 
#    4.500    0.000    0.000    2.250    0.000    0.000 
#    0.000    0.000    0.000    0.000    0.000    0.000 
#
# Total GULP energy -178468.618542 kJ/mol
# GULP energy per Si atom -5577.144329 kJ/mol
# Density = 0.938482 g / cm^3
# Si number density = 9.406232 Si / 1000 Ang^3
#
#
#
# Elastic Constant Matrix: (Units=GPa)
#
#
# Indices 1 2 3 4 5 6 
#
# 1 65.8330 36.6413 34.6004 0.0000 -3.6129 0.0000
# 2 36.6413 93.6368 61.9327 0.0000 14.0099 0.0000
# 3 34.6004 61.9327 134.2964 0.0000 0.9602 0.0000
# 4 0.0000 0.0000 0.0000 30.8384 0.0000 -4.1694
# 5 -3.6129 14.0099 0.9602 0.0000 27.8850 0.0000
# 6 0.0000 0.0000 0.0000 -4.1694 0.0000 30.1319
#
#
#
# Elastic Compliance Matrix: (Units=1/GPa)
#
#
# Indices 1 2 3 4 5 6 
#
# 1 0.020974 -0.008094 -0.001720 0.000000 0.006843 0.000000
# 2 -0.008094 0.020225 -0.007163 0.000000 -0.010963 0.000000
# 3 -0.001720 -0.007163 0.011172 0.000000 0.002991 0.000000
# 4 0.000000 0.000000 0.000000 0.033045 0.000000 0.004573
# 5 0.006843 -0.010963 0.002991 0.000000 0.042153 0.000000
# 6 0.000000 0.000000 0.000000 0.004573 0.000000 0.033820
#
#
# Mechanical properties :
#
#
# Convention : Reuss Voigt Hill
#
# Bulk Modulus (GPa) = 54.29969 62.23499 58.26734
# Shear Modulus (GPa) = 24.81596 28.47717 26.64657
#
# Velocity S-wave (km/s) = 3.63591 3.89490 3.76763
# Velocity P-wave (km/s) = 6.82296 7.30620 7.06871
#
# Compressibility (1/GPa) = 0.01841631
#
# Stress axis : x y z
#
# Youngs Moduli (GPa) = 47.67723 49.44377 89.51283
#
# Poissons Ratio (x) = 0.40017 0.15399
# Poissons Ratio (y) = 0.38588 0.64122
# Poissons Ratio (z) = 0.08202 0.35419
#
# Static dielectric constant tensor:
#      x y z
#    x 1.580790 0.000000 -0.008250 
#    y 0.000000 1.244870 0.000000 
#    z -0.008250 0.000000 1.636460 
# 
# From -- ./inp_files/232714.got.cif
#   From: 2010.05.17/outbox.ucp.g08.bks.cvg/sg15_117_cif.got.tgz:232714.got - 2010.06.11 12:40:34.
