data_PCOD9309501
_publ_section_title
;
Structure prediction by ZEFSAII (Michael W. Deem and Ramdas Pophale) SiO2 
 PCOD9309501
Probable space group: C 2/C
;
_chemical_formula_sum "Si O2"
_cell_formula_units_Z 32
_cell_length_a 15.000000
_cell_length_b 9.000000
_cell_length_c 30.000000
_cell_angle_alpha 90.000000
_cell_angle_beta 50.000000
_cell_angle_gamma 90.000000
_cell_volume 3102.479995
_symmetry_space_group_name_H-M "C 2/C"
_symmetry_group_IT_number 15
_symmetry_cell_setting 'monoclinic'
loop_
_space_group_symop_operation_xyz
x,y,z
-x,y,1/2-z
-x,-y,-z
x,-y,1/2+z
1/2+x,1/2+y,z
1/2-x,1/2+y,1/2-z
1/2-x,1/2-y,-z
1/2+x,1/2-y,1/2+z
loop_
_atom_site_type_symbol
_atom_site_label
_atom_site_fract_x
_atom_site_fract_y
_atom_site_fract_z
Si Si1 0.873377 0.720516 0.129614
Si Si2 0.257210 0.728735 0.419352
Si Si3 0.486155 0.271358 0.637333
Si Si4 0.553144 0.416298 0.526761
Si Si5 0.768545 0.578918 0.691769
Si Si6 0.270743 0.618190 0.899478
Si Si7 0.039885 0.089827 0.820565
Si Si8 0.873907 0.233740 0.983671
O O1 0.785496 0.756991 0.117673
O O2 0.813896 0.591050 0.177566
O O3 0.899688 0.855753 0.153597
O O4 0.004385 0.683308 0.067889
O O5 0.384024 0.789187 0.393218
O O6 0.156695 0.807378 0.479668
O O7 0.257361 0.549232 0.423689
O O8 0.482655 0.328819 0.587157
O O9 0.374004 0.169785 0.679962
O O10 0.478322 0.414132 0.671508
O O11 0.500000 0.500000 0.500000
O O12 0.601882 0.562595 0.534287
O O13 0.757894 0.611014 0.643013
O O14 0.640883 0.614319 0.751946
O O15 0.409139 0.659614 0.859272
O O16 0.169970 0.720501 0.953262
O O17 0.750000 0.250000 0.000000
#
# Coordination Sequence:
#
# PCOD9309501 Si02
#       8
#     8   8   8   8   8   8   8   8
#     4  11  23  41  63  92 124 165 204 253 315 372
#     4  10  23  39  60  90 125 161 200 249 309 376
#     4  11  23  40  60  91 122 162 210 250 305 371
#     4  12  22  39  60  88 129 166 195 251 315 375
#     4  11  25  38  65  90 120 160 210 261 294 364
#     4  10  23  40  64  91 122 160 204 253 314 371
#     4  11  21  46  61  86 122 164 208 250 310 366
#     4  12  22  38  63  94 127 158 199 257 317 372
#
# _framework density 10.314329000000001
#
# number of rings (size 3 to 8) (size 9 to 14) (size 15 to 20)
#    0.000    1.000    3.750    3.000    3.500    1.000 
#    0.000    1.875    0.000    0.000    0.000    0.000 
#    0.000    0.000    0.000    0.000    0.000    0.000 
#
# Total GULP energy -178252.795230 kJ/mol
# GULP energy per Si atom -5570.399851 kJ/mol
# Density = 1.029085 g / cm^3
# Si number density = 10.314329 Si / 1000 Ang^3
#
#
#
# Elastic Constant Matrix: (Units=GPa)
#
#
# Indices 1 2 3 4 5 6 
#
# 1 84.6439 2.0973 -7.5154 0.0000 -9.0785 0.0000
# 2 2.0973 33.0997 19.7985 0.0000 -6.3501 0.0000
# 3 -7.5154 19.7985 90.8167 0.0000 -20.7935 0.0000
# 4 0.0000 0.0000 0.0000 25.9269 0.0000 -4.3400
# 5 -9.0785 -6.3501 -20.7935 0.0000 30.0999 0.0000
# 6 0.0000 0.0000 0.0000 -4.3400 0.0000 32.5137
#
#
#
# Elastic Compliance Matrix: (Units=1/GPa)
#
#
# Indices 1 2 3 4 5 6 
#
# 1 0.012640 -0.001306 0.002543 0.000000 0.005293 0.000000
# 2 -0.001306 0.035035 -0.007298 0.000000 0.001956 0.000000
# 3 0.002543 -0.007298 0.015010 0.000000 0.009596 0.000000
# 4 0.000000 0.000000 0.000000 0.039451 0.000000 0.005266
# 5 0.005293 0.001956 0.009596 0.000000 0.041861 0.000000
# 6 0.000000 0.000000 0.000000 0.005266 0.000000 0.031459
#
#
# Mechanical properties :
#
#
# Convention : Reuss Voigt Hill
#
# Bulk Modulus (GPa) = 19.77790 26.36903 23.07346
# Shear Modulus (GPa) = 24.45776 30.65343 27.55559
#
# Velocity S-wave (km/s) = 3.44702 3.85900 3.65881
# Velocity P-wave (km/s) = 5.04490 5.71545 5.39061
#
# Compressibility (1/GPa) = 0.05056149
#
# Stress axis : x y z
#
# Youngs Moduli (GPa) = 79.11335 28.54282 66.62302
#
# Poissons Ratio (x) = 0.03729 -0.16941
# Poissons Ratio (y) = 0.10335 0.48623
# Poissons Ratio (z) = -0.20117 0.20831
#
# Static dielectric constant tensor:
#      x y z
#    x 1.804850 0.000000 0.100190 
#    y 0.000000 1.687070 0.000000 
#    z 0.100190 0.000000 1.746330 
# 
# From -- ./inp_files/313114.got.cif
#   From: 2010.05.17/outbox.ucp.g08.bks.cvg/sg15_157_cif.got.tgz:313114.got - 2010.06.11 12:40:34.
