data_PCOD9309227
_publ_section_title
;
Structure prediction by ZEFSAII (Michael W. Deem and Ramdas Pophale) SiO2 
 PCOD9309227
Probable space group: C 2/C
;
_chemical_formula_sum "Si O2"
_cell_formula_units_Z 24
_cell_length_a 12.000000
_cell_length_b 9.000000
_cell_length_c 24.000000
_cell_angle_alpha 90.000000
_cell_angle_beta 110.000000
_cell_angle_gamma 90.000000
_cell_volume 2435.683273
_symmetry_space_group_name_H-M "C 2/C"
_symmetry_group_IT_number 15
_symmetry_cell_setting 'monoclinic'
loop_
_space_group_symop_operation_xyz
x,y,z
-x,y,1/2-z
-x,-y,-z
x,-y,1/2+z
1/2+x,1/2+y,z
1/2-x,1/2+y,1/2-z
1/2-x,1/2-y,-z
1/2+x,1/2-y,1/2+z
loop_
_atom_site_type_symbol
_atom_site_label
_atom_site_fract_x
_atom_site_fract_y
_atom_site_fract_z
Si Si1 0.221885 0.967429 0.652444
Si Si2 0.158938 0.364426 0.134142
Si Si3 0.094890 0.706144 0.845462
Si Si4 0.282998 0.899506 0.951661
Si Si5 0.118186 0.095798 0.526417
Si Si6 0.629281 0.525363 0.263709
O O1 0.211489 0.798512 0.629386
O O2 0.348421 0.051511 0.667871
O O3 0.149431 0.066349 0.596171
O O4 0.164303 0.962830 0.704430
O O5 0.164837 0.473379 0.080556
O O6 0.257908 0.441116 0.190762
O O7 0.031509 0.333428 0.144828
O O8 0.178820 0.799946 0.903251
O O9 0.107092 0.820647 0.794652
O O10 0.383277 0.774761 0.981634
O O11 0.218916 0.953477 0.998008
O O12 0.000000 0.000000 0.500000
O O13 0.500000 0.447595 0.250000
#
# Coordination Sequence:
#
# PCOD9309227 Si02
#       6
#     8   8   8   8   8   8
#     4  11  23  39  64  95 121 167 214 256 313 376
#     4  11  23  42  66  94 127 167 209 262 316 372
#     4  10  22  44  64  89 129 163 211 261 318 379
#     4   9  22  42  64  93 126 169 211 258 316 372
#     4  10  21  40  66  91 129 170 209 260 315 370
#     4  11  23  42  64  89 129 165 204 260 320 377
#
# _framework density 9.8534980000000001
#
# number of rings (size 3 to 8) (size 9 to 14) (size 15 to 20)
#    0.000    1.667    1.667    2.000    2.333    2.000 
#    9.000   11.667    0.000    0.000    0.000    0.000 
#    0.000    0.000    0.000    0.000    0.000    0.000 
#
# Total GULP energy -133619.166670 kJ/mol
# GULP energy per Si atom -5567.465278 kJ/mol
# Density = 0.983107 g / cm^3
# Si number density = 9.853498 Si / 1000 Ang^3
#
#
#
# Elastic Constant Matrix: (Units=GPa)
#
#
# Indices 1 2 3 4 5 6 
#
# 1 132.3955 44.5964 6.5264 0.0000 -12.5851 0.0000
# 2 44.5964 96.7648 -3.4518 0.0000 -10.0506 0.0000
# 3 6.5264 -3.4518 55.9442 0.0000 -24.3325 0.0000
# 4 0.0000 0.0000 0.0000 31.3556 0.0000 -5.3585
# 5 -12.5851 -10.0506 -24.3325 0.0000 40.3802 0.0000
# 6 0.0000 0.0000 0.0000 -5.3585 0.0000 45.8981
#
#
#
# Elastic Compliance Matrix: (Units=1/GPa)
#
#
# Indices 1 2 3 4 5 6 
#
# 1 0.009092 -0.004070 -0.000705 0.000000 0.001396 0.000000
# 2 -0.004070 0.012683 0.002817 0.000000 0.003586 0.000000
# 3 -0.000705 0.002817 0.024855 0.000000 0.015459 0.000000
# 4 0.000000 0.000000 0.000000 0.032541 0.000000 0.003799
# 5 0.001396 0.003586 0.015459 0.000000 0.035407 0.000000
# 6 0.000000 0.000000 0.000000 0.003799 0.000000 0.022231
#
#
# Mechanical properties :
#
#
# Convention : Reuss Voigt Hill
#
# Bulk Modulus (GPa) = 23.41182 42.27183 32.84182
# Shear Modulus (GPa) = 32.26588 39.35568 35.81078
#
# Velocity S-wave (km/s) = 4.05072 4.47367 4.26744
# Velocity P-wave (km/s) = 5.81236 6.94131 6.40177
#
# Compressibility (1/GPa) = 0.04271347
#
# Stress axis : x y z
#
# Youngs Moduli (GPa) = 109.99197 78.84491 40.23411
#
# Poissons Ratio (x) = 0.32092 0.02835
# Poissons Ratio (y) = 0.44769 -0.11334
# Poissons Ratio (z) = 0.07750 -0.22211
#
# Static dielectric constant tensor:
#      x y z
#    x 1.709810 0.000000 0.076380 
#    y 0.000000 1.721570 0.000000 
#    z 0.076380 0.000000 1.809250 
# 
# From -- ./inp_files/267775.got.cif
#   From: 2010.05.17/outbox.ucp.g08.bks.cvg/sg15_134_cif.got.tgz:267775.got - 2010.06.11 12:40:34.
