data_PCOD9309454
_publ_section_title
;
Structure prediction by ZEFSAII (Michael W. Deem and Ramdas Pophale) SiO2 
 PCOD9309454
Probable space group: C 2/C
;
_chemical_formula_sum "Si O2"
_cell_formula_units_Z 30
_cell_length_a 15.000000
_cell_length_b 27.000000
_cell_length_c 21.000000
_cell_angle_alpha 90.000000
_cell_angle_beta 20.000000
_cell_angle_gamma 90.000000
_cell_volume 2908.881319
_symmetry_space_group_name_H-M "C 2/C"
_symmetry_group_IT_number 15
_symmetry_cell_setting 'monoclinic'
loop_
_space_group_symop_operation_xyz
x,y,z
-x,y,1/2-z
-x,-y,-z
x,-y,1/2+z
1/2+x,1/2+y,z
1/2-x,1/2+y,1/2-z
1/2-x,1/2-y,-z
1/2+x,1/2-y,1/2+z
loop_
_atom_site_type_symbol
_atom_site_label
_atom_site_fract_x
_atom_site_fract_y
_atom_site_fract_z
Si Si1 0.758705 0.205392 0.372660
Si Si2 0.915904 0.842989 0.235485
Si Si3 0.500000 0.078375 0.750000
Si Si4 0.009482 0.876601 0.509491
Si Si5 0.805492 0.072345 0.026216
Si Si6 0.328238 0.886094 0.643566
Si Si7 0.791776 0.215541 0.700697
Si Si8 0.951625 0.028189 0.359519
O O1 0.814996 0.150048 0.310671
O O2 0.514491 0.205312 0.583944
O O3 0.690832 0.234980 0.353154
O O4 0.000000 0.226948 0.250000
O O5 0.635087 0.872828 0.427186
O O6 0.892223 0.795121 0.205141
O O7 0.000000 0.830000 0.250000
O O8 0.128038 0.879657 0.061349
O O9 0.723324 0.109428 0.634905
O O10 0.680594 0.051396 0.573090
O O11 0.060926 0.825331 0.439714
O O12 0.948652 0.917822 0.497202
O O13 0.772905 0.872947 0.718031
O O14 0.500000 0.066387 0.250000
O O15 0.927824 0.026432 0.905757
O O16 0.202265 0.940316 0.716503
O O17 0.000000 0.026583 0.250000
#
# Coordination Sequence:
#
# PCOD9309454 Si02
#       8
#     8   8   4   8   8   8   8   8
#     4  11  22  37  62  94 133 169 217 270 333 412
#     4  10  22  43  65  93 128 172 223 279 329 393
#     4  10  24  40  60  92 134 172 216 266 338 390
#     4  10  23  40  64  90 135 171 213 277 326 402
#     4  11  23  43  66  98 130 176 226 276 331 399
#     4  10  23  40  63  97 129 174 220 270 335 400
#     4  10  23  38  62  94 126 169 217 269 332 398
#     4  11  24  41  66  96 133 174 222 275 334 402
#
# _framework density 10.313243
#
# number of rings (size 3 to 8) (size 9 to 14) (size 15 to 20)
#    0.000    1.600    0.667    2.800   10.267    2.667 
#    2.400    2.667    0.000    8.000    0.000    0.000 
#    0.000    0.000    0.000    0.000    0.000    0.000 
#
# Total GULP energy -167238.114227 kJ/mol
# GULP energy per Si atom -5574.603808 kJ/mol
# Density = 1.028977 g / cm^3
# Si number density = 10.313243 Si / 1000 Ang^3
#
#
#
# Elastic Constant Matrix: (Units=GPa)
#
#
# Indices 1 2 3 4 5 6 
#
# 1 118.0140 25.7312 33.7002 0.3424 8.1678 -0.4457
# 2 25.7312 53.7214 8.5850 -4.2413 -2.0345 -2.2900
# 3 33.7002 8.5850 90.5670 9.2046 20.7415 4.9758
# 4 0.3424 -4.2413 9.2046 225.1223 -5.3176 109.6971
# 5 8.1678 -2.0345 20.7415 -5.3176 43.4455 -2.6387
# 6 -0.4457 -2.2900 4.9758 109.6971 -2.6387 75.8851
#
#
#
# Elastic Compliance Matrix: (Units=1/GPa)
#
#
# Indices 1 2 3 4 5 6 
#
# 1 0.010446 -0.004490 -0.003332 -0.000130 -0.000580 0.000312
# 2 -0.004490 0.021037 -0.000906 0.000441 0.002323 0.000112
# 3 -0.003332 -0.000906 0.013843 -0.000520 -0.006114 -0.000416
# 4 -0.000130 0.000441 -0.000520 0.015069 0.000819 -0.021708
# 5 -0.000580 0.002323 -0.006114 0.000819 0.026266 0.000197
# 6 0.000312 0.000112 -0.000416 -0.021708 0.000197 0.044598
#
#
# Mechanical properties :
#
#
# Convention : Reuss Voigt Hill
#
# Bulk Modulus (GPa) = 35.88152 44.25948 40.07050
# Shear Modulus (GPa) = 31.64424 81.84297 56.74360
#
# Velocity S-wave (km/s) = 3.92108 6.30593 5.25069
# Velocity P-wave (km/s) = 6.15901 8.63272 7.49857
#
# Compressibility (1/GPa) = 0.02786950
#
# Stress axis : x y z
#
# Youngs Moduli (GPa) = 95.73244 47.53453 72.23695
#
# Poissons Ratio (x) = 0.21341 0.24072
# Poissons Ratio (y) = 0.42981 0.06548
# Poissons Ratio (z) = 0.31902 0.04309
#
# Static dielectric constant tensor:
#      x y z
#    x 1.759870 -0.000230 -0.006430 
#    y -0.000230 1.770470 0.000450 
#    z -0.006430 0.000450 1.706390 
# 
# From -- ./inp_files/245814.got.cif
#   From: 2010.05.17/outbox.ucp.g08.bks.cvg/sg15_123_cif.got.tgz:245814.got - 2010.06.11 12:40:34.
