data_PCOD9309596
_publ_section_title
;
Structure prediction by ZEFSAII (Michael W. Deem and Ramdas Pophale) SiO2 
 PCOD9309596
Probable space group: C 2/C
;
_chemical_formula_sum "Si O2"
_cell_formula_units_Z 20
_cell_length_a 9.000000
_cell_length_b 24.000000
_cell_length_c 18.000000
_cell_angle_alpha 90.000000
_cell_angle_beta 30.000000
_cell_angle_gamma 90.000000
_cell_volume 1944.000000
_symmetry_space_group_name_H-M "C 2/C"
_symmetry_group_IT_number 15
_symmetry_cell_setting 'monoclinic'
loop_
_space_group_symop_operation_xyz
x,y,z
-x,y,1/2-z
-x,-y,-z
x,-y,1/2+z
1/2+x,1/2+y,z
1/2-x,1/2+y,1/2-z
1/2-x,1/2-y,-z
1/2+x,1/2-y,1/2+z
loop_
_atom_site_type_symbol
_atom_site_label
_atom_site_fract_x
_atom_site_fract_y
_atom_site_fract_z
Si Si1 0.594098 0.178988 0.124948
Si Si2 0.585531 0.115856 0.622998
Si Si3 0.258609 0.282986 0.197177
Si Si4 0.210694 0.480196 0.340929
Si Si5 0.625255 0.399328 0.777762
O O1 0.500000 0.173562 0.250000
O O2 0.406534 0.230961 0.173697
O O3 0.452873 0.126391 0.144514
O O4 0.947807 0.187395 0.964723
O O5 0.500000 0.112967 0.750000
O O6 0.409767 0.172488 0.677807
O O7 0.450623 0.061276 0.644177
O O8 0.909324 0.117840 0.440621
O O9 0.000000 0.266477 0.250000
O O10 0.500000 0.450971 0.250000
O O11 0.333638 0.534309 0.244816
O O12 0.000000 0.500000 0.500000
O O13 0.500000 0.382790 0.750000
#
# Coordination Sequence:
#
# PCOD9309596 Si02
#       5
#     8   8   8   8   8
#     4  11  24  41  66  98 130 174 225 272 334 394
#     4  11  24  42  67  96 132 174 221 276 330 384
#     4  10  24  43  63  95 132 173 219 275 333 395
#     4  11  23  44  66  98 134 177 225 269 331 401
#     4  11  24  43  66  96 137 179 218 273 333 397
#
# _framework density 10.288066000000001
#
# number of rings (size 3 to 8) (size 9 to 14) (size 15 to 20)
#    0.000    1.200    4.000    3.000    2.800    8.800 
#    0.000    0.000    0.000    0.000    0.000    0.000 
#    0.000    0.000    0.000    0.000    0.000    0.000 
#
# Total GULP energy -111493.422060 kJ/mol
# GULP energy per Si atom -5574.671103 kJ/mol
# Density = 1.026465 g / cm^3
# Si number density = 10.288066 Si / 1000 Ang^3
#
#
#
# Elastic Constant Matrix: (Units=GPa)
#
#
# Indices 1 2 3 4 5 6 
#
# 1 94.4414 16.9093 28.5277 0.0112 -13.5166 -0.0003
# 2 16.9093 60.9997 10.3073 0.0111 -5.7962 -0.0018
# 3 28.5277 10.3073 99.5305 0.0683 -14.5456 -0.0155
# 4 0.0112 0.0111 0.0683 34.9197 -0.0007 -11.0889
# 5 -13.5166 -5.7962 -14.5456 -0.0007 40.3568 0.0008
# 6 -0.0003 -0.0018 -0.0155 -11.0889 0.0008 34.8996
#
#
#
# Elastic Compliance Matrix: (Units=1/GPa)
#
#
# Indices 1 2 3 4 5 6 
#
# 1 0.012319 -0.002674 -0.002858 0.000002 0.002712 -0.000001
# 2 -0.002674 0.017401 -0.000846 -0.000003 0.001299 -0.000001
# 3 -0.002858 -0.000846 0.011396 -0.000022 0.003029 -0.000002
# 4 0.000002 -0.000003 -0.000022 0.031851 -0.000007 0.010120
# 5 0.002712 0.001299 0.003029 -0.000007 0.026966 -0.000001
# 6 -0.000001 -0.000001 -0.000002 0.010120 -0.000001 0.031869
#
#
# Mechanical properties :
#
#
# Convention : Reuss Voigt Hill
#
# Bulk Modulus (GPa) = 35.25945 40.71781 37.98863
# Shear Modulus (GPa) = 32.46529 35.31705 33.89117
#
# Velocity S-wave (km/s) = 3.97648 4.14745 4.06286
# Velocity P-wave (km/s) = 6.18518 6.53964 6.36488
#
# Compressibility (1/GPa) = 0.02836119
#
# Stress axis : x y z
#
# Youngs Moduli (GPa) = 81.17754 57.46751 87.74639
#
# Poissons Ratio (x) = 0.15368 0.25074
# Poissons Ratio (y) = 0.21709 0.07421
# Poissons Ratio (z) = 0.23197 0.04860
#
# Static dielectric constant tensor:
#      x y z
#    x 1.776960 -0.000010 -0.021600 
#    y -0.000010 1.755540 0.000010 
#    z -0.021600 0.000010 1.734690 
# 
# From -- ./inp_files/80454.got.cif
#   From: 2010.05.17/outbox.ucp.g08.bks.cvg/sg15_41_cif.got.tgz:80454.got - 2010.06.11 12:40:34.
