data_PCOD9309660
_publ_section_title
;
Structure prediction by ZEFSAII (Michael W. Deem and Ramdas Pophale) SiO2 
 PCOD9309660
Probable space group: C 2/C
;
_chemical_formula_sum "Si O2"
_cell_formula_units_Z 22
_cell_length_a 12.000000
_cell_length_b 15.000000
_cell_length_c 15.000000
_cell_angle_alpha 90.000000
_cell_angle_beta 120.000000
_cell_angle_gamma 90.000000
_cell_volume 2338.268590
_symmetry_space_group_name_H-M "C 2/C"
_symmetry_group_IT_number 15
_symmetry_cell_setting 'monoclinic'
loop_
_space_group_symop_operation_xyz
x,y,z
-x,y,1/2-z
-x,-y,-z
x,-y,1/2+z
1/2+x,1/2+y,z
1/2-x,1/2+y,1/2-z
1/2-x,1/2-y,-z
1/2+x,1/2-y,1/2+z
loop_
_atom_site_type_symbol
_atom_site_label
_atom_site_fract_x
_atom_site_fract_y
_atom_site_fract_z
Si Si1 0.844624 0.015643 0.195925
Si Si2 0.421595 0.345010 0.313052
Si Si3 0.500000 0.069607 0.250000
Si Si4 0.124628 0.241973 0.011664
Si Si5 0.762656 0.676829 0.238971
Si Si6 0.393987 0.951450 0.516663
O O1 0.790475 0.108271 0.210384
O O2 0.000000 0.026707 0.250000
O O3 0.844815 0.936640 0.269694
O O4 0.749399 0.980283 0.077740
O O5 0.500000 0.330812 0.250000
O O6 0.530018 0.329834 0.429763
O O7 0.319069 0.269530 0.294675
O O8 0.384783 0.128947 0.242660
O O9 0.568736 0.026250 0.365127
O O10 0.162144 0.204940 0.122802
O O11 0.081986 0.345464 0.991226
O O12 0.250000 0.250000 0.000000
O O13 0.500000 0.000000 0.500000
#
# Coordination Sequence:
#
# PCOD9309660 Si02
#       6
#     8   8   4   8   8   8
#     4  11  25  41  62  93 134 166 206 261 331 374
#     4  11  19  36  60  91 119 159 208 260 316 366
#     4  12  22  36  66 100 120 166 218 260 314 374
#     4  12  19  34  63  90 122 156 211 269 310 362
#     4  12  21  38  65  94 124 164 215 265 313 375
#     4  12  22  40  66  96 127 165 214 268 307 377
#
# _framework density 9.408671
#
# number of rings (size 3 to 8) (size 9 to 14) (size 15 to 20)
#    0.000    0.364   10.000    1.091    0.000    0.727 
#    0.000    0.000    8.000    2.182    0.000    0.000 
#    0.000    0.000    0.000    0.000    0.000    0.000 
#
# Total GULP energy -122510.825012 kJ/mol
# GULP energy per Si atom -5568.673864 kJ/mol
# Density = 0.938726 g / cm^3
# Si number density = 9.408671 Si / 1000 Ang^3
#
#
#
# Elastic Constant Matrix: (Units=GPa)
#
#
# Indices 1 2 3 4 5 6 
#
# 1 46.0310 22.3783 7.9750 0.0000 11.5637 0.0000
# 2 22.3783 89.8102 10.6714 0.0000 -4.2418 0.0000
# 3 7.9750 10.6714 142.6141 0.0000 23.2984 0.0000
# 4 0.0000 0.0000 0.0000 24.1849 0.0000 4.3812
# 5 11.5637 -4.2418 23.2984 0.0000 24.4260 0.0000
# 6 0.0000 0.0000 0.0000 4.3812 0.0000 28.1078
#
#
#
# Elastic Compliance Matrix: (Units=1/GPa)
#
#
# Indices 1 2 3 4 5 6 
#
# 1 0.029891 -0.008480 0.001795 0.000000 -0.017336 0.000000
# 2 -0.008480 0.013864 -0.001910 0.000000 0.008244 0.000000
# 3 0.001795 -0.001910 0.008585 0.000000 -0.009370 0.000000
# 4 0.000000 0.000000 0.000000 0.042550 0.000000 -0.006632
# 5 -0.017336 0.008244 -0.009370 0.000000 0.059517 0.000000
# 6 0.000000 0.000000 0.000000 -0.006632 0.000000 0.036611
#
#
# Mechanical properties :
#
#
# Convention : Reuss Voigt Hill
#
# Bulk Modulus (GPa) = 28.44915 40.05607 34.25261
# Shear Modulus (GPa) = 22.73504 31.17243 26.95374
#
# Velocity S-wave (km/s) = 3.47968 4.07453 3.78880
# Velocity P-wave (km/s) = 5.59425 6.59308 6.11410
#
# Compressibility (1/GPa) = 0.03515043
#
# Stress axis : x y z
#
# Youngs Moduli (GPa) = 33.45460 72.12953 116.47836
#
# Poissons Ratio (x) = 0.61167 -0.20910
# Poissons Ratio (y) = 0.28370 0.22247
# Poissons Ratio (z) = -0.06006 0.13777
#
# Static dielectric constant tensor:
#      x y z
#    x 1.660220 0.000000 0.028250 
#    y 0.000000 2.001440 0.000000 
#    z 0.028250 0.000000 1.709510 
# 
# From -- ./inp_files/143345.got.cif
#   From: 2010.05.17/outbox.ucp.g08.bks.cvg/sg15_72_cif.got.tgz:143345.got - 2010.06.11 12:40:34.
