data_PCOD9309746
_publ_section_title
;
Structure prediction by ZEFSAII (Michael W. Deem and Ramdas Pophale) SiO2 
 PCOD9309746
Probable space group: C 2/C
;
_chemical_formula_sum "Si O2"
_cell_formula_units_Z 32
_cell_length_a 9.000000
_cell_length_b 18.000000
_cell_length_c 30.000000
_cell_angle_alpha 90.000000
_cell_angle_beta 40.000000
_cell_angle_gamma 90.000000
_cell_volume 3123.947783
_symmetry_space_group_name_H-M "C 2/C"
_symmetry_group_IT_number 15
_symmetry_cell_setting 'monoclinic'
loop_
_space_group_symop_operation_xyz
x,y,z
-x,y,1/2-z
-x,-y,-z
x,-y,1/2+z
1/2+x,1/2+y,z
1/2-x,1/2+y,1/2-z
1/2-x,1/2-y,-z
1/2+x,1/2-y,1/2+z
loop_
_atom_site_type_symbol
_atom_site_label
_atom_site_fract_x
_atom_site_fract_y
_atom_site_fract_z
Si Si1 0.165765 0.755522 0.144170
Si Si2 0.288665 0.424620 0.518238
Si Si3 0.310772 0.584128 0.829344
Si Si4 0.376644 0.119723 0.175481
Si Si5 0.110295 0.176670 0.080233
Si Si6 0.899987 0.300303 0.998434
Si Si7 0.046424 0.932209 0.672636
Si Si8 0.740526 0.094446 0.541711
O O1 0.092930 0.835011 0.180017
O O2 0.370067 0.719991 0.127487
O O3 0.291485 0.780580 0.070337
O O4 0.961317 0.697426 0.178470
O O5 0.165318 0.381577 0.505856
O O6 0.290441 0.512399 0.510775
O O7 0.550466 0.397050 0.469941
O O8 0.120455 0.411683 0.600141
O O9 0.500000 0.557184 0.750000
O O10 0.340682 0.514363 0.855893
O O11 0.034631 0.593982 0.881999
O O12 0.208947 0.115413 0.170160
O O13 0.216524 0.074882 0.247490
O O14 0.050658 0.105333 0.123681
O O15 0.325434 0.212650 0.058276
O O16 0.213456 0.153079 0.008435
O O17 0.750000 0.250000 0.000000
#
# Coordination Sequence:
#
# PCOD9309746 Si02
#       8
#     8   8   8   8   8   8   8   8
#     4  12  27  40  66 104 142 169 227 285 341 401
#     4  11  22  40  68 100 130 184 225 284 324 398
#     4  12  25  45  68 100 134 178 220 284 337 399
#     4  11  21  47  64  96 130 184 227 265 335 413
#     4  12  24  41  66 105 133 181 223 278 335 400
#     4  12  22  39  64  95 140 174 220 272 340 395
#     4  11  24  44  75  88 132 186 232 268 329 412
#     4  11  23  41  69  98 138 169 236 277 335 394
#
# _framework density 10.243449
#
# number of rings (size 3 to 8) (size 9 to 14) (size 15 to 20)
#    0.000    0.500    7.500    0.375    5.250    1.000 
#    0.000    0.000    0.000    3.000    0.000    0.000 
#    0.000    0.000    0.000    0.000    0.000    0.000 
#
# Total GULP energy -178411.933245 kJ/mol
# GULP energy per Si atom -5575.372914 kJ/mol
# Density = 1.022013 g / cm^3
# Si number density = 10.243449 Si / 1000 Ang^3
#
#
#
# Elastic Constant Matrix: (Units=GPa)
#
#
# Indices 1 2 3 4 5 6 
#
# 1 88.8655 46.3383 2.5929 0.0013 -13.6851 -0.0006
# 2 46.3383 116.1430 0.1795 -0.0008 -11.0614 0.0008
# 3 2.5929 0.1795 75.8865 0.0011 -15.9986 -0.0017
# 4 0.0013 -0.0008 0.0011 29.8192 -0.0012 -0.5552
# 5 -13.6851 -11.0614 -15.9986 -0.0012 33.8185 0.0005
# 6 -0.0006 0.0008 -0.0017 -0.5552 0.0005 43.3348
#
#
#
# Elastic Compliance Matrix: (Units=1/GPa)
#
#
# Indices 1 2 3 4 5 6 
#
# 1 0.014772 -0.005476 0.000434 -0.000001 0.004392 0.000000
# 2 -0.005476 0.010947 0.000499 0.000001 0.001600 0.000000
# 3 0.000434 0.000499 0.014699 0.000000 0.007292 0.000000
# 4 -0.000001 0.000001 0.000000 0.033543 0.000001 0.000430
# 5 0.004392 0.001600 0.007292 0.000001 0.035320 0.000000
# 6 0.000000 0.000000 0.000000 0.000430 0.000000 0.023082
#
#
# Mechanical properties :
#
#
# Convention : Reuss Voigt Hill
#
# Bulk Modulus (GPa) = 31.91733 42.12404 37.02069
# Shear Modulus (GPa) = 32.91785 36.84680 34.88233
#
# Velocity S-wave (km/s) = 4.01281 4.24554 4.13081
# Velocity P-wave (km/s) = 6.08961 6.68123 6.39227
#
# Compressibility (1/GPa) = 0.03133094
#
# Stress axis : x y z
#
# Youngs Moduli (GPa) = 67.69504 91.35294 68.03197
#
# Poissons Ratio (x) = 0.50026 -0.02954
# Poissons Ratio (y) = 0.37071 -0.03392
# Poissons Ratio (z) = -0.02939 -0.04555
#
# Static dielectric constant tensor:
#      x y z
#    x 1.699290 -0.000010 -0.001820 
#    y -0.000010 1.786100 0.000010 
#    z -0.001820 0.000010 1.747120 
# 
# From -- ./inp_files/308740.got.cif
#   From: 2010.05.17/outbox.ucp.g08.bks.cvg/sg15_155_cif.got.tgz:308740.got - 2010.06.11 12:40:34.
