data_PCOD9309665
_publ_section_title
;
Structure prediction by ZEFSAII (Michael W. Deem and Ramdas Pophale) SiO2 
 PCOD9309665
Probable space group: C 2/C
;
_chemical_formula_sum "Si O2"
_cell_formula_units_Z 32
_cell_length_a 18.000000
_cell_length_b 21.000000
_cell_length_c 24.000000
_cell_angle_alpha 90.000000
_cell_angle_beta 20.000000
_cell_angle_gamma 90.000000
_cell_volume 3102.806740
_symmetry_space_group_name_H-M "C 2/C"
_symmetry_group_IT_number 15
_symmetry_cell_setting 'monoclinic'
loop_
_space_group_symop_operation_xyz
x,y,z
-x,y,1/2-z
-x,-y,-z
x,-y,1/2+z
1/2+x,1/2+y,z
1/2-x,1/2+y,1/2-z
1/2-x,1/2-y,-z
1/2+x,1/2-y,1/2+z
loop_
_atom_site_type_symbol
_atom_site_label
_atom_site_fract_x
_atom_site_fract_y
_atom_site_fract_z
Si Si1 0.858911 0.606529 0.794336
Si Si2 0.504424 0.706665 0.420851
Si Si3 0.776261 0.463015 0.873011
Si Si4 0.737043 0.548586 0.595426
Si Si5 0.822931 0.611235 0.229494
Si Si6 0.304739 0.486865 0.248427
Si Si7 0.157114 0.192482 0.189873
Si Si8 0.397781 0.079161 0.976496
O O1 0.786246 0.533390 0.838555
O O2 0.000000 0.609706 0.750000
O O3 0.015594 0.624445 0.633441
O O4 0.655690 0.651400 0.944817
O O5 0.736726 0.681595 0.278614
O O6 0.384726 0.769425 0.526680
O O7 0.531874 0.705507 0.335140
O O8 0.764695 0.411874 0.832230
O O9 0.000000 0.454892 0.750000
O O10 0.549694 0.462863 0.065772
O O11 0.500000 0.572818 0.750000
O O12 0.743684 0.519482 0.652513
O O13 0.792486 0.483899 0.522401
O O14 0.920661 0.600535 0.457965
O O15 0.723317 0.557637 0.257484
O O16 0.116608 0.443929 0.352917
O O17 0.000000 0.212073 0.250000
O O18 0.225180 0.118932 0.133487
#
# Coordination Sequence:
#
# PCOD9309665 Si02
#       8
#     8   8   8   8   8   8   8   8
#     4  11  21  34  56  84 118 159 195 234 290 349
#     4  12  24  40  61  83 119 161 202 250 291 341
#     4  11  21  34  57  87 120 154 196 238 297 359
#     4  11  22  35  55  85 121 157 193 239 301 356
#     4  11  21  39  56  87 118 156 197 242 299 361
#     4  11  20  34  54  83 117 155 195 239 294 358
#     4  12  25  42  60  88 120 159 209 244 285 347
#     4  11  22  37  57  84 120 161 195 237 292 348
#
# _framework density 10.313243
#
# number of rings (size 3 to 8) (size 9 to 14) (size 15 to 20)
#    0.000    0.750    3.750    7.500    1.750    0.000 
#    0.000    0.000    0.000    0.000    0.000   14.875 
#    0.000    0.000    0.000    0.000    0.000    0.000 
#
# Total GULP energy -178790.994517 kJ/mol
# GULP energy per Si atom -5587.218579 kJ/mol
# Density = 1.028977 g / cm^3
# Si number density = 10.313243 Si / 1000 Ang^3
#
#
#
# Elastic Constant Matrix: (Units=GPa)
#
#
# Indices 1 2 3 4 5 6 
#
# 1 52.6135 8.8624 18.6449 -0.4703 4.4380 0.0382
# 2 8.8624 36.5554 -0.1033 0.5133 -13.9005 0.0014
# 3 18.6449 -0.1033 117.4924 -0.8541 -9.9755 0.0879
# 4 -0.4703 0.5133 -0.8541 260.5543 1.0236 -23.6467
# 5 4.4380 -13.9005 -9.9755 1.0236 39.8189 -0.0659
# 6 0.0382 0.0014 0.0879 -23.6467 -0.0659 12.9318
#
#
#
# Elastic Compliance Matrix: (Units=1/GPa)
#
#
# Indices 1 2 3 4 5 6 
#
# 1 0.022285 -0.007781 -0.004071 0.000072 -0.006222 0.000063
# 2 -0.007781 0.034375 0.002408 -0.000144 0.013474 -0.000192
# 3 -0.004071 0.002408 0.009471 0.000002 0.003667 -0.000031
# 4 0.000072 -0.000144 0.000002 0.004603 -0.000162 0.008415
# 5 -0.006222 0.013474 0.003667 -0.000162 0.031433 -0.000145
# 6 0.000063 -0.000192 -0.000031 0.008415 -0.000145 0.092716
#
#
# Mechanical properties :
#
#
# Convention : Reuss Voigt Hill
#
# Bulk Modulus (GPa) = 21.16751 29.05214 25.10982
# Shear Modulus (GPa) = 21.78467 74.61147 48.19807
#
# Velocity S-wave (km/s) = 3.25337 6.02090 4.83919
# Velocity P-wave (km/s) = 4.93935 7.90255 6.58967
#
# Compressibility (1/GPa) = 0.04724222
#
# Stress axis : x y z
#
# Youngs Moduli (GPa) = 44.87254 29.09123 105.58862
#
# Poissons Ratio (x) = 0.22637 0.42986
# Poissons Ratio (y) = 0.34917 -0.25427
# Poissons Ratio (z) = 0.18268 -0.07005
#
# Static dielectric constant tensor:
#      x y z
#    x 1.795360 -0.000050 0.070590 
#    y -0.000050 1.763180 -0.000460 
#    z 0.070590 -0.000460 1.980380 
# 
# From -- ./inp_files/278119.got.cif
#   From: 2010.05.17/outbox.ucp.g08.bks.cvg/sg15_140_cif.got.tgz:278119.got - 2010.06.11 12:40:34.
