data_PCOD9309427
_publ_section_title
;
Structure prediction by ZEFSAII (Michael W. Deem and Ramdas Pophale) SiO2 
 PCOD9309427
Probable space group: C 2/C
;
_chemical_formula_sum "Si O2"
_cell_formula_units_Z 26
_cell_length_a 18.000000
_cell_length_b 15.000000
_cell_length_c 30.000000
_cell_angle_alpha 90.000000
_cell_angle_beta 160.000000
_cell_angle_gamma 90.000000
_cell_volume 2770.363161
_symmetry_space_group_name_H-M "C 2/C"
_symmetry_group_IT_number 15
_symmetry_cell_setting 'monoclinic'
loop_
_space_group_symop_operation_xyz
x,y,z
-x,y,1/2-z
-x,-y,-z
x,-y,1/2+z
1/2+x,1/2+y,z
1/2-x,1/2+y,1/2-z
1/2-x,1/2-y,-z
1/2+x,1/2-y,1/2+z
loop_
_atom_site_type_symbol
_atom_site_label
_atom_site_fract_x
_atom_site_fract_y
_atom_site_fract_z
Si Si1 0.190789 0.941872 0.283313
Si Si2 0.416587 0.823301 0.959820
Si Si3 0.054302 0.130017 0.073533
Si Si4 0.872067 0.389600 0.835965
Si Si5 0.500000 0.432402 0.750000
Si Si6 0.213830 0.145200 0.985345
Si Si7 0.742021 0.036829 0.398815
O O1 0.372936 0.885453 0.412030
O O2 0.301386 0.012874 0.312855
O O3 0.045019 0.002100 0.234081
O O4 0.029766 0.877742 0.166259
O O5 0.373184 0.828740 0.881666
O O6 0.212671 0.869729 0.869683
O O7 0.458061 0.724880 0.002984
O O8 0.212169 0.140869 0.205546
O O9 0.173011 0.089030 0.096955
O O10 0.881120 0.052039 0.987354
O O11 0.110389 0.395879 0.949326
O O12 0.253218 0.103714 0.056385
O O13 0.250000 0.250000 0.000000
O O14 0.500000 0.008476 0.250000
#
# Coordination Sequence:
#
# PCOD9309427 Si02
#       7
#     8   8   8   8   4   8   8
#     4  11  22  41  65  95 128 168 209 271 329 377
#     4  11  24  42  68  94 130 169 216 273 321 389
#     4  11  24  44  63  96 134 171 221 266 325 394
#     4  11  22  42  64  95 130 168 219 267 326 382
#     4  10  22  42  64  92 126 164 210 266 340 382
#     4  12  23  39  68  99 123 170 224 262 320 392
#     4  11  24  43  66  92 137 178 208 271 332 386
#
# _framework density 9.3850510000000007
#
# number of rings (size 3 to 8) (size 9 to 14) (size 15 to 20)
#    0.000    0.923    3.077    5.538    1.077    0.000 
#    0.000    3.077    0.000    0.000    0.000    0.000 
#    0.000    0.000    0.000    0.000    0.000    0.000 
#
# Total GULP energy -145224.378138 kJ/mol
# GULP energy per Si atom -5585.553005 kJ/mol
# Density = 0.936369 g / cm^3
# Si number density = 9.385051 Si / 1000 Ang^3
#
#
#
# Elastic Constant Matrix: (Units=GPa)
#
#
# Indices 1 2 3 4 5 6 
#
# 1 113.3476 51.5624 49.4482 -0.0027 -2.7196 0.0005
# 2 51.5624 128.2570 49.5195 0.0060 -11.3517 -0.0032
# 3 49.4482 49.5195 129.4454 0.0191 -11.9546 -0.0070
# 4 -0.0027 0.0060 0.0191 36.5782 -0.0007 -5.7200
# 5 -2.7196 -11.3517 -11.9546 -0.0007 36.1599 0.0002
# 6 0.0005 -0.0032 -0.0070 -5.7200 0.0002 20.3506
#
#
#
# Elastic Compliance Matrix: (Units=1/GPa)
#
#
# Indices 1 2 3 4 5 6 
#
# 1 0.011866 -0.003626 -0.003268 0.000003 -0.001326 -0.000001
# 2 -0.003626 0.010367 -0.002378 -0.000001 0.002196 0.000001
# 3 -0.003268 -0.002378 0.010100 -0.000005 0.002347 0.000002
# 4 0.000003 -0.000001 -0.000005 0.028596 -0.000001 0.008038
# 5 -0.001326 0.002196 0.002347 -0.000001 0.029020 0.000001
# 6 -0.000001 0.000001 0.000002 0.008038 0.000001 0.051398
#
#
# Mechanical properties :
#
#
# Convention : Reuss Voigt Hill
#
# Bulk Modulus (GPa) = 72.52268 74.67892 73.60080
# Shear Modulus (GPa) = 30.39753 33.31906 31.85829
#
# Velocity S-wave (km/s) = 4.02862 4.21778 4.12429
# Velocity P-wave (km/s) = 7.76923 7.97446 7.87252
#
# Compressibility (1/GPa) = 0.01378879
#
# Stress axis : x y z
#
# Youngs Moduli (GPa) = 84.27604 96.45967 99.00841
#
# Poissons Ratio (x) = 0.34975 0.32357
# Poissons Ratio (y) = 0.30558 0.23545
# Poissons Ratio (z) = 0.27542 0.22939
#
# Static dielectric constant tensor:
#      x y z
#    x 1.678300 0.000010 0.029180 
#    y 0.000010 1.647160 0.000000 
#    z 0.029180 0.000000 1.667100 
# 
# From -- ./inp_files/316465.got.cif
#   From: 2010.05.17/outbox.ucp.g08.bks.cvg/sg15_159_cif.got.tgz:316465.got - 2010.06.11 12:40:34.
