data_PCOD9309760
_publ_section_title
;
Structure prediction by ZEFSAII (Michael W. Deem and Ramdas Pophale) SiO2 
 PCOD9309760
Probable space group: C 2/C
;
_chemical_formula_sum "Si O2"
_cell_formula_units_Z 30
_cell_length_a 9.000000
_cell_length_b 21.000000
_cell_length_c 18.000000
_cell_angle_alpha 90.000000
_cell_angle_beta 60.000000
_cell_angle_gamma 90.000000
_cell_volume 2946.218424
_symmetry_space_group_name_H-M "C 2/C"
_symmetry_group_IT_number 15
_symmetry_cell_setting 'monoclinic'
loop_
_space_group_symop_operation_xyz
x,y,z
-x,y,1/2-z
-x,-y,-z
x,-y,1/2+z
1/2+x,1/2+y,z
1/2-x,1/2+y,1/2-z
1/2-x,1/2-y,-z
1/2+x,1/2-y,1/2+z
loop_
_atom_site_type_symbol
_atom_site_label
_atom_site_fract_x
_atom_site_fract_y
_atom_site_fract_z
Si Si1 0.302090 0.099042 0.048353
Si Si2 0.000000 0.436385 0.750000
Si Si3 0.168792 0.646012 0.070831
Si Si4 0.614036 0.767136 0.892761
Si Si5 0.029389 0.822202 0.549058
Si Si6 0.152915 0.611479 0.899132
Si Si7 0.291896 0.510924 0.293586
Si Si8 0.610836 0.774078 0.294282
O O1 0.334565 0.165522 0.083474
O O2 0.287601 0.048282 0.116381
O O3 0.133193 0.115004 0.044989
O O4 0.457029 0.086352 0.953440
O O5 0.927778 0.395697 0.839766
O O6 0.831173 0.471807 0.749302
O O7 0.353216 0.657117 0.057673
O O8 0.076478 0.714802 0.086124
O O9 0.188441 0.620354 0.979706
O O10 0.723290 0.750806 0.792374
O O11 0.621890 0.718001 0.959844
O O12 0.988206 0.780912 0.634001
O O13 0.267440 0.562224 0.824482
O O14 0.149450 0.674959 0.849374
O O15 0.500000 0.525812 0.250000
O O16 0.500000 0.797557 0.250000
#
# Coordination Sequence:
#
# PCOD9309760 Si02
#       8
#     8   4   8   8   8   8   8   8
#     4  11  22  45  73  97 139 190 239 301 362 433
#     4  12  24  48  76 104 134 188 260 304 362 438
#     4  11  24  44  68 103 142 190 235 299 371 447
#     4  11  22  40  64 102 145 180 232 294 370 434
#     4  12  23  41  68 108 140 182 245 292 370 460
#     4  11  26  49  67 100 150 186 235 305 377 427
#     4  12  28  49  74 104 140 193 256 312 361 436
#     4  12  24  39  71 105 143 188 238 301 371 445
#
# _framework density 10.182544
#
# number of rings (size 3 to 8) (size 9 to 14) (size 15 to 20)
#    0.000    0.533    6.667    3.600    2.800    1.067 
#    2.400    1.333    0.000    0.000    0.000    0.000 
#    0.000    0.000    0.000    0.000    0.000    0.000 
#
# Total GULP energy -167082.574670 kJ/mol
# GULP energy per Si atom -5569.419156 kJ/mol
# Density = 1.015937 g / cm^3
# Si number density = 10.182544 Si / 1000 Ang^3
#
#
#
# Elastic Constant Matrix: (Units=GPa)
#
#
# Indices 1 2 3 4 5 6 
#
# 1 108.8520 1.2704 12.2751 0.0000 7.3861 0.0000
# 2 1.2704 25.1188 -0.7150 0.0000 4.2362 0.0000
# 3 12.2751 -0.7150 118.8253 0.0000 13.2150 0.0000
# 4 0.0000 0.0000 0.0000 39.0464 0.0000 -2.6815
# 5 7.3861 4.2362 13.2150 0.0000 39.5760 0.0000
# 6 0.0000 0.0000 0.0000 -2.6815 0.0000 21.4156
#
#
#
# Elastic Compliance Matrix: (Units=1/GPa)
#
#
# Indices 1 2 3 4 5 6 
#
# 1 0.009380 -0.000252 -0.000809 0.000000 -0.001453 0.000000
# 2 -0.000252 0.040615 0.000778 0.000000 -0.004560 0.000000
# 3 -0.000809 0.000778 0.008824 0.000000 -0.002879 0.000000
# 4 0.000000 0.000000 0.000000 0.025833 0.000000 0.003235
# 5 -0.001453 -0.004560 -0.002879 0.000000 0.026988 0.000000
# 6 0.000000 0.000000 0.000000 0.003235 0.000000 0.047100
#
#
# Mechanical properties :
#
#
# Convention : Reuss Voigt Hill
#
# Bulk Modulus (GPa) = 17.16698 30.93967 24.05332
# Shear Modulus (GPa) = 27.97617 36.00533 31.99075
#
# Velocity S-wave (km/s) = 3.71041 4.20931 3.96771
# Velocity P-wave (km/s) = 5.17727 6.23297 5.72949
#
# Compressibility (1/GPa) = 0.05825138
#
# Stress axis : x y z
#
# Youngs Moduli (GPa) = 106.61479 24.62161 113.32588
#
# Poissons Ratio (x) = 0.00621 0.09166
# Poissons Ratio (y) = 0.02690 -0.08812
# Poissons Ratio (z) = 0.08623 -0.01915
#
# Static dielectric constant tensor:
#      x y z
#    x 1.878580 0.000000 -0.038440 
#    y 0.000000 1.775180 0.000000 
#    z -0.038440 0.000000 1.691630 
# 
# From -- ./inp_files/192548.got.cif
#   From: 2010.05.17/outbox.ucp.g08.bks.cvg/sg15_97_cif.got.tgz:192548.got - 2010.06.11 12:40:34.
