data_PCOD9309500
_publ_section_title
;
Structure prediction by ZEFSAII (Michael W. Deem and Ramdas Pophale) SiO2 
 PCOD9309500
Probable space group: C 2/C
;
_chemical_formula_sum "Si O2"
_cell_formula_units_Z 28
_cell_length_a 15.000000
_cell_length_b 24.000000
_cell_length_c 9.000000
_cell_angle_alpha 90.000000
_cell_angle_beta 120.000000
_cell_angle_gamma 90.000000
_cell_volume 2805.922308
_symmetry_space_group_name_H-M "C 2/C"
_symmetry_group_IT_number 15
_symmetry_cell_setting 'monoclinic'
loop_
_space_group_symop_operation_xyz
x,y,z
-x,y,1/2-z
-x,-y,-z
x,-y,1/2+z
1/2+x,1/2+y,z
1/2-x,1/2+y,1/2-z
1/2-x,1/2-y,-z
1/2+x,1/2-y,1/2+z
loop_
_atom_site_type_symbol
_atom_site_label
_atom_site_fract_x
_atom_site_fract_y
_atom_site_fract_z
Si Si1 0.905760 0.845958 0.496725
Si Si2 0.888481 0.443541 0.238386
Si Si3 0.295392 0.044922 0.342892
Si Si4 0.310361 0.837155 0.354334
Si Si5 0.895948 0.355318 0.745810
Si Si6 0.997561 0.723266 0.918144
Si Si7 0.922771 0.919965 0.794801
O O1 0.804791 0.841768 0.308866
O O2 0.881761 0.871970 0.642238
O O3 0.955555 0.784996 0.549228
O O4 0.999185 0.887986 0.528985
O O5 0.856645 0.492776 0.324894
O O6 0.871322 0.387683 0.321014
O O7 0.000000 0.446505 0.250000
O O8 0.813582 0.449332 0.034137
O O9 0.341943 0.097899 0.297747
O O10 0.171977 0.046503 0.218547
O O11 0.322438 0.840190 0.543767
O O12 0.377641 0.782890 0.365016
O O13 0.000000 0.375930 0.750000
O O14 0.936822 0.309343 0.899348
O O15 0.000000 0.700789 0.750000
O O16 0.000000 0.954025 0.750000
#
# Coordination Sequence:
#
# PCOD9309500 Si02
#       7
#     8   8   8   8   8   8   8
#     4   9  20  41  66  90 127 165 224 263 312 383
#     4  12  23  38  65  97 129 169 218 267 329 390
#     4  12  22  41  64  91 127 173 211 273 331 375
#     4  11  22  41  61  91 136 171 212 269 327 379
#     4  10  23  39  58  93 137 168 215 265 318 396
#     4  11  21  36  63  94 121 172 216 263 318 378
#     4   8  19  41  62  94 122 160 220 273 300 388
#
# _framework density 9.9788940000000004
#
# number of rings (size 3 to 8) (size 9 to 14) (size 15 to 20)
#    0.857    0.571    2.857    4.714    0.000    2.286 
#    0.000    6.429    0.000    0.000    0.000    0.000 
#    0.000    0.000    0.000    0.000    0.000    0.000 
#
# Total GULP energy -155993.640785 kJ/mol
# GULP energy per Si atom -5571.201457 kJ/mol
# Density = 0.995618 g / cm^3
# Si number density = 9.978894 Si / 1000 Ang^3
#
#
#
# Elastic Constant Matrix: (Units=GPa)
#
#
# Indices 1 2 3 4 5 6 
#
# 1 72.8545 29.3841 12.8662 0.0000 18.0017 0.0000
# 2 29.3841 43.6915 -0.1458 0.0000 1.7221 0.0000
# 3 12.8662 -0.1458 137.9315 0.0000 11.0069 0.0000
# 4 0.0000 0.0000 0.0000 16.4468 0.0000 4.4497
# 5 18.0017 1.7221 11.0069 0.0000 48.4421 0.0000
# 6 0.0000 0.0000 0.0000 4.4497 0.0000 24.9739
#
#
#
# Elastic Compliance Matrix: (Units=1/GPa)
#
#
# Indices 1 2 3 4 5 6 
#
# 1 0.021454 -0.014152 -0.001446 0.000000 -0.007141 0.000000
# 2 -0.014152 0.032256 0.001045 0.000000 0.003875 0.000000
# 3 -0.001446 0.001045 0.007482 0.000000 -0.001200 0.000000
# 4 0.000000 0.000000 0.000000 0.063881 0.000000 -0.011382
# 5 -0.007141 0.003875 -0.001200 0.000000 0.023432 0.000000
# 6 0.000000 0.000000 0.000000 -0.011382 0.000000 0.042070
#
#
# Mechanical properties :
#
#
# Convention : Reuss Voigt Hill
#
# Bulk Modulus (GPa) = 31.16700 37.63185 34.39943
# Shear Modulus (GPa) = 21.70374 32.13076 26.91725
#
# Velocity S-wave (km/s) = 3.30128 4.01675 3.67646
# Velocity P-wave (km/s) = 5.49378 6.35681 5.94099
#
# Compressibility (1/GPa) = 0.03208522
#
# Stress axis : x y z
#
# Youngs Moduli (GPa) = 46.61236 31.00200 133.65905
#
# Poissons Ratio (x) = 0.43873 0.19331
# Poissons Ratio (y) = 0.65964 -0.13967
# Poissons Ratio (z) = 0.06742 -0.03240
#
# Static dielectric constant tensor:
#      x y z
#    x 1.727050 0.000000 0.032460 
#    y 0.000000 1.728750 0.000000 
#    z 0.032460 0.000000 1.737090 
# 
# From -- ./inp_files/42761.got.cif
#   From: 2010.05.17/outbox.ucp.g08.bks.cvg/sg15_22_cif.got.tgz:42761.got - 2010.06.11 12:40:34.
