data_PCOD9309111
_publ_section_title
;
Structure prediction by ZEFSAII (Michael W. Deem and Ramdas Pophale) SiO2 
 PCOD9309111
Probable space group: C 2/C
;
_chemical_formula_sum "Si O2"
_cell_formula_units_Z 28
_cell_length_a 12.000000
_cell_length_b 21.000000
_cell_length_c 12.000000
_cell_angle_alpha 90.000000
_cell_angle_beta 70.000000
_cell_angle_gamma 90.000000
_cell_volume 2841.630485
_symmetry_space_group_name_H-M "C 2/C"
_symmetry_group_IT_number 15
_symmetry_cell_setting 'monoclinic'
loop_
_space_group_symop_operation_xyz
x,y,z
-x,y,1/2-z
-x,-y,-z
x,-y,1/2+z
1/2+x,1/2+y,z
1/2-x,1/2+y,1/2-z
1/2-x,1/2-y,-z
1/2+x,1/2-y,1/2+z
loop_
_atom_site_type_symbol
_atom_site_label
_atom_site_fract_x
_atom_site_fract_y
_atom_site_fract_z
Si Si1 0.828806 0.380268 0.079407
Si Si2 0.020841 0.722082 0.492595
Si Si3 0.694538 0.179398 0.247059
Si Si4 0.891691 0.791178 0.369924
Si Si5 0.865434 0.552145 0.340327
Si Si6 0.862557 0.731177 0.833788
Si Si7 0.357082 0.085537 0.798907
O O1 0.707719 0.343480 0.101572
O O2 0.816228 0.426009 0.187374
O O3 0.869243 0.417551 0.959481
O O4 0.929692 0.328452 0.074428
O O5 0.080899 0.687931 0.366450
O O6 0.122330 0.744513 0.540428
O O7 0.945668 0.780634 0.472480
O O8 0.665127 0.223810 0.150304
O O9 0.704485 0.105544 0.209546
O O10 0.794410 0.217602 0.281972
O O11 0.000000 0.805510 0.250000
O O12 0.819817 0.479676 0.370788
O O13 0.000000 0.549037 0.250000
O O14 0.816310 0.657594 0.842155
O O15 0.000000 0.733429 0.750000
O O16 0.500000 0.088086 0.750000
#
# Coordination Sequence:
#
# PCOD9309111 Si02
#       7
#     8   8   8   8   8   8   8
#     4  12  20  37  61  83 116 159 195 238 294 356
#     4  11  20  33  54  91 115 152 192 237 302 338
#     4  11  20  36  55  87 121 146 196 250 285 348
#     4  10  21  35  60  87 116 151 201 244 286 346
#     4  11  23  36  58  92 121 147 195 247 294 348
#     4  11  21  35  55  85 118 160 195 233 298 353
#     4  10  22  37  56  85 121 156 190 236 300 362
#
# _framework density 9.8534980000000001
#
# number of rings (size 3 to 8) (size 9 to 14) (size 15 to 20)
#    0.000    1.143    7.143    1.286    2.000    3.429 
#    0.000    0.000    0.000    1.714    0.000    0.000 
#    0.000    0.000    0.000    0.000    0.000    0.000 
#
# Total GULP energy -156026.306981 kJ/mol
# GULP energy per Si atom -5572.368106 kJ/mol
# Density = 0.983107 g / cm^3
# Si number density = 9.853498 Si / 1000 Ang^3
#
#
#
# Elastic Constant Matrix: (Units=GPa)
#
#
# Indices 1 2 3 4 5 6 
#
# 1 85.6830 38.1257 29.6842 0.0000 20.2031 0.0000
# 2 38.1257 81.8285 7.2350 0.0000 13.6316 0.0000
# 3 29.6842 7.2350 48.1487 0.0000 17.9098 0.0000
# 4 0.0000 0.0000 0.0000 4.4782 0.0000 -7.5755
# 5 20.2031 13.6316 17.9098 0.0000 33.5617 0.0000
# 6 0.0000 0.0000 0.0000 -7.5755 0.0000 -58.6160
#
#
#
# Elastic Compliance Matrix: (Units=1/GPa)
#
#
# Indices 1 2 3 4 5 6 
#
# 1 0.019043 -0.007473 -0.009335 0.000000 -0.003446 0.000000
# 2 -0.007473 0.016040 0.003677 0.000000 -0.003979 0.000000
# 3 -0.009335 0.003677 0.030489 0.000000 -0.012144 0.000000
# 4 0.000000 0.000000 0.000000 0.183241 0.000000 -0.023682
# 5 -0.003446 -0.003979 -0.012144 0.000000 0.039967 0.000000
# 6 0.000000 0.000000 0.000000 -0.023682 0.000000 -0.014000
#
#
# Mechanical properties :
#
#
# Convention : Reuss Voigt Hill
#
# Bulk Modulus (GPa) = 25.43945 40.63890 33.03917
# Shear Modulus (GPa) = 15.91614 5.25915 10.58765
#
# Velocity S-wave (km/s) = 2.84498 1.63538 2.32039
# Velocity P-wave (km/s) = 4.87122 4.92263 4.89699
#
# Compressibility (1/GPa) = 0.03930903
#
# Stress axis : x y z
#
# Youngs Moduli (GPa) = 52.51304 62.34341 32.79876
#
# Poissons Ratio (x) = 0.46589 0.30619
# Poissons Ratio (y) = 0.39243 -0.12060
# Poissons Ratio (z) = 0.49023 -0.22923
#
# Static dielectric constant tensor:
#      x y z
#    x 1.720710 0.000000 0.011230 
#    y 0.000000 1.675170 0.000000 
#    z 0.011230 0.000000 1.844400 
# 
# From -- ./inp_files/88894.got.cif
#   From: 2010.05.17/outbox.ucp.g08.bks.cvg/sg15_45_cif.got.tgz:88894.got - 2010.06.11 12:40:34.
