data_PCOD9309471
_publ_section_title
;
Structure prediction by ZEFSAII (Michael W. Deem and Ramdas Pophale) SiO2 
 PCOD9309471
Probable space group: C 2/C
;
_chemical_formula_sum "Si O2"
_cell_formula_units_Z 26
_cell_length_a 18.000000
_cell_length_b 18.000000
_cell_length_c 9.000000
_cell_angle_alpha 90.000000
_cell_angle_beta 60.000000
_cell_angle_gamma 90.000000
_cell_volume 2525.330077
_symmetry_space_group_name_H-M "C 2/C"
_symmetry_group_IT_number 15
_symmetry_cell_setting 'monoclinic'
loop_
_space_group_symop_operation_xyz
x,y,z
-x,y,1/2-z
-x,-y,-z
x,-y,1/2+z
1/2+x,1/2+y,z
1/2-x,1/2+y,1/2-z
1/2-x,1/2-y,-z
1/2+x,1/2-y,1/2+z
loop_
_atom_site_type_symbol
_atom_site_label
_atom_site_fract_x
_atom_site_fract_y
_atom_site_fract_z
Si Si1 0.604032 0.975464 0.140951
Si Si2 0.500000 0.528209 0.250000
Si Si3 0.896214 0.920256 0.574211
Si Si4 0.837876 0.749834 0.101861
Si Si5 0.979226 0.236292 0.938248
Si Si6 0.691804 0.914475 0.757952
Si Si7 0.342489 0.178191 0.769703
O O1 0.500000 0.979839 0.250000
O O2 0.638747 0.907315 0.208844
O O3 0.650606 0.050083 0.151599
O O4 0.637532 0.952720 0.944811
O O5 0.440679 0.478703 0.418156
O O6 0.562897 0.571336 0.301187
O O7 0.924453 0.839428 0.488933
O O8 0.793497 0.929858 0.674720
O O9 0.818974 0.674111 0.212247
O O10 0.754053 0.803440 0.193246
O O11 0.929677 0.778366 0.069718
O O12 0.848360 0.724427 0.919270
O O13 0.000000 0.260921 0.750000
O O14 0.918597 0.293518 0.087091
#
# Coordination Sequence:
#
# PCOD9309471 Si02
#       7
#     8   4   8   8   8   8   8
#     4  11  24  43  70 100 130 171 219 276 337 402
#     4  10  24  40  66  92 136 174 222 262 338 390
#     4  11  23  43  63  98 130 176 217 275 325 404
#     4  10  23  41  69  92 130 178 223 272 329 397
#     4  12  25  41  64  96 137 170 222 277 336 399
#     4  11  23  43  67  98 132 169 223 270 331 398
#     4  10  22  44  66  97 128 171 230 270 326 403
#
# _framework density 10.295684
#
# number of rings (size 3 to 8) (size 9 to 14) (size 15 to 20)
#    0.000    1.231    2.308    3.692    2.154    4.923 
#    2.769    0.000    0.000    0.000    0.000    0.000 
#    0.000    0.000    0.000    0.000    0.000    0.000 
#
# Total GULP energy -145450.721632 kJ/mol
# GULP energy per Si atom -5594.258524 kJ/mol
# Density = 1.027225 g / cm^3
# Si number density = 10.295684 Si / 1000 Ang^3
#
#
#
# Elastic Constant Matrix: (Units=GPa)
#
#
# Indices 1 2 3 4 5 6 
#
# 1 139.6411 2.2774 20.9585 0.0000 -36.1467 0.0000
# 2 2.2774 37.5571 -0.1730 0.0000 -2.5550 0.0000
# 3 20.9585 -0.1730 64.4361 0.0000 -18.8438 0.0000
# 4 0.0000 0.0000 0.0000 24.9616 0.0000 1.6661
# 5 -36.1467 -2.5550 -18.8438 0.0000 40.1125 0.0000
# 6 0.0000 0.0000 0.0000 1.6661 0.0000 31.6783
#
#
#
# Elastic Compliance Matrix: (Units=1/GPa)
#
#
# Indices 1 2 3 4 5 6 
#
# 1 0.009365 -0.000018 -0.000671 0.000000 0.008123 0.000000
# 2 -0.000018 0.026766 0.000663 0.000000 0.002000 0.000000
# 3 -0.000671 0.000663 0.018055 0.000000 0.007920 0.000000
# 4 0.000000 0.000000 0.000000 0.040203 0.000000 -0.002114
# 5 0.008123 0.002000 0.007920 0.000000 0.036097 0.000000
# 6 0.000000 0.000000 0.000000 -0.002114 0.000000 0.031679
#
#
# Mechanical properties :
#
#
# Convention : Reuss Voigt Hill
#
# Bulk Modulus (GPa) = 18.47284 31.97336 25.22310
# Shear Modulus (GPa) = 27.73736 33.92189 30.82962
#
# Velocity S-wave (km/s) = 3.67418 4.06320 3.87358
# Velocity P-wave (km/s) = 5.19520 6.12977 5.68173
#
# Compressibility (1/GPa) = 0.05413354
#
# Stress axis : x y z
#
# Youngs Moduli (GPa) = 106.78330 37.36039 55.38560
#
# Poissons Ratio (x) = 0.00069 0.03714
# Poissons Ratio (y) = 0.00196 -0.03670
# Poissons Ratio (z) = 0.07161 -0.02476
#
# Static dielectric constant tensor:
#      x y z
#    x 1.713240 0.000000 0.025860 
#    y 0.000000 1.745530 0.000000 
#    z 0.025860 0.000000 1.729450 
# 
# From -- ./inp_files/48960.got.cif
#   From: 2010.05.17/outbox.ucp.g08.bks.cvg/sg15_25_cif.got.tgz:48960.got - 2010.06.11 12:40:34.
