data_PCOD9309519
_publ_section_title
;
Structure prediction by ZEFSAII (Michael W. Deem and Ramdas Pophale) SiO2 
 PCOD9309519
Probable space group: C 2/C
;
_chemical_formula_sum "Si O2"
_cell_formula_units_Z 24
_cell_length_a 15.000000
_cell_length_b 27.000000
_cell_length_c 9.000000
_cell_angle_alpha 90.000000
_cell_angle_beta 40.000000
_cell_angle_gamma 90.000000
_cell_volume 2342.960837
_symmetry_space_group_name_H-M "C 2/C"
_symmetry_group_IT_number 15
_symmetry_cell_setting 'monoclinic'
loop_
_space_group_symop_operation_xyz
x,y,z
-x,y,1/2-z
-x,-y,-z
x,-y,1/2+z
1/2+x,1/2+y,z
1/2-x,1/2+y,1/2-z
1/2-x,1/2-y,-z
1/2+x,1/2-y,1/2+z
loop_
_atom_site_type_symbol
_atom_site_label
_atom_site_fract_x
_atom_site_fract_y
_atom_site_fract_z
Si Si1 0.858426 0.028029 0.743534
Si Si2 0.000000 0.887403 0.250000
Si Si3 0.000000 0.676960 0.250000
Si Si4 0.210540 0.340461 0.742333
Si Si5 0.854893 0.526061 0.748060
Si Si6 0.500000 0.265873 0.750000
Si Si7 0.500000 0.110568 0.750000
Si Si8 0.206452 0.269003 0.252599
O O1 0.922902 0.077202 0.731192
O O2 0.749494 0.037676 0.751944
O O3 0.000000 0.000000 0.500000
O O4 0.752731 0.002368 0.000561
O O5 0.866582 0.860746 0.501312
O O6 0.106207 0.652190 0.234205
O O7 0.887937 0.705366 0.499641
O O8 0.243362 0.283745 0.745375
O O9 0.117413 0.361659 0.999530
O O10 0.000000 0.500000 0.500000
O O11 0.911994 0.574819 0.754893
O O12 0.639245 0.291514 0.493135
O O13 0.406070 0.237922 0.741075
#
# Coordination Sequence:
#
# PCOD9309519 Si02
#       8
#     8   4   4   8   8   4   4   8
#     4  12  23  44  71  98 132 179 232 274 330 409
#     4  12  27  44  66 105 142 172 228 290 349 400
#     4  12  27  46  75  96 134 189 237 276 345 424
#     4  12  28  46  67 104 143 176 221 298 351 396
#     4  12  23  44  74  99 131 184 231 273 325 419
#     4  10  23  40  78  97 130 171 245 270 327 404
#     4  12  27  46  67 104 144 174 228 284 347 396
#     4  11  23  48  70 103 131 185 235 279 333 430
#
# _framework density 10.243449
#
# number of rings (size 3 to 8) (size 9 to 14) (size 15 to 20)
#    0.000    0.333    5.000    3.500    7.000    0.000 
#    3.000    0.000    0.000    0.000    0.000    0.000 
#    0.000    0.000    0.000    0.000    0.000    0.000 
#
# Total GULP energy -133601.839821 kJ/mol
# GULP energy per Si atom -5566.743326 kJ/mol
# Density = 1.022013 g / cm^3
# Si number density = 10.243449 Si / 1000 Ang^3
#
#
#
# Elastic Constant Matrix: (Units=GPa)
#
#
# Indices 1 2 3 4 5 6 
#
# 1 179.6715 17.1320 34.3037 0.0000 -18.9875 0.0000
# 2 17.1320 46.1995 44.3459 0.0000 -5.4455 0.0000
# 3 34.3037 44.3459 240.0617 0.0000 -30.4546 0.0000
# 4 0.0000 0.0000 0.0000 51.2057 0.0000 -9.2354
# 5 -18.9875 -5.4455 -30.4546 0.0000 60.0929 0.0000
# 6 0.0000 0.0000 0.0000 -9.2354 0.0000 37.5381
#
#
#
# Elastic Compliance Matrix: (Units=1/GPa)
#
#
# Indices 1 2 3 4 5 6 
#
# 1 0.005957 -0.001699 -0.000340 0.000000 0.001556 0.000000
# 2 -0.001699 0.026796 -0.004774 0.000000 -0.000528 0.000000
# 3 -0.000340 -0.004774 0.005373 0.000000 0.002183 0.000000
# 4 0.000000 0.000000 0.000000 0.020436 0.000000 0.005028
# 5 0.001556 -0.000528 0.002183 0.000000 0.018191 0.000000
# 6 0.000000 0.000000 0.000000 0.005028 0.000000 0.027877
#
#
# Mechanical properties :
#
#
# Convention : Reuss Voigt Hill
#
# Bulk Modulus (GPa) = 40.81788 73.05511 56.93649
# Shear Modulus (GPa) = 39.55001 54.44409 46.99705
#
# Velocity S-wave (km/s) = 4.39852 5.16069 4.79477
# Velocity P-wave (km/s) = 6.76484 8.44081 7.64886
#
# Compressibility (1/GPa) = 0.02449907
#
# Stress axis : x y z
#
# Youngs Moduli (GPa) = 167.86733 37.31948 186.11565
#
# Poissons Ratio (x) = 0.06342 0.06327
# Poissons Ratio (y) = 0.28527 0.88853
# Poissons Ratio (z) = 0.05706 0.17817
#
# Static dielectric constant tensor:
#      x y z
#    x 1.726800 0.000000 0.053560 
#    y 0.000000 1.788070 0.000000 
#    z 0.053560 0.000000 1.793720 
# 
# From -- ./inp_files/43898.got.cif
#   From: 2010.05.17/outbox.ucp.g08.bks.cvg/sg15_22_cif.got.tgz:43898.got - 2010.06.11 12:40:34.
