data_PCOD9309779
_publ_section_title
;
Structure prediction by ZEFSAII (Michael W. Deem and Ramdas Pophale) SiO2 
 PCOD9309779
Probable space group: C 2/C
;
_chemical_formula_sum "Si O2"
_cell_formula_units_Z 26
_cell_length_a 21.000000
_cell_length_b 18.000000
_cell_length_c 9.000000
_cell_angle_alpha 90.000000
_cell_angle_beta 130.000000
_cell_angle_gamma 90.000000
_cell_volume 2606.083195
_symmetry_space_group_name_H-M "C 2/C"
_symmetry_group_IT_number 15
_symmetry_cell_setting 'monoclinic'
loop_
_space_group_symop_operation_xyz
x,y,z
-x,y,1/2-z
-x,-y,-z
x,-y,1/2+z
1/2+x,1/2+y,z
1/2-x,1/2+y,1/2-z
1/2-x,1/2-y,-z
1/2+x,1/2-y,1/2+z
loop_
_atom_site_type_symbol
_atom_site_label
_atom_site_fract_x
_atom_site_fract_y
_atom_site_fract_z
Si Si1 0.317817 0.039988 0.531120
Si Si2 0.071552 0.547626 0.529014
Si Si3 0.500000 0.184697 0.250000
Si Si4 0.163365 0.780755 0.442364
Si Si5 0.846048 0.057871 0.719259
Si Si6 0.092937 0.920424 0.856753
Si Si7 0.285472 0.682210 0.150469
O O1 0.353099 0.058840 0.744872
O O2 0.281414 0.116940 0.412866
O O3 0.390575 0.001512 0.546883
O O4 0.244149 0.980063 0.434413
O O5 0.037404 0.626937 0.426027
O O6 0.000000 0.500000 0.500000
O O7 0.578089 0.232173 0.302510
O O8 0.250000 0.750000 0.500000
O O9 0.148999 0.862212 0.350545
O O10 0.179592 0.788358 0.642261
O O11 0.906969 0.997915 0.733999
O O12 0.863786 0.065710 0.920131
O O13 0.144548 0.860944 0.839382
O O14 0.000000 0.894856 0.750000
O O15 0.250000 0.750000 0.000000
#
# Coordination Sequence:
#
# PCOD9309779 Si02
#       7
#     8   8   4   8   8   8   8
#     4  11  22  42  73  94 135 175 241 280 348 428
#     4  12  23  43  66 102 130 176 226 292 346 418
#     4  12  28  44  70 106 146 178 244 294 362 434
#     4  12  27  45  71 101 148 190 233 300 376 432
#     4  11  23  43  70 102 134 191 233 294 355 436
#     4  11  24  42  71 103 142 182 244 294 356 433
#     4  11  24  45  67 102 136 189 237 298 365 435
#
# _framework density 9.9766580000000005
#
# number of rings (size 3 to 8) (size 9 to 14) (size 15 to 20)
#    0.000    0.615    1.538    7.846    5.385    0.000 
#    0.000    0.000    0.000    0.000    0.000    0.000 
#    0.000    0.000    0.000    0.000    0.000    0.000 
#
# Total GULP energy -145399.209333 kJ/mol
# GULP energy per Si atom -5592.277282 kJ/mol
# Density = 0.995395 g / cm^3
# Si number density = 9.976658 Si / 1000 Ang^3
#
#
#
# Elastic Constant Matrix: (Units=GPa)
#
#
# Indices 1 2 3 4 5 6 
#
# 1 126.6463 69.8648 43.1998 0.0000 5.2560 0.0000
# 2 69.8648 154.5604 38.7597 0.0000 7.9724 0.0000
# 3 43.1998 38.7597 134.4373 0.0000 -8.7760 0.0000
# 4 0.0000 0.0000 0.0000 16.0992 0.0000 -10.1511
# 5 5.2560 7.9724 -8.7760 0.0000 37.6952 0.0000
# 6 0.0000 0.0000 0.0000 -10.1511 0.0000 35.2096
#
#
#
# Elastic Compliance Matrix: (Units=1/GPa)
#
#
# Indices 1 2 3 4 5 6 
#
# 1 0.011190 -0.004393 -0.002407 0.000000 -0.001192 0.000000
# 2 -0.004393 0.008846 -0.001240 0.000000 -0.001547 0.000000
# 3 -0.002407 -0.001240 0.008741 0.000000 0.002633 0.000000
# 4 0.000000 0.000000 0.000000 0.075915 0.000000 0.021887
# 5 -0.001192 -0.001547 0.002633 0.000000 0.027635 0.000000
# 6 0.000000 0.000000 0.000000 0.021887 0.000000 0.034711
#
#
# Mechanical properties :
#
#
# Convention : Reuss Voigt Hill
#
# Bulk Modulus (GPa) = 78.75366 79.92140 79.33753
# Shear Modulus (GPa) = 26.68780 35.38877 31.03829
#
# Velocity S-wave (km/s) = 3.66117 4.21596 3.94832
# Velocity P-wave (km/s) = 7.57805 7.99001 7.78675
#
# Compressibility (1/GPa) = 0.01269782
#
# Stress axis : x y z
#
# Youngs Moduli (GPa) = 89.36615 113.03982 114.40068
#
# Poissons Ratio (x) = 0.49659 0.27536
# Poissons Ratio (y) = 0.39259 0.14184
# Poissons Ratio (z) = 0.21510 0.14015
#
# Static dielectric constant tensor:
#      x y z
#    x 1.698900 0.000000 0.010380 
#    y 0.000000 1.669880 0.000000 
#    z 0.010380 0.000000 1.754730 
# 
# From -- ./inp_files/48668.got.cif
#   From: 2010.05.17/outbox.ucp.g08.bks.cvg/sg15_25_cif.got.tgz:48668.got - 2010.06.11 12:40:34.
