data_PCOD9309968
_publ_section_title
;
Structure prediction by ZEFSAII (Michael W. Deem and Ramdas Pophale) SiO2 
 PCOD9309968
Probable space group: P 2 2 2
;
_chemical_formula_sum "Si O2"
_cell_formula_units_Z 30
_cell_length_a 31.387628
_cell_length_b 5.273848
_cell_length_c 9.475364
_cell_angle_alpha 90.000000
_cell_angle_beta 90.000000
_cell_angle_gamma 90.000000
_cell_volume 1568.490917
_symmetry_space_group_name_H-M "P 2 2 2"
_symmetry_group_IT_number 16
_symmetry_cell_setting 'orthorhombic'
loop_
_space_group_symop_operation_xyz
x,y,z
-x,-y,z
x,-y,-z
-x,y,-z
loop_
_atom_site_type_symbol
_atom_site_label
_atom_site_fract_x
_atom_site_fract_y
_atom_site_fract_z
Si Si1 0.048772 0.503604 0.328711
Si Si2 0.301818 0.506312 0.743316
Si Si3 0.257796 0.976339 0.654304
Si Si4 0.451069 0.999997 0.171762
Si Si5 0.899377 0.003095 0.329718
Si Si6 0.756502 0.500000 0.000000
Si Si7 0.815950 0.096303 0.150811
Si Si8 0.399246 0.499106 0.828628
O O1 0.047365 0.500000 0.500000
O O2 0.068425 0.772914 0.290211
O O3 0.000000 0.500000 0.277981
O O4 0.079310 0.267024 0.287993
O O5 0.282797 0.232921 0.698853
O O6 0.278128 0.600395 0.886803
O O7 0.351910 0.490326 0.767298
O O8 0.288886 0.735896 0.641538
O O9 0.220313 0.936757 0.768092
O O10 0.237299 0.000000 0.500000
O O11 0.424875 0.249015 0.213779
O O12 0.500000 0.000000 0.220468
O O13 0.426099 0.747392 0.213849
O O14 0.452292 0.000000 0.000000
O O15 0.855573 0.085634 0.255349
O O16 0.893768 0.000000 0.500000
O O17 0.788629 0.660638 0.901126
O O18 0.831785 0.000000 0.000000
O O19 0.395687 0.500000 0.000000
#
# Coordination Sequence:
#
# PCOD9309968 Si02
#       8
#     4   4   4   4   4   2   4   4
#     4   9  18  35  59  87 116 148 188 236 289 342
#     4  11  21  37  58  81 114 145 201 235 287 340
#     4  11  24  40  59  82 115 154 192 243 293 336
#     4   9  17  28  43  70 111 152 183 221 285 350
#     4  10  21  35  59  89 117 149 190 241 286 338
#     4  10  22  38  56  84 112 158 194 242 276 342
#     4  11  23  39  59  83 118 154 199 234 287 341
#     4  10  18  29  49  76 107 147 188 233 279 339
#
# _framework density 19.126664000000002
#
# number of rings (size 3 to 8) (size 9 to 14) (size 15 to 20)
#    0.000    1.867    2.000    2.400    1.867    3.200 
#    0.000    2.667    0.000    2.400    0.000    0.000 
#    0.000   37.333    0.000    0.000    0.000    0.000 
#
# Total GULP energy -167023.877453 kJ/mol
# GULP energy per Si atom -5567.462582 kJ/mol
# Density = 1.908313 g / cm^3
# Si number density = 19.126664 Si / 1000 Ang^3
#
#
#
# Elastic Constant Matrix: (Units=GPa)
#
#
# Indices 1 2 3 4 5 6 
#
# 1 146.9800 39.7972 20.2523 0.0000 0.0000 0.0000
# 2 39.7972 85.2828 -7.2964 0.0000 0.0000 0.0000
# 3 20.2523 -7.2964 29.5322 0.0000 0.0000 0.0000
# 4 0.0000 0.0000 0.0000 6.0558 0.0000 0.0000
# 5 0.0000 0.0000 0.0000 0.0000 20.8873 0.0000
# 6 0.0000 0.0000 0.0000 0.0000 0.0000 3.4514
#
#
#
# Elastic Compliance Matrix: (Units=1/GPa)
#
#
# Indices 1 2 3 4 5 6 
#
# 1 0.009170 -0.004921 -0.007505 0.000000 0.000000 0.000000
# 2 -0.004921 0.014620 0.006987 0.000000 0.000000 0.000000
# 3 -0.007505 0.006987 0.040734 0.000000 0.000000 0.000000
# 4 0.000000 0.000000 0.000000 0.165132 0.000000 0.000000
# 5 0.000000 0.000000 0.000000 0.000000 0.047876 0.000000
# 6 0.000000 0.000000 0.000000 0.000000 0.000000 0.289735
#
#
# Mechanical properties :
#
#
# Convention : Reuss Voigt Hill
#
# Bulk Modulus (GPa) = 18.64055 40.81123 29.72589
# Shear Modulus (GPa) = 8.38888 20.01502 14.20195
#
# Velocity S-wave (km/s) = 2.09654 3.23839 2.72788
# Velocity P-wave (km/s) = 3.95318 5.94698 5.04947
#
# Compressibility (1/GPa) = 0.05364649
#
# Stress axis : x y z
#
# Youngs Moduli (GPa) = 109.04858 68.39937 24.54951
#
# Poissons Ratio (x) = 0.33662 0.18423
# Poissons Ratio (y) = 0.53666 -0.17153
# Poissons Ratio (z) = 0.81836 -0.47791
#
# Static dielectric constant tensor:
#      x y z
#    x 1.646310 0.000000 0.000000 
#    y 0.000000 1.721640 0.000000 
#    z 0.000000 0.000000 1.735570 
# 
# From -- ./inp_files/5652.got.cif
#   From: 2010.05.17/outbox.cif.g08.bks.cpg/sg16_3_cif.got.tgz:5652.got - 2010.06.03 22:28:35.
