data_PCOD9309578
_publ_section_title
;
Structure prediction by ZEFSAII (Michael W. Deem and Ramdas Pophale) SiO2 
 PCOD9309578
Probable space group: C 2/C
;
_chemical_formula_sum "Si O2"
_cell_formula_units_Z 30
_cell_length_a 12.000000
_cell_length_b 21.000000
_cell_length_c 18.000000
_cell_angle_alpha 90.000000
_cell_angle_beta 40.000000
_cell_angle_gamma 90.000000
_cell_volume 2915.684598
_symmetry_space_group_name_H-M "C 2/C"
_symmetry_group_IT_number 15
_symmetry_cell_setting 'monoclinic'
loop_
_space_group_symop_operation_xyz
x,y,z
-x,y,1/2-z
-x,-y,-z
x,-y,1/2+z
1/2+x,1/2+y,z
1/2-x,1/2+y,1/2-z
1/2-x,1/2-y,-z
1/2+x,1/2-y,1/2+z
loop_
_atom_site_type_symbol
_atom_site_label
_atom_site_fract_x
_atom_site_fract_y
_atom_site_fract_z
Si Si1 0.630939 0.456800 0.379690
Si Si2 0.702777 0.915064 0.976374
Si Si3 0.189789 0.655353 0.618885
Si Si4 0.000000 0.852358 0.750000
Si Si5 0.514406 0.976376 0.830835
Si Si6 0.863762 0.852176 0.251696
Si Si7 0.537604 0.124569 0.024151
Si Si8 0.799024 0.259505 0.662337
O O1 0.500000 0.500000 0.500000
O O2 0.720212 0.406985 0.391567
O O3 0.784968 0.499943 0.264752
O O4 0.575734 0.408546 0.338447
O O5 0.660630 0.852757 0.046894
O O6 0.617854 0.971657 0.066722
O O7 0.901818 0.900836 0.856152
O O8 0.608360 0.914311 0.946347
O O9 0.300331 0.714581 0.589297
O O10 0.000000 0.661337 0.750000
O O11 0.868029 0.806375 0.769793
O O12 0.500000 0.970723 0.750000
O O13 0.453587 0.912543 0.903013
O O14 0.697201 0.874164 0.385275
O O15 0.810469 0.790475 0.226671
O O16 0.000000 0.838789 0.250000
O O17 0.464122 0.194501 0.078077
#
# Coordination Sequence:
#
# PCOD9309578 Si02
#       8
#     8   8   8   4   8   8   8   8
#     4  11  24  43  68 103 136 184 241 293 354 429
#     4  11  21  41  69 105 141 176 226 298 363 416
#     4  11  19  41  73 100 137 178 227 293 368 414
#     4  10  24  36  72 118 136 176 228 296 360 430
#     4  12  24  47  70  97 142 190 231 293 369 430
#     4  11  26  47  69 100 140 192 244 295 348 420
#     4  11  26  44  68 103 141 188 235 293 355 428
#     4  10  24  44  69 107 142 184 235 290 357 431
#
# _framework density 10.289179000000001
#
# number of rings (size 3 to 8) (size 9 to 14) (size 15 to 20)
#    0.000    1.067    4.667    1.200    3.733    4.267 
#    3.600    0.000    0.000    0.000    0.000    0.000 
#    0.000    0.000    0.000    0.000    0.000    0.000 
#
# Total GULP energy -167072.527251 kJ/mol
# GULP energy per Si atom -5569.084242 kJ/mol
# Density = 1.026576 g / cm^3
# Si number density = 10.289179 Si / 1000 Ang^3
#
#
#
# Elastic Constant Matrix: (Units=GPa)
#
#
# Indices 1 2 3 4 5 6 
#
# 1 76.0877 25.3806 9.0284 -0.0048 10.9157 0.0018
# 2 25.3806 116.9732 61.8814 -0.0046 1.3746 0.0013
# 3 9.0284 61.8814 132.0092 -0.0170 12.0277 0.0022
# 4 -0.0048 -0.0046 -0.0170 0.3520 0.0096 6.4133
# 5 10.9157 1.3746 12.0277 0.0096 31.0672 -0.0021
# 6 0.0018 0.0013 0.0022 6.4133 -0.0021 26.6385
#
#
#
# Elastic Compliance Matrix: (Units=1/GPa)
#
#
# Indices 1 2 3 4 5 6 
#
# 1 0.015098 -0.003903 0.001311 -0.000117 -0.005640 0.000027
# 2 -0.003903 0.012456 -0.005853 0.000078 0.003086 -0.000018
# 3 0.001311 -0.005853 0.010622 -0.000174 -0.004314 0.000041
# 4 -0.000117 0.000078 -0.000174 -0.838925 0.000378 0.201972
# 5 -0.005640 0.003086 -0.004314 0.000378 0.035703 -0.000088
# 6 0.000027 -0.000018 0.000041 0.201972 -0.000088 -0.011086
#
#
# Mechanical properties :
#
#
# Convention : Reuss Voigt Hill
#
# Bulk Modulus (GPa) = 46.97999 57.51679 52.24839
# Shear Modulus (GPa) = -6.64766 26.86353 10.10793
#
# Velocity S-wave (km/s) = -1.79929 3.61699 2.21869
# Velocity P-wave (km/s) = 4.30846 6.74198 5.65761
#
# Compressibility (1/GPa) = 0.02128566
#
# Stress axis : x y z
#
# Youngs Moduli (GPa) = 66.23292 80.28188 94.14059
#
# Poissons Ratio (x) = 0.31336 -0.12341
# Poissons Ratio (y) = 0.25852 0.55103
# Poissons Ratio (z) = -0.08683 0.46991
#
# Static dielectric constant tensor:
#      x y z
#    x 1.807220 0.000000 -0.003270 
#    y 0.000000 1.778200 0.000000 
#    z -0.003270 0.000000 1.857070 
# 
# From -- ./inp_files/200501.got.cif
#   From: 2010.05.17/outbox.ucp.g08.bks.cvg/sg15_101_cif.got.tgz:200501.got - 2010.06.11 12:40:34.
