data_PCOD9309533
_publ_section_title
;
Structure prediction by ZEFSAII (Michael W. Deem and Ramdas Pophale) SiO2 
 PCOD9309533
Probable space group: C 2/C
;
_chemical_formula_sum "Si O2"
_cell_formula_units_Z 26
_cell_length_a 30.000000
_cell_length_b 9.000000
_cell_length_c 12.000000
_cell_angle_alpha 90.000000
_cell_angle_beta 60.000000
_cell_angle_gamma 90.000000
_cell_volume 2805.922308
_symmetry_space_group_name_H-M "C 2/C"
_symmetry_group_IT_number 15
_symmetry_cell_setting 'monoclinic'
loop_
_space_group_symop_operation_xyz
x,y,z
-x,y,1/2-z
-x,-y,-z
x,-y,1/2+z
1/2+x,1/2+y,z
1/2-x,1/2+y,1/2-z
1/2-x,1/2-y,-z
1/2+x,1/2-y,1/2+z
loop_
_atom_site_type_symbol
_atom_site_label
_atom_site_fract_x
_atom_site_fract_y
_atom_site_fract_z
Si Si1 0.375831 0.169934 0.248134
Si Si2 0.453092 0.098038 0.602093
Si Si3 0.107898 0.887241 0.491914
Si Si4 0.716802 0.264990 0.427369
Si Si5 0.380579 0.253060 0.509391
Si Si6 0.500000 0.711708 0.250000
Si Si7 0.795673 0.517595 0.711575
O O1 0.379535 0.228356 0.373411
O O2 0.322842 0.088136 0.272549
O O3 0.413672 0.028267 0.193352
O O4 0.389396 0.294936 0.132523
O O5 0.427847 0.189448 0.528797
O O6 0.473267 0.196874 0.681269
O O7 0.500000 0.000000 0.500000
O O8 0.156017 0.815137 0.502971
O O9 0.051154 0.865386 0.624001
O O10 0.119370 0.066571 0.469255
O O11 0.750000 0.250000 0.500000
O O12 0.746928 0.391954 0.319414
O O13 0.717891 0.103532 0.366265
O O14 0.334134 0.146980 0.615211
#
# Coordination Sequence:
#
# PCOD9309533 Si02
#       7
#     8   8   8   8   8   4   8
#     4  10  23  44  66 101 136 172 229 276 335 405
#     4  11  23  42  70  95 131 181 230 278 340 396
#     4  11  27  44  66 101 138 182 226 280 340 405
#     4  11  24  43  71  98 138 176 226 281 339 402
#     4  11  25  42  71  97 140 177 223 283 346 403
#     4  12  26  44  68  98 140 174 236 278 330 406
#     4  10  23  42  68 104 130 177 225 274 346 405
#
# _framework density 9.2661149999999992
#
# number of rings (size 3 to 8) (size 9 to 14) (size 15 to 20)
#    0.000    1.231    1.538    2.769   10.769    4.308 
#    0.000    5.385    0.000    0.000    0.000    0.000 
#    0.000    0.000    0.000    0.000    0.000    0.000 
#
# Total GULP energy -144787.262501 kJ/mol
# GULP energy per Si atom -5568.740865 kJ/mol
# Density = 0.924503 g / cm^3
# Si number density = 9.266115 Si / 1000 Ang^3
#
#
#
# Elastic Constant Matrix: (Units=GPa)
#
#
# Indices 1 2 3 4 5 6 
#
# 1 143.1182 51.4338 48.5129 0.0000 15.5955 0.0000
# 2 51.4338 158.7297 45.2219 0.0000 5.3094 0.0000
# 3 48.5129 45.2219 95.1735 0.0000 9.5232 0.0000
# 4 0.0000 0.0000 0.0000 37.3993 0.0000 -0.4705
# 5 15.5955 5.3094 9.5232 0.0000 49.7316 0.0000
# 6 0.0000 0.0000 0.0000 -0.4705 0.0000 45.5722
#
#
#
# Elastic Compliance Matrix: (Units=1/GPa)
#
#
# Indices 1 2 3 4 5 6 
#
# 1 0.009072 -0.001865 -0.003541 0.000000 -0.001968 0.000000
# 2 -0.001865 0.007670 -0.002723 0.000000 0.000287 0.000000
# 3 -0.003541 -0.002723 0.013729 0.000000 -0.001228 0.000000
# 4 0.000000 0.000000 0.000000 0.026742 0.000000 0.000276
# 5 -0.001968 0.000287 -0.001228 0.000000 0.020929 0.000000
# 6 0.000000 0.000000 0.000000 0.000276 0.000000 0.021946
#
#
# Mechanical properties :
#
#
# Convention : Reuss Voigt Hill
#
# Bulk Modulus (GPa) = 70.35626 76.37320 73.36473
# Shear Modulus (GPa) = 41.29327 43.33079 42.31203
#
# Velocity S-wave (km/s) = 4.72549 4.84067 4.78343
# Velocity P-wave (km/s) = 8.23531 8.51723 8.37746
#
# Compressibility (1/GPa) = 0.01421338
#
# Stress axis : x y z
#
# Youngs Moduli (GPa) = 110.22531 130.37082 72.83931
#
# Poissons Ratio (x) = 0.24314 0.25795
# Poissons Ratio (y) = 0.20557 0.19832
# Poissons Ratio (z) = 0.39035 0.35496
#
# Static dielectric constant tensor:
#      x y z
#    x 1.698400 0.000000 -0.020960 
#    y 0.000000 1.633360 0.000000 
#    z -0.020960 0.000000 1.678550 
# 
# From -- ./inp_files/125507.got.cif
#   From: 2010.05.17/outbox.ucp.g08.bks.cvg/sg15_63_cif.got.tgz:125507.got - 2010.06.11 12:40:34.
