data_PCOD9309569
_publ_section_title
;
Structure prediction by ZEFSAII (Michael W. Deem and Ramdas Pophale) SiO2 
 PCOD9309569
Probable space group: C 2/C
;
_chemical_formula_sum "Si O2"
_cell_formula_units_Z 20
_cell_length_a 18.000000
_cell_length_b 15.000000
_cell_length_c 21.000000
_cell_angle_alpha 90.000000
_cell_angle_beta 20.000000
_cell_angle_gamma 90.000000
_cell_volume 1939.254213
_symmetry_space_group_name_H-M "C 2/C"
_symmetry_group_IT_number 15
_symmetry_cell_setting 'monoclinic'
loop_
_space_group_symop_operation_xyz
x,y,z
-x,y,1/2-z
-x,-y,-z
x,-y,1/2+z
1/2+x,1/2+y,z
1/2-x,1/2+y,1/2-z
1/2-x,1/2-y,-z
1/2+x,1/2-y,1/2+z
loop_
_atom_site_type_symbol
_atom_site_label
_atom_site_fract_x
_atom_site_fract_y
_atom_site_fract_z
Si Si1 0.518310 0.896378 0.959851
Si Si2 0.194627 0.457872 0.047891
Si Si3 0.743710 0.154564 0.963298
Si Si4 0.940497 0.660508 0.661385
Si Si5 0.483724 0.362120 0.911452
O O1 0.780407 0.881247 0.747166
O O2 0.392316 0.860153 0.995954
O O3 0.429603 0.843858 0.093410
O O4 0.500000 0.000000 0.000000
O O5 0.000000 0.426335 0.250000
O O6 0.128824 0.406265 0.035875
O O7 0.175744 0.564322 0.055182
O O8 0.409859 0.427553 0.912981
O O9 0.000000 0.140004 0.750000
O O10 0.750000 0.250000 0.000000
O O11 0.001765 0.762088 0.628393
O O12 0.709679 0.636065 0.879962
#
# Coordination Sequence:
#
# PCOD9309569 Si02
#       5
#     8   8   8   8   8
#     4  12  26  48  72 103 141 191 245 295 357 432
#     4  10  23  46  68 104 141 183 232 292 359 425
#     4  12  28  47  70  98 142 192 239 294 362 437
#     4  11  23  43  72 110 139 180 237 292 363 426
#     4  11  24  42  74 106 143 179 231 302 353 426
#
# _framework density 10.313243
#
# number of rings (size 3 to 8) (size 9 to 14) (size 15 to 20)
#    0.000    0.800    4.000    2.400    2.800    0.800 
#    3.600    0.000    0.000    0.000    0.000    0.000 
#    0.000    0.000    0.000    0.000    0.000    0.000 
#
# Total GULP energy -111403.176143 kJ/mol
# GULP energy per Si atom -5570.158807 kJ/mol
# Density = 1.028977 g / cm^3
# Si number density = 10.313243 Si / 1000 Ang^3
#
#
#
# Elastic Constant Matrix: (Units=GPa)
#
#
# Indices 1 2 3 4 5 6 
#
# 1 190.2520 51.9343 55.1344 -0.0191 -23.2122 0.0006
# 2 51.9343 132.3623 -0.2956 -0.0359 -8.1686 0.0083
# 3 55.1344 -0.2956 135.8605 -0.0607 -18.8136 0.0171
# 4 -0.0191 -0.0359 -0.0607 37.1403 0.0232 -2.5070
# 5 -23.2122 -8.1686 -18.8136 0.0232 39.8425 -0.0036
# 6 0.0006 0.0083 0.0171 -2.5070 -0.0036 41.9791
#
#
#
# Elastic Compliance Matrix: (Units=1/GPa)
#
#
# Indices 1 2 3 4 5 6 
#
# 1 0.006981 -0.002600 -0.002513 -0.000004 0.002347 0.000001
# 2 -0.002600 0.008628 0.001187 0.000008 0.000815 -0.000002
# 3 -0.002513 0.001187 0.008789 0.000012 0.002929 -0.000003
# 4 -0.000004 0.000008 0.000012 0.027034 -0.000011 0.001614
# 5 0.002347 0.000815 0.002929 -0.000011 0.028016 0.000000
# 6 0.000001 -0.000002 -0.000003 0.001614 0.000000 0.023918
#
#
# Mechanical properties :
#
#
# Convention : Reuss Voigt Hill
#
# Bulk Modulus (GPa) = 60.44470 74.66901 67.55686
# Shear Modulus (GPa) = 42.83273 47.23916 45.03595
#
# Velocity S-wave (km/s) = 4.56190 4.79081 4.67776
# Velocity P-wave (km/s) = 7.55751 8.17812 7.87393
#
# Compressibility (1/GPa) = 0.01654405
#
# Stress axis : x y z
#
# Youngs Moduli (GPa) = 143.25412 115.90197 113.78267
#
# Poissons Ratio (x) = 0.30131 0.28599
# Poissons Ratio (y) = 0.37242 -0.13501
# Poissons Ratio (z) = 0.36007 -0.13753
#
# Static dielectric constant tensor:
#      x y z
#    x 1.789320 -0.000010 0.027680 
#    y -0.000010 1.806670 0.000000 
#    z 0.027680 0.000000 1.780820 
# 
# From -- ./inp_files/215676.got.cif
#   From: 2010.05.17/outbox.ucp.g08.bks.cvg/sg15_108_cif.got.tgz:215676.got - 2010.06.11 12:40:34.
