data_PCOD9309845
_publ_section_title
;
Structure prediction by ZEFSAII (Michael W. Deem and Ramdas Pophale) SiO2 
 PCOD9309845
Probable space group: C 2/C
;
_chemical_formula_sum "Si O2"
_cell_formula_units_Z 22
_cell_length_a 27.000000
_cell_length_b 12.000000
_cell_length_c 9.000000
_cell_angle_alpha 90.000000
_cell_angle_beta 130.000000
_cell_angle_gamma 90.000000
_cell_volume 2233.785596
_symmetry_space_group_name_H-M "C 2/C"
_symmetry_group_IT_number 15
_symmetry_cell_setting 'monoclinic'
loop_
_space_group_symop_operation_xyz
x,y,z
-x,y,1/2-z
-x,-y,-z
x,-y,1/2+z
1/2+x,1/2+y,z
1/2-x,1/2+y,1/2-z
1/2-x,1/2-y,-z
1/2+x,1/2-y,1/2+z
loop_
_atom_site_type_symbol
_atom_site_label
_atom_site_fract_x
_atom_site_fract_y
_atom_site_fract_z
Si Si1 0.500000 0.969828 0.750000
Si Si2 0.918741 0.734113 0.226911
Si Si3 0.847045 0.821874 0.788162
Si Si4 0.204036 0.598997 0.964541
Si Si5 0.128213 0.414224 0.627424
Si Si6 0.481139 0.381374 0.892790
O O1 0.548779 0.882371 0.764398
O O2 0.446622 0.043298 0.553824
O O3 0.873325 0.696748 0.275212
O O4 0.976271 0.799967 0.420357
O O5 0.881812 0.796702 0.017836
O O6 0.816889 0.706262 0.672169
O O7 0.781910 0.900277 0.651488
O O8 0.905532 0.858440 0.789202
O O9 0.172374 0.499272 0.807800
O O10 0.164234 0.603162 0.041356
O O11 0.500000 0.373989 0.750000
O O12 0.500000 0.500000 0.000000
#
# Coordination Sequence:
#
# PCOD9309845 Si02
#       6
#     4   8   8   8   8   8
#     4  12  22  38  72 100 140 164 212 290 342 398
#     4  12  23  42  71 101 138 171 226 285 342 401
#     4  11  24  45  64  93 136 182 219 276 336 405
#     4  11  24  42  65  93 138 176 220 271 342 415
#     4  12  24  40  67 106 131 177 224 280 350 403
#     4  12  26  45  70  98 129 176 231 281 335 394
#
# _framework density 9.8487519999999993
#
# number of rings (size 3 to 8) (size 9 to 14) (size 15 to 20)
#    0.000    0.364    5.455    2.727    3.818    3.636 
#    0.000    0.000    0.000    0.000    0.000    0.000 
#    0.000    0.000    0.000    0.000    0.000    0.000 
#
# Total GULP energy -122660.926937 kJ/mol
# GULP energy per Si atom -5575.496679 kJ/mol
# Density = 0.982634 g / cm^3
# Si number density = 9.848752 Si / 1000 Ang^3
#
#
#
# Elastic Constant Matrix: (Units=GPa)
#
#
# Indices 1 2 3 4 5 6 
#
# 1 99.5730 2.6895 63.5975 0.0000 11.6340 0.0000
# 2 2.6895 40.1623 19.0782 0.0000 11.1899 0.0000
# 3 63.5975 19.0782 170.9570 0.0000 10.7212 0.0000
# 4 0.0000 0.0000 0.0000 31.0203 0.0000 -3.2095
# 5 11.6340 11.1899 10.7212 0.0000 53.3386 0.0000
# 6 0.0000 0.0000 0.0000 -3.2095 0.0000 28.4944
#
#
#
# Elastic Compliance Matrix: (Units=1/GPa)
#
#
# Indices 1 2 3 4 5 6 
#
# 1 0.013540 0.002195 -0.005133 0.000000 -0.002382 0.000000
# 2 0.002195 0.028028 -0.003591 0.000000 -0.005637 0.000000
# 3 -0.005133 -0.003591 0.008145 0.000000 0.000236 0.000000
# 4 0.000000 0.000000 0.000000 0.032617 0.000000 0.003674
# 5 -0.002382 -0.005637 0.000236 0.000000 0.020403 0.000000
# 6 0.000000 0.000000 0.000000 0.003674 0.000000 0.035508
#
#
# Mechanical properties :
#
#
# Convention : Reuss Voigt Hill
#
# Bulk Modulus (GPa) = 27.28043 53.49141 40.38592
# Shear Modulus (GPa) = 30.57780 37.59247 34.08513
#
# Velocity S-wave (km/s) = 3.94429 4.37336 4.16436
# Velocity P-wave (km/s) = 5.88413 7.26066 6.60833
#
# Compressibility (1/GPa) = 0.03665632
#
# Stress axis : x y z
#
# Youngs Moduli (GPa) = 73.85446 35.67821 122.77832
#
# Poissons Ratio (x) = -0.07832 0.63018
# Poissons Ratio (y) = -0.16212 0.44089
# Poissons Ratio (z) = 0.37907 0.12812
#
# Static dielectric constant tensor:
#      x y z
#    x 1.754430 0.000000 -0.006610 
#    y 0.000000 1.751990 0.000000 
#    z -0.006610 0.000000 1.687990 
# 
# From -- ./inp_files/60936.got.cif
#   From: 2010.05.17/outbox.ucp.g08.bks.cvg/sg15_31_cif.got.tgz:60936.got - 2010.06.11 12:40:34.
