data_PCOD9309702
_publ_section_title
;
Structure prediction by ZEFSAII (Michael W. Deem and Ramdas Pophale) SiO2 
 PCOD9309702
Probable space group: C 2/C
;
_chemical_formula_sum "Si O2"
_cell_formula_units_Z 32
_cell_length_a 15.000000
_cell_length_b 12.000000
_cell_length_c 27.000000
_cell_angle_alpha 90.000000
_cell_angle_beta 140.000000
_cell_angle_gamma 90.000000
_cell_volume 3123.947783
_symmetry_space_group_name_H-M "C 2/C"
_symmetry_group_IT_number 15
_symmetry_cell_setting 'monoclinic'
loop_
_space_group_symop_operation_xyz
x,y,z
-x,y,1/2-z
-x,-y,-z
x,-y,1/2+z
1/2+x,1/2+y,z
1/2-x,1/2+y,1/2-z
1/2-x,1/2-y,-z
1/2+x,1/2-y,1/2+z
loop_
_atom_site_type_symbol
_atom_site_label
_atom_site_fract_x
_atom_site_fract_y
_atom_site_fract_z
Si Si1 0.631812 0.284876 0.769764
Si Si2 0.907764 0.799627 0.162211
Si Si3 0.455614 0.589583 0.581697
Si Si4 0.101921 0.441257 0.197994
Si Si5 0.859682 0.667595 0.893030
Si Si6 0.867552 0.585104 0.076238
Si Si7 0.658477 0.393314 0.675463
Si Si8 0.549506 0.808976 0.565724
O O1 0.500000 0.299994 0.750000
O O2 0.634814 0.158503 0.749733
O O3 0.614392 0.353586 0.711509
O O4 0.783401 0.315316 0.857140
O O5 0.980648 0.870705 0.149438
O O6 0.769369 0.856479 0.125376
O O7 0.871383 0.686072 0.117468
O O8 0.000000 0.780098 0.250000
O O9 0.291105 0.571261 0.506945
O O10 0.546062 0.481946 0.609825
O O11 0.502712 0.685718 0.563764
O O12 0.134667 0.405502 0.154867
O O13 0.194397 0.546133 0.254013
O O14 0.941421 0.477512 0.130787
O O15 0.836235 0.791068 0.860286
O O16 0.992863 0.664740 0.986405
O O17 0.964808 0.617830 0.070515
#
# Coordination Sequence:
#
# PCOD9309702 Si02
#       8
#     8   8   8   8   8   8   8   8
#     4  11  26  45  66  92 134 172 213 263 319 384
#     4  11  21  37  65  97 125 163 223 263 308 382
#     4  11  22  42  67  95 131 168 213 268 321 376
#     4  11  24  43  65  93 132 173 210 263 322 378
#     4  11  24  40  63  97 129 167 213 264 326 372
#     4  11  22  42  67  95 131 168 213 268 321 376
#     4  11  24  43  65  93 132 173 210 263 322 378
#     4  11  21  45  66  95 135 163 210 281 317 367
#
# _framework density 10.243449
#
# number of rings (size 3 to 8) (size 9 to 14) (size 15 to 20)
#    0.000    1.000    5.000    2.250    3.500    6.000 
#    0.000    2.500    0.000    0.000    0.000    0.000 
#    0.000    0.000    0.000    0.000    0.000    0.000 
#
# Total GULP energy -178910.670791 kJ/mol
# GULP energy per Si atom -5590.958462 kJ/mol
# Density = 1.022013 g / cm^3
# Si number density = 10.243449 Si / 1000 Ang^3
#
#
#
# Elastic Constant Matrix: (Units=GPa)
#
#
# Indices 1 2 3 4 5 6 
#
# 1 55.9428 -27.5667 12.0628 0.0000 16.5749 0.0000
# 2 -27.5667 38.1940 -3.2458 0.0000 5.0696 0.0000
# 3 12.0628 -3.2458 129.6412 0.0000 4.0857 0.0000
# 4 0.0000 0.0000 0.0000 22.1718 0.0000 7.9229
# 5 16.5749 5.0696 4.0857 0.0000 29.0605 0.0000
# 6 0.0000 0.0000 0.0000 7.9229 0.0000 12.8076
#
#
#
# Elastic Compliance Matrix: (Units=1/GPa)
#
#
# Indices 1 2 3 4 5 6 
#
# 1 0.046958 0.038083 -0.002373 0.000000 -0.033093 0.000000
# 2 0.038083 0.057775 -0.001100 0.000000 -0.031645 0.000000
# 3 -0.002373 -0.001100 0.007893 0.000000 0.000436 0.000000
# 4 0.000000 0.000000 0.000000 0.057902 0.000000 -0.035819
# 5 -0.033093 -0.031645 0.000436 0.000000 0.058745 0.000000
# 6 0.000000 0.000000 0.000000 -0.035819 0.000000 0.100236
#
#
# Mechanical properties :
#
#
# Convention : Reuss Voigt Hill
#
# Bulk Modulus (GPa) = 5.49914 20.69762 13.09838
# Shear Modulus (GPa) = 15.58095 28.97649 22.27872
#
# Velocity S-wave (km/s) = 2.76077 3.76492 3.30125
# Velocity P-wave (km/s) = 3.58504 5.38742 4.57585
#
# Compressibility (1/GPa) = 0.18184649
#
# Stress axis : x y z
#
# Youngs Moduli (GPa) = 21.29573 17.30843 126.69239
#
# Poissons Ratio (x) = -0.65915 0.30063
# Poissons Ratio (y) = -0.81100 0.13932
# Poissons Ratio (z) = 0.05053 0.01903
#
# Static dielectric constant tensor:
#      x y z
#    x 1.691790 0.000000 0.017740 
#    y 0.000000 1.762300 0.000000 
#    z 0.017740 0.000000 1.729630 
# 
# From -- ./inp_files/296185.got.cif
#   From: 2010.05.17/outbox.ucp.g08.bks.cvg/sg15_149_cif.got.tgz:296185.got - 2010.06.11 12:40:34.
