data_PCOD9309420
_publ_section_title
;
Structure prediction by ZEFSAII (Michael W. Deem and Ramdas Pophale) SiO2 
 PCOD9309420
Probable space group: C 2/C
;
_chemical_formula_sum "Si O2"
_cell_formula_units_Z 20
_cell_length_a 6.000000
_cell_length_b 27.000000
_cell_length_c 15.000000
_cell_angle_alpha 90.000000
_cell_angle_beta 60.000000
_cell_angle_gamma 90.000000
_cell_volume 2104.441731
_symmetry_space_group_name_H-M "C 2/C"
_symmetry_group_IT_number 15
_symmetry_cell_setting 'monoclinic'
loop_
_space_group_symop_operation_xyz
x,y,z
-x,y,1/2-z
-x,-y,-z
x,-y,1/2+z
1/2+x,1/2+y,z
1/2-x,1/2+y,1/2-z
1/2-x,1/2-y,-z
1/2+x,1/2-y,1/2+z
loop_
_atom_site_type_symbol
_atom_site_label
_atom_site_fract_x
_atom_site_fract_y
_atom_site_fract_z
Si Si1 0.500000 0.410045 0.750000
Si Si2 0.003232 0.720837 0.410533
Si Si3 0.703395 0.628779 0.396507
Si Si4 0.500000 0.787004 0.250000
Si Si5 0.519998 0.943889 0.955360
Si Si6 0.134696 0.348156 0.049157
O O1 0.365128 0.380329 0.694495
O O2 0.285713 0.440739 0.846372
O O3 0.750000 0.750000 0.500000
O O4 0.889891 0.676018 0.372839
O O5 0.236542 0.753402 0.318403
O O6 0.118577 0.692091 0.472943
O O7 0.438129 0.641928 0.500953
O O8 0.817662 0.579555 0.423194
O O9 0.501250 0.823039 0.162171
O O10 0.527290 0.900743 0.031240
O O11 0.500000 0.000000 0.000000
#
# Coordination Sequence:
#
# PCOD9309420 Si02
#       6
#     4   8   8   4   8   8
#     4  10  22  41  70 100 132 174 230 275 348 400
#     4  11  24  44  64  95 141 181 229 279 339 406
#     4  10  22  45  67  96 141 172 230 290 328 414
#     4  12  24  43  68 100 132 186 230 273 350 404
#     4  10  23  46  69 100 134 173 222 286 351 411
#     4  10  24  45  61 101 135 172 231 282 334 419
#
# _framework density 9.5037079999999996
#
# number of rings (size 3 to 8) (size 9 to 14) (size 15 to 20)
#    0.000    1.600    2.000    1.200    0.000   12.800 
#   14.400    0.000    0.000    0.000    0.000    0.000 
#    0.000    0.000    0.000    0.000    0.000    0.000 
#
# Total GULP energy -111557.533218 kJ/mol
# GULP energy per Si atom -5577.876661 kJ/mol
# Density = 0.948208 g / cm^3
# Si number density = 9.503708 Si / 1000 Ang^3
#
#
#
# Elastic Constant Matrix: (Units=GPa)
#
#
# Indices 1 2 3 4 5 6 
#
# 1 113.5043 61.3464 58.9373 0.0000 -0.3929 0.0000
# 2 61.3464 159.7706 82.1229 0.0000 1.5141 0.0000
# 3 58.9373 82.1229 168.1066 0.0000 0.8377 0.0000
# 4 0.0000 0.0000 0.0000 49.9069 0.0000 -1.2257
# 5 -0.3929 1.5141 0.8377 0.0000 46.2670 0.0000
# 6 0.0000 0.0000 0.0000 -1.2257 0.0000 28.9144
#
#
#
# Elastic Compliance Matrix: (Units=1/GPa)
#
#
# Indices 1 2 3 4 5 6 
#
# 1 0.011910 -0.003243 -0.002593 0.000000 0.000254 0.000000
# 2 -0.003243 0.009242 -0.003377 0.000000 -0.000269 0.000000
# 3 -0.002593 -0.003377 0.008508 0.000000 -0.000066 0.000000
# 4 0.000000 0.000000 0.000000 0.020058 0.000000 0.000850
# 5 0.000254 -0.000269 -0.000066 0.000000 0.021626 0.000000
# 6 0.000000 0.000000 0.000000 0.000850 0.000000 0.034621
#
#
# Mechanical properties :
#
#
# Convention : Reuss Voigt Hill
#
# Bulk Modulus (GPa) = 89.00490 94.02165 91.51327
# Shear Modulus (GPa) = 39.02150 40.94932 39.98541
#
# Velocity S-wave (km/s) = 4.53588 4.64657 4.59156
# Velocity P-wave (km/s) = 8.62324 8.85216 8.73845
#
# Compressibility (1/GPa) = 0.01123534
#
# Stress axis : x y z
#
# Youngs Moduli (GPa) = 83.96280 108.19786 117.54285
#
# Poissons Ratio (x) = 0.35086 0.30475
# Poissons Ratio (y) = 0.27227 0.39692
# Poissons Ratio (z) = 0.21769 0.36536
#
# Static dielectric constant tensor:
#      x y z
#    x 1.743260 0.000000 -0.005030 
#    y 0.000000 1.665720 0.000000 
#    z -0.005030 0.000000 1.665810 
# 
# From -- ./inp_files/129311.got.cif
#   From: 2010.05.17/outbox.ucp.g08.bks.cvg/sg15_65_cif.got.tgz:129311.got - 2010.06.11 12:40:34.
