data_PCOD9309355
_publ_section_title
;
Structure prediction by ZEFSAII (Michael W. Deem and Ramdas Pophale) SiO2 
 PCOD9309355
Probable space group: C 2/C
;
_chemical_formula_sum "Si O2"
_cell_formula_units_Z 32
_cell_length_a 27.000000
_cell_length_b 18.000000
_cell_length_c 21.000000
_cell_angle_alpha 90.000000
_cell_angle_beta 160.000000
_cell_angle_gamma 90.000000
_cell_volume 3490.657583
_symmetry_space_group_name_H-M "C 2/C"
_symmetry_group_IT_number 15
_symmetry_cell_setting 'monoclinic'
loop_
_space_group_symop_operation_xyz
x,y,z
-x,y,1/2-z
-x,-y,-z
x,-y,1/2+z
1/2+x,1/2+y,z
1/2-x,1/2+y,1/2-z
1/2-x,1/2-y,-z
1/2+x,1/2-y,1/2+z
loop_
_atom_site_type_symbol
_atom_site_label
_atom_site_fract_x
_atom_site_fract_y
_atom_site_fract_z
Si Si1 0.073546 0.160867 0.980242
Si Si2 0.893352 0.333794 0.497943
Si Si3 0.654118 0.562644 0.345300
Si Si4 0.307727 0.903297 0.665829
Si Si5 0.762148 0.101737 0.565278
Si Si6 0.875703 0.172682 0.309552
Si Si7 0.178392 0.934941 0.018171
Si Si8 0.812539 0.807069 0.367982
O O1 0.053767 0.248409 0.941405
O O2 0.926824 0.122251 0.780631
O O3 0.210954 0.136255 0.103302
O O4 0.091976 0.144700 0.078571
O O5 0.838367 0.360754 0.501352
O O6 0.765803 0.331963 0.291833
O O7 0.023209 0.384115 0.627994
O O8 0.744515 0.487931 0.441626
O O9 0.666563 0.613657 0.297162
O O10 0.692536 0.594986 0.462191
O O11 0.485615 0.542486 0.158017
O O12 0.265735 0.878246 0.542623
O O13 0.272780 0.990377 0.632190
O O14 0.756781 0.234920 0.182512
O O15 0.022518 0.205735 0.455466
O O16 0.210681 0.872163 0.108734
#
# Coordination Sequence:
#
# PCOD9309355 Si02
#       8
#     8   8   8   8   8   8   8   8
#     4  11  22  37  59  83 113 153 198 232 280 341
#     4  11  24  37  54  86 119 153 187 240 283 331
#     4   9  19  38  64  86 113 149 193 232 281 344
#     4  11  23  37  59  84 117 152 193 235 285 334
#     4  11  21  39  58  85 115 151 194 237 280 337
#     4  10  22  39  61  88 114 149 188 238 285 341
#     4   9  19  39  62  87 114 149 189 237 282 340
#     4  10  22  40  61  85 117 148 190 235 288 340
#
# _framework density 9.1673270000000002
#
# number of rings (size 3 to 8) (size 9 to 14) (size 15 to 20)
#    0.000    1.750    2.500    1.500    5.250    5.500 
#    2.250    0.000    0.000    0.000    0.000    0.000 
#    0.000    0.000    0.000    0.000    0.000    0.000 
#
# Total GULP energy -178259.195729 kJ/mol
# GULP energy per Si atom -5570.599867 kJ/mol
# Density = 0.914646 g / cm^3
# Si number density = 9.167327 Si / 1000 Ang^3
#
#
#
# Elastic Constant Matrix: (Units=GPa)
#
#
# Indices 1 2 3 4 5 6 
#
# 1 157.1368 44.2364 12.9019 0.0010 4.6867 0.0019
# 2 44.2364 49.3602 9.9173 0.0054 -5.4421 0.0066
# 3 12.9019 9.9173 15.3434 0.0017 7.9936 0.0027
# 4 0.0010 0.0054 0.0017 20.7373 0.0006 13.2041
# 5 4.6867 -5.4421 7.9936 0.0006 31.5583 0.0006
# 6 0.0019 0.0066 0.0027 13.2041 0.0006 68.6496
#
#
#
# Elastic Compliance Matrix: (Units=1/GPa)
#
#
# Indices 1 2 3 4 5 6 
#
# 1 0.008741 -0.007901 -0.000987 0.000002 -0.002411 0.000000
# 2 -0.007901 0.032888 -0.020943 -0.000006 0.012149 -0.000001
# 3 -0.000987 -0.020943 0.093713 -0.000001 -0.027202 -0.000001
# 4 0.000002 -0.000006 -0.000001 0.054952 -0.000002 -0.010570
# 5 -0.002411 0.012149 -0.027202 -0.000002 0.041031 0.000000
# 6 0.000000 -0.000001 -0.000001 -0.010570 0.000000 0.016600
#
#
# Mechanical properties :
#
#
# Convention : Reuss Voigt Hill
#
# Bulk Modulus (GPa) = 13.21369 39.55018 26.38194
# Shear Modulus (GPa) = 15.02342 34.50804 24.76573
#
# Velocity S-wave (km/s) = 2.86562 4.34305 3.67926
# Velocity P-wave (km/s) = 4.26282 6.83868 5.69821
#
# Compressibility (1/GPa) = 0.07567907
#
# Stress axis : x y z
#
# Youngs Moduli (GPa) = 114.40145 30.40662 10.67085
#
# Poissons Ratio (x) = 0.24025 0.01054
# Poissons Ratio (y) = 0.90391 0.22348
# Poissons Ratio (z) = 0.11296 0.63680
#
# Static dielectric constant tensor:
#      x y z
#    x 1.595850 0.000000 -0.025850 
#    y 0.000000 1.642870 0.000000 
#    z -0.025850 0.000000 1.677670 
# 
# From -- ./inp_files/258074.got.cif
#   From: 2010.05.17/outbox.ucp.g08.bks.cvg/sg15_130_cif.got.tgz:258074.got - 2010.06.11 12:40:34.
