data_PCOD9309210
_publ_section_title
;
Structure prediction by ZEFSAII (Michael W. Deem and Ramdas Pophale) SiO2 
 PCOD9309210
Probable space group: C 2/C
;
_chemical_formula_sum "Si O2"
_cell_formula_units_Z 28
_cell_length_a 27.000000
_cell_length_b 9.000000
_cell_length_c 12.000000
_cell_angle_alpha 90.000000
_cell_angle_beta 110.000000
_cell_angle_gamma 90.000000
_cell_volume 2740.143682
_symmetry_space_group_name_H-M "C 2/C"
_symmetry_group_IT_number 15
_symmetry_cell_setting 'monoclinic'
loop_
_space_group_symop_operation_xyz
x,y,z
-x,y,1/2-z
-x,-y,-z
x,-y,1/2+z
1/2+x,1/2+y,z
1/2-x,1/2+y,1/2-z
1/2-x,1/2-y,-z
1/2+x,1/2-y,1/2+z
loop_
_atom_site_type_symbol
_atom_site_label
_atom_site_fract_x
_atom_site_fract_y
_atom_site_fract_z
Si Si1 0.623204 0.714224 0.996039
Si Si2 0.105364 0.769331 0.229709
Si Si3 0.006610 0.738800 0.424389
Si Si4 0.134590 0.454696 0.567740
Si Si5 0.187337 0.006746 0.684013
Si Si6 0.467972 0.895747 0.118049
Si Si7 0.243156 0.284300 0.624297
O O1 0.627610 0.751205 0.869550
O O2 0.561576 0.674838 0.965748
O O3 0.662566 0.585789 0.063012
O O4 0.633690 0.867765 0.069587
O O5 0.111693 0.618777 0.162705
O O6 0.042981 0.802685 0.180934
O O7 0.139700 0.897949 0.199594
O O8 0.018017 0.569824 0.391763
O O9 0.987491 0.710502 0.534886
O O10 0.095298 0.398681 0.439218
O O11 0.191459 0.386445 0.595838
O O12 0.211008 0.883631 0.785661
O O13 0.230393 0.129146 0.678259
O O14 0.500000 0.850109 0.250000
O O15 0.250000 0.250000 0.500000
#
# Coordination Sequence:
#
# PCOD9309210 Si02
#       7
#     8   8   8   8   8   8   8
#     4  11  21  37  62  89 119 158 192 237 292 343
#     4  10  21  40  59  87 125 155 189 242 289 341
#     4   9  18  31  54  85 119 154 192 228 282 353
#     4   9  21  37  60  89 118 152 199 239 286 351
#     4  11  25  41  61  87 113 151 205 242 291 357
#     4   9  16  30  53  86 121 155 189 230 279 341
#     4  11  24  44  63  84 117 154 195 251 298 340
#
# _framework density 10.218442
#
# number of rings (size 3 to 8) (size 9 to 14) (size 15 to 20)
#    0.000    2.000    0.000    4.714    0.000    5.143 
#    0.000    6.429    0.000    0.000    0.000    0.000 
#    0.000    0.000    0.000    0.000    0.000    0.000 
#
# Total GULP energy -156292.016483 kJ/mol
# GULP energy per Si atom -5581.857732 kJ/mol
# Density = 1.019518 g / cm^3
# Si number density = 10.218442 Si / 1000 Ang^3
#
#
#
# Elastic Constant Matrix: (Units=GPa)
#
#
# Indices 1 2 3 4 5 6 
#
# 1 35.1810 17.1711 8.8919 0.0000 8.8085 0.0000
# 2 17.1711 90.7157 41.2135 0.0000 7.8255 0.0000
# 3 8.8919 41.2135 102.1451 0.0000 13.1670 0.0000
# 4 0.0000 0.0000 0.0000 25.6779 0.0000 8.9477
# 5 8.8085 7.8255 13.1670 0.0000 20.5502 0.0000
# 6 0.0000 0.0000 0.0000 8.9477 0.0000 14.3431
#
#
#
# Elastic Compliance Matrix: (Units=1/GPa)
#
#
# Indices 1 2 3 4 5 6 
#
# 1 0.034302 -0.005843 0.001068 0.000000 -0.013162 0.000000
# 2 -0.005843 0.014554 -0.005420 0.000000 0.000435 0.000000
# 3 0.001068 -0.005420 0.012728 0.000000 -0.006549 0.000000
# 4 0.000000 0.000000 0.000000 0.049761 0.000000 -0.031043
# 5 -0.013162 0.000435 -0.006549 0.000000 0.058334 0.000000
# 6 0.000000 0.000000 0.000000 -0.031043 0.000000 0.089085
#
#
# Mechanical properties :
#
#
# Convention : Reuss Voigt Hill
#
# Bulk Modulus (GPa) = 24.27469 40.28831 32.28150
# Shear Modulus (GPa) = 17.07159 22.83192 19.95176
#
# Velocity S-wave (km/s) = 2.89335 3.34607 3.12791
# Velocity P-wave (km/s) = 4.80267 5.88936 5.37355
#
# Compressibility (1/GPa) = 0.04119518
#
# Stress axis : x y z
#
# Youngs Moduli (GPa) = 29.15315 68.70906 78.56711
#
# Poissons Ratio (x) = 0.40144 -0.08391
# Poissons Ratio (y) = 0.17033 0.42581
# Poissons Ratio (z) = -0.03114 0.37238
#
# Static dielectric constant tensor:
#      x y z
#    x 1.767300 0.000000 -0.002520 
#    y 0.000000 1.697470 0.000000 
#    z -0.002520 0.000000 1.754510 
# 
# From -- ./inp_files/122016.got.cif
#   From: 2010.05.17/outbox.ucp.g08.bks.cvg/sg15_62_cif.got.tgz:122016.got - 2010.06.11 12:40:34.
