data_PCOD9309609
_publ_section_title
;
Structure prediction by ZEFSAII (Michael W. Deem and Ramdas Pophale) SiO2 
 PCOD9309609
Probable space group: C 2/C
;
_chemical_formula_sum "Si O2"
_cell_formula_units_Z 26
_cell_length_a 6.000000
_cell_length_b 24.000000
_cell_length_c 21.000000
_cell_angle_alpha 90.000000
_cell_angle_beta 120.000000
_cell_angle_gamma 90.000000
_cell_volume 2618.860821
_symmetry_space_group_name_H-M "C 2/C"
_symmetry_group_IT_number 15
_symmetry_cell_setting 'monoclinic'
loop_
_space_group_symop_operation_xyz
x,y,z
-x,y,1/2-z
-x,-y,-z
x,-y,1/2+z
1/2+x,1/2+y,z
1/2-x,1/2+y,1/2-z
1/2-x,1/2-y,-z
1/2+x,1/2-y,1/2+z
loop_
_atom_site_type_symbol
_atom_site_label
_atom_site_fract_x
_atom_site_fract_y
_atom_site_fract_z
Si Si1 0.930671 0.094455 0.376445
Si Si2 0.494070 0.723047 0.931793
Si Si3 0.500000 0.465350 0.750000
Si Si4 0.009712 0.212805 0.174546
Si Si5 0.701517 0.676901 0.830513
Si Si6 0.050323 0.489493 0.332751
Si Si7 0.217725 0.612503 0.946913
O O1 0.974436 0.071527 0.310418
O O2 0.883309 0.160291 0.352001
O O3 0.154998 0.094576 0.465106
O O4 0.705388 0.049091 0.363805
O O5 0.551592 0.702229 0.868893
O O6 0.392294 0.666517 0.952162
O O7 0.271243 0.770010 0.893899
O O8 0.750000 0.750000 0.000000
O O9 0.750623 0.500998 0.806403
O O10 0.169601 0.269806 0.186314
O O11 0.000000 0.201364 0.250000
O O12 0.500000 0.651157 0.750000
O O13 0.926539 0.637969 0.894016
O O14 0.196875 0.441371 0.395190
O O15 0.000000 0.475992 0.250000
#
# Coordination Sequence:
#
# PCOD9309609 Si02
#       7
#     8   8   4   8   8   8   8
#     4  11  23  44  66 100 131 181 225 280 338 395
#     4  11  24  43  65 102 136 173 216 278 338 404
#     4  10  24  44  68  96 132 168 228 278 332 402
#     4  11  22  41  67  97 134 174 224 277 336 414
#     4  11  24  39  67 102 132 179 223 273 346 407
#     4  10  25  44  67  96 134 178 229 277 333 401
#     4  11  26  42  70  98 139 175 227 280 333 407
#
# _framework density 9.9279810000000008
#
# number of rings (size 3 to 8) (size 9 to 14) (size 15 to 20)
#    0.000    1.231    2.308    2.308    3.231    9.846 
#    2.769    0.000    0.000    0.000    0.000    0.000 
#    0.000    0.000    0.000    0.000    0.000    0.000 
#
# Total GULP energy -144737.585597 kJ/mol
# GULP energy per Si atom -5566.830215 kJ/mol
# Density = 0.990538 g / cm^3
# Si number density = 9.927981 Si / 1000 Ang^3
#
#
#
# Elastic Constant Matrix: (Units=GPa)
#
#
# Indices 1 2 3 4 5 6 
#
# 1 52.5881 23.4709 21.0663 0.0000 16.3689 0.0000
# 2 23.4709 115.9193 36.4367 0.0000 12.6341 0.0000
# 3 21.0663 36.4367 180.1134 0.0000 17.9625 0.0000
# 4 0.0000 0.0000 0.0000 53.0543 0.0000 4.9843
# 5 16.3689 12.6341 17.9625 0.0000 40.9122 0.0000
# 6 0.0000 0.0000 0.0000 4.9843 0.0000 25.3592
#
#
#
# Elastic Compliance Matrix: (Units=1/GPa)
#
#
# Indices 1 2 3 4 5 6 
#
# 1 0.023508 -0.003516 -0.001264 0.000000 -0.007765 0.000000
# 2 -0.003516 0.009918 -0.001495 0.000000 -0.000999 0.000000
# 3 -0.001264 -0.001495 0.006176 0.000000 -0.001744 0.000000
# 4 0.000000 0.000000 0.000000 0.019203 0.000000 -0.003774
# 5 -0.007765 -0.000999 -0.001744 0.000000 0.028624 0.000000
# 6 0.000000 0.000000 0.000000 -0.003774 0.000000 0.040175
#
#
# Mechanical properties :
#
#
# Convention : Reuss Voigt Hill
#
# Bulk Modulus (GPa) = 36.96696 56.72982 46.84839
# Shear Modulus (GPa) = 33.51822 41.70826 37.61324
#
# Velocity S-wave (km/s) = 4.11307 4.58814 4.35708
# Velocity P-wave (km/s) = 6.41985 7.52999 6.99697
#
# Compressibility (1/GPa) = 0.02705119
#
# Stress axis : x y z
#
# Youngs Moduli (GPa) = 42.53816 100.83078 161.90793
#
# Poissons Ratio (x) = 0.35455 0.20462
# Poissons Ratio (y) = 0.14958 0.24212
# Poissons Ratio (z) = 0.05376 0.15078
#
# Static dielectric constant tensor:
#      x y z
#    x 1.796010 0.000000 -0.010390 
#    y 0.000000 1.728060 0.000000 
#    z -0.010390 0.000000 1.684170 
# 
# From -- ./inp_files/228209.got.cif
#   From: 2010.05.17/outbox.ucp.g08.bks.cvg/sg15_115_cif.got.tgz:228209.got - 2010.06.11 12:40:34.
