data_PCOD9309594
_publ_section_title
;
Structure prediction by ZEFSAII (Michael W. Deem and Ramdas Pophale) SiO2 
 PCOD9309594
Probable space group: C 2/C
;
_chemical_formula_sum "Si O2"
_cell_formula_units_Z 26
_cell_length_a 18.000000
_cell_length_b 27.000000
_cell_length_c 6.000000
_cell_angle_alpha 90.000000
_cell_angle_beta 120.000000
_cell_angle_gamma 90.000000
_cell_volume 2525.330077
_symmetry_space_group_name_H-M "C 2/C"
_symmetry_group_IT_number 15
_symmetry_cell_setting 'monoclinic'
loop_
_space_group_symop_operation_xyz
x,y,z
-x,y,1/2-z
-x,-y,-z
x,-y,1/2+z
1/2+x,1/2+y,z
1/2-x,1/2+y,1/2-z
1/2-x,1/2-y,-z
1/2+x,1/2-y,1/2+z
loop_
_atom_site_type_symbol
_atom_site_label
_atom_site_fract_x
_atom_site_fract_y
_atom_site_fract_z
Si Si1 0.000000 0.368183 0.250000
Si Si2 0.906410 0.119317 0.981799
Si Si3 0.600081 0.712352 0.855983
Si Si4 0.843898 0.597107 0.225767
Si Si5 0.222529 0.843039 0.877190
Si Si6 0.374029 0.181087 0.914247
Si Si7 0.189386 0.971711 0.374814
O O1 0.068714 0.402186 0.491333
O O2 0.049829 0.332090 0.147843
O O3 0.890970 0.173386 0.837905
O O4 0.878682 0.074487 0.770548
O O5 0.834342 0.119322 0.064305
O O6 0.000000 0.116066 0.250000
O O7 0.500000 0.707400 0.750000
O O8 0.658329 0.691105 0.141805
O O9 0.616607 0.771894 0.903512
O O10 0.778416 0.626456 0.286414
O O11 0.864737 0.632018 0.048141
O O12 0.786733 0.550947 0.047443
O O13 0.288019 0.813981 0.136705
O O14 0.178811 0.997965 0.613267
#
# Coordination Sequence:
#
# PCOD9309594 Si02
#       7
#     4   8   8   8   8   8   8
#     4  10  24  42  74 104 150 194 240 304 368 444
#     4  12  26  47  73 104 152 192 246 313 370 439
#     4  12  24  39  67 106 149 194 244 294 360 439
#     4  11  23  46  72 103 148 191 245 307 374 444
#     4  11  22  42  67 100 144 200 241 297 359 436
#     4  11  24  43  70 104 150 195 248 285 366 448
#     4  12  28  50  82 109 144 193 258 320 393 453
#
# _framework density 10.295684
#
# number of rings (size 3 to 8) (size 9 to 14) (size 15 to 20)
#    0.000    0.615    4.615    2.769    2.154    6.769 
#    1.385    0.769    0.000    0.000    0.000    0.000 
#    0.000    0.000    0.000    0.000    0.000    0.000 
#
# Total GULP energy -144896.586612 kJ/mol
# GULP energy per Si atom -5572.945639 kJ/mol
# Density = 1.027225 g / cm^3
# Si number density = 10.295684 Si / 1000 Ang^3
#
#
#
# Elastic Constant Matrix: (Units=GPa)
#
#
# Indices 1 2 3 4 5 6 
#
# 1 91.0938 25.4193 37.5155 0.0000 7.3073 0.0000
# 2 25.4193 62.8127 27.6361 0.0000 -10.0706 0.0000
# 3 37.5155 27.6361 154.0771 0.0000 22.8269 0.0000
# 4 0.0000 0.0000 0.0000 -23.6143 0.0000 -12.5022
# 5 7.3073 -10.0706 22.8269 0.0000 51.7114 0.0000
# 6 0.0000 0.0000 0.0000 -12.5022 0.0000 27.3262
#
#
#
# Elastic Compliance Matrix: (Units=1/GPa)
#
#
# Indices 1 2 3 4 5 6 
#
# 1 0.013328 -0.004766 -0.002112 0.000000 -0.001879 0.000000
# 2 -0.004766 0.020325 -0.003393 0.000000 0.006129 0.000000
# 3 -0.002112 -0.003393 0.008203 0.000000 -0.003984 0.000000
# 4 0.000000 0.000000 0.000000 -0.034090 0.000000 -0.015597
# 5 -0.001879 0.006129 -0.003984 0.000000 0.022556 0.000000
# 6 0.000000 0.000000 0.000000 -0.015597 0.000000 0.029459
#
#
# Mechanical properties :
#
#
# Convention : Reuss Voigt Hill
#
# Bulk Modulus (GPa) = 46.91729 54.34725 50.63227
# Shear Modulus (GPa) = 57.19010 25.57883 41.38447
#
# Velocity S-wave (km/s) = 5.27581 3.52833 4.48794
# Velocity P-wave (km/s) = 7.74252 6.56120 7.17621
#
# Compressibility (1/GPa) = 0.02131411
#
# Stress axis : x y z
#
# Youngs Moduli (GPa) = 75.02956 49.20146 121.90219
#
# Poissons Ratio (x) = 0.23448 0.25746
# Poissons Ratio (y) = 0.35757 0.41364
# Poissons Ratio (z) = 0.15846 0.16695
#
# Static dielectric constant tensor:
#      x y z
#    x 1.771350 0.000000 -0.017090 
#    y 0.000000 1.793540 0.000000 
#    z -0.017090 0.000000 1.782430 
# 
# From -- ./inp_files/11632.got.cif
#   From: 2010.05.17/outbox.ucp.g08.bks.cvg/sg15_6_cif.got.tgz:11632.got - 2010.06.11 12:40:34.
