data_PCOD9309361
_publ_section_title
;
Structure prediction by ZEFSAII (Michael W. Deem and Ramdas Pophale) SiO2 
 PCOD9309361
Probable space group: C 2/C
;
_chemical_formula_sum "Si O2"
_cell_formula_units_Z 32
_cell_length_a 18.000000
_cell_length_b 15.000000
_cell_length_c 15.000000
_cell_angle_alpha 90.000000
_cell_angle_beta 130.000000
_cell_angle_gamma 90.000000
_cell_volume 3102.479995
_symmetry_space_group_name_H-M "C 2/C"
_symmetry_group_IT_number 15
_symmetry_cell_setting 'monoclinic'
loop_
_space_group_symop_operation_xyz
x,y,z
-x,y,1/2-z
-x,-y,-z
x,-y,1/2+z
1/2+x,1/2+y,z
1/2-x,1/2+y,1/2-z
1/2-x,1/2-y,-z
1/2+x,1/2-y,1/2+z
loop_
_atom_site_type_symbol
_atom_site_label
_atom_site_fract_x
_atom_site_fract_y
_atom_site_fract_z
Si Si1 0.616546 0.039093 0.831993
Si Si2 0.386919 0.602283 0.328418
Si Si3 0.847080 0.471172 0.456898
Si Si4 0.829756 0.592081 0.274310
Si Si5 0.438730 0.207103 0.794432
Si Si6 0.009764 0.318856 0.962829
Si Si7 0.456546 0.370228 0.072099
Si Si8 0.632455 0.568591 0.811749
O O1 0.500000 0.031841 0.750000
O O2 0.636113 0.128676 0.790375
O O3 0.655875 0.954358 0.809369
O O4 0.656364 0.038874 0.962677
O O5 0.281222 0.608373 0.290602
O O6 0.403845 0.695133 0.292070
O O7 0.452332 0.588985 0.468370
O O8 0.390955 0.526778 0.254703
O O9 0.859787 0.521555 0.374083
O O10 0.745851 0.418528 0.382075
O O11 0.935916 0.404489 0.534327
O O12 0.900009 0.674980 0.344149
O O13 0.500000 0.214845 0.750000
O O14 0.487461 0.178151 0.926599
O O15 0.065085 0.232692 0.967523
O O16 0.393739 0.417244 0.103231
O O17 0.562356 0.369825 0.199215
#
# Coordination Sequence:
#
# PCOD9309361 Si02
#       8
#     8   8   8   8   8   8   8   8
#     4  11  20  35  64  93 126 165 202 255 319 378
#     4  10  23  42  66  90 124 170 211 263 311 369
#     4  11  22  38  64  94 126 167 202 255 319 377
#     4  11  21  39  62  94 129 158 207 253 318 382
#     4  10  22  39  62  92 123 167 213 259 314 364
#     4  11  22  40  63  92 131 163 201 267 316 372
#     4  10  23  41  64  88 124 168 214 261 313 364
#     4  10  23  42  63  90 124 165 217 259 303 380
#
# _framework density 10.314329000000001
#
# number of rings (size 3 to 8) (size 9 to 14) (size 15 to 20)
#    0.000    1.500    2.500    3.000    1.750    4.500 
#    0.000    5.625    0.000    0.000    0.000    0.000 
#    0.000    0.000    0.000    0.000    0.000    0.000 
#
# Total GULP energy -178297.206817 kJ/mol
# GULP energy per Si atom -5571.787713 kJ/mol
# Density = 1.029085 g / cm^3
# Si number density = 10.314329 Si / 1000 Ang^3
#
#
#
# Elastic Constant Matrix: (Units=GPa)
#
#
# Indices 1 2 3 4 5 6 
#
# 1 79.1787 36.2356 14.3178 0.0000 -17.7923 0.0000
# 2 36.2356 68.4165 16.9547 0.0000 -17.3417 0.0000
# 3 14.3178 16.9547 63.7959 0.0000 -18.6155 0.0000
# 4 0.0000 0.0000 0.0000 21.9355 0.0000 -13.1997
# 5 -17.7923 -17.3417 -18.6155 0.0000 34.5567 0.0000
# 6 0.0000 0.0000 0.0000 -13.1997 0.0000 29.8749
#
#
#
# Elastic Compliance Matrix: (Units=1/GPa)
#
#
# Indices 1 2 3 4 5 6 
#
# 1 0.017391 -0.007900 -0.000412 0.000000 0.004767 0.000000
# 2 -0.007900 0.020643 -0.002227 0.000000 0.005092 0.000000
# 3 -0.000412 -0.002227 0.018950 0.000000 0.008878 0.000000
# 4 0.000000 0.000000 0.000000 0.062099 0.000000 0.027437
# 5 0.004767 0.005092 0.008878 0.000000 0.038731 0.000000
# 6 0.000000 0.000000 0.000000 0.027437 0.000000 0.045596
#
#
# Mechanical properties :
#
#
# Convention : Reuss Voigt Hill
#
# Bulk Modulus (GPa) = 27.85166 38.48970 33.17068
# Shear Modulus (GPa) = 21.14546 26.86561 24.00553
#
# Velocity S-wave (km/s) = 3.20512 3.61272 3.41500
# Velocity P-wave (km/s) = 5.21803 6.00842 5.62712
#
# Compressibility (1/GPa) = 0.03590451
#
# Stress axis : x y z
#
# Youngs Moduli (GPa) = 57.50098 48.44204 52.77000
#
# Poissons Ratio (x) = 0.38270 0.02176
# Poissons Ratio (y) = 0.45427 0.11754
# Poissons Ratio (z) = 0.02371 0.10790
#
# Static dielectric constant tensor:
#      x y z
#    x 1.688020 0.000000 0.094500 
#    y 0.000000 1.775730 0.000000 
#    z 0.094500 0.000000 1.600420 
# 
# From -- ./inp_files/162526.got.cif
#   From: 2010.05.17/outbox.ucp.g08.bks.cvg/sg15_82_cif.got.tgz:162526.got - 2010.06.11 12:40:34.
