data_PCOD9309100
_publ_section_title
;
Structure prediction by ZEFSAII (Michael W. Deem and Ramdas Pophale) SiO2 
 PCOD9309100
Probable space group: C 2/C
;
_chemical_formula_sum "Si O2"
_cell_formula_units_Z 32
_cell_length_a 27.000000
_cell_length_b 21.000000
_cell_length_c 12.000000
_cell_angle_alpha 90.000000
_cell_angle_beta 30.000000
_cell_angle_gamma 90.000000
_cell_volume 3402.000000
_symmetry_space_group_name_H-M "C 2/C"
_symmetry_group_IT_number 15
_symmetry_cell_setting 'monoclinic'
loop_
_space_group_symop_operation_xyz
x,y,z
-x,y,1/2-z
-x,-y,-z
x,-y,1/2+z
1/2+x,1/2+y,z
1/2-x,1/2+y,1/2-z
1/2-x,1/2-y,-z
1/2+x,1/2-y,1/2+z
loop_
_atom_site_type_symbol
_atom_site_label
_atom_site_fract_x
_atom_site_fract_y
_atom_site_fract_z
Si Si1 0.020192 0.410948 0.401473
Si Si2 0.201553 0.397293 0.757207
Si Si3 0.147937 0.946317 0.203176
Si Si4 0.289275 0.330284 0.012933
Si Si5 0.172083 0.493449 0.491839
Si Si6 0.043420 0.934994 0.786185
Si Si7 0.910037 0.376381 0.990801
Si Si8 0.675417 0.814872 0.012729
O O1 0.083221 0.470835 0.231523
O O2 0.043822 0.403904 0.485250
O O3 0.904437 0.408691 0.597188
O O4 0.073087 0.350587 0.239798
O O5 0.292173 0.399843 0.495418
O O6 0.201588 0.335722 0.836740
O O7 0.209648 0.456387 0.826792
O O8 0.054084 0.917377 0.451313
O O9 0.099357 0.004525 0.229682
O O10 0.234701 0.973826 0.114118
O O11 0.187923 0.338468 0.281160
O O12 0.329214 0.259766 0.956538
O O13 0.373657 0.380338 0.879616
O O14 0.254704 0.339337 0.951314
O O15 0.127852 0.433227 0.513799
O O16 0.000000 0.950497 0.750000
O O17 0.000000 0.342289 0.750000
#
# Coordination Sequence:
#
# PCOD9309100 Si02
#       8
#     8   8   8   8   8   8   8   8
#     4  10  21  34  55  85 113 145 183 223 281 343
#     4  11  20  34  56  85 115 143 181 236 284 322
#     4  11  23  36  54  85 117 144 189 236 276 332
#     4  10  21  40  60  78 106 148 191 224 272 339
#     4  11  20  34  55  81 115 150 177 218 282 343
#     4  11  23  38  57  80 111 155 191 225 278 341
#     4  11  21  34  56  85 112 139 176 227 279 330
#     4   9  20  39  60  80 106 145 187 229 275 334
#
# _framework density 9.4062319999999993
#
# number of rings (size 3 to 8) (size 9 to 14) (size 15 to 20)
#    0.000    1.500    0.000    8.250    0.000    3.500 
#    0.000    3.750    0.000    4.500    0.000    0.000 
#    0.000    0.000    0.000    0.000    0.000    0.000 
#
# Total GULP energy -178750.636985 kJ/mol
# GULP energy per Si atom -5585.957406 kJ/mol
# Density = 0.938482 g / cm^3
# Si number density = 9.406232 Si / 1000 Ang^3
#
#
#
# Elastic Constant Matrix: (Units=GPa)
#
#
# Indices 1 2 3 4 5 6 
#
# 1 118.7449 20.1065 42.5006 0.0000 -7.5168 0.0000
# 2 20.1065 43.5570 20.8605 0.0000 -5.6977 0.0000
# 3 42.5006 20.8605 137.7580 0.0000 -2.4833 0.0000
# 4 0.0000 0.0000 0.0000 11.7310 0.0000 -2.2107
# 5 -7.5168 -5.6977 -2.4833 0.0000 21.2449 0.0000
# 6 0.0000 0.0000 0.0000 -2.2107 0.0000 24.4593
#
#
#
# Elastic Compliance Matrix: (Units=1/GPa)
#
#
# Indices 1 2 3 4 5 6 
#
# 1 0.010019 -0.003072 -0.002582 0.000000 0.002419 0.000000
# 2 -0.003072 0.026542 -0.002969 0.000000 0.005684 0.000000
# 3 -0.002582 -0.002969 0.008492 0.000000 -0.000717 0.000000
# 4 0.000000 0.000000 0.000000 0.086721 0.000000 0.007838
# 5 0.002419 0.005684 -0.000717 0.000000 0.049367 0.000000
# 6 0.000000 0.000000 0.000000 0.007838 0.000000 0.041593
#
#
# Mechanical properties :
#
#
# Convention : Reuss Voigt Hill
#
# Bulk Modulus (GPa) = 35.96183 51.88832 43.92508
# Shear Modulus (GPa) = 20.06025 25.92653 22.99339
#
# Velocity S-wave (km/s) = 3.26901 3.71638 3.49985
# Velocity P-wave (km/s) = 5.77979 6.78654 6.30330
#
# Compressibility (1/GPa) = 0.02780726
#
# Stress axis : x y z
#
# Youngs Moduli (GPa) = 99.81147 37.67623 117.75176
#
# Poissons Ratio (x) = 0.11573 0.30406
# Poissons Ratio (y) = 0.30659 0.34961
# Poissons Ratio (z) = 0.25774 0.11186
#
# Static dielectric constant tensor:
#      x y z
#    x 1.654140 0.000000 0.039120 
#    y 0.000000 1.636580 0.000000 
#    z 0.039120 0.000000 1.685980 
# 
# From -- ./inp_files/124234.got.cif
#   From: 2010.05.17/outbox.ucp.g08.bks.cvg/sg15_63_cif.got.tgz:124234.got - 2010.06.11 12:40:34.
