data_PCOD9309827
_publ_section_title
;
Structure prediction by ZEFSAII (Michael W. Deem and Ramdas Pophale) SiO2 
 PCOD9309827
Probable space group: C 2/C
;
_chemical_formula_sum "Si O2"
_cell_formula_units_Z 22
_cell_length_a 15.000000
_cell_length_b 9.000000
_cell_length_c 18.000000
_cell_angle_alpha 90.000000
_cell_angle_beta 120.000000
_cell_angle_gamma 90.000000
_cell_volume 2104.441731
_symmetry_space_group_name_H-M "C 2/C"
_symmetry_group_IT_number 15
_symmetry_cell_setting 'monoclinic'
loop_
_space_group_symop_operation_xyz
x,y,z
-x,y,1/2-z
-x,-y,-z
x,-y,1/2+z
1/2+x,1/2+y,z
1/2-x,1/2+y,1/2-z
1/2-x,1/2-y,-z
1/2+x,1/2-y,1/2+z
loop_
_atom_site_type_symbol
_atom_site_label
_atom_site_fract_x
_atom_site_fract_y
_atom_site_fract_z
Si Si1 0.847810 0.331843 0.804451
Si Si2 0.500000 0.346500 0.750000
Si Si3 0.479361 0.321708 0.475733
Si Si4 0.303907 0.453329 0.189049
Si Si5 0.165204 0.359937 0.994920
Si Si6 0.517753 0.902281 0.382561
O O1 0.877607 0.223085 0.886349
O O2 0.744824 0.429084 0.772653
O O3 0.835242 0.209314 0.733936
O O4 0.932893 0.465629 0.836241
O O5 0.596993 0.457166 0.798684
O O6 0.499781 0.228047 0.683371
O O7 0.500000 0.500000 0.500000
O O8 0.572051 0.256016 0.465924
O O9 0.482900 0.200054 0.543788
O O10 0.214503 0.427196 0.090784
O O11 0.250000 0.250000 0.000000
O O12 0.122849 0.499601 0.929549
#
# Coordination Sequence:
#
# PCOD9309827 Si02
#       6
#     8   4   8   8   8   8
#     4  11  24  45  72  93 137 180 232 280 336 417
#     4  12  30  40  68 106 142 176 230 288 350 404
#     4  11  23  45  73  98 131 186 228 276 342 416
#     4  12  26  45  67 105 136 180 231 285 343 409
#     4  11  26  44  71 100 138 180 233 285 345 406
#     4  11  24  50  66 100 138 186 227 284 341 414
#
# _framework density 10.454079
#
# number of rings (size 3 to 8) (size 9 to 14) (size 15 to 20)
#    0.000    0.727    3.636    3.273   12.727    2.182 
#    0.000    0.000    0.000    0.000    0.000    0.000 
#    0.000    0.000    0.000    0.000    0.000    0.000 
#
# Total GULP energy -122534.281590 kJ/mol
# GULP energy per Si atom -5569.740072 kJ/mol
# Density = 1.043028 g / cm^3
# Si number density = 10.454079 Si / 1000 Ang^3
#
#
#
# Elastic Constant Matrix: (Units=GPa)
#
#
# Indices 1 2 3 4 5 6 
#
# 1 31.0209 9.6715 -23.1310 0.0000 13.2910 0.0000
# 2 9.6715 164.9581 -4.1719 0.0000 11.9472 0.0000
# 3 -23.1310 -4.1719 34.0595 0.0000 13.4033 0.0000
# 4 0.0000 0.0000 0.0000 44.9087 0.0000 4.1495
# 5 13.2910 11.9472 13.4033 0.0000 19.1324 0.0000
# 6 0.0000 0.0000 0.0000 4.1495 0.0000 45.6506
#
#
#
# Elastic Compliance Matrix: (Units=1/GPa)
#
#
# Indices 1 2 3 4 5 6 
#
# 1 -0.044666 -0.004469 -0.061010 0.000000 0.076561 0.000000
# 2 -0.004469 0.006170 -0.002741 0.000000 0.001172 0.000000
# 3 -0.061010 -0.002741 -0.041090 0.000000 0.072880 0.000000
# 4 0.000000 0.000000 0.000000 0.022456 0.000000 -0.002041
# 5 0.076561 0.001172 0.072880 0.000000 -0.052707 0.000000
# 6 0.000000 0.000000 0.000000 -0.002041 0.000000 0.022091
#
#
# Mechanical properties :
#
#
# Convention : Reuss Voigt Hill
#
# Bulk Modulus (GPa) = -4.62909 21.64174 8.50633
# Shear Modulus (GPa) = -214.46738 38.44965 -88.00886
#
# Velocity S-wave (km/s) = -10.13897 4.29298 -6.49496
# Velocity P-wave (km/s) = 11.80185 5.91154 7.22279
#
# Compressibility (1/GPa) = -0.21602515
#
# Stress axis : x y z
#
# Youngs Moduli (GPa) = -22.38848 162.07448 -24.33705
#
# Poissons Ratio (x) = 0.72434 -1.48481
# Poissons Ratio (y) = -0.10006 -0.06670
# Poissons Ratio (z) = -1.36593 0.44417
#
# Static dielectric constant tensor:
#      x y z
#    x 2.116540 0.000000 -0.165330 
#    y 0.000000 1.772870 0.000000 
#    z -0.165330 0.000000 1.915350 
# 
# From -- ./inp_files/202553.got.cif
#   From: 2010.05.17/outbox.ucp.g08.bks.cvg/sg15_102_cif.got.tgz:202553.got - 2010.06.11 12:40:34.
