data_PCOD9309639
_publ_section_title
;
Structure prediction by ZEFSAII (Michael W. Deem and Ramdas Pophale) SiO2 
 PCOD9309639
Probable space group: C 2/C
;
_chemical_formula_sum "Si O2"
_cell_formula_units_Z 28
_cell_length_a 21.000000
_cell_length_b 18.000000
_cell_length_c 21.000000
_cell_angle_alpha 90.000000
_cell_angle_beta 160.000000
_cell_angle_gamma 90.000000
_cell_volume 2714.955898
_symmetry_space_group_name_H-M "C 2/C"
_symmetry_group_IT_number 15
_symmetry_cell_setting 'monoclinic'
loop_
_space_group_symop_operation_xyz
x,y,z
-x,y,1/2-z
-x,-y,-z
x,-y,1/2+z
1/2+x,1/2+y,z
1/2-x,1/2+y,1/2-z
1/2-x,1/2-y,-z
1/2+x,1/2-y,1/2+z
loop_
_atom_site_type_symbol
_atom_site_label
_atom_site_fract_x
_atom_site_fract_y
_atom_site_fract_z
Si Si1 0.000000 0.896643 0.750000
Si Si2 0.620483 0.341001 0.726548
Si Si3 0.285106 0.310098 0.317636
Si Si4 0.979858 0.228603 0.863192
Si Si5 0.829471 0.373038 0.723365
Si Si6 0.500000 0.646899 0.750000
Si Si7 0.063881 0.418065 0.539289
Si Si8 0.715593 0.976340 0.933614
O O1 0.936632 0.848086 0.752424
O O2 0.837936 0.951591 0.568691
O O3 0.443604 0.346658 0.512068
O O4 0.715495 0.263500 0.791099
O O5 0.775092 0.406026 0.861756
O O6 0.363123 0.288273 0.319811
O O7 0.112526 0.366353 0.144379
O O8 0.004262 0.317581 0.877367
O O9 0.939483 0.194965 0.754849
O O10 0.169048 0.185305 0.056408
O O11 0.834930 0.389841 0.802180
O O12 0.800331 0.447049 0.654660
O O13 0.326651 0.592616 0.570078
O O14 0.000000 0.500000 0.500000
O O15 0.500000 0.985289 0.750000
#
# Coordination Sequence:
#
# PCOD9309639 Si02
#       8
#     4   8   8   8   8   4   8   8
#     4  11  30  50  72 100 149 182 252 320 375 410
#     4  12  26  52  76 110 139 195 249 313 366 438
#     4  12  24  48  78 104 150 185 255 306 366 436
#     4  11  21  41  67 105 148 189 237 297 343 441
#     4  11  23  39  68 103 141 192 236 285 359 429
#     4   9  24  38  64 106 145 192 236 284 359 428
#     4  12  28  44  74 113 144 191 241 302 369 444
#     4  10  25  45  65  99 148 193 233 289 360 445
#
# _framework density 10.313243
#
# number of rings (size 3 to 8) (size 9 to 14) (size 15 to 20)
#    0.000    0.857    4.286    0.857    9.000    4.571 
#    0.000    0.000    0.000    0.000    0.000    0.000 
#    0.000    0.000    0.000    0.000    0.000    0.000 
#
# Total GULP energy -156169.084153 kJ/mol
# GULP energy per Si atom -5577.467291 kJ/mol
# Density = 1.028977 g / cm^3
# Si number density = 10.313243 Si / 1000 Ang^3
#
#
#
# Elastic Constant Matrix: (Units=GPa)
#
#
# Indices 1 2 3 4 5 6 
#
# 1 161.1038 45.5782 49.1036 0.0157 -2.5730 0.0061
# 2 45.5782 80.4105 10.4308 -0.0056 2.0920 -0.0063
# 3 49.1036 10.4308 98.5829 0.0029 1.0042 -0.0080
# 4 0.0157 -0.0056 0.0029 30.9991 -0.0073 -7.7763
# 5 -2.5730 2.0920 1.0042 -0.0073 30.0291 -0.0063
# 6 0.0061 -0.0063 -0.0080 -7.7763 -0.0063 29.0311
#
#
#
# Elastic Compliance Matrix: (Units=1/GPa)
#
#
# Indices 1 2 3 4 5 6 
#
# 1 0.008656 -0.004437 -0.003854 -0.000006 0.001180 -0.000005
# 2 -0.004437 0.014905 0.000648 0.000006 -0.001440 0.000006
# 3 -0.003854 0.000648 0.012003 0.000002 -0.000777 0.000005
# 4 -0.000006 0.000006 0.000002 0.034583 0.000009 0.009263
# 5 0.001180 -0.001440 -0.000777 0.000009 0.033528 0.000009
# 6 -0.000005 0.000006 0.000005 0.009263 0.000009 0.036927
#
#
# Mechanical properties :
#
#
# Convention : Reuss Voigt Hill
#
# Bulk Modulus (GPa) = 49.31781 61.14693 55.23237
# Shear Modulus (GPa) = 30.74132 33.67752 32.20942
#
# Velocity S-wave (km/s) = 3.86473 4.04509 3.95594
# Velocity P-wave (km/s) = 6.62395 7.17818 6.90663
#
# Compressibility (1/GPa) = 0.02027665
#
# Stress axis : x y z
#
# Youngs Moduli (GPa) = 115.52619 67.09300 83.31381
#
# Poissons Ratio (x) = 0.29770 0.32110
# Poissons Ratio (y) = 0.51261 -0.05397
# Poissons Ratio (z) = 0.44525 -0.04346
#
# Static dielectric constant tensor:
#      x y z
#    x 1.747150 -0.000010 0.021000 
#    y -0.000010 1.813720 -0.000020 
#    z 0.021000 -0.000020 1.864380 
# 
# From -- ./inp_files/253399.got.cif
#   From: 2010.05.17/outbox.ucp.g08.bks.cvg/sg15_127_cif.got.tgz:253399.got - 2010.06.11 12:40:34.
