data_PCOD9309581
_publ_section_title
;
Structure prediction by ZEFSAII (Michael W. Deem and Ramdas Pophale) SiO2 
 PCOD9309581
Probable space group: C 2/C
;
_chemical_formula_sum "Si O2"
_cell_formula_units_Z 30
_cell_length_a 27.000000
_cell_length_b 9.000000
_cell_length_c 12.000000
_cell_angle_alpha 90.000000
_cell_angle_beta 90.000000
_cell_angle_gamma 90.000000
_cell_volume 2916.000000
_symmetry_space_group_name_H-M "C 2/C"
_symmetry_group_IT_number 15
_symmetry_cell_setting 'monoclinic'
loop_
_space_group_symop_operation_xyz
x,y,z
-x,y,1/2-z
-x,-y,-z
x,-y,1/2+z
1/2+x,1/2+y,z
1/2-x,1/2+y,1/2-z
1/2-x,1/2-y,-z
1/2+x,1/2-y,1/2+z
loop_
_atom_site_type_symbol
_atom_site_label
_atom_site_fract_x
_atom_site_fract_y
_atom_site_fract_z
Si Si1 0.305734 0.063560 0.783123
Si Si2 0.311048 0.246005 0.998315
Si Si3 0.246268 0.214390 0.368076
Si Si4 0.418563 0.666294 0.796165
Si Si5 0.000000 0.910180 0.750000
Si Si6 0.650965 0.485490 0.855725
Si Si7 0.891360 0.443509 0.642033
Si Si8 0.566723 0.255113 0.938866
O O1 0.263536 0.133136 0.700932
O O2 0.289025 0.902146 0.831931
O O3 0.358105 0.034246 0.727894
O O4 0.316669 0.189051 0.873888
O O5 0.332005 0.401250 0.045409
O O6 0.347192 0.130925 0.066397
O O7 0.250000 0.250000 0.000000
O O8 0.250000 0.250000 0.500000
O O9 0.198099 0.117554 0.338642
O O10 0.456844 0.528727 0.781329
O O11 0.367778 0.584793 0.750096
O O12 0.420319 0.809492 0.709192
O O13 0.428849 0.720434 0.924629
O O14 0.019994 0.811604 0.857933
O O15 0.608813 0.370261 0.895353
O O16 0.922774 0.577881 0.583681
#
# Coordination Sequence:
#
# PCOD9309581 Si02
#       8
#     8   8   8   8   4   8   8   8
#     4  12  25  39  63  90 134 187 231 284 335 382
#     4  11  22  40  57  87 135 180 232 274 322 385
#     4  12  27  41  62  94 138 184 247 286 333 393
#     4  10  24  45  72  97 138 171 215 280 355 417
#     4  10  24  48  74 110 124 168 222 274 356 448
#     4  10  24  40  62  95 132 178 233 277 334 405
#     4  11  24  42  62 104 133 178 226 279 333 405
#     4  11  23  45  73  98 138 168 222 285 346 420
#
# _framework density 10.288066000000001
#
# number of rings (size 3 to 8) (size 9 to 14) (size 15 to 20)
#    0.000    1.067    2.667    2.800    7.467    0.533 
#    0.000    5.333    0.000    0.000    0.000    0.000 
#    0.000    0.000    0.000    0.000    0.000    0.000 
#
# Total GULP energy -167020.391802 kJ/mol
# GULP energy per Si atom -5567.346393 kJ/mol
# Density = 1.026465 g / cm^3
# Si number density = 10.288066 Si / 1000 Ang^3
#
#
#
# Elastic Constant Matrix: (Units=GPa)
#
#
# Indices 1 2 3 4 5 6 
#
# 1 68.6684 21.8483 21.8305 0.0000 28.2328 0.0000
# 2 21.8483 132.4536 40.0197 0.0000 11.9377 0.0000
# 3 21.8305 40.0197 135.0194 0.0000 32.0786 0.0000
# 4 0.0000 0.0000 0.0000 52.1116 0.0000 5.9053
# 5 28.2328 11.9377 32.0786 0.0000 33.5186 0.0000
# 6 0.0000 0.0000 0.0000 5.9053 0.0000 41.5377
#
#
#
# Elastic Compliance Matrix: (Units=1/GPa)
#
#
# Indices 1 2 3 4 5 6 
#
# 1 0.023160 -0.002543 0.001849 0.000000 -0.020371 0.000000
# 2 -0.002543 0.008587 -0.002480 0.000000 0.001457 0.000000
# 3 0.001849 -0.002480 0.010358 0.000000 -0.010587 0.000000
# 4 0.000000 0.000000 0.000000 0.019504 0.000000 -0.002773
# 5 -0.020371 0.001457 -0.010587 0.000000 0.056606 0.000000
# 6 0.000000 0.000000 0.000000 -0.002773 0.000000 0.024469
#
#
# Mechanical properties :
#
#
# Convention : Reuss Voigt Hill
#
# Bulk Modulus (GPa) = 27.96690 55.94869 41.95780
# Shear Modulus (GPa) = 31.06541 42.26309 36.66425
#
# Velocity S-wave (km/s) = 3.88980 4.53701 4.22581
# Velocity P-wave (km/s) = 5.81339 7.39568 6.65175
#
# Compressibility (1/GPa) = 0.03575656
#
# Stress axis : x y z
#
# Youngs Moduli (GPa) = 43.17868 116.45044 96.54495
#
# Poissons Ratio (x) = 0.29612 -0.17852
# Poissons Ratio (y) = 0.10980 0.23947
# Poissons Ratio (z) = -0.07984 0.28884
#
# Static dielectric constant tensor:
#      x y z
#    x 1.798460 0.000000 -0.000350 
#    y 0.000000 1.846330 0.000000 
#    z -0.000350 0.000000 1.835150 
# 
# From -- ./inp_files/121945.got.cif
#   From: 2010.05.17/outbox.ucp.g08.bks.cvg/sg15_61_cif.got.tgz:121945.got - 2010.06.11 12:40:34.
