data_PCOD9309940
_publ_section_title
;
Structure prediction by ZEFSAII (Michael W. Deem and Ramdas Pophale) SiO2 
 PCOD9309940
Probable space group: P 2 2 2
;
_chemical_formula_sum "Si O2"
_cell_formula_units_Z 30
_cell_length_a 5.193709
_cell_length_b 23.760898
_cell_length_c 12.366103
_cell_angle_alpha 90.000000
_cell_angle_beta 90.000000
_cell_angle_gamma 90.000000
_cell_volume 1526.066020
_symmetry_space_group_name_H-M "P 2 2 2"
_symmetry_group_IT_number 16
_symmetry_cell_setting 'orthorhombic'
loop_
_space_group_symop_operation_xyz
x,y,z
-x,-y,z
x,-y,-z
-x,y,-z
loop_
_atom_site_type_symbol
_atom_site_label
_atom_site_fract_x
_atom_site_fract_y
_atom_site_fract_z
Si Si1 0.750200 0.842707 0.925337
Si Si2 0.582693 0.752450 0.751103
Si Si3 0.677335 0.398154 0.604341
Si Si4 0.000000 0.500000 0.700666
Si Si5 0.753259 0.025703 0.122340
Si Si6 0.899254 0.421733 0.113690
Si Si7 0.576030 0.360596 0.831896
Si Si8 0.088434 0.274120 0.384702
O O1 0.685992 0.804400 0.821527
O O2 0.772702 0.907682 0.888473
O O3 0.500000 0.839061 0.000000
O O4 0.000000 0.828161 0.000000
O O5 0.465012 0.705700 0.832042
O O6 0.341922 0.756313 0.666373
O O7 0.838567 0.729362 0.691718
O O8 0.500000 0.406676 0.500000
O O9 0.845285 0.453921 0.630908
O O10 0.512767 0.382949 0.710548
O O11 0.836958 0.339856 0.595825
O O12 0.162106 0.465669 0.790851
O O13 0.500000 0.000000 0.174550
O O14 0.000000 0.000000 0.178810
O O15 0.751874 0.000000 0.000000
O O16 0.133986 0.381430 0.150857
O O17 0.641916 0.387475 0.095396
O O18 0.000000 0.444324 0.000000
O O19 0.000000 0.250100 0.500000
#
# Coordination Sequence:
#
# PCOD9309940 Si02
#       8
#     4   4   4   2   4   4   4   4
#     4  12  22  34  54  88 131 175 207 254 304 351
#     4  11  23  38  58  91 121 150 206 262 298 356
#     4  10  22  42  66  90 119 152 185 234 321 395
#     4  10  23  42  61  90 118 134 182 248 286 340
#     4  10  16  31  52  75 116 178 217 243 284 349
#     4  11  23  41  63  80 108 154 195 228 281 344
#     4  10  22  41  59  82 113 147 190 241 283 354
#     4  11  22  43  67  84 112 158 201 248 315 380
#
# _framework density 19.658391000000002
#
# number of rings (size 3 to 8) (size 9 to 14) (size 15 to 20)
#    0.000    1.333    2.667    5.800    0.000    3.733 
#    0.000   11.667    0.000    0.000    0.000    0.000 
#    0.000    8.000    0.000    0.000    0.000    0.000 
#
# Total GULP energy -167294.520076 kJ/mol
# GULP energy per Si atom -5576.484003 kJ/mol
# Density = 1.961365 g / cm^3
# Si number density = 19.658391 Si / 1000 Ang^3
#
#
#
# Elastic Constant Matrix: (Units=GPa)
#
#
# Indices 1 2 3 4 5 6 
#
# 1 149.7234 45.0306 54.4993 0.0000 0.0000 0.0000
# 2 45.0306 122.0942 55.3045 0.0000 0.0000 0.0000
# 3 54.4993 55.3045 95.9353 0.0000 0.0000 0.0000
# 4 0.0000 0.0000 0.0000 16.3988 0.0000 0.0000
# 5 0.0000 0.0000 0.0000 0.0000 26.7868 0.0000
# 6 0.0000 0.0000 0.0000 0.0000 0.0000 24.6421
#
#
#
# Elastic Compliance Matrix: (Units=1/GPa)
#
#
# Indices 1 2 3 4 5 6 
#
# 1 0.008568 -0.001293 -0.004122 0.000000 0.000000 0.000000
# 2 -0.001293 0.011280 -0.005768 0.000000 0.000000 0.000000
# 3 -0.004122 -0.005768 0.016091 0.000000 0.000000 0.000000
# 4 0.000000 0.000000 0.000000 0.060980 0.000000 0.000000
# 5 0.000000 0.000000 0.000000 0.000000 0.037332 0.000000
# 6 0.000000 0.000000 0.000000 0.000000 0.000000 0.040581
#
#
# Mechanical properties :
#
#
# Convention : Reuss Voigt Hill
#
# Bulk Modulus (GPa) = 73.67885 75.26907 74.47396
# Shear Modulus (GPa) = 24.78652 27.76012 26.27332
#
# Velocity S-wave (km/s) = 3.55471 3.76190 3.65977
# Velocity P-wave (km/s) = 7.37624 7.56577 7.47161
#
# Compressibility (1/GPa) = 0.01357242
#
# Stress axis : x y z
#
# Youngs Moduli (GPa) = 116.70908 88.65213 62.14793
#
# Poissons Ratio (x) = 0.11462 0.25618
# Poissons Ratio (y) = 0.15090 0.35848
# Poissons Ratio (z) = 0.48109 0.51136
#
# Static dielectric constant tensor:
#      x y z
#    x 1.715010 0.000000 0.000000 
#    y 0.000000 1.821710 0.000000 
#    z 0.000000 0.000000 1.726660 
# 
# From -- ./inp_files/6114.got.cif
#   From: 2010.05.17/outbox.cif.g08.bks.cpg/sg16_4_cif.got.tgz:6114.got - 2010.06.03 22:28:35.
