data_PCOD9309503
_publ_section_title
;
Structure prediction by ZEFSAII (Michael W. Deem and Ramdas Pophale) SiO2 
 PCOD9309503
Probable space group: C 2/C
;
_chemical_formula_sum "Si O2"
_cell_formula_units_Z 30
_cell_length_a 21.000000
_cell_length_b 18.000000
_cell_length_c 9.000000
_cell_angle_alpha 90.000000
_cell_angle_beta 70.000000
_cell_angle_gamma 90.000000
_cell_volume 3196.834296
_symmetry_space_group_name_H-M "C 2/C"
_symmetry_group_IT_number 15
_symmetry_cell_setting 'monoclinic'
loop_
_space_group_symop_operation_xyz
x,y,z
-x,y,1/2-z
-x,-y,-z
x,-y,1/2+z
1/2+x,1/2+y,z
1/2-x,1/2+y,1/2-z
1/2-x,1/2-y,-z
1/2+x,1/2-y,1/2+z
loop_
_atom_site_type_symbol
_atom_site_label
_atom_site_fract_x
_atom_site_fract_y
_atom_site_fract_z
Si Si1 0.475691 0.277775 0.513380
Si Si2 0.429975 0.020724 0.141422
Si Si3 0.706385 0.396715 0.516599
Si Si4 0.000000 0.348860 0.750000
Si Si5 0.562671 0.569180 0.606696
Si Si6 0.145376 0.011833 0.796412
Si Si7 0.634454 0.094311 0.580475
Si Si8 0.102057 0.234753 0.115200
O O1 0.479247 0.205432 0.403374
O O2 0.455066 0.348531 0.432250
O O3 0.425263 0.270775 0.693911
O O4 0.547376 0.293261 0.537690
O O5 0.444010 0.092723 0.234106
O O6 0.403377 0.951456 0.258850
O O7 0.377784 0.046059 0.057316
O O8 0.500000 0.000000 0.000000
O O9 0.680758 0.443765 0.680731
O O10 0.687481 0.442436 0.383318
O O11 0.786717 0.393479 0.454621
O O12 0.667990 0.317362 0.547760
O O13 0.500000 0.536611 0.750000
O O14 0.621594 0.565510 0.682603
O O15 0.585080 0.522149 0.445916
O O16 0.606496 0.177323 0.582266
#
# Coordination Sequence:
#
# PCOD9309503 Si02
#       8
#     8   8   8   4   8   8   8   8
#     4  11  23  38  63  94 128 168 204 267 323 371
#     4  12  24  42  68 100 124 158 207 274 327 377
#     4  11  23  44  62  92 128 174 213 255 310 384
#     4  12  22  40  66  96 132 150 206 266 332 376
#     4  11  20  37  60  93 125 162 209 258 319 365
#     4  10  23  39  62  88 129 165 212 261 302 374
#     4  12  25  42  68  92 128 167 212 259 325 383
#     4  11  24  41  63  91 128 170 213 257 316 380
#
# _framework density 9.3842839999999992
#
# number of rings (size 3 to 8) (size 9 to 14) (size 15 to 20)
#    0.000    0.800    4.667    3.200    1.867    1.067 
#    0.000    0.000    0.000    1.600    0.000    0.000 
#    0.000    0.000    0.000    0.000    0.000    0.000 
#
# Total GULP energy -167510.329787 kJ/mol
# GULP energy per Si atom -5583.677660 kJ/mol
# Density = 0.936292 g / cm^3
# Si number density = 9.384284 Si / 1000 Ang^3
#
#
#
# Elastic Constant Matrix: (Units=GPa)
#
#
# Indices 1 2 3 4 5 6 
#
# 1 45.6586 25.7194 3.9609 0.0000 -5.2526 0.0000
# 2 25.7194 95.5286 21.4720 0.0000 8.5802 0.0000
# 3 3.9609 21.4720 77.1863 0.0000 7.2877 0.0000
# 4 0.0000 0.0000 0.0000 33.8399 0.0000 10.4482
# 5 -5.2526 8.5802 7.2877 0.0000 22.0598 0.0000
# 6 0.0000 0.0000 0.0000 10.4482 0.0000 23.5642
#
#
#
# Elastic Compliance Matrix: (Units=1/GPa)
#
#
# Indices 1 2 3 4 5 6 
#
# 1 0.027741 -0.008347 -0.000033 0.000000 0.009863 0.000000
# 2 -0.008347 0.013934 -0.002837 0.000000 -0.006470 0.000000
# 3 -0.000033 -0.002837 0.014082 0.000000 -0.003557 0.000000
# 4 0.000000 0.000000 0.000000 0.034238 0.000000 -0.015181
# 5 0.009863 -0.006470 -0.003557 0.000000 0.051371 0.000000
# 6 0.000000 0.000000 0.000000 -0.015181 0.000000 0.049168
#
#
# Mechanical properties :
#
#
# Convention : Reuss Voigt Hill
#
# Bulk Modulus (GPa) = 30.00871 35.63089 32.81980
# Shear Modulus (GPa) = 22.31370 27.04086 24.67728
#
# Velocity S-wave (km/s) = 3.45176 3.79984 3.62998
# Velocity P-wave (km/s) = 5.64887 6.18686 5.92398
#
# Compressibility (1/GPa) = 0.03332366
#
# Stress axis : x y z
#
# Youngs Moduli (GPa) = 36.04742 71.76553 71.01082
#
# Poissons Ratio (x) = 0.59905 0.00232
# Poissons Ratio (y) = 0.30090 0.20146
# Poissons Ratio (z) = 0.00118 0.20360
#
# Static dielectric constant tensor:
#      x y z
#    x 1.694250 0.000000 0.002410 
#    y 0.000000 1.642140 0.000000 
#    z 0.002410 0.000000 1.639070 
# 
# From -- ./inp_files/56555.got.cif
#   From: 2010.05.17/outbox.ucp.g08.bks.cvg/sg15_29_cif.got.tgz:56555.got - 2010.06.11 12:40:34.
