data_PCOD9309451
_publ_section_title
;
Structure prediction by ZEFSAII (Michael W. Deem and Ramdas Pophale) SiO2 
 PCOD9309451
Probable space group: C 2/C
;
_chemical_formula_sum "Si O2"
_cell_formula_units_Z 20
_cell_length_a 12.000000
_cell_length_b 12.000000
_cell_length_c 27.000000
_cell_angle_alpha 90.000000
_cell_angle_beta 30.000000
_cell_angle_gamma 90.000000
_cell_volume 1944.000000
_symmetry_space_group_name_H-M "C 2/C"
_symmetry_group_IT_number 15
_symmetry_cell_setting 'monoclinic'
loop_
_space_group_symop_operation_xyz
x,y,z
-x,y,1/2-z
-x,-y,-z
x,-y,1/2+z
1/2+x,1/2+y,z
1/2-x,1/2+y,1/2-z
1/2-x,1/2-y,-z
1/2+x,1/2-y,1/2+z
loop_
_atom_site_type_symbol
_atom_site_label
_atom_site_fract_x
_atom_site_fract_y
_atom_site_fract_z
Si Si1 0.169225 0.579393 0.087065
Si Si2 0.555474 0.858970 0.299894
Si Si3 0.952023 0.801194 0.210692
Si Si4 0.129424 0.194357 0.915100
Si Si5 0.636704 0.924720 0.485352
O O1 0.038481 0.484236 0.166745
O O2 0.033407 0.693172 0.148845
O O3 0.426716 0.607065 0.001392
O O4 0.161249 0.540239 0.032965
O O5 0.699240 0.831200 0.293351
O O6 0.729456 0.835893 0.188390
O O7 0.323107 0.793213 0.381767
O O8 0.000000 0.780599 0.250000
O O9 0.117166 0.900064 0.130349
O O10 0.998990 0.309217 0.959646
O O11 0.500000 0.000000 0.500000
#
# Coordination Sequence:
#
# PCOD9309451 Si02
#       5
#     8   8   8   8   8
#     4  11  22  43  66  93 134 174 215 267 335 383
#     4  11  22  40  66  96 128 173 221 267 320 385
#     4  11  23  42  63  97 132 170 223 269 325 393
#     4  10  22  43  63  95 132 169 216 272 322 386
#     4  11  22  44  67  92 132 172 213 274 330 386
#
# _framework density 10.288066000000001
#
# number of rings (size 3 to 8) (size 9 to 14) (size 15 to 20)
#    0.000    1.200    4.000    3.000    2.800    1.600 
#    3.600    5.000    0.000    0.000    0.000    0.000 
#    0.000    0.000    0.000    0.000    0.000    0.000 
#
# Total GULP energy -111618.085246 kJ/mol
# GULP energy per Si atom -5580.904262 kJ/mol
# Density = 1.026465 g / cm^3
# Si number density = 10.288066 Si / 1000 Ang^3
#
#
#
# Elastic Constant Matrix: (Units=GPa)
#
#
# Indices 1 2 3 4 5 6 
#
# 1 130.9355 6.9448 46.4392 0.0001 -19.9245 -0.0001
# 2 6.9448 39.8399 24.4580 -0.0003 -1.0497 -0.0001
# 3 46.4392 24.4580 89.0195 0.0022 -26.2271 -0.0004
# 4 0.0001 -0.0003 0.0022 29.9081 -0.0008 -2.5497
# 5 -19.9245 -1.0497 -26.2271 -0.0008 49.2747 0.0001
# 6 -0.0001 -0.0001 -0.0004 -2.5497 0.0001 26.3154
#
#
#
# Elastic Compliance Matrix: (Units=1/GPa)
#
#
# Indices 1 2 3 4 5 6 
#
# 1 0.009521 0.001445 -0.005006 0.000000 0.001216 0.000000
# 2 0.001445 0.031268 -0.010646 0.000001 -0.004416 0.000000
# 3 -0.005006 -0.010646 0.019102 -0.000001 0.007916 0.000000
# 4 0.000000 0.000001 -0.000001 0.033714 0.000000 0.003267
# 5 0.001216 -0.004416 0.007916 0.000000 0.024906 0.000000
# 6 0.000000 0.000000 0.000000 0.003267 0.000000 0.038317
#
#
# Mechanical properties :
#
#
# Convention : Reuss Voigt Hill
#
# Bulk Modulus (GPa) = 31.76741 46.16433 38.96587
# Shear Modulus (GPa) = 25.54499 33.22985 29.38742
#
# Velocity S-wave (km/s) = 3.52730 4.02303 3.78329
# Velocity P-wave (km/s) = 5.66229 6.63809 6.16951
#
# Compressibility (1/GPa) = 0.03147880
#
# Stress axis : x y z
#
# Youngs Moduli (GPa) = 105.02923 31.98189 52.35028
#
# Poissons Ratio (x) = -0.04623 0.26205
# Poissons Ratio (y) = -0.15181 0.55731
# Poissons Ratio (z) = 0.52574 0.34047
#
# Static dielectric constant tensor:
#      x y z
#    x 1.813560 0.000000 0.025990 
#    y 0.000000 1.763620 0.000000 
#    z 0.025990 0.000000 1.696740 
# 
# From -- ./inp_files/122763.got.cif
#   From: 2010.05.17/outbox.ucp.g08.bks.cvg/sg15_62_cif.got.tgz:122763.got - 2010.06.11 12:40:34.
