data_PCOD9309996
_publ_section_title
;
Structure prediction by ZEFSAII (Michael W. Deem and Ramdas Pophale) SiO2 
 PCOD9309996
Probable space group: P 2 2 2
;
_chemical_formula_sum "Si O2"
_cell_formula_units_Z 17
_cell_length_a 5.057268
_cell_length_b 12.416693
_cell_length_c 12.984998
_cell_angle_alpha 90.000000
_cell_angle_beta 90.000000
_cell_angle_gamma 90.000000
_cell_volume 815.387031
_symmetry_space_group_name_H-M "P 2 2 2"
_symmetry_group_IT_number 16
_symmetry_cell_setting 'orthorhombic'
loop_
_space_group_symop_operation_xyz
x,y,z
-x,-y,z
x,-y,-z
-x,y,-z
loop_
_atom_site_type_symbol
_atom_site_label
_atom_site_fract_x
_atom_site_fract_y
_atom_site_fract_z
Si Si1 0.918202 0.887467 0.249179
Si Si2 0.617465 0.389272 0.180240
Si Si3 0.000000 0.500000 0.500000
Si Si4 0.411492 0.844192 0.111894
Si Si5 0.878810 0.653437 0.317499
O O1 0.631239 0.880166 0.195566
O O2 0.942660 0.781211 0.320519
O O3 0.128681 0.879152 0.155374
O O4 0.000000 0.000000 0.301109
O O5 0.500000 0.500000 0.135128
O O6 0.610943 0.285844 0.107845
O O7 0.406837 0.360300 0.268251
O O8 0.899496 0.391991 0.237723
O O9 0.867320 0.583981 0.420971
O O10 0.500000 0.881966 0.000000
#
# Coordination Sequence:
#
# PCOD9309996 Si02
#       5
#     4   4   1   4   4
#     4  10  21  38  54  75 113 147 175 220 270 312
#     4  10  18  36  51  76 115 143 170 218 273 321
#     4  12  20  38  62  86 106 130 180 232 256 330
#     4  10  21  33  54  83 106 143 191 221 255 308
#     4  10  22  33  56  83 105 137 177 218 273 318
#
# _framework density 20.848993
#
# number of rings (size 3 to 8) (size 9 to 14) (size 15 to 20)
#    0.000    1.882    2.353    1.412    0.000    5.176 
#    0.000    0.588    0.000    8.471    0.000    9.882 
#    0.000    0.000    0.000    0.000    0.000    0.000 
#
# Total GULP energy -94752.338280 kJ/mol
# GULP energy per Si atom -5573.666958 kJ/mol
# Density = 2.080154 g / cm^3
# Si number density = 20.848993 Si / 1000 Ang^3
#
#
#
# Elastic Constant Matrix: (Units=GPa)
#
#
# Indices 1 2 3 4 5 6 
#
# 1 60.0791 1.9139 2.0609 0.0000 0.0000 0.0000
# 2 1.9139 182.8334 12.2965 0.0000 0.0000 0.0000
# 3 2.0609 12.2965 60.1571 0.0000 0.0000 0.0000
# 4 0.0000 0.0000 0.0000 -1.0507 0.0000 0.0000
# 5 0.0000 0.0000 0.0000 0.0000 -0.3202 0.0000
# 6 0.0000 0.0000 0.0000 0.0000 0.0000 28.1207
#
#
#
# Elastic Compliance Matrix: (Units=1/GPa)
#
#
# Indices 1 2 3 4 5 6 
#
# 1 0.016668 -0.000138 -0.000543 0.000000 0.000000 0.000000
# 2 -0.000138 0.005547 -0.001129 0.000000 0.000000 0.000000
# 3 -0.000543 -0.001129 0.016873 0.000000 0.000000 0.000000
# 4 0.000000 0.000000 0.000000 -0.951780 0.000000 0.000000
# 5 0.000000 0.000000 0.000000 0.000000 -3.123112 0.000000
# 6 0.000000 0.000000 0.000000 0.000000 0.000000 0.035561
#
#
# Mechanical properties :
#
#
# Convention : Reuss Voigt Hill
#
# Bulk Modulus (GPa) = 28.19493 37.29025 32.74259
# Shear Modulus (GPa) = -1.25477 24.46986 11.60754
#
# Velocity S-wave (km/s) = -0.77662 3.42960 2.36210
# Velocity P-wave (km/s) = 3.57051 5.79721 4.81436
#
# Compressibility (1/GPa) = 0.03546736
#
# Stress axis : x y z
#
# Youngs Moduli (GPa) = 59.99618 180.28281 59.26788
#
# Poissons Ratio (x) = 0.02487 0.03217
# Poissons Ratio (y) = 0.00828 0.06692
# Poissons Ratio (z) = 0.03257 0.20355
#
# Static dielectric constant tensor:
#      x y z
#    x 1.712940 0.000000 0.000000 
#    y 0.000000 1.906870 0.000000 
#    z 0.000000 0.000000 1.720230 
# 
# From -- ./inp_files/1236.got.cif
#   From: 2010.05.17/outbox.cif.g08.bks.cpg/sg16_1_cif.got.tgz:1236.got - 2010.06.03 22:28:35.
