data_PCOD9309542
_publ_section_title
;
Structure prediction by ZEFSAII (Michael W. Deem and Ramdas Pophale) SiO2 
 PCOD9309542
Probable space group: C 2/C
;
_chemical_formula_sum "Si O2"
_cell_formula_units_Z 20
_cell_length_a 21.000000
_cell_length_b 15.000000
_cell_length_c 18.000000
_cell_angle_alpha 90.000000
_cell_angle_beta 160.000000
_cell_angle_gamma 90.000000
_cell_volume 1939.254213
_symmetry_space_group_name_H-M "C 2/C"
_symmetry_group_IT_number 15
_symmetry_cell_setting 'monoclinic'
loop_
_space_group_symop_operation_xyz
x,y,z
-x,y,1/2-z
-x,-y,-z
x,-y,1/2+z
1/2+x,1/2+y,z
1/2-x,1/2+y,1/2-z
1/2-x,1/2-y,-z
1/2+x,1/2-y,1/2+z
loop_
_atom_site_type_symbol
_atom_site_label
_atom_site_fract_x
_atom_site_fract_y
_atom_site_fract_z
Si Si1 0.618952 0.653295 0.956452
Si Si2 0.735550 0.145711 0.594276
Si Si3 0.000000 0.504919 0.250000
Si Si4 0.000000 0.197104 0.250000
Si Si5 0.488307 0.897914 0.961167
Si Si6 0.620367 0.146892 0.770138
O O1 0.500000 0.624027 0.750000
O O2 0.456471 0.645707 0.838714
O O3 0.671411 0.756061 0.998810
O O4 0.803101 0.616226 0.203954
O O5 0.650102 0.126727 0.580903
O O6 0.659211 0.072067 0.452819
O O7 0.961245 0.439187 0.276463
O O8 0.930288 0.263830 0.238886
O O9 0.158488 0.140888 0.467095
O O10 0.537116 0.848890 0.094658
O O11 0.500000 0.000000 0.000000
#
# Coordination Sequence:
#
# PCOD9309542 Si02
#       6
#     8   8   4   4   8   8
#     4  12  26  44  74 103 139 190 231 281 359 425
#     4  12  24  44  71 103 138 183 229 287 350 425
#     4  11  22  44  66  95 140 172 230 293 338 418
#     4   9  22  44  70  93 130 190 238 273 348 422
#     4  12  27  46  67 106 144 178 234 299 344 411
#     4  10  23  43  67  97 133 182 232 290 343 409
#
# _framework density 10.313243
#
# number of rings (size 3 to 8) (size 9 to 14) (size 15 to 20)
#    0.000    0.800    5.000    1.800    2.800    2.400 
#    7.200    0.000    0.000    0.000    0.000    0.000 
#    0.000    0.000    0.000    0.000    0.000    0.000 
#
# Total GULP energy -111335.849299 kJ/mol
# GULP energy per Si atom -5566.792465 kJ/mol
# Density = 1.028977 g / cm^3
# Si number density = 10.313243 Si / 1000 Ang^3
#
#
#
# Elastic Constant Matrix: (Units=GPa)
#
#
# Indices 1 2 3 4 5 6 
#
# 1 137.7581 11.4910 68.9632 -0.0077 -19.2432 -0.0041
# 2 11.4910 73.7924 41.7424 -0.0124 -3.5376 -0.0079
# 3 68.9632 41.7424 160.6071 -0.0111 -10.4097 -0.0078
# 4 -0.0077 -0.0124 -0.0111 26.6320 -0.0067 -9.6515
# 5 -19.2432 -3.5376 -10.4097 -0.0067 54.2328 -0.0042
# 6 -0.0041 -0.0079 -0.0078 -9.6515 -0.0042 19.4956
#
#
#
# Elastic Compliance Matrix: (Units=1/GPa)
#
#
# Indices 1 2 3 4 5 6 
#
# 1 0.009674 0.001024 -0.004246 0.000003 0.002684 0.000003
# 2 0.001024 0.015999 -0.004564 0.000010 0.000531 0.000010
# 3 -0.004246 -0.004564 0.009234 0.000001 -0.000032 0.000001
# 4 0.000003 0.000010 0.000001 0.045758 0.000009 0.022653
# 5 0.002684 0.000531 -0.000032 0.000009 0.019420 0.000010
# 6 0.000003 0.000010 0.000001 0.022653 0.000010 0.062508
#
#
# Mechanical properties :
#
#
# Convention : Reuss Voigt Hill
#
# Bulk Modulus (GPa) = 51.71756 68.50565 60.11161
# Shear Modulus (GPa) = 27.08407 36.73614 31.91010
#
# Velocity S-wave (km/s) = 3.62757 4.22479 3.93752
# Velocity P-wave (km/s) = 6.53249 7.55533 7.06245
#
# Compressibility (1/GPa) = 0.01933579
#
# Stress axis : x y z
#
# Youngs Moduli (GPa) = 103.36560 62.50391 108.29884
#
# Poissons Ratio (x) = -0.06402 0.45987
# Poissons Ratio (y) = -0.10587 0.49423
# Poissons Ratio (z) = 0.43892 0.28524
#
# Static dielectric constant tensor:
#      x y z
#    x 1.790880 0.000000 0.062570 
#    y 0.000000 1.757950 0.000000 
#    z 0.062570 0.000000 1.786140 
# 
# From -- ./inp_files/38015.got.cif
#   From: 2010.05.17/outbox.ucp.g08.bks.cvg/sg15_20_cif.got.tgz:38015.got - 2010.06.11 12:40:34.
