data_PCOD9309599
_publ_section_title
;
Structure prediction by ZEFSAII (Michael W. Deem and Ramdas Pophale) SiO2 
 PCOD9309599
Probable space group: C 2/C
;
_chemical_formula_sum "Si O2"
_cell_formula_units_Z 24
_cell_length_a 15.000000
_cell_length_b 30.000000
_cell_length_c 15.000000
_cell_angle_alpha 90.000000
_cell_angle_beta 160.000000
_cell_angle_gamma 90.000000
_cell_volume 2308.635967
_symmetry_space_group_name_H-M "C 2/C"
_symmetry_group_IT_number 15
_symmetry_cell_setting 'monoclinic'
loop_
_space_group_symop_operation_xyz
x,y,z
-x,y,1/2-z
-x,-y,-z
x,-y,1/2+z
1/2+x,1/2+y,z
1/2-x,1/2+y,1/2-z
1/2-x,1/2-y,-z
1/2+x,1/2-y,1/2+z
loop_
_atom_site_type_symbol
_atom_site_label
_atom_site_fract_x
_atom_site_fract_y
_atom_site_fract_z
Si Si1 0.632859 0.627537 0.774042
Si Si2 0.090300 0.083550 0.104200
Si Si3 0.002787 0.458561 0.644180
Si Si4 0.987958 0.436157 0.349492
Si Si5 0.156607 0.282403 0.104182
Si Si6 0.050192 0.718663 0.702412
O O1 0.500000 0.627363 0.750000
O O2 0.460101 0.622412 0.519269
O O3 0.783724 0.674701 0.902132
O O4 0.810025 0.582325 0.935919
O O5 0.237444 0.049062 0.173238
O O6 0.298224 0.088356 0.383333
O O7 0.806871 0.072252 0.885556
O O8 0.939031 0.511006 0.570985
O O9 0.000000 0.453699 0.750000
O O10 0.000000 0.427310 0.250000
O O11 0.906821 0.251412 0.843530
O O12 0.102807 0.301829 0.154308
O O13 0.000000 0.693247 0.750000
O O14 0.799797 0.750046 0.453425
#
# Coordination Sequence:
#
# PCOD9309599 Si02
#       6
#     8   8   8   8   8   8
#     4  12  27  43  70 101 142 184 241 297 351 418
#     4  12  24  44  69 101 138 186 231 283 348 417
#     4  11  24  42  70 104 140 184 239 287 342 416
#     4  11  26  43  71 102 143 184 232 283 347 421
#     4  10  24  43  66  96 133 179 231 287 356 417
#     4   8  14  30  58  87 112 145 199 261 319 391
#
# _framework density 10.395749
#
# number of rings (size 3 to 8) (size 9 to 14) (size 15 to 20)
#    0.000    1.333    3.333    1.500    4.667    0.667 
#    0.000    0.833    0.000    2.000    0.000    0.000 
#    0.000    0.000    0.000    0.000    0.000    0.000 
#
# Total GULP energy -133646.113152 kJ/mol
# GULP energy per Si atom -5568.588048 kJ/mol
# Density = 1.037209 g / cm^3
# Si number density = 10.395749 Si / 1000 Ang^3
#
#
#
# Elastic Constant Matrix: (Units=GPa)
#
#
# Indices 1 2 3 4 5 6 
#
# 1 201.3271 28.8339 42.6703 0.0016 10.1503 0.0003
# 2 28.8339 66.0853 21.7899 0.0006 2.8703 -0.0004
# 3 42.6703 21.7899 141.2730 0.0053 7.0931 0.0006
# 4 0.0016 0.0006 0.0053 28.7335 -0.0001 2.0807
# 5 10.1503 2.8703 7.0931 -0.0001 42.3517 0.0007
# 6 0.0003 -0.0004 0.0006 2.0807 0.0007 39.5766
#
#
#
# Elastic Compliance Matrix: (Units=1/GPa)
#
#
# Indices 1 2 3 4 5 6 
#
# 1 0.005579 -0.001951 -0.001335 0.000000 -0.000981 0.000000
# 2 -0.001951 0.016644 -0.001961 0.000000 -0.000332 0.000000
# 3 -0.001335 -0.001961 0.007827 -0.000001 -0.000858 0.000000
# 4 0.000000 0.000000 -0.000001 0.034936 0.000000 -0.001837
# 5 -0.000981 -0.000332 -0.000858 0.000000 0.024013 0.000000
# 6 0.000000 0.000000 0.000000 -0.001837 0.000000 0.025364
#
#
# Mechanical properties :
#
#
# Convention : Reuss Voigt Hill
#
# Bulk Modulus (GPa) = 51.13568 66.14152 58.63860
# Shear Modulus (GPa) = 38.05846 43.15843 40.60845
#
# Velocity S-wave (km/s) = 4.28305 4.56101 4.42421
# Velocity P-wave (km/s) = 7.00766 7.72126 7.37310
#
# Compressibility (1/GPa) = 0.01955582
#
# Stress axis : x y z
#
# Youngs Moduli (GPa) = 179.24684 60.08008 127.75912
#
# Poissons Ratio (x) = 0.11724 0.17053
# Poissons Ratio (y) = 0.34978 0.25056
# Poissons Ratio (z) = 0.23926 0.11783
#
# Static dielectric constant tensor:
#      x y z
#    x 1.796910 0.000000 -0.024170 
#    y 0.000000 1.742810 0.000000 
#    z -0.024170 0.000000 1.818690 
# 
# From -- ./inp_files/157716.got.cif
#   From: 2010.05.17/outbox.ucp.g08.bks.cvg/sg15_79_cif.got.tgz:157716.got - 2010.06.11 12:40:34.
