data_PCOD9309042
_publ_section_title
;
Structure prediction by ZEFSAII (Michael W. Deem and Ramdas Pophale) SiO2 
 PCOD9309042
Probable space group: C 2/C
;
_chemical_formula_sum "Si O2"
_cell_formula_units_Z 24
_cell_length_a 9.000000
_cell_length_b 15.000000
_cell_length_c 27.000000
_cell_angle_alpha 90.000000
_cell_angle_beta 40.000000
_cell_angle_gamma 90.000000
_cell_volume 2342.960837
_symmetry_space_group_name_H-M "C 2/C"
_symmetry_group_IT_number 15
_symmetry_cell_setting 'monoclinic'
loop_
_space_group_symop_operation_xyz
x,y,z
-x,y,1/2-z
-x,-y,-z
x,-y,1/2+z
1/2+x,1/2+y,z
1/2-x,1/2+y,1/2-z
1/2-x,1/2-y,-z
1/2+x,1/2-y,1/2+z
loop_
_atom_site_type_symbol
_atom_site_label
_atom_site_fract_x
_atom_site_fract_y
_atom_site_fract_z
Si Si1 0.183490 0.245410 0.459077
Si Si2 0.829812 0.049622 0.202333
Si Si3 0.822473 0.435944 0.871704
Si Si4 0.593061 0.375905 0.175036
Si Si5 0.434994 0.020186 0.938990
Si Si6 0.296384 0.124732 0.069216
O O1 0.250000 0.250000 0.500000
O O2 0.210644 0.151626 0.424546
O O3 0.350234 0.310669 0.384698
O O4 0.922180 0.283835 0.523698
O O5 0.775150 0.040924 0.157602
O O6 0.597510 0.076071 0.290575
O O7 0.036206 0.121601 0.155258
O O8 0.928934 0.956658 0.198707
O O9 0.806617 0.507935 0.919996
O O10 0.500000 0.334073 0.250000
O O11 0.838694 0.419933 0.125670
O O12 0.535551 0.926637 0.934822
O O13 0.296339 0.063836 0.019646
#
# Coordination Sequence:
#
# PCOD9309042 Si02
#       6
#     8   8   8   8   8   8
#     4  11  23  39  63  93 125 160 203 258 309 365
#     4  10  23  38  61  89 121 161 210 253 305 364
#     4  11  22  38  61  90 129 153 199 265 312 345
#     4  10  20  39  67  85 117 165 209 244 299 376
#     4   9  17  35  62  88 111 160 207 243 286 373
#     4   9  19  37  60  86 118 162 211 234 301 378
#
# _framework density 10.243449
#
# number of rings (size 3 to 8) (size 9 to 14) (size 15 to 20)
#    0.000    2.000    3.333    1.000    2.333    1.333 
#    0.000    0.000    7.333    0.000    0.000    0.000 
#    0.000    0.000    0.000    0.000    0.000    0.000 
#
# Total GULP energy -133986.995415 kJ/mol
# GULP energy per Si atom -5582.791476 kJ/mol
# Density = 1.022013 g / cm^3
# Si number density = 10.243449 Si / 1000 Ang^3
#
#
#
# Elastic Constant Matrix: (Units=GPa)
#
#
# Indices 1 2 3 4 5 6 
#
# 1 72.0866 20.4245 35.0615 -0.0006 18.4143 0.0008
# 2 20.4245 40.4852 14.8641 0.0006 5.8210 -0.0005
# 3 35.0615 14.8641 92.8142 0.0012 8.8741 0.0001
# 4 -0.0006 0.0006 0.0012 29.3086 -0.0004 7.7613
# 5 18.4143 5.8210 8.8741 -0.0004 51.0098 -0.0006
# 6 0.0008 -0.0005 0.0001 7.7613 -0.0006 19.2528
#
#
#
# Elastic Compliance Matrix: (Units=1/GPa)
#
#
# Indices 1 2 3 4 5 6 
#
# 1 0.020204 -0.007225 -0.005956 0.000001 -0.005433 -0.000002
# 2 -0.007225 0.029096 -0.001894 -0.000001 -0.000383 0.000002
# 3 -0.005956 -0.001894 0.013323 -0.000001 0.000048 0.000000
# 4 0.000001 -0.000001 -0.000001 0.038197 0.000000 -0.015398
# 5 -0.005433 -0.000383 0.000048 0.000000 0.021601 0.000001
# 6 -0.000002 0.000002 0.000000 -0.015398 0.000001 0.058148
#
#
# Mechanical properties :
#
#
# Convention : Reuss Voigt Hill
#
# Bulk Modulus (GPa) = 30.79443 38.45402 34.62422
# Shear Modulus (GPa) = 22.56917 28.91664 25.74290
#
# Velocity S-wave (km/s) = 3.32270 3.76103 3.54864
# Velocity P-wave (km/s) = 5.45750 6.13769 5.80756
#
# Compressibility (1/GPa) = 0.03247341
#
# Stress axis : x y z
#
# Youngs Moduli (GPa) = 49.49566 34.36946 75.05985
#
# Poissons Ratio (x) = 0.24832 0.44703
# Poissons Ratio (y) = 0.35760 0.14215
# Poissons Ratio (z) = 0.29478 0.06509
#
# Static dielectric constant tensor:
#      x y z
#    x 1.739640 0.000000 -0.014450 
#    y 0.000000 1.751050 0.000000 
#    z -0.014450 0.000000 1.739810 
# 
# From -- ./inp_files/288997.got.cif
#   From: 2010.05.17/outbox.ucp.g08.bks.cvg/sg15_145_cif.got.tgz:288997.got - 2010.06.11 12:40:34.
