data_PCOD9309119
_publ_section_title
;
Structure prediction by ZEFSAII (Michael W. Deem and Ramdas Pophale) SiO2 
 PCOD9309119
Probable space group: C 2/C
;
_chemical_formula_sum "Si O2"
_cell_formula_units_Z 30
_cell_length_a 15.000000
_cell_length_b 15.000000
_cell_length_c 15.000000
_cell_angle_alpha 90.000000
_cell_angle_beta 100.000000
_cell_angle_gamma 90.000000
_cell_volume 3323.726166
_symmetry_space_group_name_H-M "C 2/C"
_symmetry_group_IT_number 15
_symmetry_cell_setting 'monoclinic'
loop_
_space_group_symop_operation_xyz
x,y,z
-x,y,1/2-z
-x,-y,-z
x,-y,1/2+z
1/2+x,1/2+y,z
1/2-x,1/2+y,1/2-z
1/2-x,1/2-y,-z
1/2+x,1/2-y,1/2+z
loop_
_atom_site_type_symbol
_atom_site_label
_atom_site_fract_x
_atom_site_fract_y
_atom_site_fract_z
Si Si1 0.113437 0.755297 0.880774
Si Si2 0.249826 0.408629 0.561608
Si Si3 0.075084 0.606190 0.340166
Si Si4 0.192542 0.566456 0.857499
Si Si5 0.332197 0.527462 0.726323
Si Si6 0.000000 0.898237 0.750000
Si Si7 0.574163 0.818416 0.565479
Si Si8 0.893257 0.773287 0.250071
O O1 0.203669 0.813669 0.910440
O O2 0.141882 0.662567 0.836075
O O3 0.045781 0.827568 0.825789
O O4 0.073614 0.725093 0.968703
O O5 0.252938 0.422998 0.456716
O O6 0.296591 0.483303 0.629238
O O7 0.145427 0.399035 0.571605
O O8 0.123262 0.513500 0.365421
O O9 0.137739 0.685972 0.310950
O O10 0.000000 0.590553 0.250000
O O11 0.020972 0.645503 0.414891
O O12 0.253899 0.532159 0.786968
O O13 0.419169 0.465439 0.767704
O O14 0.355448 0.631354 0.718016
O O15 0.612740 0.750271 0.646636
O O16 0.000000 0.778835 0.250000
#
# Coordination Sequence:
#
# PCOD9309119 Si02
#       8
#     8   8   8   8   8   4   8   8
#     4  10  21  38  57  85 114 149 200 231 290 343
#     4  10  21  36  56  87 113 151 194 230 283 358
#     4   9  20  35  56  86 113 145 196 234 279 346
#     4  11  22  37  61  83 116 154 192 234 296 339
#     4  11  20  39  59  83 118 153 186 243 289 338
#     4  10  24  40  56  90 118 146 198 244 284 342
#     4   9  17  36  59  77 114 149 190 236 280 336
#     4   9  17  33  57  81 105 149 188 225 283 338
#
# _framework density 9.026014
#
# number of rings (size 3 to 8) (size 9 to 14) (size 15 to 20)
#    0.000    2.400    0.667    4.800    0.933    3.200 
#    7.200    2.667    0.000    0.000    0.000    0.000 
#    0.000    0.000    0.000    0.000    0.000    0.000 
#
# Total GULP energy -167056.500442 kJ/mol
# GULP energy per Si atom -5568.550015 kJ/mol
# Density = 0.900547 g / cm^3
# Si number density = 9.026014 Si / 1000 Ang^3
#
#
#
# Elastic Constant Matrix: (Units=GPa)
#
#
# Indices 1 2 3 4 5 6 
#
# 1 35.5171 20.0526 8.7885 0.0000 -4.6363 0.0000
# 2 20.0526 133.8673 7.3710 0.0000 11.0065 0.0000
# 3 8.7885 7.3710 22.0980 0.0000 -0.7409 0.0000
# 4 0.0000 0.0000 0.0000 25.2087 0.0000 4.6947
# 5 -4.6363 11.0065 -0.7409 0.0000 21.5431 0.0000
# 6 0.0000 0.0000 0.0000 4.6947 0.0000 24.1462
#
#
#
# Elastic Compliance Matrix: (Units=1/GPa)
#
#
# Indices 1 2 3 4 5 6 
#
# 1 0.035524 -0.005488 -0.011961 0.000000 0.010038 0.000000
# 2 -0.005488 0.008814 -0.000949 0.000000 -0.005717 0.000000
# 3 -0.011961 -0.000949 0.050315 0.000000 -0.000359 0.000000
# 4 0.000000 0.000000 0.000000 0.041159 0.000000 -0.008002
# 5 0.010038 -0.005717 -0.000359 0.000000 0.051487 0.000000
# 6 0.000000 0.000000 0.000000 -0.008002 0.000000 0.042970
#
#
# Mechanical properties :
#
#
# Convention : Reuss Voigt Hill
#
# Bulk Modulus (GPa) = 17.28411 29.32295 23.30353
# Shear Modulus (GPa) = 17.46105 24.53095 20.99600
#
# Velocity S-wave (km/s) = 3.11346 3.69033 3.41410
# Velocity P-wave (km/s) = 4.74555 5.86829 5.33653
#
# Compressibility (1/GPa) = 0.05785660
#
# Stress axis : x y z
#
# Youngs Moduli (GPa) = 28.15009 113.44975 19.87494
#
# Poissons Ratio (x) = 0.62261 0.23772
# Poissons Ratio (y) = 0.15449 0.01887
# Poissons Ratio (z) = 0.33670 0.10769
#
# Static dielectric constant tensor:
#      x y z
#    x 1.660410 0.000000 0.001900 
#    y 0.000000 1.631440 0.000000 
#    z 0.001900 0.000000 1.639030 
# 
# From -- ./inp_files/154000.got.cif
#   From: 2010.05.17/outbox.ucp.g08.bks.cvg/sg15_77_cif.got.tgz:154000.got - 2010.06.11 12:40:34.
