data_PCOD9309508
_publ_section_title
;
Structure prediction by ZEFSAII (Michael W. Deem and Ramdas Pophale) SiO2 
 PCOD9309508
Probable space group: C 2/C
;
_chemical_formula_sum "Si O2"
_cell_formula_units_Z 28
_cell_length_a 30.000000
_cell_length_b 9.000000
_cell_length_c 12.000000
_cell_angle_alpha 90.000000
_cell_angle_beta 120.000000
_cell_angle_gamma 90.000000
_cell_volume 2805.922308
_symmetry_space_group_name_H-M "C 2/C"
_symmetry_group_IT_number 15
_symmetry_cell_setting 'monoclinic'
loop_
_space_group_symop_operation_xyz
x,y,z
-x,y,1/2-z
-x,-y,-z
x,-y,1/2+z
1/2+x,1/2+y,z
1/2-x,1/2+y,1/2-z
1/2-x,1/2-y,-z
1/2+x,1/2-y,1/2+z
loop_
_atom_site_type_symbol
_atom_site_label
_atom_site_fract_x
_atom_site_fract_y
_atom_site_fract_z
Si Si1 0.695070 0.254501 0.491943
Si Si2 0.875470 0.864913 0.292253
Si Si3 0.059674 0.577626 0.817712
Si Si4 0.200262 0.071260 0.597229
Si Si5 0.818038 0.603835 0.806622
Si Si6 0.366434 0.679654 0.187374
Si Si7 0.587340 0.076196 0.110080
O O1 0.750000 0.250000 0.500000
O O2 0.652007 0.284430 0.346547
O O3 0.696332 0.395361 0.575014
O O4 0.683177 0.120591 0.560834
O O5 0.834764 0.885518 0.341619
O O6 0.919130 0.753673 0.390462
O O7 0.890126 0.026370 0.263321
O O8 0.095339 0.719124 0.836816
O O9 0.067182 0.486983 0.706273
O O10 0.000000 0.615380 0.750000
O O11 0.070750 0.522571 0.962338
O O12 0.259408 0.105862 0.694391
O O13 0.179739 0.140548 0.455884
O O14 0.847021 0.730040 0.770918
O O15 0.851418 0.460099 0.817034
#
# Coordination Sequence:
#
# PCOD9309508 Si02
#       7
#     8   8   8   8   8   8   8
#     4  11  21  34  52  83 121 168 213 250 297 366
#     4  11  21  39  59  88 127 164 205 255 313 373
#     4  11  24  47  71  95 125 166 215 276 333 379
#     4  11  21  35  59  83 127 169 208 251 303 372
#     4  11  22  36  58  91 126 171 210 251 310 377
#     4  10  23  40  61  89 123 166 212 261 312 386
#     4  11  24  42  68  98 129 164 214 270 319 394
#
# _framework density 9.9788940000000004
#
# number of rings (size 3 to 8) (size 9 to 14) (size 15 to 20)
#    0.000    1.143    4.286    2.571    0.000    1.143 
#    0.000    1.429    0.000    0.000    0.000    0.000 
#    0.000    0.000    0.000    0.000    0.000    0.000 
#
# Total GULP energy -155996.839819 kJ/mol
# GULP energy per Si atom -5571.315708 kJ/mol
# Density = 0.995618 g / cm^3
# Si number density = 9.978894 Si / 1000 Ang^3
#
#
#
# Elastic Constant Matrix: (Units=GPa)
#
#
# Indices 1 2 3 4 5 6 
#
# 1 68.3760 8.1634 18.6877 0.0000 -15.8011 0.0000
# 2 8.1634 57.7768 20.0546 0.0000 -6.2101 0.0000
# 3 18.6877 20.0546 74.6486 0.0000 -30.2336 0.0000
# 4 0.0000 0.0000 0.0000 26.9916 0.0000 -15.6022
# 5 -15.8011 -6.2101 -30.2336 0.0000 37.7837 0.0000
# 6 0.0000 0.0000 0.0000 -15.6022 0.0000 15.0947
#
#
#
# Elastic Compliance Matrix: (Units=1/GPa)
#
#
# Indices 1 2 3 4 5 6 
#
# 1 0.016455 -0.001184 -0.001617 0.000000 0.005393 0.000000
# 2 -0.001184 0.019225 -0.005606 0.000000 -0.001821 0.000000
# 3 -0.001617 -0.005606 0.021689 0.000000 0.015757 0.000000
# 4 0.000000 0.000000 0.000000 0.092040 0.000000 0.095135
# 5 0.005393 -0.001821 0.015757 0.000000 0.041031 0.000000
# 6 0.000000 0.000000 0.000000 0.095135 0.000000 0.164582
#
#
# Mechanical properties :
#
#
# Convention : Reuss Voigt Hill
#
# Bulk Modulus (GPa) = 24.65822 32.73477 28.69650
# Shear Modulus (GPa) = 12.97505 26.23372 19.60439
#
# Velocity S-wave (km/s) = 2.55252 3.62948 3.13755
# Velocity P-wave (km/s) = 4.59012 5.83111 5.24743
#
# Compressibility (1/GPa) = 0.04055442
#
# Stress axis : x y z
#
# Youngs Moduli (GPa) = 60.77355 52.01437 46.10654
#
# Poissons Ratio (x) = 0.06158 0.07456
# Poissons Ratio (y) = 0.07195 0.25848
# Poissons Ratio (z) = 0.09828 0.29160
#
# Static dielectric constant tensor:
#      x y z
#    x 1.679850 0.000000 -0.007440 
#    y 0.000000 1.774160 0.000000 
#    z -0.007440 0.000000 1.742340 
# 
# From -- ./inp_files/121859.got.cif
#   From: 2010.05.17/outbox.ucp.g08.bks.cvg/sg15_61_cif.got.tgz:121859.got - 2010.06.11 12:40:34.
