data_PCOD9309435
_publ_section_title
;
Structure prediction by ZEFSAII (Michael W. Deem and Ramdas Pophale) SiO2 
 PCOD9309435
Probable space group: C 2/C
;
_chemical_formula_sum "Si O2"
_cell_formula_units_Z 22
_cell_length_a 15.000000
_cell_length_b 15.000000
_cell_length_c 30.000000
_cell_angle_alpha 90.000000
_cell_angle_beta 20.000000
_cell_angle_gamma 90.000000
_cell_volume 2308.635967
_symmetry_space_group_name_H-M "C 2/C"
_symmetry_group_IT_number 15
_symmetry_cell_setting 'monoclinic'
loop_
_space_group_symop_operation_xyz
x,y,z
-x,y,1/2-z
-x,-y,-z
x,-y,1/2+z
1/2+x,1/2+y,z
1/2-x,1/2+y,1/2-z
1/2-x,1/2-y,-z
1/2+x,1/2-y,1/2+z
loop_
_atom_site_type_symbol
_atom_site_label
_atom_site_fract_x
_atom_site_fract_y
_atom_site_fract_z
Si Si1 0.324041 0.411114 0.161812
Si Si2 0.847875 0.800174 0.242498
Si Si3 0.034313 0.411003 0.640683
Si Si4 0.332697 0.067388 0.523679
Si Si5 0.500000 0.781060 0.250000
Si Si6 0.864831 0.635585 0.032047
O O1 0.296463 0.345424 0.218007
O O2 0.153835 0.505876 0.251154
O O3 0.196978 0.349691 0.182681
O O4 0.643513 0.423481 0.002411
O O5 0.596198 0.821189 0.392450
O O6 0.935489 0.692780 0.199675
O O7 0.086911 0.865341 0.144862
O O8 0.031496 0.417090 0.588111
O O9 0.520485 0.099037 0.475071
O O10 0.267824 0.960296 0.556633
O O11 0.655734 0.713076 0.143175
#
# Coordination Sequence:
#
# PCOD9309435 Si02
#       6
#     8   8   8   8   4   8
#     4  11  26  46  68  98 134 182 227 282 331 404
#     4  11  23  44  70  99 132 180 222 276 343 402
#     4  11  24  46  72  98 140 179 224 275 340 404
#     4  10  22  42  67 105 133 169 222 278 346 390
#     4  12  28  44  62  98 138 180 230 284 340 388
#     4  11  24  39  70 102 134 173 221 288 332 408
#
# _framework density 9.5294369999999997
#
# number of rings (size 3 to 8) (size 9 to 14) (size 15 to 20)
#    0.000    1.091    1.818    4.909    7.636    4.364 
#    3.273    0.000    0.000    0.000    0.000    0.000 
#    0.000    0.000    0.000    0.000    0.000    0.000 
#
# Total GULP energy -122515.195053 kJ/mol
# GULP energy per Si atom -5568.872502 kJ/mol
# Density = 0.950775 g / cm^3
# Si number density = 9.529437 Si / 1000 Ang^3
#
#
#
# Elastic Constant Matrix: (Units=GPa)
#
#
# Indices 1 2 3 4 5 6 
#
# 1 61.5780 26.4297 9.7993 -0.0335 -9.1130 -0.0664
# 2 26.4297 215.0491 78.4238 -0.0914 0.8309 -0.0082
# 3 9.7993 78.4238 137.5278 -0.1135 9.4836 -0.0518
# 4 -0.0335 -0.0914 -0.1135 56.3502 0.0110 2.9087
# 5 -9.1130 0.8309 9.4836 0.0110 29.2334 0.0504
# 6 -0.0664 -0.0082 -0.0518 2.9087 0.0504 40.6215
#
#
#
# Elastic Compliance Matrix: (Units=1/GPa)
#
#
# Indices 1 2 3 4 5 6 
#
# 1 0.018071 -0.002054 -0.000521 0.000004 0.005861 0.000021
# 2 -0.002054 0.006130 -0.003368 0.000002 0.000278 -0.000007
# 3 -0.000521 -0.003368 0.009445 0.000013 -0.003131 0.000013
# 4 0.000004 0.000002 0.000013 0.017812 -0.000008 -0.001275
# 5 0.005861 0.000278 -0.003131 -0.000008 0.037042 -0.000040
# 6 0.000021 -0.000007 0.000013 -0.001275 -0.000040 0.024709
#
#
# Mechanical properties :
#
#
# Convention : Reuss Voigt Hill
#
# Bulk Modulus (GPa) = 45.95450 71.49561 58.72506
# Shear Modulus (GPa) = 37.77916 45.20782 41.49349
#
# Velocity S-wave (km/s) = 4.45706 4.87561 4.67103
# Velocity P-wave (km/s) = 7.11698 8.32406 7.74407
#
# Compressibility (1/GPa) = 0.02176065
#
# Stress axis : x y z
#
# Youngs Moduli (GPa) = 55.33656 163.13801 105.87622
#
# Poissons Ratio (x) = 0.33504 0.05512
# Poissons Ratio (y) = 0.11365 0.35662
# Poissons Ratio (z) = 0.02881 0.54950
#
# Static dielectric constant tensor:
#      x y z
#    x 1.735490 0.000000 -0.033600 
#    y 0.000000 1.684320 0.000020 
#    z -0.033600 0.000020 1.699760 
# 
# From -- ./inp_files/257553.got.cif
#   From: 2010.05.17/outbox.ucp.g08.bks.cvg/sg15_129_cif.got.tgz:257553.got - 2010.06.11 12:40:34.
