data_PCOD9309383
_publ_section_title
;
Structure prediction by ZEFSAII (Michael W. Deem and Ramdas Pophale) SiO2 
 PCOD9309383
Probable space group: C 2/C
;
_chemical_formula_sum "Si O2"
_cell_formula_units_Z 24
_cell_length_a 21.000000
_cell_length_b 12.000000
_cell_length_c 12.000000
_cell_angle_alpha 90.000000
_cell_angle_beta 60.000000
_cell_angle_gamma 90.000000
_cell_volume 2618.860821
_symmetry_space_group_name_H-M "C 2/C"
_symmetry_group_IT_number 15
_symmetry_cell_setting 'monoclinic'
loop_
_space_group_symop_operation_xyz
x,y,z
-x,y,1/2-z
-x,-y,-z
x,-y,1/2+z
1/2+x,1/2+y,z
1/2-x,1/2+y,1/2-z
1/2-x,1/2-y,-z
1/2+x,1/2-y,1/2+z
loop_
_atom_site_type_symbol
_atom_site_label
_atom_site_fract_x
_atom_site_fract_y
_atom_site_fract_z
Si Si1 0.571182 0.261715 0.921648
Si Si2 0.415883 0.810584 0.658084
Si Si3 0.152360 0.118213 0.146766
Si Si4 0.925674 0.558110 0.747342
Si Si5 0.088090 0.871394 0.149467
Si Si6 0.825177 0.338782 0.517965
O O1 0.599333 0.343795 0.796995
O O2 0.588786 0.140414 0.846684
O O3 0.485877 0.242293 0.031035
O O4 0.600356 0.313647 0.015522
O O5 0.391031 0.720162 0.773198
O O6 0.358090 0.840436 0.612604
O O7 0.434179 0.929540 0.701098
O O8 0.152239 0.215940 0.051849
O O9 0.127884 0.993011 0.129354
O O10 0.238863 0.130184 0.103206
O O11 0.861994 0.577898 0.895084
O O12 0.000000 0.591532 0.750000
O O13 0.000000 0.888905 0.250000
#
# Coordination Sequence:
#
# PCOD9309383 Si02
#       6
#     8   8   8   8   8   8
#     4  10  22  40  66  94 127 167 217 266 323 382
#     4  11  23  39  66 100 126 167 220 275 319 381
#     4  10  24  44  63  91 130 176 208 267 326 396
#     4  11  21  39  69  93 128 169 215 278 317 381
#     4  10  24  39  66 100 128 163 219 272 320 379
#     4  10  24  43  63  92 129 172 220 254 332 393
#
# _framework density 9.1642899999999994
#
# number of rings (size 3 to 8) (size 9 to 14) (size 15 to 20)
#    0.000    1.667    1.667    2.000    7.000    2.667 
#    6.000    1.667    0.000    0.000    0.000    0.000 
#    0.000    0.000    0.000    0.000    0.000    0.000 
#
# Total GULP energy -133645.184362 kJ/mol
# GULP energy per Si atom -5568.549348 kJ/mol
# Density = 0.914343 g / cm^3
# Si number density = 9.164290 Si / 1000 Ang^3
#
#
#
# Elastic Constant Matrix: (Units=GPa)
#
#
# Indices 1 2 3 4 5 6 
#
# 1 87.8563 40.5437 41.4341 0.0000 12.6688 0.0000
# 2 40.5437 125.1175 54.4603 0.0000 5.9266 0.0000
# 3 41.4341 54.4603 99.6620 0.0000 16.2752 0.0000
# 4 0.0000 0.0000 0.0000 25.9962 0.0000 4.0926
# 5 12.6688 5.9266 16.2752 0.0000 30.4918 0.0000
# 6 0.0000 0.0000 0.0000 4.0926 0.0000 32.2558
#
#
#
# Elastic Compliance Matrix: (Units=1/GPa)
#
#
# Indices 1 2 3 4 5 6 
#
# 1 0.015206 -0.002965 -0.004123 0.000000 -0.003541 0.000000
# 2 -0.002965 0.011100 -0.005129 0.000000 0.001812 0.000000
# 3 -0.004123 -0.005129 0.015455 0.000000 -0.005539 0.000000
# 4 0.000000 0.000000 0.000000 0.039251 0.000000 -0.004980
# 5 -0.003541 0.001812 -0.005539 0.000000 0.036871 0.000000
# 6 0.000000 0.000000 0.000000 -0.004980 0.000000 0.031634
#
#
# Mechanical properties :
#
#
# Convention : Reuss Voigt Hill
#
# Bulk Modulus (GPa) = 57.71368 65.05688 61.38528
# Shear Modulus (GPa) = 27.82000 29.49526 28.65763
#
# Velocity S-wave (km/s) = 3.90018 4.01590 3.95846
# Velocity P-wave (km/s) = 7.19990 7.55480 7.37949
#
# Compressibility (1/GPa) = 0.01732691
#
# Stress axis : x y z
#
# Youngs Moduli (GPa) = 65.76532 90.09159 64.70228
#
# Poissons Ratio (x) = 0.26710 0.26679
# Poissons Ratio (y) = 0.19498 0.33184
# Poissons Ratio (z) = 0.27117 0.46206
#
# Static dielectric constant tensor:
#      x y z
#    x 1.668440 0.000000 0.005060 
#    y 0.000000 1.643740 0.000000 
#    z 0.005060 0.000000 1.622690 
# 
# From -- ./inp_files/110885.got.cif
#   From: 2010.05.17/outbox.ucp.g08.bks.cvg/sg15_56_cif.got.tgz:110885.got - 2010.06.11 12:40:34.
