data_PCOD9309730
_publ_section_title
;
Structure prediction by ZEFSAII (Michael W. Deem and Ramdas Pophale) SiO2 
 PCOD9309730
Probable space group: C 2/C
;
_chemical_formula_sum "Si O2"
_cell_formula_units_Z 28
_cell_length_a 15.000000
_cell_length_b 21.000000
_cell_length_c 18.000000
_cell_angle_alpha 90.000000
_cell_angle_beta 30.000000
_cell_angle_gamma 90.000000
_cell_volume 2835.000000
_symmetry_space_group_name_H-M "C 2/C"
_symmetry_group_IT_number 15
_symmetry_cell_setting 'monoclinic'
loop_
_space_group_symop_operation_xyz
x,y,z
-x,y,1/2-z
-x,-y,-z
x,-y,1/2+z
1/2+x,1/2+y,z
1/2-x,1/2+y,1/2-z
1/2-x,1/2-y,-z
1/2+x,1/2-y,1/2+z
loop_
_atom_site_type_symbol
_atom_site_label
_atom_site_fract_x
_atom_site_fract_y
_atom_site_fract_z
Si Si1 0.547713 0.108830 0.891508
Si Si2 0.650268 0.912935 0.587279
Si Si3 0.763002 0.735931 0.703683
Si Si4 0.801243 0.974176 0.873129
Si Si5 0.676248 0.497145 0.820469
Si Si6 0.133007 0.793491 0.027971
Si Si7 0.109735 0.369131 0.838794
O O1 0.626487 0.181958 0.829826
O O2 0.693100 0.057428 0.758587
O O3 0.353174 0.080437 0.005948
O O4 0.511330 0.107036 0.005932
O O5 0.500000 0.943147 0.750000
O O6 0.792427 0.865832 0.522917
O O7 0.528240 0.863380 0.628610
O O8 0.740079 0.966425 0.469942
O O9 0.855128 0.762391 0.562560
O O10 0.578874 0.705378 0.805780
O O11 0.710215 0.802797 0.782592
O O12 0.827877 0.995906 0.767491
O O13 0.000000 0.951241 0.750000
O O14 0.763223 0.428045 0.772975
O O15 0.500000 0.500000 0.000000
O O16 0.250000 0.750000 0.000000
#
# Coordination Sequence:
#
# PCOD9309730 Si02
#       7
#     8   8   8   8   8   8   8
#     4  11  23  45  63  91 139 181 235 287 335 410
#     4  12  22  37  62  96 146 178 219 277 345 424
#     4  12  24  38  62  92 136 185 222 268 341 416
#     4  11  26  43  67  95 132 184 234 300 350 398
#     4  11  25  42  66  95 132 184 237 279 344 421
#     4  12  23  35  54  96 140 182 217 264 339 430
#     4  11  21  42  60  90 135 181 220 275 334 411
#
# _framework density 9.8765429999999999
#
# number of rings (size 3 to 8) (size 9 to 14) (size 15 to 20)
#    0.000    0.571    7.143    1.286    6.000    0.000 
#    0.000    0.000    0.000    3.429    0.000    1.000 
#    0.000    0.000    0.000    0.000    0.000    0.000 
#
# Total GULP energy -156062.458021 kJ/mol
# GULP energy per Si atom -5573.659215 kJ/mol
# Density = 0.985406 g / cm^3
# Si number density = 9.876543 Si / 1000 Ang^3
#
#
#
# Elastic Constant Matrix: (Units=GPa)
#
#
# Indices 1 2 3 4 5 6 
#
# 1 49.5004 35.7252 25.9230 0.0097 -11.2013 -0.0083
# 2 35.7252 154.4649 57.8167 0.0003 -15.3717 -0.0060
# 3 25.9230 57.8167 143.1747 -0.0075 -3.5570 -0.0079
# 4 0.0097 0.0003 -0.0075 39.4308 -0.0085 -3.1624
# 5 -11.2013 -15.3717 -3.5570 -0.0085 31.5207 0.0066
# 6 -0.0083 -0.0060 -0.0079 -3.1624 0.0066 32.8626
#
#
#
# Elastic Compliance Matrix: (Units=1/GPa)
#
#
# Indices 1 2 3 4 5 6 
#
# 1 0.026405 -0.004349 -0.002852 -0.000005 0.006941 0.000003
# 2 -0.004349 0.008720 -0.002674 0.000001 0.002405 -0.000001
# 3 -0.002852 -0.002674 0.008547 0.000002 -0.001353 0.000001
# 4 -0.000005 0.000001 0.000002 0.025558 0.000005 0.002460
# 5 0.006941 0.002405 -0.001353 0.000005 0.035212 -0.000005
# 6 0.000003 -0.000001 0.000001 0.002460 -0.000005 0.030666
#
#
# Mechanical properties :
#
#
# Convention : Reuss Voigt Hill
#
# Bulk Modulus (GPa) = 41.80319 65.11888 53.46103
# Shear Modulus (GPa) = 30.70637 35.94116 33.32377
#
# Velocity S-wave (km/s) = 3.94701 4.27021 4.11179
# Velocity P-wave (km/s) = 6.47924 7.57304 7.04740
#
# Compressibility (1/GPa) = 0.02392162
#
# Stress axis : x y z
#
# Youngs Moduli (GPa) = 37.87212 114.67797 116.99755
#
# Poissons Ratio (x) = 0.49869 0.33371
# Poissons Ratio (y) = 0.16469 0.31288
# Poissons Ratio (z) = 0.10802 0.30667
#
# Static dielectric constant tensor:
#      x y z
#    x 1.749710 0.000000 0.008300 
#    y 0.000000 1.729240 0.000010 
#    z 0.008300 0.000010 1.764740 
# 
# From -- ./inp_files/57898.got.cif
#   From: 2010.05.17/outbox.ucp.g08.bks.cvg/sg15_29_cif.got.tgz:57898.got - 2010.06.11 12:40:34.
