data_PCOD9309950
_publ_section_title
;
Structure prediction by ZEFSAII (Michael W. Deem and Ramdas Pophale) SiO2 
 PCOD9309950
Probable space group: P 2 2 2
;
_chemical_formula_sum "Si O2"
_cell_formula_units_Z 17
_cell_length_a 9.102654
_cell_length_b 9.126520
_cell_length_c 8.974995
_cell_angle_alpha 90.000000
_cell_angle_beta 90.000000
_cell_angle_gamma 90.000000
_cell_volume 745.602680
_symmetry_space_group_name_H-M "P 2 2 2"
_symmetry_group_IT_number 16
_symmetry_cell_setting 'orthorhombic'
loop_
_space_group_symop_operation_xyz
x,y,z
-x,-y,z
x,-y,-z
-x,y,-z
loop_
_atom_site_type_symbol
_atom_site_label
_atom_site_fract_x
_atom_site_fract_y
_atom_site_fract_z
Si Si1 0.500000 0.236741 0.500000
Si Si2 0.754949 0.082078 0.313907
Si Si3 0.246854 0.729349 0.702190
Si Si4 0.340718 0.236897 0.967764
Si Si5 0.500000 0.500000 0.000000
Si Si6 0.000000 0.252044 0.500000
O O1 0.606988 0.141427 0.393148
O O2 0.609964 0.320212 0.610612
O O3 0.749909 0.140767 0.145276
O O4 0.891493 0.154253 0.398513
O O5 0.759558 0.907358 0.317507
O O6 0.105442 0.666410 0.617487
O O7 0.263213 0.717722 0.878817
O O8 0.500000 0.163279 0.000000
O O9 0.398186 0.392411 0.903561
#
# Coordination Sequence:
#
# PCOD9309950 Si02
#       6
#     2   4   4   4   1   2
#     4  10  17  26  48  75 110 145 174 216 259 318
#     4  11  19  32  53  84 117 146 179 216 272 338
#     4  11  19  32  53  84 117 146 179 216 272 338
#     4  10  21  35  58  81 103 141 187 243 271 320
#     4   8  20  40  54  84 104 136 188 250 300 300
#     4  10  23  36  52  85 128 157 168 204 281 352
#
# _framework density 22.800348
#
# number of rings (size 3 to 8) (size 9 to 14) (size 15 to 20)
#    0.706    0.941    2.353    6.353    0.000    1.882 
#    0.000    2.353    0.000   29.647    0.000    0.000 
#    0.000    0.000    0.000    0.000    0.000    0.000 
#
# Total GULP energy -94851.942524 kJ/mol
# GULP energy per Si atom -5579.526031 kJ/mol
# Density = 2.274845 g / cm^3
# Si number density = 22.800348 Si / 1000 Ang^3
#
#
#
# Elastic Constant Matrix: (Units=GPa)
#
#
# Indices 1 2 3 4 5 6 
#
# 1 129.6832 2.7337 54.6772 0.0000 0.0000 0.0000
# 2 2.7337 26.2667 5.7547 0.0000 0.0000 0.0000
# 3 54.6772 5.7547 172.5722 0.0000 0.0000 0.0000
# 4 0.0000 0.0000 0.0000 7.7864 0.0000 0.0000
# 5 0.0000 0.0000 0.0000 0.0000 39.5824 0.0000
# 6 0.0000 0.0000 0.0000 0.0000 0.0000 10.8344
#
#
#
# Elastic Compliance Matrix: (Units=1/GPa)
#
#
# Indices 1 2 3 4 5 6 
#
# 1 0.008903 -0.000311 -0.002810 0.000000 0.000000 0.000000
# 2 -0.000311 0.038362 -0.001181 0.000000 0.000000 0.000000
# 3 -0.002810 -0.001181 0.006724 0.000000 0.000000 0.000000
# 4 0.000000 0.000000 0.000000 0.128429 0.000000 0.000000
# 5 0.000000 0.000000 0.000000 0.000000 0.025264 0.000000
# 6 0.000000 0.000000 0.000000 0.000000 0.000000 0.092299
#
#
# Mechanical properties :
#
#
# Convention : Reuss Voigt Hill
#
# Bulk Modulus (GPa) = 22.03354 50.53923 36.28638
# Shear Modulus (GPa) = 15.44578 29.33106 22.38842
#
# Velocity S-wave (km/s) = 2.60558 3.59058 3.13698
# Velocity P-wave (km/s) = 4.32860 6.27724 5.39168
#
# Compressibility (1/GPa) = 0.04538536
#
# Stress axis : x y z
#
# Youngs Moduli (GPa) = 112.32770 26.06738 148.71108
#
# Poissons Ratio (x) = 0.00810 0.41792
# Poissons Ratio (y) = 0.03491 0.17559
# Poissons Ratio (z) = 0.31567 0.03078
#
# Static dielectric constant tensor:
#      x y z
#    x 1.907050 0.000000 0.000000 
#    y 0.000000 1.892980 0.000000 
#    z 0.000000 0.000000 1.891630 
# 
# From -- ./inp_files/3697.got.cif
#   From: 2010.05.17/outbox.cif.g08.bks.cpg/sg16_2_cif.got.tgz:3697.got - 2010.06.03 22:28:35.
