data_PCOD9309326
_publ_section_title
;
Structure prediction by ZEFSAII (Michael W. Deem and Ramdas Pophale) SiO2 
 PCOD9309326
Probable space group: C 2/C
;
_chemical_formula_sum "Si O2"
_cell_formula_units_Z 32
_cell_length_a 15.000000
_cell_length_b 30.000000
_cell_length_c 21.000000
_cell_angle_alpha 90.000000
_cell_angle_beta 160.000000
_cell_angle_gamma 90.000000
_cell_volume 3232.090354
_symmetry_space_group_name_H-M "C 2/C"
_symmetry_group_IT_number 15
_symmetry_cell_setting 'monoclinic'
loop_
_space_group_symop_operation_xyz
x,y,z
-x,y,1/2-z
-x,-y,-z
x,-y,1/2+z
1/2+x,1/2+y,z
1/2-x,1/2+y,1/2-z
1/2-x,1/2-y,-z
1/2+x,1/2-y,1/2+z
loop_
_atom_site_type_symbol
_atom_site_label
_atom_site_fract_x
_atom_site_fract_y
_atom_site_fract_z
Si Si1 0.414894 0.105654 0.878130
Si Si2 0.921788 0.833153 0.018621
Si Si3 0.260336 0.247921 0.264043
Si Si4 0.735947 0.194528 0.111009
Si Si5 0.963689 0.325145 0.623606
Si Si6 0.803250 0.553645 0.679475
Si Si7 0.306798 0.908612 0.445766
Si Si8 0.677534 0.053005 0.303060
O O1 0.443961 0.074267 0.836423
O O2 0.389176 0.081543 0.928778
O O3 0.141225 0.131658 0.684031
O O4 0.630838 0.144542 0.029772
O O5 0.066448 0.788527 0.092905
O O6 0.714146 0.847732 0.826119
O O7 0.758435 0.822802 0.972384
O O8 0.207958 0.208760 0.279036
O O9 0.435571 0.223283 0.328938
O O10 0.995541 0.272016 0.065509
O O11 0.000000 0.201770 0.250000
O O12 0.862033 0.356040 0.498208
O O13 0.484659 0.564425 0.482748
O O14 0.805457 0.500315 0.678058
O O15 0.000000 0.567646 0.750000
O O16 0.483175 0.933989 0.615406
O O17 0.000000 0.917027 0.250000
O O18 0.500000 0.067331 0.250000
#
# Coordination Sequence:
#
# PCOD9309326 Si02
#       8
#     8   8   8   8   8   8   8   8
#     4  11  23  41  61  93 135 161 220 272 329 388
#     4  10  22  37  59  90 121 168 208 258 323 399
#     4  11  21  41  58  82 120 159 216 270 324 386
#     4  11  24  41  58  82 117 169 221 276 324 385
#     4  11  21  36  60  89 124 162 205 260 330 393
#     4  10  23  47  72 101 132 181 227 271 329 412
#     4  12  23  37  65 101 137 170 209 276 341 402
#     4  10  23  44  74 101 138 176 223 272 334 409
#
# _framework density 9.9007129999999997
#
# number of rings (size 3 to 8) (size 9 to 14) (size 15 to 20)
#    0.000    1.250    3.750    2.250    1.750    1.500 
#    4.500    1.875    0.000    0.000    0.000    0.000 
#    0.000    0.000    0.000    0.000    0.000    0.000 
#
# Total GULP energy -178187.668786 kJ/mol
# GULP energy per Si atom -5568.364650 kJ/mol
# Density = 0.987818 g / cm^3
# Si number density = 9.900713 Si / 1000 Ang^3
#
#
#
# Elastic Constant Matrix: (Units=GPa)
#
#
# Indices 1 2 3 4 5 6 
#
# 1 139.5534 28.0324 26.1019 0.0048 2.7616 -0.0019
# 2 28.0324 27.9807 19.7157 0.0003 6.7984 -0.0012
# 3 26.1019 19.7157 67.3962 0.0254 9.6284 0.0131
# 4 0.0048 0.0003 0.0254 19.4632 0.0034 -1.0292
# 5 2.7616 6.7984 9.6284 0.0034 36.9272 0.0035
# 6 -0.0019 -0.0012 0.0131 -1.0292 0.0035 29.7043
#
#
#
# Elastic Compliance Matrix: (Units=1/GPa)
#
#
# Indices 1 2 3 4 5 6 
#
# 1 0.009082 -0.008556 -0.001187 -0.000001 0.001205 0.000001
# 2 -0.008556 0.054000 -0.011586 0.000018 -0.006281 0.000008
# 3 -0.001187 -0.011586 0.019080 -0.000024 -0.002753 -0.000009
# 4 -0.000001 0.000018 -0.000024 0.051473 -0.000002 0.001784
# 5 0.001205 -0.006281 -0.002753 -0.000002 0.028864 -0.000002
# 6 0.000001 0.000008 -0.000009 0.001784 -0.000002 0.033727
#
#
# Mechanical properties :
#
#
# Convention : Reuss Voigt Hill
#
# Bulk Modulus (GPa) = 25.31310 42.51447 33.91379
# Shear Modulus (GPa) = 19.83705 27.95761 23.89733
#
# Velocity S-wave (km/s) = 3.16855 3.76160 3.47774
# Velocity P-wave (km/s) = 5.11835 6.35478 5.76978
#
# Compressibility (1/GPa) = 0.03950524
#
# Stress axis : x y z
#
# Youngs Moduli (GPa) = 110.10209 18.51837 52.41101
#
# Poissons Ratio (x) = 0.15844 0.06221
# Poissons Ratio (y) = 0.94201 0.60724
# Poissons Ratio (z) = 0.13068 0.21456
#
# Static dielectric constant tensor:
#      x y z
#    x 1.742860 0.000000 -0.004160 
#    y 0.000000 1.740030 -0.000010 
#    z -0.004160 -0.000010 1.713130 
# 
# From -- ./inp_files/246004.got.cif
#   From: 2010.05.17/outbox.ucp.g08.bks.cvg/sg15_124_cif.got.tgz:246004.got - 2010.06.11 12:40:34.
