data_PCOD9309341
_publ_section_title
;
Structure prediction by ZEFSAII (Michael W. Deem and Ramdas Pophale) SiO2 
 PCOD9309341
Probable space group: C 2/C
;
_chemical_formula_sum "Si O2"
_cell_formula_units_Z 24
_cell_length_a 15.000000
_cell_length_b 30.000000
_cell_length_c 9.000000
_cell_angle_alpha 90.000000
_cell_angle_beta 40.000000
_cell_angle_gamma 90.000000
_cell_volume 2603.289819
_symmetry_space_group_name_H-M "C 2/C"
_symmetry_group_IT_number 15
_symmetry_cell_setting 'monoclinic'
loop_
_space_group_symop_operation_xyz
x,y,z
-x,y,1/2-z
-x,-y,-z
x,-y,1/2+z
1/2+x,1/2+y,z
1/2-x,1/2+y,1/2-z
1/2-x,1/2-y,-z
1/2+x,1/2-y,1/2+z
loop_
_atom_site_type_symbol
_atom_site_label
_atom_site_fract_x
_atom_site_fract_y
_atom_site_fract_z
Si Si1 0.894706 0.110360 0.515262
Si Si2 0.351205 0.946767 0.640180
Si Si3 0.892524 0.120701 0.018671
Si Si4 0.166296 0.456735 0.192533
Si Si5 0.812664 0.792939 0.117182
Si Si6 0.618772 0.284246 0.818889
O O1 0.790611 0.072367 0.598853
O O2 0.808093 0.154927 0.666946
O O3 0.004651 0.095545 0.498046
O O4 0.000000 0.124610 0.250000
O O5 0.244885 0.908665 0.829935
O O6 0.516718 0.937731 0.437892
O O7 0.327385 0.954370 0.494220
O O8 0.325389 0.992491 0.762019
O O9 0.854409 0.169013 0.133531
O O10 0.000000 0.128913 0.750000
O O11 0.691415 0.757918 0.302757
O O12 0.827599 0.790948 0.918681
O O13 0.954980 0.776523 0.010072
#
# Coordination Sequence:
#
# PCOD9309341 Si02
#       6
#     8   8   8   8   8   8
#     4  11  19  38  57  84 116 148 192 236 279 330
#     4  10  22  40  57  86 115 151 190 234 286 336
#     4  11  23  38  57  85 119 151 188 236 285 337
#     4  10  22  38  61  83 117 148 191 239 280 340
#     4   9  16  31  56  78 107 139 184 231 270 328
#     4   9  17  32  52  81 107 141 183 226 276 326
#
# _framework density 9.2191039999999997
#
# number of rings (size 3 to 8) (size 9 to 14) (size 15 to 20)
#    0.000    2.000    5.000    0.000    2.333    2.667 
#    0.000    6.667    0.000    0.000    0.000    0.000 
#    0.000    0.000    0.000    0.000    0.000    0.000 
#
# Total GULP energy -133692.466264 kJ/mol
# GULP energy per Si atom -5570.519428 kJ/mol
# Density = 0.919812 g / cm^3
# Si number density = 9.219104 Si / 1000 Ang^3
#
#
#
# Elastic Constant Matrix: (Units=GPa)
#
#
# Indices 1 2 3 4 5 6 
#
# 1 32.0668 23.1161 11.8720 0.0000 -17.8783 0.0000
# 2 23.1161 78.5086 40.2153 0.0000 -26.2102 0.0000
# 3 11.8720 40.2153 48.0170 0.0000 -18.5662 0.0000
# 4 0.0000 0.0000 0.0000 17.0243 0.0000 -12.8183
# 5 -17.8783 -26.2102 -18.5662 0.0000 10.6712 0.0000
# 6 0.0000 0.0000 0.0000 -12.8183 0.0000 38.1283
#
#
#
# Elastic Compliance Matrix: (Units=1/GPa)
#
#
# Indices 1 2 3 4 5 6 
#
# 1 -0.012124 -0.027027 -0.024102 0.000000 -0.128630 0.000000
# 2 -0.027027 0.021144 -0.025832 0.000000 -0.038292 0.000000
# 3 -0.024102 -0.025832 0.025281 0.000000 -0.059842 0.000000
# 4 0.000000 0.000000 0.000000 0.078647 0.000000 0.026440
# 5 -0.128630 -0.038292 -0.059842 0.000000 -0.319961 0.000000
# 6 0.000000 0.000000 0.000000 0.026440 0.000000 0.035116
#
#
# Mechanical properties :
#
#
# Convention : Reuss Voigt Hill
#
# Bulk Modulus (GPa) = -8.35970 34.33325 12.98678
# Shear Modulus (GPa) = -86.43510 18.72403 -33.85554
#
# Velocity S-wave (km/s) = -6.85420 3.19015 -4.28969
# Velocity P-wave (km/s) = 8.19657 5.67720 4.18050
#
# Compressibility (1/GPa) = -0.11962154
#
# Stress axis : x y z
#
# Youngs Moduli (GPa) = -82.48258 47.29531 39.55470
#
# Poissons Ratio (x) = 1.27826 0.95336
# Poissons Ratio (y) = -2.22927 1.02177
# Poissons Ratio (z) = -1.98803 1.22173
#
# Static dielectric constant tensor:
#      x y z
#    x 1.704260 0.000000 0.076930 
#    y 0.000000 1.616110 0.000000 
#    z 0.076930 0.000000 1.700520 
# 
# From -- ./inp_files/44405.got.cif
#   From: 2010.05.17/outbox.ucp.g08.bks.cvg/sg15_23_cif.got.tgz:44405.got - 2010.06.11 12:40:34.
