data_PCOD9309317
_publ_section_title
;
Structure prediction by ZEFSAII (Michael W. Deem and Ramdas Pophale) SiO2 
 PCOD9309317
Probable space group: C 2/C
;
_chemical_formula_sum "Si O2"
_cell_formula_units_Z 28
_cell_length_a 24.000000
_cell_length_b 12.000000
_cell_length_c 30.000000
_cell_angle_alpha 90.000000
_cell_angle_beta 20.000000
_cell_angle_gamma 90.000000
_cell_volume 2955.054038
_symmetry_space_group_name_H-M "C 2/C"
_symmetry_group_IT_number 15
_symmetry_cell_setting 'monoclinic'
loop_
_space_group_symop_operation_xyz
x,y,z
-x,y,1/2-z
-x,-y,-z
x,-y,1/2+z
1/2+x,1/2+y,z
1/2-x,1/2+y,1/2-z
1/2-x,1/2-y,-z
1/2+x,1/2-y,1/2+z
loop_
_atom_site_type_symbol
_atom_site_label
_atom_site_fract_x
_atom_site_fract_y
_atom_site_fract_z
Si Si1 0.483600 0.932408 0.444754
Si Si2 0.954626 0.186133 0.456259
Si Si3 0.661860 0.017980 0.652986
Si Si4 0.935770 0.125022 0.036975
Si Si5 0.939032 0.147357 0.927682
Si Si6 0.722581 0.484963 0.716362
Si Si7 0.942586 0.385032 0.680548
O O1 0.470507 0.813881 0.429496
O O2 0.340874 0.942029 0.588624
O O3 0.657656 0.953190 0.338482
O O4 0.473820 0.033862 0.417658
O O5 0.791770 0.116133 0.566607
O O6 0.965036 0.196922 0.502251
O O7 0.108009 0.111475 0.324051
O O8 0.500000 0.058875 0.750000
O O9 0.773126 0.923085 0.544848
O O10 0.590090 0.954464 0.750044
O O11 0.745393 0.140357 0.191704
O O12 0.955937 0.151498 0.969547
O O13 0.000000 0.000000 0.000000
O O14 0.957875 0.269836 0.893111
O O15 0.092220 0.074414 0.796632
#
# Coordination Sequence:
#
# PCOD9309317 Si02
#       7
#     8   8   8   8   8   8   8
#     4  11  24  33  58  93 127 161 191 242 308 375
#     4  11  22  39  62  85 127 164 197 255 301 368
#     4  10  24  45  66  86 113 167 222 254 303 355
#     4  11  18  35  57  90 121 161 194 237 311 380
#     4  10  22  37  63  89 125 157 198 258 307 367
#     4  10  22  36  54  93 130 158 193 237 305 380
#     4  11  22  37  63  92 124 155 201 249 316 375
#
# _framework density 9.4752919999999996
#
# number of rings (size 3 to 8) (size 9 to 14) (size 15 to 20)
#    0.000    1.429    5.714    0.857   10.000    0.571 
#    0.000    0.714    0.000    0.000    0.000    0.000 
#    0.000    0.000    0.000    0.000    0.000    0.000 
#
# Total GULP energy -156205.270177 kJ/mol
# GULP energy per Si atom -5578.759649 kJ/mol
# Density = 0.945373 g / cm^3
# Si number density = 9.475292 Si / 1000 Ang^3
#
#
#
# Elastic Constant Matrix: (Units=GPa)
#
#
# Indices 1 2 3 4 5 6 
#
# 1 32.4877 10.5582 33.5130 0.0014 -13.4241 0.0000
# 2 10.5582 119.8988 40.3406 0.0028 -1.3236 -0.0005
# 3 33.5130 40.3406 119.2360 0.0117 -9.8389 0.0040
# 4 0.0014 0.0028 0.0117 22.1325 0.0019 2.9188
# 5 -13.4241 -1.3236 -9.8389 0.0019 25.2350 -0.0003
# 6 0.0000 -0.0005 0.0040 2.9188 -0.0003 12.6744
#
#
#
# Elastic Compliance Matrix: (Units=1/GPa)
#
#
# Indices 1 2 3 4 5 6 
#
# 1 0.054299 -0.000049 -0.013289 0.000001 0.023701 0.000004
# 2 -0.000049 0.009426 -0.003241 0.000000 -0.000795 0.000001
# 3 -0.013289 -0.003241 0.013041 -0.000005 -0.002155 -0.000003
# 4 0.000001 0.000000 -0.000005 0.046598 -0.000005 -0.010731
# 5 0.023701 -0.000795 -0.002155 -0.000005 0.051354 0.000003
# 6 0.000004 0.000001 -0.000003 -0.010731 0.000003 0.081370
#
#
# Mechanical properties :
#
#
# Convention : Reuss Voigt Hill
#
# Bulk Modulus (GPa) = 22.93170 48.93845 35.93507
# Shear Modulus (GPa) = 16.45919 24.48910 20.47415
#
# Velocity S-wave (km/s) = 2.95028 3.59870 3.29050
# Velocity P-wave (km/s) = 4.87161 6.56870 5.78275
#
# Compressibility (1/GPa) = 0.04360775
#
# Stress axis : x y z
#
# Youngs Moduli (GPa) = 18.41657 106.08546 76.68344
#
# Poissons Ratio (x) = 0.00516 1.01907
# Poissons Ratio (y) = 0.00090 0.24854
# Poissons Ratio (z) = 0.24474 0.34384
#
# Static dielectric constant tensor:
#      x y z
#    x 1.712200 0.000000 0.006660 
#    y 0.000000 1.699400 0.000010 
#    z 0.006660 0.000010 1.651700 
# 
# From -- ./inp_files/318768.got.cif
#   From: 2010.05.17/outbox.ucp.g08.bks.cvg/sg15_160_cif.got.tgz:318768.got - 2010.06.11 12:40:34.
