data_PCOD9309664
_publ_section_title
;
Structure prediction by ZEFSAII (Michael W. Deem and Ramdas Pophale) SiO2 
 PCOD9309664
Probable space group: C 2/C
;
_chemical_formula_sum "Si O2"
_cell_formula_units_Z 28
_cell_length_a 12.000000
_cell_length_b 21.000000
_cell_length_c 12.000000
_cell_angle_alpha 90.000000
_cell_angle_beta 100.000000
_cell_angle_gamma 90.000000
_cell_volume 2978.058645
_symmetry_space_group_name_H-M "C 2/C"
_symmetry_group_IT_number 15
_symmetry_cell_setting 'monoclinic'
loop_
_space_group_symop_operation_xyz
x,y,z
-x,y,1/2-z
-x,-y,-z
x,-y,1/2+z
1/2+x,1/2+y,z
1/2-x,1/2+y,1/2-z
1/2-x,1/2-y,-z
1/2+x,1/2-y,1/2+z
loop_
_atom_site_type_symbol
_atom_site_label
_atom_site_fract_x
_atom_site_fract_y
_atom_site_fract_z
Si Si1 0.273991 0.155676 0.936896
Si Si2 0.581504 0.567742 0.870403
Si Si3 0.451579 0.240974 0.862919
Si Si4 0.583488 0.337667 0.029875
Si Si5 0.382438 0.423467 0.664418
Si Si6 0.243750 0.152398 0.192892
Si Si7 0.630610 0.731980 0.749567
O O1 0.206436 0.096024 0.874883
O O2 0.391364 0.179900 0.907247
O O3 0.192062 0.212111 0.875612
O O4 0.275273 0.144153 0.068981
O O5 0.500000 0.573438 0.750000
O O6 0.516778 0.612716 0.949251
O O7 0.599739 0.492551 0.888154
O O8 0.500000 0.225170 0.750000
O O9 0.362620 0.298644 0.824629
O O10 0.534871 0.273385 0.966253
O O11 0.654875 0.314973 0.149882
O O12 0.642603 0.374331 0.939064
O O13 0.500000 0.409702 0.750000
O O14 0.290021 0.410539 0.744991
O O15 0.338657 0.195317 0.268487
O O16 0.500000 0.724342 0.750000
#
# Coordination Sequence:
#
# PCOD9309664 Si02
#       7
#     8   8   8   8   8   8   8
#     4  11  20  36  57  77 109 150 183 219 274 334
#     4  11  21  34  54  82 113 148 185 219 266 333
#     4  11  20  34  56  83 112 143 181 225 278 333
#     4  12  18  35  53  81 118 139 173 230 287 322
#     4  11  22  35  53  81 114 151 181 220 272 329
#     4  11  20  36  56  77 111 148 185 216 273 338
#     4  11  20  32  53  83 109 138 182 230 276 323
#
# _framework density 9.4020980000000005
#
# number of rings (size 3 to 8) (size 9 to 14) (size 15 to 20)
#    0.000    0.857    7.143    3.000    0.000    1.714 
#    0.000    0.000    0.000    0.857    0.000    3.000 
#    0.000    0.000    0.000    0.000    0.000    0.000 
#
# Total GULP energy -155934.819285 kJ/mol
# GULP energy per Si atom -5569.100689 kJ/mol
# Density = 0.938070 g / cm^3
# Si number density = 9.402098 Si / 1000 Ang^3
#
#
#
# Elastic Constant Matrix: (Units=GPa)
#
#
# Indices 1 2 3 4 5 6 
#
# 1 30.1418 24.1448 32.1483 0.0000 -18.0373 0.0000
# 2 24.1448 68.4831 34.8639 0.0000 -3.9952 0.0000
# 3 32.1483 34.8639 105.3955 0.0000 -20.7080 0.0000
# 4 0.0000 0.0000 0.0000 17.2366 0.0000 -1.9641
# 5 -18.0373 -3.9952 -20.7080 0.0000 26.1911 0.0000
# 6 0.0000 0.0000 0.0000 -1.9641 0.0000 15.4504
#
#
#
# Elastic Compliance Matrix: (Units=1/GPa)
#
#
# Indices 1 2 3 4 5 6 
#
# 1 0.098648 -0.026192 -0.010493 0.000000 0.055645 0.000000
# 2 -0.026192 0.024628 -0.003508 0.000000 -0.017055 0.000000
# 3 -0.010493 -0.003508 0.014591 0.000000 0.003775 0.000000
# 4 0.000000 0.000000 0.000000 0.058869 0.000000 0.007484
# 5 0.055645 -0.017055 0.003775 0.000000 0.076886 0.000000
# 6 0.000000 0.000000 0.000000 0.007484 0.000000 0.065675
#
#
# Mechanical properties :
#
#
# Convention : Reuss Voigt Hill
#
# Bulk Modulus (GPa) = 17.39731 42.92605 30.16168
# Shear Modulus (GPa) = 11.39364 19.29984 15.34674
#
# Velocity S-wave (km/s) = 2.46419 3.20716 2.85990
# Velocity P-wave (km/s) = 4.16752 6.04913 5.19424
#
# Compressibility (1/GPa) = 0.05748016
#
# Stress axis : x y z
#
# Youngs Moduli (GPa) = 10.13708 40.60498 68.53585
#
# Poissons Ratio (x) = 1.06351 0.71914
# Poissons Ratio (y) = 0.26551 0.24045
# Poissons Ratio (z) = 0.10637 0.14246
#
# Static dielectric constant tensor:
#      x y z
#    x 1.753240 0.000000 0.000950 
#    y 0.000000 1.697760 0.000000 
#    z 0.000950 0.000000 1.687090 
# 
# From -- ./inp_files/88888.got.cif
#   From: 2010.05.17/outbox.ucp.g08.bks.cvg/sg15_45_cif.got.tgz:88888.got - 2010.06.11 12:40:34.
