data_PCOD9309587
_publ_section_title
;
Structure prediction by ZEFSAII (Michael W. Deem and Ramdas Pophale) SiO2 
 PCOD9309587
Probable space group: C 2/C
;
_chemical_formula_sum "Si O2"
_cell_formula_units_Z 30
_cell_length_a 21.000000
_cell_length_b 24.000000
_cell_length_c 12.000000
_cell_angle_alpha 90.000000
_cell_angle_beta 30.000000
_cell_angle_gamma 90.000000
_cell_volume 3024.000000
_symmetry_space_group_name_H-M "C 2/C"
_symmetry_group_IT_number 15
_symmetry_cell_setting 'monoclinic'
loop_
_space_group_symop_operation_xyz
x,y,z
-x,y,1/2-z
-x,-y,-z
x,-y,1/2+z
1/2+x,1/2+y,z
1/2-x,1/2+y,1/2-z
1/2-x,1/2-y,-z
1/2+x,1/2-y,1/2+z
loop_
_atom_site_type_symbol
_atom_site_label
_atom_site_fract_x
_atom_site_fract_y
_atom_site_fract_z
Si Si1 0.856742 0.942383 0.835976
Si Si2 0.000000 0.966955 0.250000
Si Si3 0.088797 0.665031 0.500346
Si Si4 0.123037 0.462988 0.345674
Si Si5 0.189715 0.752932 0.755081
Si Si6 0.267086 0.560117 0.228223
Si Si7 0.464049 0.157217 0.436875
Si Si8 0.394532 0.315337 0.821649
O O1 0.842117 0.936854 0.728132
O O2 0.895939 0.881606 0.819161
O O3 0.954597 0.990184 0.723064
O O4 0.717511 0.955567 0.097788
O O5 0.875065 0.932364 0.470598
O O6 0.202483 0.708564 0.353434
O O7 0.155356 0.604757 0.396952
O O8 0.035848 0.671275 0.451650
O O9 0.000000 0.666859 0.750000
O O10 0.205465 0.499698 0.305934
O O11 0.000000 0.500000 0.500000
O O12 0.092314 0.402806 0.442227
O O13 0.260483 0.707670 0.569034
O O14 0.099287 0.789948 0.811829
O O15 0.118540 0.713428 0.948297
O O16 0.500000 0.147969 0.250000
O O17 0.500000 0.295585 0.750000
#
# Coordination Sequence:
#
# PCOD9309587 Si02
#       8
#     8   4   8   8   8   8   8   8
#     4  11  21  40  66  96 126 173 235 284 331 407
#     4  10  24  42  58  94 140 174 226 270 360 416
#     4  12  24  45  75 103 131 177 238 287 336 406
#     4  11  24  41  66  96 137 177 228 286 344 403
#     4  11  23  42  63  97 134 173 219 285 339 400
#     4  11  24  40  67  95 134 178 223 284 341 411
#     4  12  27  44  65 103 142 181 227 277 354 420
#     4  11  20  37  68  97 124 163 224 287 338 377
#
# _framework density 9.9206350000000008
#
# number of rings (size 3 to 8) (size 9 to 14) (size 15 to 20)
#    0.000    0.800    4.667    4.000    1.867    0.533 
#    1.200    1.333    0.000    0.000    0.000    0.000 
#    0.000    0.000    0.000    0.000    0.000    0.000 
#
# Total GULP energy -167015.521477 kJ/mol
# GULP energy per Si atom -5567.184049 kJ/mol
# Density = 0.989806 g / cm^3
# Si number density = 9.920635 Si / 1000 Ang^3
#
#
#
# Elastic Constant Matrix: (Units=GPa)
#
#
# Indices 1 2 3 4 5 6 
#
# 1 99.8054 22.8336 24.9799 -0.0001 -0.5919 0.0011
# 2 22.8336 92.6053 43.8550 -0.0001 -0.2179 0.0012
# 3 24.9799 43.8550 61.3519 0.0005 -3.2356 0.0016
# 4 -0.0001 -0.0001 0.0005 36.9903 0.0002 -1.6560
# 5 -0.5919 -0.2179 -3.2356 0.0002 23.6051 -0.0012
# 6 0.0011 0.0012 0.0016 -1.6560 -0.0012 -13.8328
#
#
#
# Elastic Compliance Matrix: (Units=1/GPa)
#
#
# Indices 1 2 3 4 5 6 
#
# 1 0.011209 -0.000902 -0.003933 0.000000 -0.000266 0.000000
# 2 -0.000902 0.016447 -0.011466 0.000000 -0.001442 0.000000
# 3 -0.003933 -0.011466 0.026276 0.000000 0.003397 0.000002
# 4 0.000000 0.000000 0.000000 0.026890 0.000000 -0.003219
# 5 -0.000266 -0.001442 0.003397 0.000000 0.042809 -0.000004
# 6 0.000000 0.000000 0.000002 -0.003219 -0.000004 -0.071907
#
#
# Mechanical properties :
#
#
# Convention : Reuss Voigt Hill
#
# Bulk Modulus (GPa) = 46.88092 48.56662 47.72377
# Shear Modulus (GPa) = 54.68351 20.15881 37.42116
#
# Velocity S-wave (km/s) = 5.25550 3.19094 4.34755
# Velocity P-wave (km/s) = 7.77858 6.17307 7.02187
#
# Compressibility (1/GPa) = 0.02133064
#
# Stress axis : x y z
#
# Youngs Moduli (GPa) = 89.21698 60.80069 38.05794
#
# Poissons Ratio (x) = 0.05482 0.14969
# Poissons Ratio (y) = 0.08045 0.43636
# Poissons Ratio (z) = 0.35091 0.69711
#
# Static dielectric constant tensor:
#      x y z
#    x 1.737850 0.000000 0.003350 
#    y 0.000000 1.715650 0.000000 
#    z 0.003350 0.000000 1.761570 
# 
# From -- ./inp_files/114821.got.cif
#   From: 2010.05.17/outbox.ucp.g08.bks.cvg/sg15_58_cif.got.tgz:114821.got - 2010.06.11 12:40:34.
