data_PCOD9309656
_publ_section_title
;
Structure prediction by ZEFSAII (Michael W. Deem and Ramdas Pophale) SiO2 
 PCOD9309656
Probable space group: C 2/C
;
_chemical_formula_sum "Si O2"
_cell_formula_units_Z 26
_cell_length_a 12.000000
_cell_length_b 27.000000
_cell_length_c 18.000000
_cell_angle_alpha 90.000000
_cell_angle_beta 30.000000
_cell_angle_gamma 90.000000
_cell_volume 2916.000000
_symmetry_space_group_name_H-M "C 2/C"
_symmetry_group_IT_number 15
_symmetry_cell_setting 'monoclinic'
loop_
_space_group_symop_operation_xyz
x,y,z
-x,y,1/2-z
-x,-y,-z
x,-y,1/2+z
1/2+x,1/2+y,z
1/2-x,1/2+y,1/2-z
1/2-x,1/2-y,-z
1/2+x,1/2-y,1/2+z
loop_
_atom_site_type_symbol
_atom_site_label
_atom_site_fract_x
_atom_site_fract_y
_atom_site_fract_z
Si Si1 0.184552 0.024307 0.792504
Si Si2 0.000000 0.008313 0.250000
Si Si3 0.253895 0.559127 0.129489
Si Si4 0.490551 0.635401 0.076757
Si Si5 0.746461 0.734642 0.915835
Si Si6 0.353519 0.918897 0.465349
Si Si7 0.750377 0.838207 0.860370
O O1 0.400815 0.057815 0.689756
O O2 0.238927 0.971186 0.797300
O O3 0.140758 0.021679 0.729983
O O4 0.940072 0.036051 0.967637
O O5 0.817250 0.042068 0.398155
O O6 0.361177 0.611815 0.083678
O O7 0.000000 0.558628 0.250000
O O8 0.305252 0.640464 0.248495
O O9 0.587502 0.688361 0.000951
O O10 0.704071 0.603184 0.983558
O O11 0.670097 0.781908 0.911816
O O12 0.000000 0.720905 0.750000
O O13 0.750000 0.750000 0.000000
O O14 0.380446 0.874521 0.509522
O O15 0.000000 0.835009 0.750000
#
# Coordination Sequence:
#
# PCOD9309656 Si02
#       7
#     8   4   8   8   8   8   8
#     4  11  25  37  61  87 115 157 207 252 289 363
#     4  12  20  40  56  84 122 160 192 242 306 354
#     4  11  25  43  56  82 122 163 202 248 305 360
#     4  11  21  37  59  87 123 159 193 246 312 362
#     4  11  19  32  57  93 124 146 190 255 315 359
#     4  11  19  34  58  89 115 152 199 238 304 356
#     4   9  17  33  54  88 123 146 182 241 309 359
#
# _framework density 8.9163239999999995
#
# number of rings (size 3 to 8) (size 9 to 14) (size 15 to 20)
#    0.000    1.231    8.462    1.385    4.308    1.231 
#    0.000    0.000    0.000    0.923    2.000    0.000 
#    0.000    0.000    0.000    0.000    0.000    0.000 
#
# Total GULP energy -144897.267790 kJ/mol
# GULP energy per Si atom -5572.971838 kJ/mol
# Density = 0.889603 g / cm^3
# Si number density = 8.916324 Si / 1000 Ang^3
#
#
#
# Elastic Constant Matrix: (Units=GPa)
#
#
# Indices 1 2 3 4 5 6 
#
# 1 70.3272 26.5076 20.5395 0.0133 -12.7866 -0.0276
# 2 26.5076 77.4828 25.7918 0.0245 -13.6902 -0.0335
# 3 20.5395 25.7918 79.7368 0.0150 -20.4518 -0.0369
# 4 0.0133 0.0245 0.0150 30.0623 -0.0197 2.7389
# 5 -12.7866 -13.6902 -20.4518 -0.0197 25.9157 0.0257
# 6 -0.0276 -0.0335 -0.0369 2.7389 0.0257 7.5622
#
#
#
# Elastic Compliance Matrix: (Units=1/GPa)
#
#
# Indices 1 2 3 4 5 6 
#
# 1 0.017295 -0.004482 -0.001785 -0.000002 0.004757 0.000019
# 2 -0.004482 0.016150 -0.003070 -0.000010 0.003897 0.000030
# 3 -0.001785 -0.003070 0.016741 0.000000 0.010709 0.000025
# 4 -0.000002 -0.000010 0.000000 0.034399 0.000032 -0.012459
# 5 0.004757 0.003897 0.010709 0.000032 0.051444 -0.000099
# 6 0.000019 0.000030 0.000025 -0.012459 -0.000099 0.136750
#
#
# Mechanical properties :
#
#
# Convention : Reuss Voigt Hill
#
# Bulk Modulus (GPa) = 31.73421 41.46939 36.60180
# Shear Modulus (GPa) = 16.55870 23.02190 19.79030
#
# Velocity S-wave (km/s) = 3.05054 3.59694 3.33495
# Velocity P-wave (km/s) = 5.49926 6.36835 5.94970
#
# Compressibility (1/GPa) = 0.03151174
#
# Stress axis : x y z
#
# Youngs Moduli (GPa) = 57.82073 61.92001 59.73439
#
# Poissons Ratio (x) = 0.27753 0.10664
# Poissons Ratio (y) = 0.25915 0.18336
# Poissons Ratio (z) = 0.10322 0.19007
#
# Static dielectric constant tensor:
#      x y z
#    x 1.507450 0.000080 -0.050470 
#    y 0.000080 1.685820 0.000100 
#    z -0.050470 0.000100 1.548490 
# 
# From -- ./inp_files/201171.got.cif
#   From: 2010.05.17/outbox.ucp.g08.bks.cvg/sg15_101_cif.got.tgz:201171.got - 2010.06.11 12:40:34.
