data_PCOD9309924
_publ_section_title
;
Structure prediction by ZEFSAII (Michael W. Deem and Ramdas Pophale) SiO2 
 PCOD9309924
Probable space group: P 2 2 2
;
_chemical_formula_sum "Si O2"
_cell_formula_units_Z 28
_cell_length_a 9.632876
_cell_length_b 24.619757
_cell_length_c 5.619986
_cell_angle_alpha 90.000000
_cell_angle_beta 90.000000
_cell_angle_gamma 90.000000
_cell_volume 1332.830633
_symmetry_space_group_name_H-M "P 2 2 2"
_symmetry_group_IT_number 16
_symmetry_cell_setting 'orthorhombic'
loop_
_space_group_symop_operation_xyz
x,y,z
-x,-y,z
x,-y,-z
-x,y,-z
loop_
_atom_site_type_symbol
_atom_site_label
_atom_site_fract_x
_atom_site_fract_y
_atom_site_fract_z
Si Si1 0.839650 0.478643 0.750000
Si Si2 0.495241 0.218598 0.250000
Si Si3 0.446021 0.938080 0.750000
Si Si4 0.225689 0.861202 0.750000
Si Si5 0.162416 0.651121 0.750000
Si Si6 0.806446 0.179464 0.250000
Si Si7 0.845793 0.306252 0.250000
O O1 0.778579 0.500000 0.500000
O O2 0.834945 0.413735 0.750000
O O3 0.000000 0.500000 0.750000
O O4 0.778579 0.500000 0.000000
O O5 0.500000 0.249501 0.500000
O O6 0.359163 0.180375 0.250000
O O7 0.637842 0.184052 0.250000
O O8 0.500000 0.249501 0.000000
O O9 0.500000 0.915119 0.500000
O O10 0.285030 0.922441 0.750000
O O11 0.500000 0.000000 0.750000
O O12 0.500000 0.915119 0.000000
O O13 0.154714 0.848702 0.498580
O O14 0.154714 0.848702 0.001420
O O15 0.220275 0.674496 0.500374
O O16 0.000627 0.669045 0.750000
O O17 0.220274 0.674496 0.999626
O O18 0.857223 0.241400 0.250000
#
# Coordination Sequence:
#
# PCOD9309924 Si02
#       7
#     4   4   4   4   4   4   4
#     4  10  16  25  41  60  76 102 143 166 196 249
#     4   8  14  23  36  51  71  96 127 161 192 222
#     4  10  18  27  41  60  82 111 145 167 196 243
#     4  10  17  28  40  57  81 106 141 173 197 237
#     4  10  19  30  42  57  86 113 139 177 207 250
#     4  10  18  26  41  57  74 106 148 177 197 237
#     4  10  18  29  40  56  78 110 147 173 211 241
#
# _framework density 21.007922000000001
#
# number of rings (size 3 to 8) (size 9 to 14) (size 15 to 20)
#    0.000    2.286    0.000    8.571    0.000    0.000 
#    0.000    0.000    0.000    0.000    0.000    0.000 
#    0.000    0.000    0.000    0.000    0.000 2894.286 
#
# Total GULP energy -155935.738366 kJ/mol
# GULP energy per Si atom -5569.133513 kJ/mol
# Density = 2.096011 g / cm^3
# Si number density = 21.007922 Si / 1000 Ang^3
#
#
#
# Elastic Constant Matrix: (Units=GPa)
#
#
# Indices 1 2 3 4 5 6 
#
# 1 52.6802 11.3316 10.4889 0.0000 0.0000 0.0000
# 2 11.3316 130.9667 62.7533 0.0000 0.0000 0.0000
# 3 10.4889 62.7533 298.9327 0.0000 0.0000 0.0000
# 4 0.0000 0.0000 0.0000 51.3084 0.0000 0.0000
# 5 0.0000 0.0000 0.0000 0.0000 -18.7319 0.0000
# 6 0.0000 0.0000 0.0000 0.0000 0.0000 10.1617
#
#
#
# Elastic Compliance Matrix: (Units=1/GPa)
#
#
# Indices 1 2 3 4 5 6 
#
# 1 0.019378 -0.001502 -0.000365 0.000000 0.000000 0.000000
# 2 -0.001502 0.008606 -0.001754 0.000000 0.000000 0.000000
# 3 -0.000365 -0.001754 0.003726 0.000000 0.000000 0.000000
# 4 0.000000 0.000000 0.000000 0.019490 0.000000 0.000000
# 5 0.000000 0.000000 0.000000 0.000000 -0.053385 0.000000
# 6 0.000000 0.000000 0.000000 0.000000 0.000000 0.098409
#
#
# Mechanical properties :
#
#
# Convention : Reuss Voigt Hill
#
# Bulk Modulus (GPa) = 40.86757 72.41415 56.64086
# Shear Modulus (GPa) = 44.79426 35.08136 39.93781
#
# Velocity S-wave (km/s) = 4.62264 4.09089 4.36487
# Velocity P-wave (km/s) = 6.92730 7.54046 7.24037
#
# Compressibility (1/GPa) = 0.02446928
#
# Stress axis : x y z
#
# Youngs Moduli (GPa) = 51.60457 116.19985 268.36902
#
# Poissons Ratio (x) = 0.17452 0.09786
# Poissons Ratio (y) = 0.07751 0.47069
# Poissons Ratio (z) = 0.01882 0.20380
#
# Static dielectric constant tensor:
#      x y z
#    x 1.760730 0.000000 0.000000 
#    y 0.000000 1.823640 0.000000 
#    z 0.000000 0.000000 1.870570 
# 
# From -- ./inp_files/1697.got.cif
#   From: 2010.05.17/outbox.cif.g08.bks.cpg/sg16_1_cif.got.tgz:1697.got - 2010.06.03 22:28:35.
