data_PCOD9309207
_publ_section_title
;
Structure prediction by ZEFSAII (Michael W. Deem and Ramdas Pophale) SiO2 
 PCOD9309207
Probable space group: C 2/C
;
_chemical_formula_sum "Si O2"
_cell_formula_units_Z 18
_cell_length_a 18.000000
_cell_length_b 21.000000
_cell_length_c 9.000000
_cell_angle_alpha 90.000000
_cell_angle_beta 30.000000
_cell_angle_gamma 90.000000
_cell_volume 1701.000000
_symmetry_space_group_name_H-M "C 2/C"
_symmetry_group_IT_number 15
_symmetry_cell_setting 'monoclinic'
loop_
_space_group_symop_operation_xyz
x,y,z
-x,y,1/2-z
-x,-y,-z
x,-y,1/2+z
1/2+x,1/2+y,z
1/2-x,1/2+y,1/2-z
1/2-x,1/2-y,-z
1/2+x,1/2-y,1/2+z
loop_
_atom_site_type_symbol
_atom_site_label
_atom_site_fract_x
_atom_site_fract_y
_atom_site_fract_z
Si Si1 0.934181 0.080785 0.138514
Si Si2 0.578334 0.269853 0.786547
Si Si3 0.234405 0.983170 0.845390
Si Si4 0.793884 0.415092 0.022627
Si Si5 0.000000 0.701963 0.250000
O O1 0.908242 0.153971 0.223071
O O2 0.863218 0.058988 0.102581
O O3 0.862432 0.032088 0.383102
O O4 0.113428 0.080967 0.831036
O O5 0.500000 0.256437 0.750000
O O6 0.750000 0.250000 0.500000
O O7 0.514646 0.240869 0.061924
O O8 0.332868 0.030399 0.574432
O O9 0.327282 0.937875 0.796280
O O10 0.862787 0.347777 0.955251
#
# Coordination Sequence:
#
# PCOD9309207 Si02
#       5
#     8   8   8   8   4
#     4  11  21  40  70 102 134 177 234 301 350 419
#     4  12  29  50  73 105 148 194 243 296 357 430
#     4  10  21  39  71 103 134 174 233 301 359 410
#     4  11  22  41  64 103 136 178 237 289 355 423
#     4  12  30  46  70 102 146 200 238 284 360 436
#
# _framework density 10.582011
#
# number of rings (size 3 to 8) (size 9 to 14) (size 15 to 20)
#    0.000    0.889    0.000    9.333    6.222    2.667 
#    0.000    0.000    0.000    0.000    0.000    0.000 
#    0.000    0.000    0.000    0.000    0.000    0.000 
#
# Total GULP energy -100238.247666 kJ/mol
# GULP energy per Si atom -5568.791537 kJ/mol
# Density = 1.055793 g / cm^3
# Si number density = 10.582011 Si / 1000 Ang^3
#
#
#
# Elastic Constant Matrix: (Units=GPa)
#
#
# Indices 1 2 3 4 5 6 
#
# 1 190.0365 60.9292 39.3192 0.0007 30.9950 -0.0007
# 2 60.9292 137.3780 30.0987 0.0005 0.0774 -0.0007
# 3 39.3192 30.0987 72.0256 0.0004 5.6687 -0.0015
# 4 0.0007 0.0005 0.0004 40.5328 -0.0006 2.5705
# 5 30.9950 0.0774 5.6687 -0.0006 38.6828 0.0007
# 6 -0.0007 -0.0007 -0.0015 2.5705 0.0007 49.1942
#
#
#
# Elastic Compliance Matrix: (Units=1/GPa)
#
#
# Indices 1 2 3 4 5 6 
#
# 1 0.007627 -0.002825 -0.002532 0.000000 -0.005734 0.000000
# 2 -0.002825 0.009068 -0.002452 0.000000 0.002605 0.000000
# 3 -0.002532 -0.002452 0.016319 0.000000 -0.000358 0.000000
# 4 0.000000 0.000000 0.000000 0.024753 0.000001 -0.001293
# 5 -0.005734 0.002605 -0.000358 0.000001 0.030493 -0.000001
# 6 0.000000 0.000000 0.000000 -0.001293 -0.000001 0.020395
#
#
# Mechanical properties :
#
#
# Convention : Reuss Voigt Hill
#
# Bulk Modulus (GPa) = 57.48421 73.34825 65.41623
# Shear Modulus (GPa) = 38.44022 43.62151 41.03087
#
# Velocity S-wave (km/s) = 4.26643 4.54488 4.40785
# Velocity P-wave (km/s) = 7.17567 7.89136 7.54200
#
# Compressibility (1/GPa) = 0.01739608
#
# Stress axis : x y z
#
# Youngs Moduli (GPa) = 131.11403 110.28027 61.27812
#
# Poissons Ratio (x) = 0.31151 0.15515
# Poissons Ratio (y) = 0.37036 0.15027
# Poissons Ratio (z) = 0.33196 0.27044
#
# Static dielectric constant tensor:
#      x y z
#    x 1.849210 0.000000 0.036960 
#    y 0.000000 1.807850 0.000000 
#    z 0.036960 0.000000 1.936310 
# 
# From -- ./inp_files/50533.got.cif
#   From: 2010.05.17/outbox.ucp.g08.bks.cvg/sg15_26_cif.got.tgz:50533.got - 2010.06.11 12:40:34.
