data_PCOD9309790
_publ_section_title
;
Structure prediction by ZEFSAII (Michael W. Deem and Ramdas Pophale) SiO2 
 PCOD9309790
Probable space group: C 2/C
;
_chemical_formula_sum "Si O2"
_cell_formula_units_Z 30
_cell_length_a 12.000000
_cell_length_b 15.000000
_cell_length_c 18.000000
_cell_angle_alpha 90.000000
_cell_angle_beta 110.000000
_cell_angle_gamma 90.000000
_cell_volume 3044.604091
_symmetry_space_group_name_H-M "C 2/C"
_symmetry_group_IT_number 15
_symmetry_cell_setting 'monoclinic'
loop_
_space_group_symop_operation_xyz
x,y,z
-x,y,1/2-z
-x,-y,-z
x,-y,1/2+z
1/2+x,1/2+y,z
1/2-x,1/2+y,1/2-z
1/2-x,1/2-y,-z
1/2+x,1/2-y,1/2+z
loop_
_atom_site_type_symbol
_atom_site_label
_atom_site_fract_x
_atom_site_fract_y
_atom_site_fract_z
Si Si1 0.612664 0.372632 0.330319
Si Si2 0.366605 0.370582 0.821638
Si Si3 0.796323 0.490892 0.793344
Si Si4 0.795363 0.304595 0.582263
Si Si5 0.047392 0.475520 0.928499
Si Si6 0.193245 0.403717 0.355719
Si Si7 0.000000 0.734835 0.750000
Si Si8 0.040517 0.044722 0.585250
O O1 0.500000 0.379448 0.250000
O O2 0.717253 0.436815 0.321906
O O3 0.648611 0.270049 0.350059
O O4 0.565765 0.402471 0.400408
O O5 0.273135 0.398771 0.736230
O O6 0.305232 0.346114 0.886278
O O7 0.448132 0.294693 0.805127
O O8 0.434590 0.462717 0.853048
O O9 0.816133 0.528214 0.715166
O O10 0.925057 0.475765 0.855475
O O11 0.750000 0.250000 0.500000
O O12 0.882018 0.382731 0.570899
O O13 0.134297 0.551696 0.914762
O O14 0.000000 0.500000 0.000000
O O15 0.109386 0.322947 0.308892
O O16 0.337323 0.397901 0.396745
O O17 0.000000 0.000000 0.500000
#
# Coordination Sequence:
#
# PCOD9309790 Si02
#       8
#     8   8   8   8   8   8   4   8
#     4  12  24  41  71 104 134 176 234 282 333 412
#     4  11  24  43  70  98 139 180 227 284 345 406
#     4  11  22  45  70 100 132 179 231 274 345 417
#     4  12  27  43  67 104 138 176 230 290 340 399
#     4  12  26  44  71  99 137 181 226 283 349 412
#     4  11  23  43  69  97 132 185 222 279 346 402
#     4  12  24  42  70 102 138 170 236 290 340 408
#     4  11  24  46  69  96 143 186 224 273 353 417
#
# _framework density 9.8534980000000001
#
# number of rings (size 3 to 8) (size 9 to 14) (size 15 to 20)
#    0.000    0.533    6.667    3.200    5.600    0.000 
#    0.000    0.667    0.000    0.000    0.000    0.000 
#    0.000    0.000    0.000    0.000    0.000    0.000 
#
# Total GULP energy -167468.363021 kJ/mol
# GULP energy per Si atom -5582.278767 kJ/mol
# Density = 0.983107 g / cm^3
# Si number density = 9.853498 Si / 1000 Ang^3
#
#
#
# Elastic Constant Matrix: (Units=GPa)
#
#
# Indices 1 2 3 4 5 6 
#
# 1 111.2199 41.3624 15.7864 0.0000 -24.1629 0.0000
# 2 41.3624 87.8388 -3.3944 0.0000 -11.2158 0.0000
# 3 15.7864 -3.3944 54.9110 0.0000 -17.2626 0.0000
# 4 0.0000 0.0000 0.0000 34.6767 0.0000 -1.5308
# 5 -24.1629 -11.2158 -17.2626 0.0000 38.8911 0.0000
# 6 0.0000 0.0000 0.0000 -1.5308 0.0000 48.2137
#
#
#
# Elastic Compliance Matrix: (Units=1/GPa)
#
#
# Indices 1 2 3 4 5 6 
#
# 1 0.012394 -0.005262 -0.002260 0.000000 0.005180 0.000000
# 2 -0.005262 0.014265 0.003092 0.000000 0.002217 0.000000
# 3 -0.002260 0.003092 0.021955 0.000000 0.009232 0.000000
# 4 0.000000 0.000000 0.000000 0.028878 0.000000 0.000917
# 5 0.005180 0.002217 0.009232 0.000000 0.033668 0.000000
# 6 0.000000 0.000000 0.000000 0.000917 0.000000 0.020770
#
#
# Mechanical properties :
#
#
# Convention : Reuss Voigt Hill
#
# Bulk Modulus (GPa) = 25.15598 40.16425 32.66012
# Shear Modulus (GPa) = 32.45845 37.70400 35.08122
#
# Velocity S-wave (km/s) = 4.06279 4.37879 4.22375
# Velocity P-wave (km/s) = 5.89924 6.78160 6.35575
#
# Compressibility (1/GPa) = 0.03975197
#
# Stress axis : x y z
#
# Youngs Moduli (GPa) = 80.68175 70.10178 45.54860
#
# Poissons Ratio (x) = 0.36890 0.10295
# Poissons Ratio (y) = 0.42457 -0.14082
# Poissons Ratio (z) = 0.18236 -0.21672
#
# Static dielectric constant tensor:
#      x y z
#    x 1.712030 0.000000 0.036060 
#    y 0.000000 1.708750 0.000000 
#    z 0.036060 0.000000 1.742170 
# 
# From -- ./inp_files/197832.got.cif
#   From: 2010.05.17/outbox.ucp.g08.bks.cvg/sg15_99_cif.got.tgz:197832.got - 2010.06.11 12:40:34.
