data_PCOD9309969
_publ_section_title
;
Structure prediction by ZEFSAII (Michael W. Deem and Ramdas Pophale) SiO2 
 PCOD9309969
Probable space group: P 2 2 2
;
_chemical_formula_sum "Si O2"
_cell_formula_units_Z 32
_cell_length_a 14.206943
_cell_length_b 16.098029
_cell_length_c 7.808105
_cell_angle_alpha 90.000000
_cell_angle_beta 90.000000
_cell_angle_gamma 90.000000
_cell_volume 1785.743131
_symmetry_space_group_name_H-M "P 2 2 2"
_symmetry_group_IT_number 16
_symmetry_cell_setting 'orthorhombic'
loop_
_space_group_symop_operation_xyz
x,y,z
-x,-y,z
x,-y,-z
-x,y,-z
loop_
_atom_site_type_symbol
_atom_site_label
_atom_site_fract_x
_atom_site_fract_y
_atom_site_fract_z
Si Si1 0.284431 0.341168 0.259262
Si Si2 0.614021 0.821163 0.694240
Si Si3 0.932526 0.597535 0.665802
Si Si4 0.112440 0.439284 0.158769
Si Si5 0.732322 0.335514 0.325436
Si Si6 0.607591 0.999204 0.204111
Si Si7 0.608439 0.494640 0.291746
Si Si8 0.398132 0.182288 0.285246
O O1 0.184352 0.364214 0.179035
O O2 0.275840 0.337981 0.466576
O O3 0.344136 0.423063 0.219369
O O4 0.337257 0.257056 0.208408
O O5 0.684612 0.748045 0.745599
O O6 0.650082 0.914289 0.731678
O O7 0.601664 0.809675 0.490616
O O8 0.508065 0.814057 0.771877
O O9 0.884870 0.505395 0.681717
O O10 0.844321 0.656644 0.699049
O O11 0.000000 0.612805 0.500000
O O12 0.007700 0.595929 0.819191
O O13 0.132113 0.500000 0.000000
O O14 0.670629 0.412946 0.254282
O O15 0.500000 0.000000 0.273664
O O16 0.644810 0.908625 0.251638
O O17 0.604425 0.000000 0.000000
O O18 0.500000 0.500000 0.237392
O O19 0.608230 0.500000 0.500000
#
# Coordination Sequence:
#
# PCOD9309969 Si02
#       8
#     4   4   4   4   4   4   4   4
#     4  10  18  30  47  71 102 131 166 206 251 299
#     4   9  17  30  50  76 105 130 167 212 250 304
#     4  11  20  33  55  72  94 130 169 218 258 296
#     4  11  22  34  49  71  98 133 172 214 257 298
#     4  10  18  29  49  77  99 129 170 207 255 298
#     4   9  17  31  50  72  99 135 170 204 250 299
#     4   9  16  25  42  68  99 131 164 200 239 288
#     4   9  17  30  50  75 103 135 168 208 253 297
#
# _framework density 17.919711
#
# number of rings (size 3 to 8) (size 9 to 14) (size 15 to 20)
#    0.000    2.250    2.500    2.625    0.000    4.500 
#    2.250    0.000    0.000    0.375    0.000    0.875 
#    0.000    1.000    0.000    0.000    0.000    0.000 
#
# Total GULP energy -178204.442834 kJ/mol
# GULP energy per Si atom -5568.888839 kJ/mol
# Density = 1.787893 g / cm^3
# Si number density = 17.919711 Si / 1000 Ang^3
#
#
#
# Elastic Constant Matrix: (Units=GPa)
#
#
# Indices 1 2 3 4 5 6 
#
# 1 106.6501 77.3026 12.5735 0.0000 0.0000 0.0000
# 2 77.3026 166.4954 14.2831 0.0000 0.0000 0.0000
# 3 12.5735 14.2831 48.3166 0.0000 0.0000 0.0000
# 4 0.0000 0.0000 0.0000 8.1615 0.0000 0.0000
# 5 0.0000 0.0000 0.0000 0.0000 6.1581 0.0000
# 6 0.0000 0.0000 0.0000 0.0000 0.0000 10.6372
#
#
#
# Elastic Compliance Matrix: (Units=1/GPa)
#
#
# Indices 1 2 3 4 5 6 
#
# 1 0.014284 -0.006477 -0.001802 0.000000 0.000000 0.000000
# 2 -0.006477 0.009100 -0.001004 0.000000 0.000000 0.000000
# 3 -0.001802 -0.001004 0.021463 0.000000 0.000000 0.000000
# 4 0.000000 0.000000 0.000000 0.122527 0.000000 0.000000
# 5 0.000000 0.000000 0.000000 0.000000 0.162387 0.000000
# 6 0.000000 0.000000 0.000000 0.000000 0.000000 0.094010
#
#
# Mechanical properties :
#
#
# Convention : Reuss Voigt Hill
#
# Bulk Modulus (GPa) = 38.05426 58.86449 48.45937
# Shear Modulus (GPa) = 11.08409 19.47823 15.28116
#
# Velocity S-wave (km/s) = 2.48975 3.30050 2.92337
# Velocity P-wave (km/s) = 5.43573 6.88802 6.20451
#
# Compressibility (1/GPa) = 0.02627827
#
# Stress axis : x y z
#
# Youngs Moduli (GPa) = 70.00931 109.89403 46.59232
#
# Poissons Ratio (x) = 0.71181 0.08397
# Poissons Ratio (y) = 0.45347 0.04680
# Poissons Ratio (z) = 0.12618 0.11038
#
# Static dielectric constant tensor:
#      x y z
#    x 1.671700 0.000000 0.000000 
#    y 0.000000 1.630060 0.000000 
#    z 0.000000 0.000000 1.696810 
# 
# From -- ./inp_files/5271.got.cif
#   From: 2010.05.17/outbox.cif.g08.bks.cpg/sg16_3_cif.got.tgz:5271.got - 2010.06.03 22:28:35.
