data_PCOD9309570
_publ_section_title
;
Structure prediction by ZEFSAII (Michael W. Deem and Ramdas Pophale) SiO2 
 PCOD9309570
Probable space group: C 2/C
;
_chemical_formula_sum "Si O2"
_cell_formula_units_Z 22
_cell_length_a 9.000000
_cell_length_b 15.000000
_cell_length_c 18.000000
_cell_angle_alpha 90.000000
_cell_angle_beta 120.000000
_cell_angle_gamma 90.000000
_cell_volume 2104.441731
_symmetry_space_group_name_H-M "C 2/C"
_symmetry_group_IT_number 15
_symmetry_cell_setting 'monoclinic'
loop_
_space_group_symop_operation_xyz
x,y,z
-x,y,1/2-z
-x,-y,-z
x,-y,1/2+z
1/2+x,1/2+y,z
1/2-x,1/2+y,1/2-z
1/2-x,1/2-y,-z
1/2+x,1/2-y,1/2+z
loop_
_atom_site_type_symbol
_atom_site_label
_atom_site_fract_x
_atom_site_fract_y
_atom_site_fract_z
Si Si1 0.380739 0.450895 0.377115
Si Si2 0.000000 0.136852 0.750000
Si Si3 0.182335 0.256389 0.100975
Si Si4 0.100874 0.873542 0.961786
Si Si5 0.406566 0.092047 0.152759
Si Si6 0.046771 0.400040 0.534528
O O1 0.426452 0.414924 0.305684
O O2 0.390748 0.376101 0.445239
O O3 0.518763 0.529818 0.423885
O O4 0.200212 0.502934 0.350707
O O5 0.166245 0.193772 0.817161
O O6 0.272721 0.167110 0.092512
O O7 0.018467 0.206983 0.097553
O O8 0.098220 0.330188 0.027271
O O9 0.281388 0.871406 0.964959
O O10 0.500000 0.122536 0.250000
O O11 0.547810 0.090007 0.123644
O O12 0.000000 0.500000 0.500000
#
# Coordination Sequence:
#
# PCOD9309570 Si02
#       6
#     8   4   8   8   8   8
#     4  10  24  42  71  97 137 178 233 284 347 412
#     4  12  26  42  70 102 138 194 232 294 352 400
#     4  11  26  45  69 101 142 183 232 283 349 420
#     4  10  23  46  69 104 132 183 231 289 344 421
#     4  11  25  45  68 104 139 178 228 288 350 412
#     4  12  24  44  75 102 134 185 232 283 351 416
#
# _framework density 10.454079
#
# number of rings (size 3 to 8) (size 9 to 14) (size 15 to 20)
#    0.000    1.091    2.727    2.182   12.727    0.000 
#    0.000    1.818    0.000    0.000    0.000    0.000 
#    0.000    0.000    0.000    0.000    0.000    0.000 
#
# Total GULP energy -122603.270622 kJ/mol
# GULP energy per Si atom -5572.875937 kJ/mol
# Density = 1.043028 g / cm^3
# Si number density = 10.454079 Si / 1000 Ang^3
#
#
#
# Elastic Constant Matrix: (Units=GPa)
#
#
# Indices 1 2 3 4 5 6 
#
# 1 158.5363 44.8221 89.8956 0.0000 -17.3176 0.0000
# 2 44.8221 92.3311 42.3327 0.0000 -4.2174 0.0000
# 3 89.8956 42.3327 104.3369 0.0000 -20.2068 0.0000
# 4 0.0000 0.0000 0.0000 29.0497 0.0000 12.4489
# 5 -17.3176 -4.2174 -20.2068 0.0000 42.9907 0.0000
# 6 0.0000 0.0000 0.0000 12.4489 0.0000 9.8733
#
#
#
# Elastic Compliance Matrix: (Units=1/GPa)
#
#
# Indices 1 2 3 4 5 6 
#
# 1 0.012476 -0.001392 -0.010163 0.000000 0.000112 0.000000
# 2 -0.001392 0.013533 -0.004558 0.000000 -0.001375 0.000000
# 3 -0.010163 -0.004558 0.021244 0.000000 0.005444 0.000000
# 4 0.000000 0.000000 0.000000 0.074888 0.000000 -0.094423
# 5 0.000112 -0.001375 0.005444 0.000000 0.025730 0.000000
# 6 0.000000 0.000000 0.000000 -0.094423 0.000000 0.220338
#
#
# Mechanical properties :
#
#
# Convention : Reuss Voigt Hill
#
# Bulk Modulus (GPa) = 66.54152 78.81169 72.67660
# Shear Modulus (GPa) = 12.33213 28.25967 20.29590
#
# Velocity S-wave (km/s) = 2.43126 3.68041 3.11901
# Velocity P-wave (km/s) = 6.30683 7.47239 6.91422
#
# Compressibility (1/GPa) = 0.01502821
#
# Stress axis : x y z
#
# Youngs Moduli (GPa) = 80.15253 73.89210 47.07133
#
# Poissons Ratio (x) = 0.10285 0.47838
# Poissons Ratio (y) = 0.11156 0.21455
# Poissons Ratio (z) = 0.81458 0.33680
#
# Static dielectric constant tensor:
#      x y z
#    x 1.923770 0.000000 -0.022830 
#    y 0.000000 1.768550 0.000000 
#    z -0.022830 0.000000 1.789220 
# 
# From -- ./inp_files/189163.got.cif
#   From: 2010.05.17/outbox.ucp.g08.bks.cvg/sg15_95_cif.got.tgz:189163.got - 2010.06.11 12:40:34.
