data_PCOD9309934
_publ_section_title
;
Structure prediction by ZEFSAII (Michael W. Deem and Ramdas Pophale) SiO2 
 PCOD9309934
Probable space group: P 2 2 2
;
_chemical_formula_sum "Si O2"
_cell_formula_units_Z 25
_cell_length_a 5.585114
_cell_length_b 9.055326
_cell_length_c 24.671007
_cell_angle_alpha 90.000000
_cell_angle_beta 90.000000
_cell_angle_gamma 90.000000
_cell_volume 1247.736870
_symmetry_space_group_name_H-M "P 2 2 2"
_symmetry_group_IT_number 16
_symmetry_cell_setting 'orthorhombic'
loop_
_space_group_symop_operation_xyz
x,y,z
-x,-y,z
x,-y,-z
-x,y,-z
loop_
_atom_site_type_symbol
_atom_site_label
_atom_site_fract_x
_atom_site_fract_y
_atom_site_fract_z
Si Si1 0.836553 0.246941 0.846269
Si Si2 0.749137 0.829681 0.521746
Si Si3 0.208392 0.756774 0.242180
Si Si4 0.249377 0.092942 0.646367
Si Si5 0.500000 0.500000 0.000000
Si Si6 0.500000 0.500000 0.812434
Si Si7 0.500000 0.000000 0.175489
Si Si8 0.112975 0.335834 0.945475
O O1 0.670994 0.391982 0.846594
O O2 0.947561 0.238485 0.785843
O O3 0.048432 0.258488 0.889859
O O4 0.678859 0.103555 0.857481
O O5 0.500000 0.762832 0.500000
O O6 0.743615 0.837842 0.586523
O O7 0.000000 0.764536 0.500000
O O8 0.749291 0.000000 0.500000
O O9 0.224611 0.788912 0.305445
O O10 0.333511 0.605672 0.223769
O O11 0.350766 0.889535 0.213173
O O12 0.500000 0.000000 0.653031
O O13 0.000000 0.000000 0.649286
O O14 0.377942 0.382105 0.959816
O O15 0.000000 0.500000 0.942302
O O16 0.000000 0.265190 0.000000
#
# Coordination Sequence:
#
# PCOD9309934 Si02
#       8
#     4   4   4   4   1   2   2   4
#     4  11  22  40  62  88 122 159 200 254 304 370
#     4  10  16  30  48  79 120 156 196 250 316 370
#     4  11  23  38  58  86 121 163 202 248 306 371
#     4  12  21  33  57  87 126 163 202 256 317 383
#     4   8  18  34  56  94 124 142 188 248 306 360
#     4  10  24  41  60  85 123 160 207 248 316 356
#     4  10  22  38  58  85 121 156 198 236 304 362
#     4   9  19  34  58  91 118 148 195 244 300 353
#
# _framework density 20.036275
#
# number of rings (size 3 to 8) (size 9 to 14) (size 15 to 20)
#    0.000    1.760    4.000    2.880    2.240    8.320 
#    0.000    0.000    0.000    2.880    0.000    8.400 
#    0.000    0.000    0.000    0.000    0.000    0.000 
#
# Total GULP energy -139451.045511 kJ/mol
# GULP energy per Si atom -5578.041820 kJ/mol
# Density = 1.999067 g / cm^3
# Si number density = 20.036275 Si / 1000 Ang^3
#
#
#
# Elastic Constant Matrix: (Units=GPa)
#
#
# Indices 1 2 3 4 5 6 
#
# 1 128.4202 33.6240 44.5098 0.0000 0.0000 0.0000
# 2 33.6240 76.7357 31.7328 0.0000 0.0000 0.0000
# 3 44.5098 31.7328 153.9157 0.0000 0.0000 0.0000
# 4 0.0000 0.0000 0.0000 3.1673 0.0000 0.0000
# 5 0.0000 0.0000 0.0000 0.0000 32.3182 0.0000
# 6 0.0000 0.0000 0.0000 0.0000 0.0000 19.6642
#
#
#
# Elastic Compliance Matrix: (Units=1/GPa)
#
#
# Indices 1 2 3 4 5 6 
#
# 1 0.009343 -0.003254 -0.002031 0.000000 0.000000 0.000000
# 2 -0.003254 0.015380 -0.002230 0.000000 0.000000 0.000000
# 3 -0.002031 -0.002230 0.007544 0.000000 0.000000 0.000000
# 4 0.000000 0.000000 0.000000 0.315727 0.000000 0.000000
# 5 0.000000 0.000000 0.000000 0.000000 0.030942 0.000000
# 6 0.000000 0.000000 0.000000 0.000000 0.000000 0.050854
#
#
# Mechanical properties :
#
#
# Convention : Reuss Voigt Hill
#
# Bulk Modulus (GPa) = 58.01424 64.31165 61.16295
# Shear Modulus (GPa) = 11.09719 27.64360 19.37039
#
# Velocity S-wave (km/s) = 2.35596 3.71843 3.11266
# Velocity P-wave (km/s) = 6.03475 7.11357 6.59625
#
# Compressibility (1/GPa) = 0.01723715
#
# Stress axis : x y z
#
# Youngs Moduli (GPa) = 107.03400 65.02080 132.55407
#
# Poissons Ratio (x) = 0.21158 0.26921
# Poissons Ratio (y) = 0.34829 0.29557
# Poissons Ratio (z) = 0.21738 0.14499
#
# Static dielectric constant tensor:
#      x y z
#    x 2.091220 0.000000 0.000000 
#    y 0.000000 1.671890 0.000000 
#    z 0.000000 0.000000 1.717410 
# 
# From -- ./inp_files/9495.got.cif
#   From: 2010.05.17/outbox.cif.g08.bks.cpg/sg16_5_cif.got.tgz:9495.got - 2010.06.03 22:28:35.
