data_PCOD9309240
_publ_section_title
;
Structure prediction by ZEFSAII (Michael W. Deem and Ramdas Pophale) SiO2 
 PCOD9309240
Probable space group: C 2/C
;
_chemical_formula_sum "Si O2"
_cell_formula_units_Z 24
_cell_length_a 30.000000
_cell_length_b 15.000000
_cell_length_c 30.000000
_cell_angle_alpha 90.000000
_cell_angle_beta 170.000000
_cell_angle_gamma 90.000000
_cell_volume 2344.250399
_symmetry_space_group_name_H-M "C 2/C"
_symmetry_group_IT_number 15
_symmetry_cell_setting 'monoclinic'
loop_
_space_group_symop_operation_xyz
x,y,z
-x,y,1/2-z
-x,-y,-z
x,-y,1/2+z
1/2+x,1/2+y,z
1/2-x,1/2+y,1/2-z
1/2-x,1/2-y,-z
1/2+x,1/2-y,1/2+z
loop_
_atom_site_type_symbol
_atom_site_label
_atom_site_fract_x
_atom_site_fract_y
_atom_site_fract_z
Si Si1 0.041351 0.701860 0.611396
Si Si2 0.689515 0.199803 0.617204
Si Si3 0.735727 0.993963 0.515297
Si Si4 0.747930 0.058895 0.750852
Si Si5 0.222414 0.809076 0.401202
Si Si6 0.432284 0.195743 0.609914
O O1 0.181195 0.616209 0.729002
O O2 0.755938 0.722181 0.311869
O O3 0.992133 0.695731 0.615742
O O4 0.388197 0.221066 0.324894
O O5 0.764459 0.123400 0.724834
O O6 0.746074 0.180814 0.621221
O O7 0.650240 0.904766 0.458179
O O8 0.000000 0.972915 0.750000
O O9 0.778367 0.089864 0.581300
O O10 0.500000 0.009740 0.250000
O O11 0.500000 0.000000 0.500000
O O12 0.000000 0.000000 0.000000
O O13 0.461829 0.747635 0.653089
O O14 0.197445 0.263121 0.390208
#
# Coordination Sequence:
#
# PCOD9309240 Si02
#       6
#     8   8   8   8   8   8
#     4  10  21  41  63  85 123 169 208 251 309 370
#     4  10  21  41  63  85 123 169 208 251 309 370
#     4  12  26  42  66  99 128 167 210 270 332 388
#     4  12  24  36  58  98 126 162 206 260 308 362
#     4  10  23  43  66  94 127 170 212 261 319 382
#     4  10  23  43  66  94 127 170 212 261 319 382
#
# _framework density 10.237814
#
# number of rings (size 3 to 8) (size 9 to 14) (size 15 to 20)
#    0.000    1.333    0.000    5.000    2.333    4.000 
#    3.000    0.000    0.000    0.000    0.000    0.000 
#    0.000    0.000    0.000    0.000    0.000    0.000 
#
# Total GULP energy -134018.568511 kJ/mol
# GULP energy per Si atom -5584.107021 kJ/mol
# Density = 1.021451 g / cm^3
# Si number density = 10.237814 Si / 1000 Ang^3
#
#
#
# Elastic Constant Matrix: (Units=GPa)
#
#
# Indices 1 2 3 4 5 6 
#
# 1 58.4256 49.8675 49.5491 0.6741 14.2914 -2.3901
# 2 49.8675 126.7920 44.6433 0.3685 17.0257 -0.2664
# 3 49.5491 44.6433 152.8890 -0.4719 23.1583 1.3781
# 4 0.6741 0.3685 -0.4719 33.2855 0.2092 59.4868
# 5 14.2914 17.0257 23.1583 0.2092 26.3797 -0.8476
# 6 -2.3901 -0.2664 1.3781 59.4868 -0.8476 -153.8519
#
#
#
# Elastic Compliance Matrix: (Units=1/GPa)
#
#
# Indices 1 2 3 4 5 6 
#
# 1 0.032466 -0.009625 -0.006898 0.000186 -0.005337 -0.000448
# 2 -0.009625 0.012015 -0.000007 -0.000105 -0.002530 0.000102
# 3 -0.006898 -0.000007 0.009468 -0.000050 -0.004563 0.000198
# 4 0.000186 -0.000105 -0.000050 0.017768 0.000091 0.006866
# 5 -0.005337 -0.002530 -0.004563 0.000091 0.046431 -0.000174
# 6 -0.000448 0.000102 0.000198 0.006866 -0.000174 -0.003835
#
#
# Mechanical properties :
#
#
# Convention : Reuss Voigt Hill
#
# Bulk Modulus (GPa) = 47.87425 69.58071 58.72748
# Shear Modulus (GPa) = 32.39679 -5.90088 13.24796
#
# Velocity S-wave (km/s) = 3.98202 -1.69946 2.54640
# Velocity P-wave (km/s) = 6.67636 5.49592 6.11469
#
# Compressibility (1/GPa) = 0.02088806
#
# Stress axis : x y z
#
# Youngs Moduli (GPa) = 30.80138 83.22801 105.62298
#
# Poissons Ratio (x) = 0.80106 0.72862
# Poissons Ratio (y) = 0.29646 0.00075
# Poissons Ratio (z) = 0.21248 0.00059
#
# Static dielectric constant tensor:
#      x y z
#    x 1.714020 -0.000240 -0.032880 
#    y -0.000240 1.730270 -0.000110 
#    z -0.032880 -0.000110 1.715470 
# 
# From -- ./inp_files/320361.got.cif
#   From: 2010.05.17/outbox.ucp.g08.bks.cvg/sg15_161_cif.got.tgz:320361.got - 2010.06.11 12:40:34.
