data_PCOD9309470
_publ_section_title
;
Structure prediction by ZEFSAII (Michael W. Deem and Ramdas Pophale) SiO2 
 PCOD9309470
Probable space group: C 2/C
;
_chemical_formula_sum "Si O2"
_cell_formula_units_Z 28
_cell_length_a 21.000000
_cell_length_b 9.000000
_cell_length_c 30.000000
_cell_angle_alpha 90.000000
_cell_angle_beta 30.000000
_cell_angle_gamma 90.000000
_cell_volume 2835.000000
_symmetry_space_group_name_H-M "C 2/C"
_symmetry_group_IT_number 15
_symmetry_cell_setting 'monoclinic'
loop_
_space_group_symop_operation_xyz
x,y,z
-x,y,1/2-z
-x,-y,-z
x,-y,1/2+z
1/2+x,1/2+y,z
1/2-x,1/2+y,1/2-z
1/2-x,1/2-y,-z
1/2+x,1/2-y,1/2+z
loop_
_atom_site_type_symbol
_atom_site_label
_atom_site_fract_x
_atom_site_fract_y
_atom_site_fract_z
Si Si1 0.347748 0.380578 0.843643
Si Si2 0.540916 0.077116 0.377425
Si Si3 0.045686 0.929197 0.387768
Si Si4 0.746544 0.405520 0.827224
Si Si5 0.749700 0.444755 0.184605
Si Si6 0.206344 0.420092 0.012010
Si Si7 0.266526 0.551936 0.571228
O O1 0.500000 0.358396 0.750000
O O2 0.293569 0.471119 0.834161
O O3 0.275567 0.220619 0.890648
O O4 0.313708 0.462693 0.910852
O O5 0.512427 0.251675 0.406438
O O6 0.632228 0.074270 0.278590
O O7 0.627332 0.016547 0.365782
O O8 0.422608 0.968818 0.436158
O O9 0.132064 0.956427 0.291266
O O10 0.916441 0.024980 0.469920
O O11 0.135867 0.988527 0.373442
O O12 0.718625 0.229144 0.842384
O O13 0.768356 0.454315 0.864718
O O14 0.200974 0.493368 0.064120
O O15 0.250000 0.250000 0.000000
#
# Coordination Sequence:
#
# PCOD9309470 Si02
#       7
#     8   8   8   8   8   8   8
#     4  11  25  45  67 100 130 181 231 277 344 401
#     4  10  23  44  69  98 136 178 229 274 344 402
#     4  10  22  44  66 103 137 173 226 279 343 404
#     4  10  23  40  70 102 131 180 218 283 340 401
#     4  10  23  44  71  99 135 178 222 285 333 409
#     4  10  25  42  66  98 129 182 222 278 328 403
#     4  11  24  42  67  96 136 177 220 283 332 407
#
# _framework density 9.8765429999999999
#
# number of rings (size 3 to 8) (size 9 to 14) (size 15 to 20)
#    0.000    1.714    0.000    2.143   10.000    2.286 
#    5.143    0.000    0.000    0.000    0.000    0.000 
#    0.000    0.000    0.000    0.000    0.000    0.000 
#
# Total GULP energy -156201.869074 kJ/mol
# GULP energy per Si atom -5578.638181 kJ/mol
# Density = 0.985406 g / cm^3
# Si number density = 9.876543 Si / 1000 Ang^3
#
#
#
# Elastic Constant Matrix: (Units=GPa)
#
#
# Indices 1 2 3 4 5 6 
#
# 1 155.4209 59.7742 56.9544 0.0005 14.8665 -0.0031
# 2 59.7742 105.3801 41.5961 0.0014 -4.8799 -0.0078
# 3 56.9544 41.5961 77.8668 -0.0002 -6.0916 -0.0026
# 4 0.0005 0.0014 -0.0002 36.2483 0.0006 -4.2624
# 5 14.8665 -4.8799 -6.0916 0.0006 49.2688 -0.0017
# 6 -0.0031 -0.0078 -0.0026 -4.2624 -0.0017 36.6095
#
#
#
# Elastic Compliance Matrix: (Units=1/GPa)
#
#
# Indices 1 2 3 4 5 6 
#
# 1 0.010495 -0.003788 -0.005988 0.000000 -0.004282 -0.000001
# 2 -0.003788 0.013400 -0.004235 0.000000 0.001946 0.000002
# 3 -0.005988 -0.004235 0.019785 0.000000 0.003833 0.000000
# 4 0.000000 0.000000 0.000000 0.027970 0.000000 0.003257
# 5 -0.004282 0.001946 0.003833 0.000000 0.022256 0.000001
# 6 -0.000001 0.000002 0.000000 0.003257 0.000001 0.027694
#
#
# Mechanical properties :
#
#
# Convention : Reuss Voigt Hill
#
# Bulk Modulus (GPa) = 63.86797 72.81301 68.34049
# Shear Modulus (GPa) = 32.29123 36.44821 34.36972
#
# Velocity S-wave (km/s) = 4.04758 4.30023 4.17582
# Velocity P-wave (km/s) = 7.36527 7.84841 7.61068
#
# Compressibility (1/GPa) = 0.01565730
#
# Stress axis : x y z
#
# Youngs Moduli (GPa) = 95.28615 74.62762 50.54426
#
# Poissons Ratio (x) = 0.28266 0.30265
# Poissons Ratio (y) = 0.36091 0.21408
# Poissons Ratio (z) = 0.57056 0.31608
#
# Static dielectric constant tensor:
#      x y z
#    x 1.703760 0.000000 0.010990 
#    y 0.000000 1.710540 0.000000 
#    z 0.010990 0.000000 1.709690 
# 
# From -- ./inp_files/317483.got.cif
#   From: 2010.05.17/outbox.ucp.g08.bks.cvg/sg15_159_cif.got.tgz:317483.got - 2010.06.11 12:40:34.
