data_PCOD9309713
_publ_section_title
;
Structure prediction by ZEFSAII (Michael W. Deem and Ramdas Pophale) SiO2 
 PCOD9309713
Probable space group: C 2/C
;
_chemical_formula_sum "Si O2"
_cell_formula_units_Z 28
_cell_length_a 18.000000
_cell_length_b 9.000000
_cell_length_c 18.000000
_cell_angle_alpha 90.000000
_cell_angle_beta 70.000000
_cell_angle_gamma 90.000000
_cell_volume 2740.143682
_symmetry_space_group_name_H-M "C 2/C"
_symmetry_group_IT_number 15
_symmetry_cell_setting 'monoclinic'
loop_
_space_group_symop_operation_xyz
x,y,z
-x,y,1/2-z
-x,-y,-z
x,-y,1/2+z
1/2+x,1/2+y,z
1/2-x,1/2+y,1/2-z
1/2-x,1/2-y,-z
1/2+x,1/2-y,1/2+z
loop_
_atom_site_type_symbol
_atom_site_label
_atom_site_fract_x
_atom_site_fract_y
_atom_site_fract_z
Si Si1 0.293273 0.657384 0.382073
Si Si2 0.804852 0.370149 0.021878
Si Si3 0.683718 0.794543 0.786074
Si Si4 0.598067 0.072247 0.619241
Si Si5 0.580535 0.051765 0.800440
Si Si6 0.840622 0.185490 0.155248
Si Si7 0.914294 0.980264 0.238723
O O1 0.247570 0.514491 0.433739
O O2 0.229342 0.732230 0.348043
O O3 0.340380 0.788875 0.409558
O O4 0.364351 0.583183 0.311197
O O5 0.841430 0.268528 0.075812
O O6 0.750000 0.250000 0.000000
O O7 0.869488 0.441278 0.944095
O O8 0.751539 0.864707 0.708412
O O9 0.639940 0.663447 0.757364
O O10 0.612662 0.906160 0.828799
O O11 0.589309 0.026093 0.709147
O O12 0.504446 0.103912 0.639282
O O13 0.643350 0.177114 0.796309
O O14 0.905675 0.065202 0.161085
O O15 0.000000 0.957457 0.250000
#
# Coordination Sequence:
#
# PCOD9309713 Si02
#       7
#     8   8   8   8   8   8   8
#     4  11  23  44  66  99 131 185 232 278 347 417
#     4  12  26  43  69 101 144 182 232 291 359 421
#     4  11  21  38  69  96 132 169 240 279 331 409
#     4  11  25  41  70  97 140 180 228 294 351 414
#     4  11  22  42  69 101 129 182 237 286 342 413
#     4  11  21  43  66  97 133 183 230 282 344 416
#     4  11  23  38  69 101 135 175 231 298 340 400
#
# _framework density 10.218442
#
# number of rings (size 3 to 8) (size 9 to 14) (size 15 to 20)
#    0.000    0.857    5.714    3.000    4.000    0.571 
#    0.000    0.000    0.000    2.571    0.000    0.000 
#    0.000    0.000    0.000    0.000    0.000    0.000 
#
# Total GULP energy -155870.203745 kJ/mol
# GULP energy per Si atom -5566.792991 kJ/mol
# Density = 1.019518 g / cm^3
# Si number density = 10.218442 Si / 1000 Ang^3
#
#
#
# Elastic Constant Matrix: (Units=GPa)
#
#
# Indices 1 2 3 4 5 6 
#
# 1 124.6040 49.2568 33.5037 0.0000 19.9819 0.0000
# 2 49.2568 64.9103 6.5732 0.0000 8.2675 0.0000
# 3 33.5037 6.5732 68.1053 0.0000 -2.7164 0.0000
# 4 0.0000 0.0000 0.0000 12.2325 0.0000 -4.6176
# 5 19.9819 8.2675 -2.7164 0.0000 14.6529 0.0000
# 6 0.0000 0.0000 0.0000 -4.6176 0.0000 28.4135
#
#
#
# Elastic Compliance Matrix: (Units=1/GPa)
#
#
# Indices 1 2 3 4 5 6 
#
# 1 0.017266 -0.009764 -0.008332 0.000000 -0.019580 0.000000
# 2 -0.009764 0.022393 0.002689 0.000000 0.001179 0.000000
# 3 -0.008332 0.002689 0.019056 0.000000 0.013378 0.000000
# 4 0.000000 0.000000 0.000000 0.087092 0.000000 0.014154
# 5 -0.019580 0.001179 0.013378 0.000000 0.096761 0.000000
# 6 0.000000 0.000000 0.000000 0.014154 0.000000 0.037495
#
#
# Mechanical properties :
#
#
# Convention : Reuss Voigt Hill
#
# Bulk Modulus (GPa) = 35.84219 48.47636 42.15927
# Shear Modulus (GPa) = 15.61632 22.27885 18.94759
#
# Velocity S-wave (km/s) = 2.76728 3.30529 3.04818
# Velocity P-wave (km/s) = 5.27129 6.19178 5.74998
#
# Compressibility (1/GPa) = 0.02790008
#
# Stress axis : x y z
#
# Youngs Moduli (GPa) = 57.91859 44.65708 52.47665
#
# Poissons Ratio (x) = 0.43604 0.43725
# Poissons Ratio (y) = 0.56553 -0.14112
# Poissons Ratio (z) = 0.48259 -0.12009
#
# Static dielectric constant tensor:
#      x y z
#    x 1.802700 0.000000 0.056520 
#    y 0.000000 1.820600 0.000000 
#    z 0.056520 0.000000 1.778580 
# 
# From -- ./inp_files/209499.got.cif
#   From: 2010.05.17/outbox.ucp.g08.bks.cvg/sg15_105_cif.got.tgz:209499.got - 2010.06.11 12:40:34.
