data_PCOD9309659
_publ_section_title
;
Structure prediction by ZEFSAII (Michael W. Deem and Ramdas Pophale) SiO2 
 PCOD9309659
Probable space group: C 2/C
;
_chemical_formula_sum "Si O2"
_cell_formula_units_Z 28
_cell_length_a 21.000000
_cell_length_b 18.000000
_cell_length_c 21.000000
_cell_angle_alpha 90.000000
_cell_angle_beta 160.000000
_cell_angle_gamma 90.000000
_cell_volume 2714.955898
_symmetry_space_group_name_H-M "C 2/C"
_symmetry_group_IT_number 15
_symmetry_cell_setting 'monoclinic'
loop_
_space_group_symop_operation_xyz
x,y,z
-x,y,1/2-z
-x,-y,-z
x,-y,1/2+z
1/2+x,1/2+y,z
1/2-x,1/2+y,1/2-z
1/2-x,1/2-y,-z
1/2+x,1/2-y,1/2+z
loop_
_atom_site_type_symbol
_atom_site_label
_atom_site_fract_x
_atom_site_fract_y
_atom_site_fract_z
Si Si1 0.686532 0.659720 0.564886
Si Si2 0.172720 0.803809 0.374758
Si Si3 0.899251 0.418014 0.508273
Si Si4 0.730277 0.191893 0.313438
Si Si5 0.144411 0.187337 0.330407
Si Si6 0.541283 0.064743 0.858703
Si Si7 0.143195 0.838728 0.171449
O O1 0.756925 0.742736 0.610968
O O2 0.496343 0.646156 0.348848
O O3 0.637755 0.648362 0.592179
O O4 0.854471 0.606087 0.704632
O O5 0.250000 0.750000 0.500000
O O6 0.305313 0.868037 0.475092
O O7 0.155587 0.744287 0.300848
O O8 0.000000 0.838832 0.250000
O O9 0.911534 0.501109 0.545644
O O10 0.770207 0.399030 0.326494
O O11 0.095301 0.377615 0.678599
O O12 0.727231 0.255111 0.256374
O O13 0.940911 0.163761 0.514613
O O14 0.298470 0.127824 0.497099
O O15 0.000000 0.213787 0.250000
O O16 0.500000 0.031476 0.750000
#
# Coordination Sequence:
#
# PCOD9309659 Si02
#       7
#     8   8   8   8   8   8   8
#     4  12  25  44  78 104 131 180 229 292 355 415
#     4  11  19  35  62  94 128 181 238 273 326 396
#     4  11  26  43  65  99 148 184 225 291 344 405
#     4  11  21  40  65  99 140 178 232 289 329 400
#     4  12  24  45  75 107 136 171 232 297 353 422
#     4  12  28  48  68 105 145 181 229 291 361 411
#     4  11  23  43  69 104 137 182 241 278 333 421
#
# _framework density 10.313243
#
# number of rings (size 3 to 8) (size 9 to 14) (size 15 to 20)
#    0.000    0.571    7.143    2.571    2.000    3.429 
#    0.000    1.429    0.000    0.000    0.000    0.000 
#    0.000    0.000    0.000    0.000    0.000    0.000 
#
# Total GULP energy -156233.110797 kJ/mol
# GULP energy per Si atom -5579.753957 kJ/mol
# Density = 1.028977 g / cm^3
# Si number density = 10.313243 Si / 1000 Ang^3
#
#
#
# Elastic Constant Matrix: (Units=GPa)
#
#
# Indices 1 2 3 4 5 6 
#
# 1 93.6431 11.5318 39.5136 0.0067 -19.6592 -0.0223
# 2 11.5318 65.8117 18.6421 0.0279 -7.2201 0.1046
# 3 39.5136 18.6421 110.0005 0.0182 -5.9111 0.0405
# 4 0.0067 0.0279 0.0182 31.0236 0.0173 -17.2029
# 5 -19.6592 -7.2201 -5.9111 0.0173 13.9167 -0.0230
# 6 -0.0223 0.1046 0.0405 -17.2029 -0.0230 71.5008
#
#
#
# Elastic Compliance Matrix: (Units=1/GPa)
#
#
# Indices 1 2 3 4 5 6 
#
# 1 0.017647 0.000939 -0.005252 -0.000007 0.023185 0.000013
# 2 0.000939 0.016770 -0.002702 -0.000034 0.008879 -0.000028
# 3 -0.005252 -0.002702 0.011218 -0.000004 -0.004057 -0.000006
# 4 -0.000007 -0.000034 -0.000004 0.037196 -0.000062 0.008949
# 5 0.023185 0.008879 -0.004057 -0.000062 0.107492 0.000016
# 6 0.000013 -0.000028 -0.000006 0.008949 0.000016 0.016139
#
#
# Mechanical properties :
#
#
# Convention : Reuss Voigt Hill
#
# Bulk Modulus (GPa) = 31.64192 45.42559 38.53376
# Shear Modulus (GPa) = 21.64252 36.60606 29.12429
#
# Velocity S-wave (km/s) = 3.24274 4.21730 3.76172
# Velocity P-wave (km/s) = 5.42164 6.76646 6.13103
#
# Compressibility (1/GPa) = 0.03160364
#
# Stress axis : x y z
#
# Youngs Moduli (GPa) = 56.66731 59.63051 89.14635
#
# Poissons Ratio (x) = -0.05600 0.46822
# Poissons Ratio (y) = -0.05322 0.24090
# Poissons Ratio (z) = 0.29763 0.16114
#
# Static dielectric constant tensor:
#      x y z
#    x 1.626940 -0.000010 -0.058370 
#    y -0.000010 1.667390 -0.000030 
#    z -0.058370 -0.000030 1.747830 
# 
# From -- ./inp_files/253376.got.cif
#   From: 2010.05.17/outbox.ucp.g08.bks.cvg/sg15_127_cif.got.tgz:253376.got - 2010.06.11 12:40:34.
