data_PCOD9309129
_publ_section_title
;
Structure prediction by ZEFSAII (Michael W. Deem and Ramdas Pophale) SiO2 
 PCOD9309129
Probable space group: C 2/C
;
_chemical_formula_sum "Si O2"
_cell_formula_units_Z 32
_cell_length_a 21.000000
_cell_length_b 18.000000
_cell_length_c 24.000000
_cell_angle_alpha 90.000000
_cell_angle_beta 160.000000
_cell_angle_gamma 90.000000
_cell_volume 3102.806740
_symmetry_space_group_name_H-M "C 2/C"
_symmetry_group_IT_number 15
_symmetry_cell_setting 'monoclinic'
loop_
_space_group_symop_operation_xyz
x,y,z
-x,y,1/2-z
-x,-y,-z
x,-y,1/2+z
1/2+x,1/2+y,z
1/2-x,1/2+y,1/2-z
1/2-x,1/2-y,-z
1/2+x,1/2-y,1/2+z
loop_
_atom_site_type_symbol
_atom_site_label
_atom_site_fract_x
_atom_site_fract_y
_atom_site_fract_z
Si Si1 0.346496 0.862490 0.020702
Si Si2 0.344462 0.576514 0.032722
Si Si3 0.770324 0.774236 0.779170
Si Si4 0.932417 0.582438 0.384927
Si Si5 0.426661 0.368920 0.404811
Si Si6 0.176459 0.458958 0.281414
Si Si7 0.058654 0.779810 0.703447
Si Si8 0.684577 0.490141 0.268529
O O1 0.244493 0.916063 0.980078
O O2 0.202344 0.817746 0.864016
O O3 0.493577 0.914328 0.110152
O O4 0.473423 0.798134 0.152860
O O5 0.393695 0.661666 0.059434
O O6 0.539624 0.532270 0.189016
O O7 0.207178 0.546374 0.872389
O O8 0.595554 0.830035 0.637421
O O9 0.711682 0.689439 0.739298
O O10 0.848752 0.771478 0.780680
O O11 0.914617 0.815808 0.938866
O O12 0.848037 0.541629 0.261323
O O13 0.797304 0.548869 0.322353
O O14 0.145080 0.556880 0.566216
O O15 0.341657 0.413361 0.387718
O O16 0.444004 0.435801 0.374923
#
# Coordination Sequence:
#
# PCOD9309129 Si02
#       8
#     8   8   8   8   8   8   8   8
#     4  12  26  39  57  81 121 168 209 247 287 344
#     4  12  23  40  55  78 115 157 206 249 292 345
#     4  12  21  37  59  88 119 160 192 250 304 363
#     4  10  21  36  61  82 112 147 198 251 312 357
#     4  11  22  35  59  83 119 150 199 243 305 357
#     4  11  22  38  57  84 112 158 203 249 294 353
#     4  12  23  39  54  81 118 163 207 241 285 349
#     4  10  21  38  58  83 108 152 200 252 300 358
#
# _framework density 10.313243
#
# number of rings (size 3 to 8) (size 9 to 14) (size 15 to 20)
#    0.000    0.750    3.750    4.875    3.500    3.000 
#    0.000    0.000    0.000    0.000    0.000    0.875 
#    0.000    2.000    0.000    0.375    0.000    0.250 
#
# Total GULP energy -178840.466810 kJ/mol
# GULP energy per Si atom -5588.764588 kJ/mol
# Density = 1.028977 g / cm^3
# Si number density = 10.313243 Si / 1000 Ang^3
#
#
#
# Elastic Constant Matrix: (Units=GPa)
#
#
# Indices 1 2 3 4 5 6 
#
# 1 16.0694 21.6216 28.1050 -0.0255 0.6313 0.0203
# 2 21.6216 81.9891 13.0496 -0.0254 -0.0619 0.0061
# 3 28.1050 13.0496 98.4168 -0.0383 -9.3026 0.0065
# 4 -0.0255 -0.0254 -0.0383 39.9233 -0.0044 1.0070
# 5 0.6313 -0.0619 -9.3026 -0.0044 22.9081 0.0017
# 6 0.0203 0.0061 0.0065 1.0070 0.0017 20.9500
#
#
#
# Elastic Compliance Matrix: (Units=1/GPa)
#
#
# Indices 1 2 3 4 5 6 
#
# 1 0.274930 -0.060748 -0.074031 0.000067 -0.037803 -0.000226
# 2 -0.060748 0.025892 0.014642 -0.000009 0.007690 0.000047
# 3 -0.074031 0.014642 0.030737 -0.000008 0.014561 0.000057
# 4 0.000067 -0.000009 -0.000008 0.025078 0.000000 -0.001205
# 5 -0.037803 0.007690 0.014561 0.000000 0.050628 0.000026
# 6 -0.000226 0.000047 0.000057 -0.001205 0.000026 0.047791
#
#
# Mechanical properties :
#
#
# Convention : Reuss Voigt Hill
#
# Bulk Modulus (GPa) = 10.95470 35.78088 23.36779
# Shear Modulus (GPa) = 6.88933 25.66956 16.27944
#
# Velocity S-wave (km/s) = 1.82956 3.53157 2.81241
# Velocity P-wave (km/s) = 3.12819 5.83215 4.67972
#
# Compressibility (1/GPa) = 0.09128500
#
# Stress axis : x y z
#
# Youngs Moduli (GPa) = 3.63729 38.62155 32.53426
#
# Poissons Ratio (x) = 2.34620 2.40853
# Poissons Ratio (y) = 0.22096 -0.47636
# Poissons Ratio (z) = 0.26927 -0.56548
#
# Static dielectric constant tensor:
#      x y z
#    x 1.792590 0.000000 -0.018010 
#    y 0.000000 1.727000 -0.000020 
#    z -0.018010 -0.000020 1.853850 
# 
# From -- ./inp_files/280512.got.cif
#   From: 2010.05.17/outbox.ucp.g08.bks.cvg/sg15_141_cif.got.tgz:280512.got - 2010.06.11 12:40:34.
