data_PCOD9309215
_publ_section_title
;
Structure prediction by ZEFSAII (Michael W. Deem and Ramdas Pophale) SiO2 
 PCOD9309215
Probable space group: C 2/C
;
_chemical_formula_sum "Si O2"
_cell_formula_units_Z 30
_cell_length_a 27.000000
_cell_length_b 24.000000
_cell_length_c 9.000000
_cell_angle_alpha 90.000000
_cell_angle_beta 30.000000
_cell_angle_gamma 90.000000
_cell_volume 2916.000000
_symmetry_space_group_name_H-M "C 2/C"
_symmetry_group_IT_number 15
_symmetry_cell_setting 'monoclinic'
loop_
_space_group_symop_operation_xyz
x,y,z
-x,y,1/2-z
-x,-y,-z
x,-y,1/2+z
1/2+x,1/2+y,z
1/2-x,1/2+y,1/2-z
1/2-x,1/2-y,-z
1/2+x,1/2-y,1/2+z
loop_
_atom_site_type_symbol
_atom_site_label
_atom_site_fract_x
_atom_site_fract_y
_atom_site_fract_z
Si Si1 0.750187 0.934799 0.290670
Si Si2 0.276928 0.391823 0.546343
Si Si3 0.667081 0.265000 0.097942
Si Si4 0.074183 0.975468 0.189557
Si Si5 0.092513 0.468672 0.126414
Si Si6 0.342451 0.835358 0.099210
Si Si7 0.456192 0.137768 0.594081
Si Si8 0.500000 0.215837 0.750000
O O1 0.765844 0.898734 0.398633
O O2 0.738483 0.885080 0.200964
O O3 0.654917 0.976471 0.514224
O O4 0.843568 0.976681 0.053881
O O5 0.305463 0.328604 0.512259
O O6 0.364478 0.426285 0.395570
O O7 0.177050 0.425586 0.849081
O O8 0.567553 0.252148 0.458080
O O9 0.750000 0.250000 0.000000
O O10 0.678107 0.224367 0.925172
O O11 0.000000 0.959033 0.250000
O O12 0.000000 0.000000 0.500000
O O13 0.054869 0.429030 0.357817
O O14 0.000000 0.476176 0.250000
O O15 0.382357 0.836279 0.163646
O O16 0.434085 0.854819 0.757001
O O17 0.447037 0.172820 0.771547
#
# Coordination Sequence:
#
# PCOD9309215 Si02
#       8
#     8   8   8   8   8   8   8   4
#     4  11  24  39  65  99 129 171 220 261 341 391
#     4  11  24  43  67  97 129 175 222 270 335 399
#     4  11  22  43  67  91 131 170 219 275 328 391
#     4  11  24  45  68  90 128 170 220 283 325 380
#     4  11  24  38  66  96 138 173 215 267 329 407
#     4  10  23  40  64  95 136 167 215 272 319 396
#     4  10  21  40  63  95 133 176 212 260 330 392
#     4  10  22  42  66  92 126 178 222 268 326 390
#
# _framework density 10.288066000000001
#
# number of rings (size 3 to 8) (size 9 to 14) (size 15 to 20)
#    0.000    1.333    3.333    1.600    5.600    2.133 
#    4.800    2.667    0.000    0.000    0.000    0.000 
#    0.000    0.000    0.000    0.000    0.000    0.000 
#
# Total GULP energy -167087.425427 kJ/mol
# GULP energy per Si atom -5569.580848 kJ/mol
# Density = 1.026465 g / cm^3
# Si number density = 10.288066 Si / 1000 Ang^3
#
#
#
# Elastic Constant Matrix: (Units=GPa)
#
#
# Indices 1 2 3 4 5 6 
#
# 1 162.8621 59.3036 19.5180 0.0000 -17.2981 0.0000
# 2 59.3036 153.8871 12.4439 0.0000 -12.9060 0.0000
# 3 19.5180 12.4439 34.6711 0.0000 -22.1164 0.0000
# 4 0.0000 0.0000 0.0000 25.4873 0.0000 -6.7759
# 5 -17.2981 -12.9060 -22.1164 0.0000 35.4569 0.0000
# 6 0.0000 0.0000 0.0000 -6.7759 0.0000 41.4475
#
#
#
# Elastic Compliance Matrix: (Units=1/GPa)
#
#
# Indices 1 2 3 4 5 6 
#
# 1 0.007512 -0.002593 -0.002595 0.000000 0.001102 0.000000
# 2 -0.002593 0.007640 -0.000524 0.000000 0.001189 0.000000
# 3 -0.002595 -0.000524 0.049098 0.000000 0.029168 0.000000
# 4 0.000000 0.000000 0.000000 0.041018 0.000000 0.006706
# 5 0.001102 0.001189 0.029168 0.000000 0.047368 0.000000
# 6 0.000000 0.000000 0.000000 0.006706 0.000000 0.025223
#
#
# Mechanical properties :
#
#
# Convention : Reuss Voigt Hill
#
# Bulk Modulus (GPa) = 18.93012 59.32793 39.12902
# Shear Modulus (GPa) = 24.16736 37.82200 30.99468
#
# Velocity S-wave (km/s) = 3.43086 4.29202 3.88537
# Velocity P-wave (km/s) = 4.99144 7.31149 6.25988
#
# Compressibility (1/GPa) = 0.05282587
#
# Stress axis : x y z
#
# Youngs Moduli (GPa) = 133.11351 130.89836 20.36759
#
# Poissons Ratio (x) = 0.33938 0.05286
# Poissons Ratio (y) = 0.34513 0.01067
# Poissons Ratio (z) = 0.34546 0.06857
#
# Static dielectric constant tensor:
#      x y z
#    x 1.688380 0.000000 0.046110 
#    y 0.000000 1.759570 0.000000 
#    z 0.046110 0.000000 1.873770 
# 
# From -- ./inp_files/42180.got.cif
#   From: 2010.05.17/outbox.ucp.g08.bks.cvg/sg15_22_cif.got.tgz:42180.got - 2010.06.11 12:40:34.
