data_PCOD9309917
_publ_section_title
;
Structure prediction by ZEFSAII (Michael W. Deem and Ramdas Pophale) SiO2 
 PCOD9309917
Probable space group: C 2/C
;
_chemical_formula_sum "Si O2"
_cell_formula_units_Z 22
_cell_length_a 15.000000
_cell_length_b 12.000000
_cell_length_c 12.000000
_cell_angle_alpha 90.000000
_cell_angle_beta 100.000000
_cell_angle_gamma 90.000000
_cell_volume 2127.184747
_symmetry_space_group_name_H-M "C 2/C"
_symmetry_group_IT_number 15
_symmetry_cell_setting 'monoclinic'
loop_
_space_group_symop_operation_xyz
x,y,z
-x,y,1/2-z
-x,-y,-z
x,-y,1/2+z
1/2+x,1/2+y,z
1/2-x,1/2+y,1/2-z
1/2-x,1/2-y,-z
1/2+x,1/2-y,1/2+z
loop_
_atom_site_type_symbol
_atom_site_label
_atom_site_fract_x
_atom_site_fract_y
_atom_site_fract_z
Si Si1 0.202139 0.268963 0.609972
Si Si2 0.906318 0.544125 0.529802
Si Si3 0.500000 0.828942 0.250000
Si Si4 0.268489 0.380290 0.009424
Si Si5 0.634681 0.353829 0.696884
Si Si6 0.898003 0.900770 0.250794
O O1 0.250000 0.250000 0.500000
O O2 0.129145 0.362480 0.563427
O O3 0.278970 0.314502 0.710813
O O4 0.150801 0.165378 0.657706
O O5 0.934380 0.598341 0.655506
O O6 0.823316 0.454631 0.517722
O O7 0.000000 0.500000 0.500000
O O8 0.436879 0.747688 0.311812
O O9 0.327607 0.395537 0.132921
O O10 0.250000 0.250000 0.000000
O O11 0.330648 0.394300 0.915214
O O12 0.592407 0.467327 0.731868
O O13 0.000000 0.854926 0.250000
#
# Coordination Sequence:
#
# PCOD9309917 Si02
#       6
#     8   8   4   8   8   8
#     4  12  26  49  75 105 152 205 249 308 386 456
#     4  12  29  46  77 110 150 198 255 311 382 456
#     4  12  28  48  72 114 152 202 254 318 380 460
#     4  12  27  48  75 110 152 199 253 321 382 456
#     4  12  26  47  74 105 156 197 253 314 386 448
#     4  12  29  47  77 114 150 200 260 316 383 459
#
# _framework density 10.342307999999999
#
# number of rings (size 3 to 8) (size 9 to 14) (size 15 to 20)
#    0.000    0.000    6.364    2.182    7.636    0.727 
#    0.000    0.000    0.000    0.000    0.000    0.000 
#    0.000    0.000    0.000    0.000    0.000    0.000 
#
# Total GULP energy -122906.638481 kJ/mol
# GULP energy per Si atom -5586.665385 kJ/mol
# Density = 1.031877 g / cm^3
# Si number density = 10.342308 Si / 1000 Ang^3
#
#
#
# Elastic Constant Matrix: (Units=GPa)
#
#
# Indices 1 2 3 4 5 6 
#
# 1 162.3822 70.2298 56.5294 0.0000 3.4599 0.0000
# 2 70.2298 135.1082 49.3289 0.0000 6.3671 0.0000
# 3 56.5294 49.3289 108.4394 0.0000 4.3369 0.0000
# 4 0.0000 0.0000 0.0000 28.2466 0.0000 -1.0555
# 5 3.4599 6.3671 4.3369 0.0000 34.1471 0.0000
# 6 0.0000 0.0000 0.0000 -1.0555 0.0000 51.2328
#
#
#
# Elastic Compliance Matrix: (Units=1/GPa)
#
#
# Indices 1 2 3 4 5 6 
#
# 1 0.008672 -0.003432 -0.002965 0.000000 0.000138 0.000000
# 2 -0.003432 0.010278 -0.002838 0.000000 -0.001208 0.000000
# 3 -0.002965 -0.002838 0.012087 0.000000 -0.000705 0.000000
# 4 0.000000 0.000000 0.000000 0.035430 0.000000 0.000730
# 5 0.000138 -0.001208 -0.000705 0.000000 0.029586 0.000000
# 6 0.000000 0.000000 0.000000 0.000730 0.000000 0.019534
#
#
# Mechanical properties :
#
#
# Convention : Reuss Voigt Hill
#
# Bulk Modulus (GPa) = 79.57412 84.23398 81.90405
# Shear Modulus (GPa) = 36.16748 38.04809 37.10778
#
# Velocity S-wave (km/s) = 4.18607 4.29352 4.24013
# Velocity P-wave (km/s) = 7.86879 8.08644 7.97836
#
# Compressibility (1/GPa) = 0.01256690
#
# Stress axis : x y z
#
# Youngs Moduli (GPa) = 115.31743 97.29062 82.73435
#
# Poissons Ratio (x) = 0.33385 0.24531
# Poissons Ratio (y) = 0.39571 0.23484
# Poissons Ratio (z) = 0.34193 0.27616
#
# Static dielectric constant tensor:
#      x y z
#    x 1.708470 0.000000 0.009010 
#    y 0.000000 1.711160 0.000000 
#    z 0.009010 0.000000 1.693240 
# 
# From -- ./inp_files/95058.got.cif
#   From: 2010.05.17/outbox.ucp.g08.bks.cvg/sg15_48_cif.got.tgz:95058.got - 2010.06.11 12:40:34.
