data_PCOD9309394
_publ_section_title
;
Structure prediction by ZEFSAII (Michael W. Deem and Ramdas Pophale) SiO2 
 PCOD9309394
Probable space group: C 2/C
;
_chemical_formula_sum "Si O2"
_cell_formula_units_Z 32
_cell_length_a 18.000000
_cell_length_b 21.000000
_cell_length_c 9.000000
_cell_angle_alpha 90.000000
_cell_angle_beta 90.000000
_cell_angle_gamma 90.000000
_cell_volume 3402.000000
_symmetry_space_group_name_H-M "C 2/C"
_symmetry_group_IT_number 15
_symmetry_cell_setting 'monoclinic'
loop_
_space_group_symop_operation_xyz
x,y,z
-x,y,1/2-z
-x,-y,-z
x,-y,1/2+z
1/2+x,1/2+y,z
1/2-x,1/2+y,1/2-z
1/2-x,1/2-y,-z
1/2+x,1/2-y,1/2+z
loop_
_atom_site_type_symbol
_atom_site_label
_atom_site_fract_x
_atom_site_fract_y
_atom_site_fract_z
Si Si1 0.618350 0.499889 0.536372
Si Si2 0.032285 0.761218 0.482129
Si Si3 0.265376 0.653803 0.847959
Si Si4 0.218567 0.988674 0.286473
Si Si5 0.190074 0.756060 0.638090
Si Si6 0.233457 0.631749 0.193884
Si Si7 0.390253 0.237156 0.330197
Si Si8 0.507131 0.402667 0.927442
O O1 0.696990 0.486611 0.459174
O O2 0.638506 0.500048 0.708757
O O3 0.558477 0.445932 0.504518
O O4 0.583231 0.566596 0.486495
O O5 0.103911 0.747964 0.588406
O O6 0.069013 0.755929 0.321169
O O7 0.952559 0.725282 0.458373
O O8 0.005464 0.831595 0.521379
O O9 0.263080 0.583621 0.767908
O O10 0.210249 0.700994 0.757204
O O11 0.337441 0.701182 0.857849
O O12 0.248505 0.638501 0.018608
O O13 0.264068 0.055770 0.265985
O O14 0.250000 0.750000 0.500000
O O15 0.206833 0.825735 0.711825
O O16 0.157943 0.673879 0.207175
O O17 0.500000 0.406247 0.750000
#
# Coordination Sequence:
#
# PCOD9309394 Si02
#       8
#     8   8   8   8   8   8   8   8
#     4  11  23  37  53  86 124 167 202 248 290 376
#     4  11  22  37  63  90 117 166 203 251 307 371
#     4  11  23  41  63  92 127 164 205 265 310 366
#     4  12  23  38  63  87 119 165 216 249 312 364
#     4  11  22  39  64  93 120 159 214 258 301 373
#     4  11  24  41  61  91 129 163 203 267 312 358
#     4  10  22  41  61  90 127 161 205 253 318 368
#     4  11  23  36  52  82 131 164 200 239 302 367
#
# _framework density 9.4062319999999993
#
# number of rings (size 3 to 8) (size 9 to 14) (size 15 to 20)
#    0.000    1.000    5.000    3.750    1.750    2.000 
#    0.000    0.000    0.000    0.750    0.000    0.000 
#    0.000    0.000    0.000    0.000    0.000    0.000 
#
# Total GULP energy -178228.430835 kJ/mol
# GULP energy per Si atom -5569.638464 kJ/mol
# Density = 0.938482 g / cm^3
# Si number density = 9.406232 Si / 1000 Ang^3
#
#
#
# Elastic Constant Matrix: (Units=GPa)
#
#
# Indices 1 2 3 4 5 6 
#
# 1 88.7544 27.8271 31.6745 0.0000 34.5694 0.0000
# 2 27.8271 102.3879 32.0085 0.0000 2.0005 0.0000
# 3 31.6745 32.0085 65.3728 0.0000 2.2253 0.0000
# 4 0.0000 0.0000 0.0000 31.3649 0.0000 -6.9395
# 5 34.5694 2.0005 2.2253 0.0000 31.2566 0.0000
# 6 0.0000 0.0000 0.0000 -6.9395 0.0000 1.9521
#
#
#
# Elastic Compliance Matrix: (Units=1/GPa)
#
#
# Indices 1 2 3 4 5 6 
#
# 1 0.027815 -0.003639 -0.010682 0.000000 -0.029770 0.000000
# 2 -0.003639 0.012011 -0.004239 0.000000 0.003557 0.000000
# 3 -0.010682 -0.004239 0.022191 0.000000 0.010506 0.000000
# 4 0.000000 0.000000 0.000000 0.149345 0.000000 0.530897
# 5 -0.029770 0.003557 0.010506 0.000000 0.063943 0.000000
# 6 0.000000 0.000000 0.000000 0.530897 0.000000 2.399513
#
#
# Mechanical properties :
#
#
# Convention : Reuss Voigt Hill
#
# Bulk Modulus (GPa) = 40.16485 48.83726 44.50105
# Shear Modulus (GPa) = 1.83807 23.91505 12.87656
#
# Velocity S-wave (km/s) = 0.98953 3.56931 2.61908
# Velocity P-wave (km/s) = 4.76467 6.55767 5.73171
#
# Compressibility (1/GPa) = 0.02489739
#
# Stress axis : x y z
#
# Youngs Moduli (GPa) = 35.95119 83.25379 45.06382
#
# Poissons Ratio (x) = 0.30293 0.48138
# Poissons Ratio (y) = 0.13081 0.19104
# Poissons Ratio (z) = 0.38404 0.35294
#
# Static dielectric constant tensor:
#      x y z
#    x 1.708780 0.000000 0.005620 
#    y 0.000000 1.652780 0.000000 
#    z 0.005620 0.000000 1.676140 
# 
# From -- ./inp_files/50258.got.cif
#   From: 2010.05.17/outbox.ucp.g08.bks.cvg/sg15_26_cif.got.tgz:50258.got - 2010.06.11 12:40:34.
