data_PCOD9309320
_publ_section_title
;
Structure prediction by ZEFSAII (Michael W. Deem and Ramdas Pophale) SiO2 
 PCOD9309320
Probable space group: C 2/C
;
_chemical_formula_sum "Si O2"
_cell_formula_units_Z 30
_cell_length_a 15.000000
_cell_length_b 18.000000
_cell_length_c 12.000000
_cell_angle_alpha 90.000000
_cell_angle_beta 110.000000
_cell_angle_gamma 90.000000
_cell_volume 3044.604091
_symmetry_space_group_name_H-M "C 2/C"
_symmetry_group_IT_number 15
_symmetry_cell_setting 'monoclinic'
loop_
_space_group_symop_operation_xyz
x,y,z
-x,y,1/2-z
-x,-y,-z
x,-y,1/2+z
1/2+x,1/2+y,z
1/2-x,1/2+y,1/2-z
1/2-x,1/2-y,-z
1/2+x,1/2-y,1/2+z
loop_
_atom_site_type_symbol
_atom_site_label
_atom_site_fract_x
_atom_site_fract_y
_atom_site_fract_z
Si Si1 0.476962 0.239608 0.441162
Si Si2 0.401919 0.107106 0.258245
Si Si3 0.423424 0.313271 0.627534
Si Si4 0.319690 0.570738 0.587536
Si Si5 0.216416 0.924840 0.824821
Si Si6 0.824594 0.313554 0.502503
Si Si7 0.562528 0.434977 0.578415
Si Si8 0.000000 0.856126 0.250000
O O1 0.439793 0.169221 0.358564
O O2 0.411765 0.257710 0.519074
O O3 0.585096 0.220331 0.521395
O O4 0.486182 0.304481 0.352603
O O5 0.500000 0.068549 0.250000
O O6 0.313381 0.073845 0.292811
O O7 0.358455 0.148456 0.132128
O O8 0.500000 0.283126 0.750000
O O9 0.329078 0.348171 0.644344
O O10 0.485513 0.377946 0.593844
O O11 0.283829 0.486591 0.578459
O O12 0.233056 0.623044 0.584865
O O13 0.363288 0.590370 0.485122
O O14 0.408481 0.592922 0.700793
O O15 0.132001 0.952775 0.708778
O O16 0.750000 0.250000 0.500000
O O17 0.500000 0.500000 0.500000
#
# Coordination Sequence:
#
# PCOD9309320 Si02
#       8
#     8   8   8   8   8   8   8   4
#     4  11  21  39  63  88 120 160 213 255 301 357
#     4  10  22  42  63  87 119 169 216 255 298 369
#     4  10  22  36  58  90 126 161 194 252 325 379
#     4  12  22  34  61  92 122 158 204 253 306 373
#     4  11  24  37  59  91 123 169 197 247 333 365
#     4  11  19  37  62  89 115 162 210 258 300 356
#     4  11  19  35  55  85 129 154 191 245 314 384
#     4  12  20  34  60  98 122 146 202 274 300 356
#
# _framework density 9.8534980000000001
#
# number of rings (size 3 to 8) (size 9 to 14) (size 15 to 20)
#    0.000    1.067    7.333    0.800    2.800    0.533 
#    0.000    2.667    2.933    0.000    0.000    0.000 
#    0.000    0.000    0.000    0.000    0.000    0.000 
#
# Total GULP energy -167036.545560 kJ/mol
# GULP energy per Si atom -5567.884852 kJ/mol
# Density = 0.983107 g / cm^3
# Si number density = 9.853498 Si / 1000 Ang^3
#
#
#
# Elastic Constant Matrix: (Units=GPa)
#
#
# Indices 1 2 3 4 5 6 
#
# 1 102.0949 10.7766 22.6197 0.0000 -3.4493 0.0000
# 2 10.7766 26.9762 10.1925 0.0000 3.6558 0.0000
# 3 22.6197 10.1925 50.9900 0.0000 -6.1840 0.0000
# 4 0.0000 0.0000 0.0000 39.8622 0.0000 8.6763
# 5 -3.4493 3.6558 -6.1840 0.0000 35.0456 0.0000
# 6 0.0000 0.0000 0.0000 8.6763 0.0000 29.7703
#
#
#
# Elastic Compliance Matrix: (Units=1/GPa)
#
#
# Indices 1 2 3 4 5 6 
#
# 1 0.011064 -0.002901 -0.004251 0.000000 0.000642 0.000000
# 2 -0.002901 0.042013 -0.007845 0.000000 -0.006052 0.000000
# 3 -0.004251 -0.007845 0.023619 0.000000 0.004568 0.000000
# 4 0.000000 0.000000 0.000000 0.026786 0.000000 -0.007806
# 5 0.000642 -0.006052 0.004568 0.000000 0.030035 0.000000
# 6 0.000000 0.000000 0.000000 -0.007806 0.000000 0.035866
#
#
# Mechanical properties :
#
#
# Convention : Reuss Voigt Hill
#
# Bulk Modulus (GPa) = 21.41171 29.69316 25.55243
# Shear Modulus (GPa) = 23.26184 30.03376 26.64780
#
# Velocity S-wave (km/s) = 3.43940 3.90810 3.68122
# Velocity P-wave (km/s) = 5.16345 5.95519 5.57340
#
# Compressibility (1/GPa) = 0.04670342
#
# Stress axis : x y z
#
# Youngs Moduli (GPa) = 90.37959 23.80213 42.33793
#
# Poissons Ratio (x) = 0.06905 0.17996
# Poissons Ratio (y) = 0.26219 0.33215
# Poissons Ratio (z) = 0.38417 0.18673
#
# Static dielectric constant tensor:
#      x y z
#    x 1.712970 0.000000 -0.001480 
#    y 0.000000 1.778760 0.000000 
#    z -0.001480 0.000000 1.745980 
# 
# From -- ./inp_files/98818.got.cif
#   From: 2010.05.17/outbox.ucp.g08.bks.cvg/sg15_50_cif.got.tgz:98818.got - 2010.06.11 12:40:34.
