data_PCOD9309826
_publ_section_title
;
Structure prediction by ZEFSAII (Michael W. Deem and Ramdas Pophale) SiO2 
 PCOD9309826
Probable space group: C 2/C
;
_chemical_formula_sum "Si O2"
_cell_formula_units_Z 28
_cell_length_a 18.000000
_cell_length_b 9.000000
_cell_length_c 18.000000
_cell_angle_alpha 90.000000
_cell_angle_beta 70.000000
_cell_angle_gamma 90.000000
_cell_volume 2740.143682
_symmetry_space_group_name_H-M "C 2/C"
_symmetry_group_IT_number 15
_symmetry_cell_setting 'monoclinic'
loop_
_space_group_symop_operation_xyz
x,y,z
-x,y,1/2-z
-x,-y,-z
x,-y,1/2+z
1/2+x,1/2+y,z
1/2-x,1/2+y,1/2-z
1/2-x,1/2-y,-z
1/2+x,1/2-y,1/2+z
loop_
_atom_site_type_symbol
_atom_site_label
_atom_site_fract_x
_atom_site_fract_y
_atom_site_fract_z
Si Si1 0.953964 0.929234 0.446274
Si Si2 0.499876 0.680947 0.336569
Si Si3 0.816182 0.219808 0.178391
Si Si4 0.992455 0.595924 0.079433
Si Si5 0.223776 0.902441 0.968917
Si Si6 0.378513 0.064003 0.870584
Si Si7 0.828980 0.464507 0.717186
O O1 0.860231 0.956185 0.471823
O O2 0.975491 0.758720 0.447469
O O3 0.000000 0.000000 0.500000
O O4 0.988633 0.011311 0.363060
O O5 0.500000 0.704400 0.250000
O O6 0.589256 0.717346 0.334877
O O7 0.420798 0.780099 0.381799
O O8 0.801324 0.141488 0.105752
O O9 0.797910 0.393015 0.183596
O O10 0.746545 0.144901 0.251593
O O11 0.904587 0.595010 0.145109
O O12 0.051425 0.540447 0.123760
O O13 0.000000 0.500000 0.000000
O O14 0.296938 0.017747 0.940019
O O15 0.250000 0.750000 0.000000
O O16 0.358653 0.026152 0.789632
#
# Coordination Sequence:
#
# PCOD9309826 Si02
#       7
#     8   8   8   8   8   8   8
#     4  12  26  44  69 102 144 177 228 298 352 416
#     4  12  24  45  70 102 144 183 235 289 354 415
#     4  11  24  44  70  99 147 180 232 298 341 424
#     4  12  24  44  74 100 137 191 233 280 360 429
#     4  11  24  45  69 104 139 178 239 295 349 413
#     4  11  23  45  73  97 139 191 229 286 348 429
#     4  11  25  43  72 101 141 183 237 284 358 419
#
# _framework density 10.218442
#
# number of rings (size 3 to 8) (size 9 to 14) (size 15 to 20)
#    0.000    0.571    5.714    2.143    2.000    2.857 
#    0.000    0.000    0.000    0.000    0.000    0.000 
#    0.000    0.000    0.000    0.000    0.000    0.000 
#
# Total GULP energy -155958.916406 kJ/mol
# GULP energy per Si atom -5569.961300 kJ/mol
# Density = 1.019518 g / cm^3
# Si number density = 10.218442 Si / 1000 Ang^3
#
#
#
# Elastic Constant Matrix: (Units=GPa)
#
#
# Indices 1 2 3 4 5 6 
#
# 1 128.4986 31.4771 11.6259 0.0000 -27.9403 0.0000
# 2 31.4771 78.4320 11.1439 0.0000 -16.9200 0.0000
# 3 11.6259 11.1439 26.5913 0.0000 -28.7758 0.0000
# 4 0.0000 0.0000 0.0000 32.2201 0.0000 -5.0187
# 5 -27.9403 -16.9200 -28.7758 0.0000 42.9975 0.0000
# 6 0.0000 0.0000 0.0000 -5.0187 0.0000 44.2675
#
#
#
# Elastic Compliance Matrix: (Units=1/GPa)
#
#
# Indices 1 2 3 4 5 6 
#
# 1 0.010228 -0.002894 0.009794 0.000000 0.012062 0.000000
# 2 -0.002894 0.014753 -0.002430 0.000000 0.002298 0.000000
# 3 0.009794 -0.002430 0.145752 0.000000 0.102951 0.000000
# 4 0.000000 0.000000 0.000000 0.031594 0.000000 0.003582
# 5 0.012062 0.002298 0.102951 0.000000 0.100899 0.000000
# 6 0.000000 0.000000 0.000000 0.003582 0.000000 0.022996
#
#
# Mechanical properties :
#
#
# Convention : Reuss Voigt Hill
#
# Bulk Modulus (GPa) = 5.56572 38.00176 21.78374
# Shear Modulus (GPa) = 13.25652 35.84868 24.55260
#
# Velocity S-wave (km/s) = 2.54964 4.19276 3.46986
# Velocity P-wave (km/s) = 3.37592 6.48645 5.17063
#
# Compressibility (1/GPa) = 0.17967117
#
# Stress axis : x y z
#
# Youngs Moduli (GPa) = 97.77391 67.78509 6.86098
#
# Poissons Ratio (x) = 0.19618 -0.06719
# Poissons Ratio (y) = 0.28297 0.01667
# Poissons Ratio (z) = -0.95757 0.16471
#
# Static dielectric constant tensor:
#      x y z
#    x 1.675200 0.000000 0.072540 
#    y 0.000000 1.776200 0.000000 
#    z 0.072540 0.000000 1.506950 
# 
# From -- ./inp_files/209502.got.cif
#   From: 2010.05.17/outbox.ucp.g08.bks.cvg/sg15_105_cif.got.tgz:209502.got - 2010.06.11 12:40:34.
