data_PCOD9309986
_publ_section_title
;
Structure prediction by ZEFSAII (Michael W. Deem and Ramdas Pophale) SiO2 
 PCOD9309986
Probable space group: P 2 2 2
;
_chemical_formula_sum "Si O2"
_cell_formula_units_Z 32
_cell_length_a 7.294049
_cell_length_b 15.458318
_cell_length_c 12.052356
_cell_angle_alpha 90.000000
_cell_angle_beta 90.000000
_cell_angle_gamma 90.000000
_cell_volume 1358.948082
_symmetry_space_group_name_H-M "P 2 2 2"
_symmetry_group_IT_number 16
_symmetry_cell_setting 'orthorhombic'
loop_
_space_group_symop_operation_xyz
x,y,z
-x,-y,z
x,-y,-z
-x,y,-z
loop_
_atom_site_type_symbol
_atom_site_label
_atom_site_fract_x
_atom_site_fract_y
_atom_site_fract_z
Si Si1 0.173551 0.179486 0.652753
Si Si2 0.791016 0.006862 0.707135
Si Si3 0.276087 0.491010 0.372700
Si Si4 0.329588 0.677715 0.745543
Si Si5 0.260501 0.834546 0.593949
Si Si6 0.286174 0.715733 0.985592
Si Si7 0.246145 0.353258 0.784492
Si Si8 0.205355 0.085856 0.049080
O O1 0.277302 0.185318 0.535312
O O2 0.190149 0.266144 0.721784
O O3 0.957246 0.171313 0.624034
O O4 0.252373 0.094736 0.717087
O O5 0.683231 0.067368 0.622316
O O6 0.795641 0.062563 0.820545
O O7 0.000000 0.000000 0.664846
O O8 0.500000 0.500000 0.374563
O O9 0.215764 0.500000 0.500000
O O10 0.236877 0.395178 0.328745
O O11 0.196374 0.561978 0.287019
O O12 0.349973 0.764837 0.674854
O O13 0.226409 0.691686 0.861393
O O14 0.532104 0.646205 0.777391
O O15 0.275879 0.820449 0.986291
O O16 0.500000 0.695393 0.000000
O O17 0.193873 0.664100 0.086992
O O18 0.000000 0.087015 0.000000
O O19 0.298053 0.000000 0.000000
#
# Coordination Sequence:
#
# PCOD9309986 Si02
#       8
#     4   4   4   4   4   4   4   4
#     4  10  21  35  54  82 109 143 182 230 273 318
#     4  10  18  33  53  79 107 139 187 223 265 319
#     4   9  18  34  58  83 105 139 184 224 266 323
#     4  10  20  37  58  80 110 146 180 223 274 329
#     4  10  20  35  56  79 110 144 182 226 276 321
#     4  10  22  36  52  81 113 142 176 223 279 320
#     4  10  21  36  56  82 111 141 183 226 270 325
#     4  11  20  32  55  80 102 145 191 225 257 318
#
# _framework density 23.547623999999999
#
# number of rings (size 3 to 8) (size 9 to 14) (size 15 to 20)
#    0.000    2.000    2.500    1.875    1.750    3.750 
#    0.000    3.750    0.000    3.750    0.000    2.625 
#    0.000    0.000    0.000    0.000    0.000    0.000 
#
# Total GULP energy -178675.321806 kJ/mol
# GULP energy per Si atom -5583.603806 kJ/mol
# Density = 2.349403 g / cm^3
# Si number density = 23.547624 Si / 1000 Ang^3
#
#
#
# Elastic Constant Matrix: (Units=GPa)
#
#
# Indices 1 2 3 4 5 6 
#
# 1 56.6550 -9.6812 -1.3913 0.0000 0.0000 0.0000
# 2 -9.6812 141.1432 61.2228 0.0000 0.0000 0.0000
# 3 -1.3913 61.2228 155.1008 0.0000 0.0000 0.0000
# 4 0.0000 0.0000 0.0000 37.8780 0.0000 0.0000
# 5 0.0000 0.0000 0.0000 0.0000 9.3728 0.0000
# 6 0.0000 0.0000 0.0000 0.0000 0.0000 34.0251
#
#
#
# Elastic Compliance Matrix: (Units=1/GPa)
#
#
# Indices 1 2 3 4 5 6 
#
# 1 0.017880 0.001396 -0.000391 0.000000 0.000000 0.000000
# 2 0.001396 0.008658 -0.003405 0.000000 0.000000 0.000000
# 3 -0.000391 -0.003405 0.007788 0.000000 0.000000 0.000000
# 4 0.000000 0.000000 0.000000 0.026401 0.000000 0.000000
# 5 0.000000 0.000000 0.000000 0.000000 0.106692 0.000000
# 6 0.000000 0.000000 0.000000 0.000000 0.000000 0.029390
#
#
# Mechanical properties :
#
#
# Convention : Reuss Voigt Hill
#
# Bulk Modulus (GPa) = 33.86860 50.35549 42.11205
# Shear Modulus (GPa) = 23.64638 36.43844 30.04241
#
# Velocity S-wave (km/s) = 3.17234 3.93801 3.57573
# Velocity P-wave (km/s) = 5.27566 6.48909 5.91358
#
# Compressibility (1/GPa) = 0.02952588
#
# Stress axis : x y z
#
# Youngs Moduli (GPa) = 55.92957 115.50448 128.40368
#
# Poissons Ratio (x) = -0.16122 0.05015
# Poissons Ratio (y) = -0.07807 0.43720
# Poissons Ratio (z) = 0.02184 0.39328
#
# Static dielectric constant tensor:
#      x y z
#    x 1.930820 0.000000 0.000000 
#    y 0.000000 1.881070 0.000000 
#    z 0.000000 0.000000 1.908690 
# 
# From -- ./inp_files/4875.got.cif
#   From: 2010.05.17/outbox.cif.g08.bks.cpg/sg16_3_cif.got.tgz:4875.got - 2010.06.03 22:28:35.
