data_PCOD9309708
_publ_section_title
;
Structure prediction by ZEFSAII (Michael W. Deem and Ramdas Pophale) SiO2 
 PCOD9309708
Probable space group: C 2/C
;
_chemical_formula_sum "Si O2"
_cell_formula_units_Z 28
_cell_length_a 24.000000
_cell_length_b 21.000000
_cell_length_c 12.000000
_cell_angle_alpha 90.000000
_cell_angle_beta 150.000000
_cell_angle_gamma 90.000000
_cell_volume 3024.000000
_symmetry_space_group_name_H-M "C 2/C"
_symmetry_group_IT_number 15
_symmetry_cell_setting 'monoclinic'
loop_
_space_group_symop_operation_xyz
x,y,z
-x,y,1/2-z
-x,-y,-z
x,-y,1/2+z
1/2+x,1/2+y,z
1/2-x,1/2+y,1/2-z
1/2-x,1/2-y,-z
1/2+x,1/2-y,1/2+z
loop_
_atom_site_type_symbol
_atom_site_label
_atom_site_fract_x
_atom_site_fract_y
_atom_site_fract_z
Si Si1 0.392686 0.184074 0.978909
Si Si2 0.792108 0.622596 0.579384
Si Si3 0.894696 0.897716 0.174654
Si Si4 0.860336 0.165766 0.393069
Si Si5 0.251401 0.912886 0.369134
Si Si6 0.876628 0.042389 0.059761
Si Si7 0.440638 0.006138 0.771816
O O1 0.368309 0.158013 0.808140
O O2 0.381092 0.259498 0.946316
O O3 0.297073 0.147294 0.880802
O O4 0.500000 0.172510 0.250000
O O5 0.723796 0.655953 0.357859
O O6 0.696947 0.584244 0.483334
O O7 0.874596 0.572091 0.665760
O O8 0.833762 0.891210 0.185469
O O9 0.019343 0.869997 0.409104
O O10 0.895087 0.972242 0.142263
O O11 0.827850 0.862628 0.958567
O O12 0.351296 0.949462 0.604260
O O13 0.191807 0.958594 0.174947
O O14 0.000000 0.069680 0.250000
O O15 0.500000 0.004244 0.750000
O O16 0.500000 0.000000 0.000000
#
# Coordination Sequence:
#
# PCOD9309708 Si02
#       7
#     8   8   8   8   8   8   8
#     4  11  23  47  62  88 127 179 215 261 317 390
#     4  11  24  40  69  94 128 171 214 274 326 388
#     4  11  22  38  65  96 128 165 206 271 323 393
#     4  11  23  42  63  94 129 167 219 260 325 387
#     4  11  24  39  65  92 127 169 211 261 331 387
#     4  11  21  38  65 101 132 159 203 270 341 395
#     4  12  25  42  64  98 133 173 220 273 332 396
#
# _framework density 9.2592590000000001
#
# number of rings (size 3 to 8) (size 9 to 14) (size 15 to 20)
#    0.000    0.857    4.286    5.143    2.000    1.714 
#    0.000    0.000    0.000    1.714    0.000    0.000 
#    0.000    0.000    0.000    0.000    0.000    0.000 
#
# Total GULP energy -155910.299216 kJ/mol
# GULP energy per Si atom -5568.224972 kJ/mol
# Density = 0.923818 g / cm^3
# Si number density = 9.259259 Si / 1000 Ang^3
#
#
#
# Elastic Constant Matrix: (Units=GPa)
#
#
# Indices 1 2 3 4 5 6 
#
# 1 88.2002 20.5313 33.1768 0.0000 -17.4561 0.0000
# 2 20.5313 94.6191 35.3862 0.0000 -1.5126 0.0000
# 3 33.1768 35.3862 139.1821 0.0000 -28.3078 0.0000
# 4 0.0000 0.0000 0.0000 37.4320 0.0000 -11.6606
# 5 -17.4561 -1.5126 -28.3078 0.0000 36.4981 0.0000
# 6 0.0000 0.0000 0.0000 -11.6606 0.0000 11.8122
#
#
#
# Elastic Compliance Matrix: (Units=1/GPa)
#
#
# Indices 1 2 3 4 5 6 
#
# 1 0.013474 -0.002243 -0.001603 0.000000 0.005108 0.000000
# 2 -0.002243 0.012198 -0.003184 0.000000 -0.003037 0.000000
# 3 -0.001603 -0.003184 0.009728 0.000000 0.006647 0.000000
# 4 0.000000 0.000000 0.000000 0.038579 0.000000 0.038084
# 5 0.005108 -0.003037 0.006647 0.000000 0.034871 0.000000
# 6 0.000000 0.000000 0.000000 0.038084 0.000000 0.122254
#
#
# Mechanical properties :
#
#
# Convention : Reuss Voigt Hill
#
# Bulk Modulus (GPa) = 46.85889 55.57665 51.21777
# Shear Modulus (GPa) = 19.81957 32.67560 26.24758
#
# Velocity S-wave (km/s) = 3.27503 4.20513 3.76888
# Velocity P-wave (km/s) = 6.29760 7.32489 6.83059
#
# Compressibility (1/GPa) = 0.02134067
#
# Stress axis : x y z
#
# Youngs Moduli (GPa) = 74.21866 81.98309 102.79307
#
# Poissons Ratio (x) = 0.18386 0.16474
# Poissons Ratio (y) = 0.16645 0.32732
# Poissons Ratio (z) = 0.11894 0.26105
#
# Static dielectric constant tensor:
#      x y z
#    x 1.678820 0.000000 -0.000390 
#    y 0.000000 1.631810 0.000000 
#    z -0.000390 0.000000 1.671610 
# 
# From -- ./inp_files/119870.got.cif
#   From: 2010.05.17/outbox.ucp.g08.bks.cvg/sg15_60_cif.got.tgz:119870.got - 2010.06.11 12:40:34.
