data_PCOD9309615
_publ_section_title
;
Structure prediction by ZEFSAII (Michael W. Deem and Ramdas Pophale) SiO2 
 PCOD9309615
Probable space group: C 2/C
;
_chemical_formula_sum "Si O2"
_cell_formula_units_Z 32
_cell_length_a 21.000000
_cell_length_b 18.000000
_cell_length_c 24.000000
_cell_angle_alpha 90.000000
_cell_angle_beta 20.000000
_cell_angle_gamma 90.000000
_cell_volume 3102.806740
_symmetry_space_group_name_H-M "C 2/C"
_symmetry_group_IT_number 15
_symmetry_cell_setting 'monoclinic'
loop_
_space_group_symop_operation_xyz
x,y,z
-x,y,1/2-z
-x,-y,-z
x,-y,1/2+z
1/2+x,1/2+y,z
1/2-x,1/2+y,1/2-z
1/2-x,1/2-y,-z
1/2+x,1/2-y,1/2+z
loop_
_atom_site_type_symbol
_atom_site_label
_atom_site_fract_x
_atom_site_fract_y
_atom_site_fract_z
Si Si1 0.155379 0.949070 0.575744
Si Si2 0.045256 0.600678 0.494101
Si Si3 0.740986 0.694014 0.814275
Si Si4 0.509873 0.297810 0.092002
Si Si5 0.445418 0.002264 0.415645
Si Si6 0.039008 0.153978 0.353265
Si Si7 0.309093 0.078004 0.372157
Si Si8 0.170146 0.644423 0.941208
O O1 0.084454 0.880709 0.595514
O O2 0.000000 0.961160 0.750000
O O3 0.344195 0.943252 0.457953
O O4 0.191566 0.020079 0.506404
O O5 0.018675 0.526142 0.551726
O O6 0.270540 0.604409 0.299824
O O7 0.918742 0.651626 0.640557
O O8 0.954049 0.620395 0.510065
O O9 0.595624 0.703591 0.881703
O O10 0.848589 0.768010 0.747039
O O11 0.605992 0.661874 0.974889
O O12 0.361844 0.326777 0.258298
O O13 0.686123 0.352741 0.952890
O O14 0.571465 0.213614 0.051893
O O15 0.625622 0.031985 0.235810
O O16 0.314552 0.074338 0.531054
O O17 0.500000 0.096112 0.250000
#
# Coordination Sequence:
#
# PCOD9309615 Si02
#       8
#     8   8   8   8   8   8   8   8
#     4  11  23  43  65  91 129 178 217 276 322 394
#     4  11  23  41  68 100 136 177 219 278 339 394
#     4  11  23  42  64 104 135 173 221 281 328 403
#     4  11  22  42  67 100 132 174 214 273 338 389
#     4  11  23  44  64  94 134 173 226 272 328 395
#     4  12  22  41  71  93 141 174 222 272 340 384
#     4  10  24  44  69  97 131 175 220 271 329 400
#     4  11  23  40  68  98 134 171 218 274 333 399
#
# _framework density 10.313243
#
# number of rings (size 3 to 8) (size 9 to 14) (size 15 to 20)
#    0.000    1.000    3.750    3.375    1.750    0.000 
#    0.000   10.625    0.000    0.000    0.000    0.000 
#    0.000    0.000    0.000    0.000    0.000    0.000 
#
# Total GULP energy -178313.127017 kJ/mol
# GULP energy per Si atom -5572.285219 kJ/mol
# Density = 1.028977 g / cm^3
# Si number density = 10.313243 Si / 1000 Ang^3
#
#
#
# Elastic Constant Matrix: (Units=GPa)
#
#
# Indices 1 2 3 4 5 6 
#
# 1 43.5354 31.8756 33.8350 -0.0123 7.6478 -0.0214
# 2 31.8756 92.8947 28.5119 -0.0059 -1.8291 0.0006
# 3 33.8350 28.5119 83.9442 -0.0148 8.3856 0.0064
# 4 -0.0123 -0.0059 -0.0148 26.6915 0.0066 -5.9955
# 5 7.6478 -1.8291 8.3856 0.0066 39.4105 0.0123
# 6 -0.0214 0.0006 0.0064 -5.9955 0.0123 20.5639
#
#
#
# Elastic Compliance Matrix: (Units=1/GPa)
#
#
# Indices 1 2 3 4 5 6 
#
# 1 0.041426 -0.010477 -0.012554 0.000024 -0.005854 0.000058
# 2 -0.010477 0.014750 -0.001081 -0.000006 0.002948 -0.000015
# 3 -0.012554 -0.001081 0.017473 0.000000 -0.001332 -0.000018
# 4 0.000024 -0.000006 0.000000 0.040091 -0.000015 0.011689
# 5 -0.005854 0.002948 -0.001332 -0.000015 0.026930 -0.000026
# 6 0.000058 -0.000015 -0.000018 0.011689 -0.000026 0.052037
#
#
# Mechanical properties :
#
#
# Convention : Reuss Voigt Hill
#
# Bulk Modulus (GPa) = 39.33263 45.42438 42.37851
# Shear Modulus (GPa) = 20.04763 25.74329 22.89546
#
# Velocity S-wave (km/s) = 3.12097 3.53664 3.33529
# Velocity P-wave (km/s) = 5.66548 6.22473 5.95168
#
# Compressibility (1/GPa) = 0.02542418
#
# Stress axis : x y z
#
# Youngs Moduli (GPa) = 24.13949 67.79739 57.23066
#
# Poissons Ratio (x) = 0.71030 0.71848
# Poissons Ratio (y) = 0.25291 0.06189
# Poissons Ratio (z) = 0.30305 0.07332
#
# Static dielectric constant tensor:
#      x y z
#    x 1.726820 -0.000010 -0.008870 
#    y -0.000010 1.816880 0.000040 
#    z -0.008870 0.000040 1.745910 
# 
# From -- ./inp_files/280487.got.cif
#   From: 2010.05.17/outbox.ucp.g08.bks.cvg/sg15_141_cif.got.tgz:280487.got - 2010.06.11 12:40:34.
