data_PCOD9309662
_publ_section_title
;
Structure prediction by ZEFSAII (Michael W. Deem and Ramdas Pophale) SiO2 
 PCOD9309662
Probable space group: C 2/C
;
_chemical_formula_sum "Si O2"
_cell_formula_units_Z 30
_cell_length_a 21.000000
_cell_length_b 15.000000
_cell_length_c 21.000000
_cell_angle_alpha 90.000000
_cell_angle_beta 30.000000
_cell_angle_gamma 90.000000
_cell_volume 3307.500000
_symmetry_space_group_name_H-M "C 2/C"
_symmetry_group_IT_number 15
_symmetry_cell_setting 'monoclinic'
loop_
_space_group_symop_operation_xyz
x,y,z
-x,y,1/2-z
-x,-y,-z
x,-y,1/2+z
1/2+x,1/2+y,z
1/2-x,1/2+y,1/2-z
1/2-x,1/2-y,-z
1/2+x,1/2-y,1/2+z
loop_
_atom_site_type_symbol
_atom_site_label
_atom_site_fract_x
_atom_site_fract_y
_atom_site_fract_z
Si Si1 0.513283 0.874381 0.034670
Si Si2 0.672133 0.167245 0.275358
Si Si3 0.000000 0.555001 0.750000
Si Si4 0.887110 0.957107 0.638089
Si Si5 0.796554 0.293103 0.394119
Si Si6 0.441488 0.053856 0.425460
Si Si7 0.754848 0.372403 0.177901
Si Si8 0.000838 0.800088 0.871364
O O1 0.379925 0.875058 0.113795
O O2 0.499806 0.798585 0.098374
O O3 0.541874 0.970764 0.039458
O O4 0.619516 0.840726 0.893233
O O5 0.791208 0.098735 0.174831
O O6 0.559215 0.122225 0.332136
O O7 0.699844 0.271016 0.233215
O O8 0.114972 0.620002 0.672666
O O9 0.051018 0.492874 0.649090
O O10 0.938423 0.880670 0.641243
O O11 0.826598 0.042453 0.727518
O O12 0.000000 0.000000 0.500000
O O13 0.750000 0.250000 0.500000
O O14 0.893956 0.220848 0.276374
O O15 0.653830 0.319089 0.492882
O O16 0.312529 0.104654 0.558145
#
# Coordination Sequence:
#
# PCOD9309662 Si02
#       8
#     8   8   4   8   8   8   8   8
#     4  11  19  39  66  94 129 168 203 254 328 408
#     4  11  22  40  63  94 130 167 212 260 326 395
#     4  12  26  44  70  90 124 170 242 266 320 386
#     4  12  25  35  58  99 137 165 200 256 326 396
#     4  12  24  44  64  96 129 174 215 275 326 384
#     4  11  23  42  67  91 123 178 218 267 317 394
#     4  11  23  40  62  95 134 167 211 260 326 393
#     4  12  25  38  69  97 138 164 211 265 334 389
#
# _framework density 9.0702949999999998
#
# number of rings (size 3 to 8) (size 9 to 14) (size 15 to 20)
#    0.000    0.533    6.667    2.400    7.467    0.000 
#    0.000    0.667    0.000    0.000    0.000    0.000 
#    0.000    0.000    0.000    0.000    0.000    0.000 
#
# Total GULP energy -167102.540509 kJ/mol
# GULP energy per Si atom -5570.084684 kJ/mol
# Density = 0.904965 g / cm^3
# Si number density = 9.070295 Si / 1000 Ang^3
#
#
#
# Elastic Constant Matrix: (Units=GPa)
#
#
# Indices 1 2 3 4 5 6 
#
# 1 37.7745 30.6653 39.5077 0.0000 -1.4602 0.0000
# 2 30.6653 166.4726 63.3113 -0.0002 -0.9380 0.0002
# 3 39.5077 63.3113 145.3252 -0.0005 -4.7634 0.0005
# 4 0.0000 -0.0002 -0.0005 33.0897 0.0002 21.5352
# 5 -1.4602 -0.9380 -4.7634 0.0002 27.4268 -0.0002
# 6 0.0000 0.0002 0.0005 21.5352 -0.0002 12.4811
#
#
#
# Elastic Compliance Matrix: (Units=1/GPa)
#
#
# Indices 1 2 3 4 5 6 
#
# 1 0.038868 -0.003768 -0.008912 0.000003 0.000393 -0.000005
# 2 -0.003768 0.007568 -0.002284 0.000000 -0.000338 0.000000
# 3 -0.008912 -0.002284 0.010340 -0.000003 0.001243 0.000004
# 4 0.000003 0.000000 -0.000003 -0.245851 0.000005 0.424196
# 5 0.000393 -0.000338 0.001243 0.000005 0.036686 -0.000008
# 6 -0.000005 0.000000 0.000004 0.424196 -0.000008 -0.651794
#
#
# Mechanical properties :
#
#
# Convention : Reuss Voigt Hill
#
# Bulk Modulus (GPa) = 37.24727 68.50454 52.87591
# Shear Modulus (GPa) = -6.53332 29.00540 11.23604
#
# Velocity S-wave (km/s) = -1.89982 4.00299 2.49145
# Velocity P-wave (km/s) = 3.97048 7.69483 6.12271
#
# Compressibility (1/GPa) = 0.02684760
#
# Stress axis : x y z
#
# Youngs Moduli (GPa) = 25.72809 132.14109 96.71622
#
# Poissons Ratio (x) = 0.49793 0.86194
# Poissons Ratio (y) = 0.09695 0.22086
# Poissons Ratio (z) = 0.22929 0.30175
#
# Static dielectric constant tensor:
#      x y z
#    x 1.679450 0.000000 0.017760 
#    y 0.000000 1.625150 0.000000 
#    z 0.017760 0.000000 1.680630 
# 
# From -- ./inp_files/253034.got.cif
#   From: 2010.05.17/outbox.ucp.g08.bks.cvg/sg15_127_cif.got.tgz:253034.got - 2010.06.11 12:40:34.
