data_PCOD9309339
_publ_section_title
;
Structure prediction by ZEFSAII (Michael W. Deem and Ramdas Pophale) SiO2 
 PCOD9309339
Probable space group: C 2/C
;
_chemical_formula_sum "Si O2"
_cell_formula_units_Z 32
_cell_length_a 15.000000
_cell_length_b 27.000000
_cell_length_c 9.000000
_cell_angle_alpha 90.000000
_cell_angle_beta 100.000000
_cell_angle_gamma 90.000000
_cell_volume 3589.624260
_symmetry_space_group_name_H-M "C 2/C"
_symmetry_group_IT_number 15
_symmetry_cell_setting 'monoclinic'
loop_
_space_group_symop_operation_xyz
x,y,z
-x,y,1/2-z
-x,-y,-z
x,-y,1/2+z
1/2+x,1/2+y,z
1/2-x,1/2+y,1/2-z
1/2-x,1/2-y,-z
1/2+x,1/2-y,1/2+z
loop_
_atom_site_type_symbol
_atom_site_label
_atom_site_fract_x
_atom_site_fract_y
_atom_site_fract_z
Si Si1 0.790582 0.353555 0.445699
Si Si2 0.108895 0.449317 0.120120
Si Si3 0.600070 0.316701 0.734009
Si Si4 0.894324 0.300429 0.234140
Si Si5 0.291587 0.844019 0.937743
Si Si6 0.101240 0.556971 0.975148
Si Si7 0.593620 0.687720 0.871870
Si Si8 0.605609 0.197920 0.281390
O O1 0.819970 0.409544 0.421206
O O2 0.861603 0.317161 0.385181
O O3 0.688106 0.341199 0.365836
O O4 0.819980 0.338211 0.620498
O O5 0.114860 0.448420 0.301079
O O6 0.006950 0.433107 0.041377
O O7 0.121225 0.504749 0.061162
O O8 0.500000 0.335855 0.750000
O O9 0.607036 0.258647 0.780922
O O10 0.688490 0.340634 0.843551
O O11 0.593048 0.318450 0.551516
O O12 0.000000 0.316932 0.250000
O O13 0.817100 0.327063 0.112375
O O14 0.356069 0.804311 0.873027
O O15 0.337072 0.898717 0.942987
O O16 0.500000 0.674542 0.750000
O O17 0.608393 0.745957 0.841125
O O18 0.500000 0.181537 0.250000
#
# Coordination Sequence:
#
# PCOD9309339 Si02
#       8
#     8   8   8   8   8   8   8   8
#     4  12  21  39  60  82 120 160 196 239 290 349
#     4  10  22  38  60  86 119 153 189 238 290 350
#     4  11  25  40  57  84 118 158 204 248 288 339
#     4  11  22  36  57  88 122 157 195 236 289 351
#     4  12  23  38  59  86 119 159 200 238 290 351
#     4  10  22  39  58  88 119 151 192 235 291 351
#     4  11  25  40  57  84 118 158 205 246 289 341
#     4  11  22  35  58  86 121 156 194 241 288 351
#
# _framework density 8.9145819999999993
#
# number of rings (size 3 to 8) (size 9 to 14) (size 15 to 20)
#    0.000    1.000    3.750    3.750    8.750    0.000 
#    0.000    0.000    0.000    0.750    0.000    3.500 
#    0.000    0.000    0.000    0.000    0.000    0.000 
#
# Total GULP energy -178297.332203 kJ/mol
# GULP energy per Si atom -5571.791631 kJ/mol
# Density = 0.889429 g / cm^3
# Si number density = 8.914582 Si / 1000 Ang^3
#
#
#
# Elastic Constant Matrix: (Units=GPa)
#
#
# Indices 1 2 3 4 5 6 
#
# 1 138.0202 55.7667 36.3716 0.0000 29.0737 0.0000
# 2 55.7667 91.8458 34.6038 0.0000 16.9920 0.0000
# 3 36.3716 34.6038 60.8191 0.0000 17.8077 0.0000
# 4 0.0000 0.0000 0.0000 23.0824 0.0000 4.7781
# 5 29.0737 16.9920 17.8077 0.0000 40.7351 0.0000
# 6 0.0000 0.0000 0.0000 4.7781 0.0000 30.2684
#
#
#
# Elastic Compliance Matrix: (Units=1/GPa)
#
#
# Indices 1 2 3 4 5 6 
#
# 1 0.010788 -0.004800 -0.002354 0.000000 -0.004669 0.000000
# 2 -0.004800 0.016253 -0.006187 0.000000 -0.000649 0.000000
# 3 -0.002354 -0.006187 0.023076 0.000000 -0.005827 0.000000
# 4 0.000000 0.000000 0.000000 0.044787 0.000000 -0.007070
# 5 -0.004669 -0.000649 -0.005827 0.000000 0.030699 0.000000
# 6 0.000000 0.000000 0.000000 -0.007070 0.000000 0.034154
#
#
# Mechanical properties :
#
#
# Convention : Reuss Voigt Hill
#
# Bulk Modulus (GPa) = 42.66828 60.46324 51.56576
# Shear Modulus (GPa) = 25.73986 29.74672 27.74329
#
# Velocity S-wave (km/s) = 3.80372 4.08907 3.94897
# Velocity P-wave (km/s) = 6.57835 7.50201 7.05531
#
# Compressibility (1/GPa) = 0.02343662
#
# Stress axis : x y z
#
# Youngs Moduli (GPa) = 92.69137 61.52587 43.33474
#
# Poissons Ratio (x) = 0.29532 0.10200
# Poissons Ratio (y) = 0.44491 0.26811
# Poissons Ratio (z) = 0.21818 0.38066
#
# Static dielectric constant tensor:
#      x y z
#    x 1.625800 0.000000 -0.039800 
#    y 0.000000 1.584130 0.000000 
#    z -0.039800 0.000000 1.661730 
# 
# From -- ./inp_files/43552.got.cif
#   From: 2010.05.17/outbox.ucp.g08.bks.cvg/sg15_22_cif.got.tgz:43552.got - 2010.06.11 12:40:34.
