data_PCOD9309668
_publ_section_title
;
Structure prediction by ZEFSAII (Michael W. Deem and Ramdas Pophale) SiO2 
 PCOD9309668
Probable space group: C 2/C
;
_chemical_formula_sum "Si O2"
_cell_formula_units_Z 20
_cell_length_a 15.000000
_cell_length_b 15.000000
_cell_length_c 27.000000
_cell_angle_alpha 90.000000
_cell_angle_beta 20.000000
_cell_angle_gamma 90.000000
_cell_volume 2077.772371
_symmetry_space_group_name_H-M "C 2/C"
_symmetry_group_IT_number 15
_symmetry_cell_setting 'monoclinic'
loop_
_space_group_symop_operation_xyz
x,y,z
-x,y,1/2-z
-x,-y,-z
x,-y,1/2+z
1/2+x,1/2+y,z
1/2-x,1/2+y,1/2-z
1/2-x,1/2-y,-z
1/2+x,1/2-y,1/2+z
loop_
_atom_site_type_symbol
_atom_site_label
_atom_site_fract_x
_atom_site_fract_y
_atom_site_fract_z
Si Si1 0.098883 0.110118 0.293160
Si Si2 0.500000 0.815455 0.750000
Si Si3 0.259798 0.740702 0.413026
Si Si4 0.942160 0.923129 0.573153
Si Si5 0.500000 0.513967 0.750000
Si Si6 0.601309 0.832726 0.480069
O O1 0.086907 0.058251 0.352176
O O2 0.874159 0.185752 0.400523
O O3 0.378145 0.158228 0.138162
O O4 0.072577 0.044757 0.259780
O O5 0.675943 0.876709 0.693414
O O6 0.699417 0.749679 0.617058
O O7 0.500000 0.740414 0.250000
O O8 0.155065 0.842552 0.466333
O O9 0.035186 0.685193 0.502025
O O10 0.000000 0.000000 0.500000
O O11 0.735081 0.577493 0.610401
#
# Coordination Sequence:
#
# PCOD9309668 Si02
#       6
#     8   4   8   8   4   8
#     4  11  21  37  66  93 124 165 209 261 318 379
#     4   9  22  44  61  82 128 166 213 262 312 385
#     4   9  19  41  64  87 120 165 216 259 310 379
#     4  11  25  41  59  91 129 171 209 256 324 386
#     4  11  20  36  63  98 120 148 209 272 316 365
#     4   9  19  39  65  89 119 154 212 270 308 373
#
# _framework density 9.6256930000000001
#
# number of rings (size 3 to 8) (size 9 to 14) (size 15 to 20)
#    0.000    2.000    3.000    1.200    1.400    2.400 
#    0.000   16.000    0.000    0.000    0.000    0.000 
#    0.000    0.000    0.000    0.000    0.000    0.000 
#
# Total GULP energy -111346.657241 kJ/mol
# GULP energy per Si atom -5567.332862 kJ/mol
# Density = 0.960378 g / cm^3
# Si number density = 9.625693 Si / 1000 Ang^3
#
#
#
# Elastic Constant Matrix: (Units=GPa)
#
#
# Indices 1 2 3 4 5 6 
#
# 1 126.4211 54.3460 39.8905 -0.0183 12.2650 -0.0195
# 2 54.3460 95.1138 33.3424 -0.0282 -3.5221 -0.0038
# 3 39.8905 33.3424 70.9713 0.0210 -16.0476 0.0388
# 4 -0.0183 -0.0282 0.0210 26.6853 0.0068 -3.3758
# 5 12.2650 -3.5221 -16.0476 0.0068 30.9921 0.0313
# 6 -0.0195 -0.0038 0.0388 -3.3758 0.0313 30.5582
#
#
#
# Elastic Compliance Matrix: (Units=1/GPa)
#
#
# Indices 1 2 3 4 5 6 
#
# 1 0.013502 -0.005561 -0.007166 0.000015 -0.009686 0.000029
# 2 -0.005561 0.014971 -0.003427 0.000014 0.002128 0.000002
# 3 -0.007166 -0.003427 0.022971 -0.000037 0.014341 -0.000053
# 4 0.000015 0.000014 -0.000037 0.038005 -0.000036 0.004199
# 5 -0.009686 0.002128 0.014341 -0.000036 0.043767 -0.000073
# 6 0.000029 0.000002 -0.000053 0.004199 -0.000073 0.033188
#
#
# Mechanical properties :
#
#
# Convention : Reuss Voigt Hill
#
# Bulk Modulus (GPa) = 52.25918 60.85156 56.55537
# Shear Modulus (GPa) = 24.37944 28.64227 26.51085
#
# Velocity S-wave (km/s) = 3.56247 3.86139 3.71494
# Velocity P-wave (km/s) = 6.64276 7.18039 6.91680
#
# Compressibility (1/GPa) = 0.01913539
#
# Stress axis : x y z
#
# Youngs Moduli (GPa) = 74.06513 66.79483 43.53355
#
# Poissons Ratio (x) = 0.37145 0.31198
# Poissons Ratio (y) = 0.41188 0.14918
# Poissons Ratio (z) = 0.53078 0.22889
#
# Static dielectric constant tensor:
#      x y z
#    x 1.694090 0.000020 -0.011320 
#    y 0.000020 1.702580 0.000020 
#    z -0.011320 0.000020 1.715730 
# 
# From -- ./inp_files/105157.got.cif
#   From: 2010.05.17/outbox.ucp.g08.bks.cvg/sg15_53_cif.got.tgz:105157.got - 2010.06.11 12:40:34.
