data_PCOD9309567
_publ_section_title
;
Structure prediction by ZEFSAII (Michael W. Deem and Ramdas Pophale) SiO2 
 PCOD9309567
Probable space group: C 2/C
;
_chemical_formula_sum "Si O2"
_cell_formula_units_Z 28
_cell_length_a 12.000000
_cell_length_b 27.000000
_cell_length_c 9.000000
_cell_angle_alpha 90.000000
_cell_angle_beta 110.000000
_cell_angle_gamma 90.000000
_cell_volume 2740.143682
_symmetry_space_group_name_H-M "C 2/C"
_symmetry_group_IT_number 15
_symmetry_cell_setting 'monoclinic'
loop_
_space_group_symop_operation_xyz
x,y,z
-x,y,1/2-z
-x,-y,-z
x,-y,1/2+z
1/2+x,1/2+y,z
1/2-x,1/2+y,1/2-z
1/2-x,1/2-y,-z
1/2+x,1/2-y,1/2+z
loop_
_atom_site_type_symbol
_atom_site_label
_atom_site_fract_x
_atom_site_fract_y
_atom_site_fract_z
Si Si1 0.610312 0.060205 0.012603
Si Si2 0.431206 0.331601 0.582416
Si Si3 0.699959 0.832911 0.656182
Si Si4 0.986970 0.277211 0.418424
Si Si5 0.846296 0.542932 0.817163
Si Si6 0.263122 0.808655 0.486832
Si Si7 0.376866 0.613473 0.755287
O O1 0.466589 0.063256 0.950050
O O2 0.639656 0.048222 0.854093
O O3 0.666491 0.111805 0.089022
O O4 0.655254 0.014417 0.133194
O O5 0.500000 0.357614 0.750000
O O6 0.310648 0.314582 0.608096
O O7 0.506962 0.282976 0.568983
O O8 0.399466 0.366746 0.432021
O O9 0.594769 0.796309 0.565816
O O10 0.719568 0.831089 0.841536
O O11 0.000000 0.288678 0.250000
O O12 0.875917 0.308053 0.428807
O O13 0.730705 0.574676 0.805627
O O14 0.250000 0.750000 0.500000
O O15 0.159607 0.838428 0.358139
O O16 0.500000 0.592548 0.750000
#
# Coordination Sequence:
#
# PCOD9309567 Si02
#       7
#     8   8   8   8   8   8   8
#     4  10  23  44  73 100 135 166 225 283 353 406
#     4  11  23  43  63  92 133 181 224 275 335 400
#     4  12  23  40  67  98 128 176 228 280 338 410
#     4  11  23  39  63  96 133 175 224 280 334 399
#     4  10  23  45  69 102 133 174 217 289 349 409
#     4  12  25  41  62  96 137 180 227 278 335 399
#     4  12  24  43  68  96 137 183 228 280 342 408
#
# _framework density 10.218442
#
# number of rings (size 3 to 8) (size 9 to 14) (size 15 to 20)
#    0.000    0.857    1.429    6.857    4.000    0.000 
#    2.571    1.429    0.000    0.000    0.000    0.000 
#    0.000    0.000    0.000    0.000    0.000    0.000 
#
# Total GULP energy -156535.942965 kJ/mol
# GULP energy per Si atom -5590.569392 kJ/mol
# Density = 1.019518 g / cm^3
# Si number density = 10.218442 Si / 1000 Ang^3
#
#
#
# Elastic Constant Matrix: (Units=GPa)
#
#
# Indices 1 2 3 4 5 6 
#
# 1 105.4285 23.0059 16.8278 0.0000 -2.1465 0.0000
# 2 23.0059 109.1156 50.1296 0.0000 8.1864 0.0000
# 3 16.8278 50.1296 144.7584 0.0000 -0.2099 0.0000
# 4 0.0000 0.0000 0.0000 63.1764 0.0000 -2.3293
# 5 -2.1465 8.1864 -0.2099 0.0000 30.0869 0.0000
# 6 0.0000 0.0000 0.0000 -2.3293 0.0000 35.6888
#
#
#
# Elastic Compliance Matrix: (Units=1/GPa)
#
#
# Indices 1 2 3 4 5 6 
#
# 1 0.010020 -0.001989 -0.000474 0.000000 0.001253 0.000000
# 2 -0.001989 0.011569 -0.003780 0.000000 -0.003316 0.000000
# 3 -0.000474 -0.003780 0.008274 0.000000 0.001052 0.000000
# 4 0.000000 0.000000 0.000000 0.015867 0.000000 0.001036
# 5 0.001253 -0.003316 0.001052 0.000000 0.034236 0.000000
# 6 0.000000 0.000000 0.000000 0.001036 0.000000 0.028088
#
#
# Mechanical properties :
#
#
# Convention : Reuss Voigt Hill
#
# Bulk Modulus (GPa) = 57.54698 59.91437 58.73068
# Shear Modulus (GPa) = 39.57809 43.74637 41.66223
#
# Velocity S-wave (km/s) = 4.40546 4.63164 4.51996
# Velocity P-wave (km/s) = 7.35506 7.61467 7.48599
#
# Compressibility (1/GPa) = 0.01737711
#
# Stress axis : x y z
#
# Youngs Moduli (GPa) = 99.79759 86.43550 120.86409
#
# Poissons Ratio (x) = 0.17190 0.05733
# Poissons Ratio (y) = 0.19847 0.45687
# Poissons Ratio (z) = 0.04734 0.32673
#
# Static dielectric constant tensor:
#      x y z
#    x 1.862780 0.000000 0.007060 
#    y 0.000000 1.695390 0.000000 
#    z 0.007060 0.000000 1.710320 
# 
# From -- ./inp_files/34338.got.cif
#   From: 2010.05.17/outbox.ucp.g08.bks.cvg/sg15_18_cif.got.tgz:34338.got - 2010.06.11 12:40:34.
