data_PCOD9309819
_publ_section_title
;
Structure prediction by ZEFSAII (Michael W. Deem and Ramdas Pophale) SiO2 
 PCOD9309819
Probable space group: C 2/C
;
_chemical_formula_sum "Si O2"
_cell_formula_units_Z 26
_cell_length_a 9.000000
_cell_length_b 30.000000
_cell_length_c 15.000000
_cell_angle_alpha 90.000000
_cell_angle_beta 140.000000
_cell_angle_gamma 90.000000
_cell_volume 2603.289819
_symmetry_space_group_name_H-M "C 2/C"
_symmetry_group_IT_number 15
_symmetry_cell_setting 'monoclinic'
loop_
_space_group_symop_operation_xyz
x,y,z
-x,y,1/2-z
-x,-y,-z
x,-y,1/2+z
1/2+x,1/2+y,z
1/2-x,1/2+y,1/2-z
1/2-x,1/2-y,-z
1/2+x,1/2-y,1/2+z
loop_
_atom_site_type_symbol
_atom_site_label
_atom_site_fract_x
_atom_site_fract_y
_atom_site_fract_z
Si Si1 0.041303 0.660884 0.662221
Si Si2 0.422129 0.839144 0.612100
Si Si3 0.500000 0.993652 0.750000
Si Si4 0.774487 0.706399 0.378644
Si Si5 0.486825 0.282334 0.348467
Si Si6 0.185766 0.438153 0.186634
Si Si7 0.230414 0.936086 0.480250
O O1 0.872938 0.691328 0.521329
O O2 0.000000 0.665598 0.750000
O O3 0.296436 0.678798 0.756929
O O4 0.047993 0.608457 0.639802
O O5 0.500000 0.835528 0.750000
O O6 0.642728 0.832404 0.650050
O O7 0.316264 0.886709 0.541989
O O8 0.228078 0.802798 0.493849
O O9 0.399912 0.024896 0.782623
O O10 0.316339 0.964623 0.606177
O O11 0.500000 0.712056 0.250000
O O12 0.887693 0.749042 0.379501
O O13 0.500000 0.265969 0.250000
O O14 0.455627 0.433474 0.337631
O O15 0.172215 0.449513 0.074102
#
# Coordination Sequence:
#
# PCOD9309819 Si02
#       7
#     8   8   4   8   8   8   8
#     4  12  26  46  72  99 138 193 233 280 351 418
#     4  12  25  45  72 104 140 182 240 292 340 411
#     4  12  24  44  72 108 138 176 222 292 358 408
#     4  12  29  46  66 106 145 180 232 296 351 400
#     4  12  25  49  76  99 135 191 245 285 343 415
#     4  11  23  45  72 100 139 183 231 278 343 428
#     4  11  23  44  72 105 137 177 234 285 341 415
#
# _framework density 9.9873630000000002
#
# number of rings (size 3 to 8) (size 9 to 14) (size 15 to 20)
#    0.000    0.308    6.154    2.308    4.308    1.231 
#    0.000    0.000    0.000    0.000    0.000    0.000 
#    0.000    0.000    0.000    0.000    0.000    0.000 
#
# Total GULP energy -145189.043390 kJ/mol
# GULP energy per Si atom -5584.193977 kJ/mol
# Density = 0.996463 g / cm^3
# Si number density = 9.987363 Si / 1000 Ang^3
#
#
#
# Elastic Constant Matrix: (Units=GPa)
#
#
# Indices 1 2 3 4 5 6 
#
# 1 126.0320 41.7142 65.9208 0.0000 -18.2284 0.0000
# 2 41.7142 113.9392 45.0120 0.0000 -3.4311 0.0000
# 3 65.9208 45.0120 162.0085 0.0000 -26.7443 0.0000
# 4 0.0000 0.0000 0.0000 32.2971 0.0000 -3.4567
# 5 -18.2284 -3.4311 -26.7443 0.0000 55.7194 0.0000
# 6 0.0000 0.0000 0.0000 -3.4567 0.0000 32.5503
#
#
#
# Elastic Compliance Matrix: (Units=1/GPa)
#
#
# Indices 1 2 3 4 5 6 
#
# 1 0.010814 -0.002563 -0.003399 0.000000 0.001748 0.000000
# 2 -0.002563 0.010497 -0.002069 0.000000 -0.001185 0.000000
# 3 -0.003399 -0.002069 0.008608 0.000000 0.002892 0.000000
# 4 0.000000 0.000000 0.000000 0.031319 0.000000 0.003326
# 5 0.001748 -0.001185 0.002892 0.000000 0.019834 0.000000
# 6 0.000000 0.000000 0.000000 0.003326 0.000000 0.031075
#
#
# Mechanical properties :
#
#
# Convention : Reuss Voigt Hill
#
# Bulk Modulus (GPa) = 72.17594 78.58595 75.38094
# Shear Modulus (GPa) = 37.64267 40.73554 39.18910
#
# Velocity S-wave (km/s) = 4.34581 4.52082 4.43418
# Velocity P-wave (km/s) = 7.83540 8.16569 8.00225
#
# Compressibility (1/GPa) = 0.01385503
#
# Stress axis : x y z
#
# Youngs Moduli (GPa) = 92.47447 95.26709 116.17164
#
# Poissons Ratio (x) = 0.24422 0.39490
# Poissons Ratio (y) = 0.23706 0.24036
# Poissons Ratio (z) = 0.31434 0.19711
#
# Static dielectric constant tensor:
#      x y z
#    x 1.706150 0.000000 0.005430 
#    y 0.000000 1.747990 0.000000 
#    z 0.005430 0.000000 1.688250 
# 
# From -- ./inp_files/139889.got.cif
#   From: 2010.05.17/outbox.ucp.g08.bks.cvg/sg15_70_cif.got.tgz:139889.got - 2010.06.11 12:40:34.
