data_PCOD9309694
_publ_section_title
;
Structure prediction by ZEFSAII (Michael W. Deem and Ramdas Pophale) SiO2 
 PCOD9309694
Probable space group: C 2/C
;
_chemical_formula_sum "Si O2"
_cell_formula_units_Z 24
_cell_length_a 9.000000
_cell_length_b 24.000000
_cell_length_c 12.000000
_cell_angle_alpha 90.000000
_cell_angle_beta 70.000000
_cell_angle_gamma 90.000000
_cell_volume 2435.683273
_symmetry_space_group_name_H-M "C 2/C"
_symmetry_group_IT_number 15
_symmetry_cell_setting 'monoclinic'
loop_
_space_group_symop_operation_xyz
x,y,z
-x,y,1/2-z
-x,-y,-z
x,-y,1/2+z
1/2+x,1/2+y,z
1/2-x,1/2+y,1/2-z
1/2-x,1/2-y,-z
1/2+x,1/2-y,1/2+z
loop_
_atom_site_type_symbol
_atom_site_label
_atom_site_fract_x
_atom_site_fract_y
_atom_site_fract_z
Si Si1 0.185580 0.675282 0.214367
Si Si2 0.192502 0.800001 0.214944
Si Si3 0.826150 0.109354 0.608268
Si Si4 0.705058 0.612698 0.527483
Si Si5 0.193888 0.022678 0.700744
Si Si6 0.821604 0.900837 0.846100
O O1 0.253818 0.737467 0.186455
O O2 0.228142 0.651031 0.322444
O O3 0.000000 0.679885 0.250000
O O4 0.243408 0.631316 0.107291
O O5 0.229136 0.832670 0.320560
O O6 0.254859 0.838543 0.099425
O O7 0.000000 0.799038 0.250000
O O8 0.762634 0.059175 0.702395
O O9 0.806279 0.099643 0.482960
O O10 0.015404 0.110129 0.575347
O O11 0.752110 0.555212 0.575314
O O12 0.000000 0.021312 0.750000
O O13 0.244869 0.959074 0.683900
O O14 0.000000 0.895995 0.750000
#
# Coordination Sequence:
#
# PCOD9309694 Si02
#       6
#     8   8   8   8   8   8
#     4  11  22  34  50  77 107 140 175 205 251 312
#     4   8  17  33  54  76 101 138 171 215 255 298
#     4   9  17  33  54  81 105 125 174 220 261 297
#     4   9  16  33  56  76 101 135 176 212 252 306
#     4   8  18  30  54  82 103 131 167 220 262 295
#     4  11  21  32  54  82 106 134 166 218 261 297
#
# _framework density 9.8534980000000001
#
# number of rings (size 3 to 8) (size 9 to 14) (size 15 to 20)
#    0.000    2.667    1.667    2.500    2.333    2.667 
#    0.000    0.833    0.000    2.000    0.000    0.000 
#    0.000    0.000    0.000    0.000    0.000    0.000 
#
# Total GULP energy -133644.410684 kJ/mol
# GULP energy per Si atom -5568.517112 kJ/mol
# Density = 0.983107 g / cm^3
# Si number density = 9.853498 Si / 1000 Ang^3
#
#
#
# Elastic Constant Matrix: (Units=GPa)
#
#
# Indices 1 2 3 4 5 6 
#
# 1 7.2458 21.2053 4.3848 0.0000 11.8769 0.0000
# 2 21.2053 95.5613 13.2002 0.0000 20.3487 0.0000
# 3 4.3848 13.2002 84.5846 0.0000 29.9563 0.0000
# 4 0.0000 0.0000 0.0000 13.8076 0.0000 0.8620
# 5 11.8769 20.3487 29.9563 0.0000 17.9792 0.0000
# 6 0.0000 0.0000 0.0000 0.8620 0.0000 1.4285
#
#
#
# Elastic Compliance Matrix: (Units=1/GPa)
#
#
# Indices 1 2 3 4 5 6 
#
# 1 -0.133729 -0.003190 -0.061317 0.000000 0.194114 0.000000
# 2 -0.003190 0.016544 0.008462 0.000000 -0.030716 0.000000
# 3 -0.061317 0.008462 0.006653 0.000000 0.019843 0.000000
# 4 0.000000 0.000000 0.000000 0.075259 0.000000 -0.045411
# 5 0.194114 -0.030716 0.019843 0.000000 -0.070908 0.000000
# 6 0.000000 0.000000 0.000000 -0.045411 0.000000 0.727421
#
#
# Mechanical properties :
#
#
# Convention : Reuss Voigt Hill
#
# Bulk Modulus (GPa) = -4.49194 29.44137 12.47471
# Shear Modulus (GPa) = 7.58586 16.54982 12.06784
#
# Velocity S-wave (km/s) = 1.96410 2.90106 2.47728
# Velocity P-wave (km/s) = 1.69093 5.11796 3.81135
#
# Compressibility (1/GPa) = -0.22262072
#
# Stress axis : x y z
#
# Youngs Moduli (GPa) = -7.47780 60.44447 150.31112
#
# Poissons Ratio (x) = 0.19280 9.21656
# Poissons Ratio (y) = -0.02385 -1.27192
# Poissons Ratio (z) = -0.45851 -0.51147
#
# Static dielectric constant tensor:
#      x y z
#    x 1.576710 0.000000 -0.021620 
#    y 0.000000 1.706400 0.000000 
#    z -0.021620 0.000000 1.692350 
# 
# From -- ./inp_files/79102.got.cif
#   From: 2010.05.17/outbox.ucp.g08.bks.cvg/sg15_40_cif.got.tgz:79102.got - 2010.06.11 12:40:34.
