data_PCOD9309477
_publ_section_title
;
Structure prediction by ZEFSAII (Michael W. Deem and Ramdas Pophale) SiO2 
 PCOD9309477
Probable space group: C 2/C
;
_chemical_formula_sum "Si O2"
_cell_formula_units_Z 20
_cell_length_a 12.000000
_cell_length_b 30.000000
_cell_length_c 6.000000
_cell_angle_alpha 90.000000
_cell_angle_beta 110.000000
_cell_angle_gamma 90.000000
_cell_volume 2029.736061
_symmetry_space_group_name_H-M "C 2/C"
_symmetry_group_IT_number 15
_symmetry_cell_setting 'monoclinic'
loop_
_space_group_symop_operation_xyz
x,y,z
-x,y,1/2-z
-x,-y,-z
x,-y,1/2+z
1/2+x,1/2+y,z
1/2-x,1/2+y,1/2-z
1/2-x,1/2-y,-z
1/2+x,1/2-y,1/2+z
loop_
_atom_site_type_symbol
_atom_site_label
_atom_site_fract_x
_atom_site_fract_y
_atom_site_fract_z
Si Si1 0.677929 0.687135 0.219075
Si Si2 0.500000 0.643522 0.750000
Si Si3 0.724640 0.616149 0.629468
Si Si4 0.000000 0.744628 0.750000
Si Si5 0.358305 0.023303 0.656495
Si Si6 0.891556 0.678662 0.044128
O O1 0.707981 0.644596 0.392138
O O2 0.616803 0.723578 0.340313
O O3 0.795011 0.699032 0.153489
O O4 0.575585 0.673687 0.972966
O O5 0.598846 0.616253 0.676576
O O6 0.779547 0.568047 0.616652
O O7 0.817038 0.644291 0.844228
O O8 0.040347 0.713905 0.569314
O O9 0.500000 0.032694 0.750000
O O10 0.336225 0.000987 0.389548
O O11 0.000000 0.655917 0.250000
#
# Coordination Sequence:
#
# PCOD9309477 Si02
#       6
#     8   4   8   4   8   8
#     4  11  24  44  68  92 140 184 235 287 345 413
#     4  10  22  44  68  99 126 194 225 284 340 418
#     4  11  24  45  72  98 139 180 231 282 353 420
#     4  12  24  44  60  99 136 180 243 288 342 402
#     4  10  25  46  75 110 144 180 225 293 359 433
#     4  11  27  39  65  99 133 185 232 290 346 414
#
# _framework density 9.8534980000000001
#
# number of rings (size 3 to 8) (size 9 to 14) (size 15 to 20)
#    0.000    1.200    2.000    1.800   11.200    4.000 
#    0.000    1.000    0.000    0.000    0.000    0.000 
#    0.000    0.000    0.000    0.000    0.000    0.000 
#
# Total GULP energy -111623.048263 kJ/mol
# GULP energy per Si atom -5581.152413 kJ/mol
# Density = 0.983107 g / cm^3
# Si number density = 9.853498 Si / 1000 Ang^3
#
#
#
# Elastic Constant Matrix: (Units=GPa)
#
#
# Indices 1 2 3 4 5 6 
#
# 1 194.6057 72.6468 66.0483 0.0000 -25.2107 0.0000
# 2 72.6468 99.5372 45.5521 0.0000 -11.8984 0.0000
# 3 66.0483 45.5521 123.1850 0.0000 -1.5241 0.0000
# 4 0.0000 0.0000 0.0000 26.4457 0.0000 -2.7937
# 5 -25.2107 -11.8984 -1.5241 0.0000 53.8107 0.0000
# 6 0.0000 0.0000 0.0000 -2.7937 0.0000 29.1265
#
#
#
# Elastic Compliance Matrix: (Units=1/GPa)
#
#
# Indices 1 2 3 4 5 6 
#
# 1 0.007999 -0.004291 -0.002668 0.000000 0.002723 0.000000
# 2 -0.004291 0.014755 -0.003141 0.000000 0.001163 0.000000
# 3 -0.002668 -0.003141 0.010690 0.000000 -0.001642 0.000000
# 4 0.000000 0.000000 0.000000 0.038200 0.000000 0.003664
# 5 0.002723 0.001163 -0.001642 0.000000 0.020070 0.000000
# 6 0.000000 0.000000 0.000000 0.003664 0.000000 0.034684
#
#
# Mechanical properties :
#
#
# Convention : Reuss Voigt Hill
#
# Bulk Modulus (GPa) = 75.51405 87.31360 81.41383
# Shear Modulus (GPa) = 33.10959 37.41530 35.26245
#
# Velocity S-wave (km/s) = 4.10334 4.36200 4.23464
# Velocity P-wave (km/s) = 7.80073 8.35293 8.08155
#
# Compressibility (1/GPa) = 0.01324257
#
# Stress axis : x y z
#
# Youngs Moduli (GPa) = 125.01662 67.77381 93.54865
#
# Poissons Ratio (x) = 0.29084 0.24961
# Poissons Ratio (y) = 0.53650 0.29382
# Poissons Ratio (z) = 0.33357 0.21287
#
# Static dielectric constant tensor:
#      x y z
#    x 1.685590 0.000000 -0.010160 
#    y 0.000000 1.692550 0.000000 
#    z -0.010160 0.000000 1.730460 
# 
# From -- ./inp_files/5951.got.cif
#   From: 2010.05.17/outbox.ucp.g08.bks.cvg/sg15_3_cif.got.tgz:5951.got - 2010.06.11 12:40:34.
