data_PCOD9309292
_publ_section_title
;
Structure prediction by ZEFSAII (Michael W. Deem and Ramdas Pophale) SiO2 
 PCOD9309292
Probable space group: C 2/C
;
_chemical_formula_sum "Si O2"
_cell_formula_units_Z 32
_cell_length_a 15.000000
_cell_length_b 9.000000
_cell_length_c 24.000000
_cell_angle_alpha 90.000000
_cell_angle_beta 90.000000
_cell_angle_gamma 90.000000
_cell_volume 3240.000000
_symmetry_space_group_name_H-M "C 2/C"
_symmetry_group_IT_number 15
_symmetry_cell_setting 'monoclinic'
loop_
_space_group_symop_operation_xyz
x,y,z
-x,y,1/2-z
-x,-y,-z
x,-y,1/2+z
1/2+x,1/2+y,z
1/2-x,1/2+y,1/2-z
1/2-x,1/2-y,-z
1/2+x,1/2-y,1/2+z
loop_
_atom_site_type_symbol
_atom_site_label
_atom_site_fract_x
_atom_site_fract_y
_atom_site_fract_z
Si Si1 0.111982 0.092443 0.527636
Si Si2 0.696157 0.964185 0.648566
Si Si3 0.301346 0.002657 0.059492
Si Si4 0.662775 0.731497 0.860544
Si Si5 0.396186 0.969989 0.732422
Si Si6 0.357203 0.771963 0.145910
Si Si7 0.052814 0.980715 0.909762
Si Si8 0.915903 0.441325 0.962227
O O1 0.204432 0.066864 0.557559
O O2 0.082666 0.263186 0.531460
O O3 0.041366 0.990750 0.559988
O O4 0.117865 0.049001 0.462580
O O5 0.758764 0.111018 0.647130
O O6 0.655833 0.957210 0.709917
O O7 0.765017 0.823631 0.643149
O O8 0.616094 0.968237 0.602109
O O9 0.360444 0.886634 0.094470
O O10 0.307597 0.157038 0.090882
O O11 0.334672 0.010485 0.996924
O O12 0.578587 0.634999 0.881091
O O13 0.634392 0.834874 0.808428
O O14 0.500000 0.965228 0.750000
O O15 0.371820 0.123826 0.699727
O O16 0.433491 0.650103 0.134479
O O17 0.000000 0.500000 0.000000
#
# Coordination Sequence:
#
# PCOD9309292 Si02
#       8
#     8   8   8   8   8   8   8   8
#     4  11  22  37  63  99 133 174 208 267 322 404
#     4  11  24  44  67  94 130 178 222 271 331 384
#     4  11  21  39  64  94 132 167 215 253 334 385
#     4  10  24  43  65  97 132 171 217 273 320 396
#     4  11  26  42  69  95 128 172 226 276 328 386
#     4  10  21  43  67  89 130 174 217 267 319 401
#     4  10  22  39  63  94 137 165 215 262 329 379
#     4  12  25  38  68 100 137 173 219 273 329 396
#
# _framework density 9.8765429999999999
#
# number of rings (size 3 to 8) (size 9 to 14) (size 15 to 20)
#    0.000    1.250    2.500    3.375    5.250    5.000 
#    0.000    2.500    0.000    0.000    0.000    0.000 
#    0.000    0.000    0.000    0.000    0.000    0.000 
#
# Total GULP energy -178519.587794 kJ/mol
# GULP energy per Si atom -5578.737119 kJ/mol
# Density = 0.985406 g / cm^3
# Si number density = 9.876543 Si / 1000 Ang^3
#
#
#
# Elastic Constant Matrix: (Units=GPa)
#
#
# Indices 1 2 3 4 5 6 
#
# 1 60.3583 23.4083 22.8902 0.0000 8.2775 0.0000
# 2 23.4083 119.4052 54.7141 0.0000 4.0203 0.0000
# 3 22.8902 54.7141 142.9948 0.0000 -3.6796 0.0000
# 4 0.0000 0.0000 0.0000 28.6660 0.0000 2.9097
# 5 8.2775 4.0203 -3.6796 0.0000 36.0987 0.0000
# 6 0.0000 0.0000 0.0000 2.9097 0.0000 11.8554
#
#
#
# Elastic Compliance Matrix: (Units=1/GPa)
#
#
# Indices 1 2 3 4 5 6 
#
# 1 0.018977 -0.002587 -0.002158 0.000000 -0.004283 0.000000
# 2 -0.002587 0.010593 -0.003664 0.000000 -0.000960 0.000000
# 3 -0.002158 -0.003664 0.008787 0.000000 0.001799 0.000000
# 4 0.000000 0.000000 0.000000 0.035776 0.000000 -0.008781
# 5 -0.004283 -0.000960 0.001799 0.000000 0.028974 0.000000
# 6 0.000000 0.000000 0.000000 -0.008781 0.000000 0.086505
#
#
# Mechanical properties :
#
#
# Convention : Reuss Voigt Hill
#
# Bulk Modulus (GPa) = 46.42765 58.30929 52.36847
# Shear Modulus (GPa) = 23.40715 30.10704 26.75710
#
# Velocity S-wave (km/s) = 3.44610 3.90830 3.68445
# Velocity P-wave (km/s) = 6.27608 7.06750 6.68351
#
# Compressibility (1/GPa) = 0.02153889
#
# Stress axis : x y z
#
# Youngs Moduli (GPa) = 52.69559 94.40013 113.80590
#
# Poissons Ratio (x) = 0.24423 0.24560
# Poissons Ratio (y) = 0.13633 0.41697
# Poissons Ratio (z) = 0.11372 0.34587
#
# Static dielectric constant tensor:
#      x y z
#    x 1.734810 0.000000 -0.019660 
#    y 0.000000 1.690920 0.000000 
#    z -0.019660 0.000000 1.691740 
# 
# From -- ./inp_files/273149.got.cif
#   From: 2010.05.17/outbox.ucp.g08.bks.cvg/sg15_137_cif.got.tgz:273149.got - 2010.06.11 12:40:34.
