data_PCOD9309965
_publ_section_title
;
Structure prediction by ZEFSAII (Michael W. Deem and Ramdas Pophale) SiO2 
 PCOD9309965
Probable space group: P 2 2 2
;
_chemical_formula_sum "Si O2"
_cell_formula_units_Z 32
_cell_length_a 14.638562
_cell_length_b 15.565224
_cell_length_c 7.518712
_cell_angle_alpha 90.000000
_cell_angle_beta 90.000000
_cell_angle_gamma 90.000000
_cell_volume 1713.157300
_symmetry_space_group_name_H-M "P 2 2 2"
_symmetry_group_IT_number 16
_symmetry_cell_setting 'orthorhombic'
loop_
_space_group_symop_operation_xyz
x,y,z
-x,-y,z
x,-y,-z
-x,y,-z
loop_
_atom_site_type_symbol
_atom_site_label
_atom_site_fract_x
_atom_site_fract_y
_atom_site_fract_z
Si Si1 0.846307 0.226836 0.231473
Si Si2 0.705353 0.340443 0.716500
Si Si3 0.316491 0.669696 0.291313
Si Si4 0.880660 0.252188 0.818626
Si Si5 0.031838 0.380766 0.692204
Si Si6 0.808470 0.489288 0.282978
Si Si7 0.008271 0.097046 0.783820
Si Si8 0.507225 0.399320 0.717740
O O1 0.738911 0.244716 0.240706
O O2 0.894796 0.303284 0.341364
O O3 0.894652 0.137516 0.274838
O O4 0.877722 0.243631 0.030157
O O5 0.690625 0.337561 0.504534
O O6 0.775746 0.264159 0.760127
O O7 0.764210 0.422701 0.778489
O O8 0.601892 0.356486 0.780799
O O9 0.259584 0.586876 0.227561
O O10 0.419269 0.656175 0.228247
O O11 0.945961 0.334026 0.780742
O O12 0.931487 0.168679 0.736399
O O13 0.092011 0.456713 0.776873
O O14 0.000000 0.408975 0.500000
O O15 0.810477 0.500000 0.500000
O O16 0.000000 0.000000 0.717868
O O17 0.000000 0.092667 0.000000
O O18 0.500000 0.500000 0.771589
O O19 0.500000 0.401192 0.500000
#
# Coordination Sequence:
#
# PCOD9309965 Si02
#       8
#     4   4   4   4   4   4   4   4
#     4   9  18  31  47  66  92 117 142 182 231 275
#     4  10  18  28  46  66  87 118 155 195 227 254
#     4   9  16  29  47  66  89 116 155 197 226 255
#     4  10  19  30  44  67  95 116 143 182 228 280
#     4  10  18  29  44  61  85 119 156 188 216 256
#     4   9  16  25  41  62  81 112 157 191 215 245
#     4   8  15  30  51  69  86 115 150 180 215 268
#     4   9  15  27  48  70  85 113 165 210 225 243
#
# _framework density 18.678963
#
# number of rings (size 3 to 8) (size 9 to 14) (size 15 to 20)
#    0.000    2.750    1.250    3.375    0.000    1.750 
#    0.000    3.125    0.000   29.250    0.000    0.875 
#    0.000    7.000    0.000    0.000    0.000    0.000 
#
# Total GULP energy -178303.710248 kJ/mol
# GULP energy per Si atom -5571.990945 kJ/mol
# Density = 1.863645 g / cm^3
# Si number density = 18.678963 Si / 1000 Ang^3
#
#
#
# Elastic Constant Matrix: (Units=GPa)
#
#
# Indices 1 2 3 4 5 6 
#
# 1 184.7680 74.5729 10.0017 0.0000 0.0000 0.0000
# 2 74.5729 111.0136 9.8590 0.0000 0.0000 0.0000
# 3 10.0017 9.8590 37.0733 0.0000 0.0000 0.0000
# 4 0.0000 0.0000 0.0000 10.1268 0.0000 0.0000
# 5 0.0000 0.0000 0.0000 0.0000 10.6843 0.0000
# 6 0.0000 0.0000 0.0000 0.0000 0.0000 19.3641
#
#
#
# Elastic Compliance Matrix: (Units=1/GPa)
#
#
# Indices 1 2 3 4 5 6 
#
# 1 0.007443 -0.004938 -0.000695 0.000000 0.000000 0.000000
# 2 -0.004938 0.012502 -0.001992 0.000000 0.000000 0.000000
# 3 -0.000695 -0.001992 0.027691 0.000000 0.000000 0.000000
# 4 0.000000 0.000000 0.000000 0.098747 0.000000 0.000000
# 5 0.000000 0.000000 0.000000 0.000000 0.093596 0.000000
# 6 0.000000 0.000000 0.000000 0.000000 0.000000 0.051642
#
#
# Mechanical properties :
#
#
# Convention : Reuss Voigt Hill
#
# Bulk Modulus (GPa) = 30.87836 57.96912 44.42374
# Shear Modulus (GPa) = 15.73981 23.92980 19.83481
#
# Velocity S-wave (km/s) = 2.90599 3.58314 3.26218
# Velocity P-wave (km/s) = 5.27510 6.94409 6.16632
#
# Compressibility (1/GPa) = 0.03238513
#
# Stress axis : x y z
#
# Youngs Moduli (GPa) = 134.35859 79.98790 36.11299
#
# Poissons Ratio (x) = 0.39498 0.02509
# Poissons Ratio (y) = 0.66345 0.07195
# Poissons Ratio (z) = 0.09335 0.15937
#
# Static dielectric constant tensor:
#      x y z
#    x 1.708040 0.000000 0.000000 
#    y 0.000000 1.656700 0.000000 
#    z 0.000000 0.000000 1.727630 
# 
# From -- ./inp_files/5258.got.cif
#   From: 2010.05.17/outbox.cif.g08.bks.cpg/sg16_3_cif.got.tgz:5258.got - 2010.06.03 22:28:35.
