data_PCOD9309258
_publ_section_title
;
Structure prediction by ZEFSAII (Michael W. Deem and Ramdas Pophale) SiO2 
 PCOD9309258
Probable space group: C 2/C
;
_chemical_formula_sum "Si O2"
_cell_formula_units_Z 30
_cell_length_a 15.000000
_cell_length_b 21.000000
_cell_length_c 15.000000
_cell_angle_alpha 90.000000
_cell_angle_beta 40.000000
_cell_angle_gamma 90.000000
_cell_volume 3037.171456
_symmetry_space_group_name_H-M "C 2/C"
_symmetry_group_IT_number 15
_symmetry_cell_setting 'monoclinic'
loop_
_space_group_symop_operation_xyz
x,y,z
-x,y,1/2-z
-x,-y,-z
x,-y,1/2+z
1/2+x,1/2+y,z
1/2-x,1/2+y,1/2-z
1/2-x,1/2-y,-z
1/2+x,1/2-y,1/2+z
loop_
_atom_site_type_symbol
_atom_site_label
_atom_site_fract_x
_atom_site_fract_y
_atom_site_fract_z
Si Si1 0.000000 0.780915 0.250000
Si Si2 0.138404 0.982478 0.093195
Si Si3 0.689279 0.214014 0.250406
Si Si4 0.923369 0.134723 0.976928
Si Si5 0.283084 0.344388 0.166618
Si Si6 0.153759 0.596588 0.598049
Si Si7 0.692765 0.043161 0.865840
Si Si8 0.391484 0.905200 0.577707
O O1 0.896969 0.739185 0.268577
O O2 0.936150 0.826043 0.374703
O O3 0.098598 0.936695 0.041665
O O4 0.221539 0.946011 0.108843
O O5 0.000000 0.006040 0.250000
O O6 0.238278 0.038270 0.983342
O O7 0.743757 0.276307 0.263291
O O8 0.611612 0.164007 0.373992
O O9 0.802145 0.167196 0.123539
O O10 0.053567 0.145584 0.942335
O O11 0.219076 0.351053 0.116320
O O12 0.229473 0.406228 0.261686
O O13 0.128959 0.609933 0.511951
O O14 0.000000 0.579247 0.750000
O O15 0.709330 0.967575 0.829925
O O16 0.533321 0.062108 0.002607
#
# Coordination Sequence:
#
# PCOD9309258 Si02
#       8
#     4   8   8   8   8   8   8   8
#     4  10  22  42  64  98 132 174 210 266 336 408
#     4  11  22  40  66 102 138 169 211 279 344 407
#     4  11  26  40  67  99 135 170 226 273 327 409
#     4  11  23  41  64 101 133 175 212 262 351 407
#     4  11  24  42  66  91 131 180 215 273 337 389
#     4  11  25  43  69  95 127 180 237 275 329 395
#     4  10  21  41  67  88 136 167 207 276 332 381
#     4  10  24  43  65  98 128 168 231 274 325 384
#
# _framework density 9.8776119999999992
#
# number of rings (size 3 to 8) (size 9 to 14) (size 15 to 20)
#    0.000    1.333    3.333    1.200    7.467    3.200 
#    0.000    0.000    0.000    0.000    0.000    0.000 
#    0.000    0.000    0.000    0.000    0.000    0.000 
#
# Total GULP energy -167061.552163 kJ/mol
# GULP energy per Si atom -5568.718405 kJ/mol
# Density = 0.985513 g / cm^3
# Si number density = 9.877612 Si / 1000 Ang^3
#
#
#
# Elastic Constant Matrix: (Units=GPa)
#
#
# Indices 1 2 3 4 5 6 
#
# 1 70.5925 12.6138 26.2921 0.0011 5.2135 0.0013
# 2 12.6138 59.7512 18.8393 0.0032 -11.0265 0.0002
# 3 26.2921 18.8393 49.7144 0.0088 -12.9020 -0.0004
# 4 0.0011 0.0032 0.0088 -6.2742 -0.0053 -20.1390
# 5 5.2135 -11.0265 -12.9020 -0.0053 4.4978 -0.0006
# 6 0.0013 0.0002 -0.0004 -20.1390 -0.0006 24.7719
#
#
#
# Elastic Compliance Matrix: (Units=1/GPa)
#
#
# Indices 1 2 3 4 5 6 
#
# 1 -0.003389 0.011430 0.022510 -0.000015 0.096522 -0.000009
# 2 0.011430 0.011848 -0.025182 0.000008 -0.056439 0.000004
# 3 0.022510 -0.025182 -0.019724 0.000028 -0.144405 0.000018
# 4 -0.000015 0.000008 0.000028 -0.044156 0.000060 -0.035898
# 5 0.096522 -0.056439 -0.144405 0.000060 -0.442143 0.000031
# 6 -0.000009 0.000004 0.000018 -0.035898 0.000031 0.011184
#
#
# Mechanical properties :
#
#
# Convention : Reuss Voigt Hill
#
# Bulk Modulus (GPa) = 159.93984 32.83870 96.38927
# Shear Modulus (GPa) = -9.96386 12.75328 1.39471
#
# Velocity S-wave (km/s) = -2.24825 2.54355 0.84115
# Velocity P-wave (km/s) = 8.62537 5.02843 7.05982
#
# Compressibility (1/GPa) = 0.00625235
#
# Stress axis : x y z
#
# Youngs Moduli (GPa) = -295.07407 84.40578 -50.70050
#
# Poissons Ratio (x) = -0.96477 1.14129
# Poissons Ratio (y) = 3.37275 -1.27673
# Poissons Ratio (z) = 6.64224 2.12549
#
# Static dielectric constant tensor:
#      x y z
#    x 1.714080 0.000000 -0.054010 
#    y 0.000000 1.756410 0.000000 
#    z -0.054010 0.000000 1.703330 
# 
# From -- ./inp_files/156346.got.cif
#   From: 2010.05.17/outbox.ucp.g08.bks.cvg/sg15_79_cif.got.tgz:156346.got - 2010.06.11 12:40:34.
