data_PCOD9309975
_publ_section_title
;
Structure prediction by ZEFSAII (Michael W. Deem and Ramdas Pophale) SiO2 
 PCOD9309975
Probable space group: P 2 2 2
;
_chemical_formula_sum "Si O2"
_cell_formula_units_Z 20
_cell_length_a 7.204508
_cell_length_b 13.315199
_cell_length_c 9.113864
_cell_angle_alpha 90.000000
_cell_angle_beta 90.000000
_cell_angle_gamma 90.000000
_cell_volume 874.288031
_symmetry_space_group_name_H-M "P 2 2 2"
_symmetry_group_IT_number 16
_symmetry_cell_setting 'orthorhombic'
loop_
_space_group_symop_operation_xyz
x,y,z
-x,-y,z
x,-y,-z
-x,y,-z
loop_
_atom_site_type_symbol
_atom_site_label
_atom_site_fract_x
_atom_site_fract_y
_atom_site_fract_z
Si Si1 0.592740 0.814031 0.141883
Si Si2 0.666091 0.722545 0.614446
Si Si3 0.285742 0.102888 0.435168
Si Si4 0.197718 0.606871 0.927798
Si Si5 0.279666 0.487003 0.669083
O O1 0.431306 0.778671 0.251673
O O2 0.712315 0.880520 0.259086
O O3 0.690022 0.711280 0.082114
O O4 0.500000 0.865221 0.000000
O O5 0.500000 0.686617 0.500000
O O6 0.786382 0.797584 0.516738
O O7 0.762634 0.629308 0.691683
O O8 0.500000 0.102648 0.500000
O O9 0.207103 0.000000 0.500000
O O10 0.177703 0.569791 0.761671
O O11 0.273704 0.500000 0.000000
O O12 0.000000 0.624360 0.000000
O O13 0.500000 0.500000 0.700024
O O14 0.242714 0.500000 0.500000
#
# Coordination Sequence:
#
# PCOD9309975 Si02
#       5
#     4   4   4   4   4
#     4  10  18  30  54  81 109 159 197 226 294 377
#     4   9  15  26  47  82 110 141 197 246 293 340
#     4   8  16  31  50  82 123 141 178 266 320 335
#     4  11  24  36  48  81 132 165 192 239 302 360
#     4  11  17  30  57  84 107 155 216 257 279 349
#
# _framework density 22.875754000000001
#
# number of rings (size 3 to 8) (size 9 to 14) (size 15 to 20)
#    0.000    2.600    4.000    2.400    0.000    0.000 
#    0.000   10.000    0.000    0.000    0.000    2.800 
#    0.000   43.200    0.000    0.000    0.000    0.000 
#
# Total GULP energy -111404.498976 kJ/mol
# GULP energy per Si atom -5570.224949 kJ/mol
# Density = 2.282369 g / cm^3
# Si number density = 22.875754 Si / 1000 Ang^3
#
#
#
# Elastic Constant Matrix: (Units=GPa)
#
#
# Indices 1 2 3 4 5 6 
#
# 1 71.5944 22.6362 43.5586 0.0000 0.0000 0.0000
# 2 22.6362 121.3423 35.2907 0.0000 0.0000 0.0000
# 3 43.5586 35.2907 160.8549 0.0000 0.0000 0.0000
# 4 0.0000 0.0000 0.0000 27.3437 0.0000 0.0000
# 5 0.0000 0.0000 0.0000 0.0000 7.5321 0.0000
# 6 0.0000 0.0000 0.0000 0.0000 0.0000 1.3502
#
#
#
# Elastic Compliance Matrix: (Units=1/GPa)
#
#
# Indices 1 2 3 4 5 6 
#
# 1 0.017155 -0.001975 -0.004212 0.000000 0.000000 0.000000
# 2 -0.001975 0.009030 -0.001446 0.000000 0.000000 0.000000
# 3 -0.004212 -0.001446 0.007675 0.000000 0.000000 0.000000
# 4 0.000000 0.000000 0.000000 0.036572 0.000000 0.000000
# 5 0.000000 0.000000 0.000000 0.000000 0.132766 0.000000
# 6 0.000000 0.000000 0.000000 0.000000 0.000000 0.740615
#
#
# Mechanical properties :
#
#
# Convention : Reuss Voigt Hill
#
# Bulk Modulus (GPa) = 53.78492 61.86252 57.82372
# Shear Modulus (GPa) = 5.17986 24.06560 14.62273
#
# Velocity S-wave (km/s) = 1.50641 3.24699 2.53103
# Velocity P-wave (km/s) = 5.15640 6.41552 5.82011
#
# Compressibility (1/GPa) = 0.01859257
#
# Stress axis : x y z
#
# Youngs Moduli (GPa) = 58.29302 110.73884 130.29823
#
# Poissons Ratio (x) = 0.21873 0.54882
# Poissons Ratio (y) = 0.11514 0.18845
# Poissons Ratio (z) = 0.24553 0.16016
#
# Static dielectric constant tensor:
#      x y z
#    x 2.063720 0.000000 0.000000 
#    y 0.000000 2.028180 0.000000 
#    z 0.000000 0.000000 1.900730 
# 
# From -- ./inp_files/3977.got.cif
#   From: 2010.05.17/outbox.cif.g08.bks.cpg/sg16_2_cif.got.tgz:3977.got - 2010.06.03 22:28:35.
