data_PCOD9309244
_publ_section_title
;
Structure prediction by ZEFSAII (Michael W. Deem and Ramdas Pophale) SiO2 
 PCOD9309244
Probable space group: C 2/C
;
_chemical_formula_sum "Si O2"
_cell_formula_units_Z 24
_cell_length_a 9.000000
_cell_length_b 9.000000
_cell_length_c 30.000000
_cell_angle_alpha 90.000000
_cell_angle_beta 90.000000
_cell_angle_gamma 90.000000
_cell_volume 2430.000000
_symmetry_space_group_name_H-M "C 2/C"
_symmetry_group_IT_number 15
_symmetry_cell_setting 'monoclinic'
loop_
_space_group_symop_operation_xyz
x,y,z
-x,y,1/2-z
-x,-y,-z
x,-y,1/2+z
1/2+x,1/2+y,z
1/2-x,1/2+y,1/2-z
1/2-x,1/2-y,-z
1/2+x,1/2-y,1/2+z
loop_
_atom_site_type_symbol
_atom_site_label
_atom_site_fract_x
_atom_site_fract_y
_atom_site_fract_z
Si Si1 0.192762 0.552931 0.813668
Si Si2 0.380876 0.669746 0.897880
Si Si3 0.332141 0.474465 0.980266
Si Si4 0.171473 0.122282 0.266637
Si Si5 0.140034 0.488666 0.649486
Si Si6 0.231620 0.169888 0.929505
O O1 0.310033 0.574513 0.855579
O O2 0.187379 0.708048 0.785068
O O3 0.238502 0.425701 0.777949
O O4 0.027310 0.516043 0.832139
O O5 0.306320 0.608254 0.944240
O O6 0.351954 0.836753 0.879983
O O7 0.558363 0.666615 0.911493
O O8 0.291853 0.326955 0.950200
O O9 0.500000 0.500000 0.000000
O O10 0.249773 0.442869 0.027789
O O11 0.243243 0.028983 0.308768
O O12 0.000000 0.097236 0.250000
O O13 0.179086 0.617994 0.614197
#
# Coordination Sequence:
#
# PCOD9309244 Si02
#       6
#     8   8   8   8   8   8
#     4  11  25  42  62  92 124 158 205 254 307 368
#     4  10  22  40  63  91 125 164 206 254 307 366
#     4   9  20  39  63  91 124 166 209 253 307 365
#     4  11  24  42  63  88 121 161 201 249 306 367
#     4  11  24  40  63  94 124 159 205 256 306 364
#     4  10  21  41  64  89 126 164 206 257 307 367
#
# _framework density 9.8765429999999999
#
# number of rings (size 3 to 8) (size 9 to 14) (size 15 to 20)
#    0.000    1.667    0.000    3.500    0.000   14.000 
#    0.000   11.667    0.000    0.000    0.000    0.000 
#    0.000    0.000    0.000    0.000    0.000    0.000 
#
# Total GULP energy -133709.606855 kJ/mol
# GULP energy per Si atom -5571.233619 kJ/mol
# Density = 0.985406 g / cm^3
# Si number density = 9.876543 Si / 1000 Ang^3
#
#
#
# Elastic Constant Matrix: (Units=GPa)
#
#
# Indices 1 2 3 4 5 6 
#
# 1 109.4955 25.9954 59.9914 0.0000 11.1437 0.0000
# 2 25.9954 65.1347 41.1993 0.0000 1.1128 0.0000
# 3 59.9914 41.1993 171.4974 0.0000 23.5873 0.0000
# 4 0.0000 0.0000 0.0000 65.3772 0.0000 5.6733
# 5 11.1437 1.1128 23.5873 0.0000 52.1769 0.0000
# 6 0.0000 0.0000 0.0000 5.6733 0.0000 30.6249
#
#
#
# Elastic Compliance Matrix: (Units=1/GPa)
#
#
# Indices 1 2 3 4 5 6 
#
# 1 0.011658 -0.002521 -0.003346 0.000000 -0.000924 0.000000
# 2 -0.002521 0.018789 -0.003893 0.000000 0.001897 0.000000
# 3 -0.003346 -0.003893 0.008346 0.000000 -0.002975 0.000000
# 4 0.000000 0.000000 0.000000 0.015546 0.000000 -0.002880
# 5 -0.000924 0.001897 -0.002975 0.000000 0.020667 0.000000
# 6 0.000000 0.000000 0.000000 -0.002880 0.000000 0.033187
#
#
# Mechanical properties :
#
#
# Convention : Reuss Voigt Hill
#
# Bulk Modulus (GPa) = 51.88282 66.72221 59.30251
# Shear Modulus (GPa) = 37.27567 44.23191 40.75379
#
# Velocity S-wave (km/s) = 4.34877 4.73720 4.54713
# Velocity P-wave (km/s) = 7.17902 7.98579 7.59313
#
# Compressibility (1/GPa) = 0.01927420
#
# Stress axis : x y z
#
# Youngs Moduli (GPa) = 85.77602 53.22325 119.82266
#
# Poissons Ratio (x) = 0.13417 0.40087
# Poissons Ratio (y) = 0.21624 0.46645
# Poissons Ratio (z) = 0.28696 0.20719
#
# Static dielectric constant tensor:
#      x y z
#    x 1.707240 0.000000 -0.012190 
#    y 0.000000 1.735910 0.000000 
#    z -0.012190 0.000000 1.689720 
# 
# From -- ./inp_files/306672.got.cif
#   From: 2010.05.17/outbox.ucp.g08.bks.cvg/sg15_154_cif.got.tgz:306672.got - 2010.06.11 12:40:34.
