data_PCOD9309112
_publ_section_title
;
Structure prediction by ZEFSAII (Michael W. Deem and Ramdas Pophale) SiO2 
 PCOD9309112
Probable space group: C 2/C
;
_chemical_formula_sum "Si O2"
_cell_formula_units_Z 28
_cell_length_a 21.000000
_cell_length_b 12.000000
_cell_length_c 24.000000
_cell_angle_alpha 90.000000
_cell_angle_beta 150.000000
_cell_angle_gamma 90.000000
_cell_volume 3024.000000
_symmetry_space_group_name_H-M "C 2/C"
_symmetry_group_IT_number 15
_symmetry_cell_setting 'monoclinic'
loop_
_space_group_symop_operation_xyz
x,y,z
-x,y,1/2-z
-x,-y,-z
x,-y,1/2+z
1/2+x,1/2+y,z
1/2-x,1/2+y,1/2-z
1/2-x,1/2-y,-z
1/2+x,1/2-y,1/2+z
loop_
_atom_site_type_symbol
_atom_site_label
_atom_site_fract_x
_atom_site_fract_y
_atom_site_fract_z
Si Si1 0.971996 0.492967 0.292072
Si Si2 0.110266 0.753992 0.787590
Si Si3 0.027869 0.670506 0.533266
Si Si4 0.677307 0.927786 0.538152
Si Si5 0.885667 0.322100 0.812853
Si Si6 0.302858 0.583655 0.720790
Si Si7 0.616871 0.638061 0.170400
O O1 0.890438 0.379226 0.222315
O O2 0.904534 0.583585 0.280473
O O3 0.000000 0.532514 0.250000
O O4 0.100601 0.460950 0.424386
O O5 0.236363 0.817551 0.904502
O O6 0.091367 0.804736 0.711149
O O7 0.000000 0.775521 0.750000
O O8 0.165837 0.613189 0.644705
O O9 0.030651 0.795776 0.560714
O O10 0.926577 0.602401 0.493011
O O11 0.994742 0.673326 0.442823
O O12 0.766139 0.023128 0.634301
O O13 0.874223 0.201749 0.774631
O O14 0.758569 0.340288 0.753531
O O15 0.382672 0.493599 0.817005
#
# Coordination Sequence:
#
# PCOD9309112 Si02
#       7
#     8   8   8   8   8   8   8
#     4  11  24  42  65  90 123 168 214 250 304 378
#     4  10  22  38  62  94 127 157 207 258 308 367
#     4  11  19  35  64  92 124 163 203 252 307 372
#     4  11  20  39  65  88 120 169 201 251 325 359
#     4  11  22  37  63  91 127 163 209 252 299 371
#     4  10  21  36  60  92 124 164 200 255 305 363
#     4  10  21  35  61  96 121 160 208 252 305 357
#
# _framework density 9.2592590000000001
#
# number of rings (size 3 to 8) (size 9 to 14) (size 15 to 20)
#    0.000    1.429    5.714    1.286    2.000    2.857 
#    0.000    5.000    6.286    0.000    0.000    0.000 
#    0.000    0.000    0.000    0.000    0.000    0.000 
#
# Total GULP energy -156162.410814 kJ/mol
# GULP energy per Si atom -5577.228958 kJ/mol
# Density = 0.923818 g / cm^3
# Si number density = 9.259259 Si / 1000 Ang^3
#
#
#
# Elastic Constant Matrix: (Units=GPa)
#
#
# Indices 1 2 3 4 5 6 
#
# 1 116.0431 53.5572 30.1401 0.0000 -17.3152 0.0000
# 2 53.5572 134.0402 33.2799 0.0001 -5.2854 0.0001
# 3 30.1401 33.2799 50.5234 0.0002 -20.8973 0.0002
# 4 0.0000 0.0001 0.0002 32.2777 0.0001 -4.4488
# 5 -17.3152 -5.2854 -20.8973 0.0001 27.3735 0.0001
# 6 0.0000 0.0001 0.0002 -4.4488 0.0001 30.4170
#
#
#
# Elastic Compliance Matrix: (Units=1/GPa)
#
#
# Indices 1 2 3 4 5 6 
#
# 1 0.011778 -0.003905 -0.002462 0.000000 0.004817 0.000000
# 2 -0.003905 0.010530 -0.006997 0.000000 -0.005778 0.000000
# 3 -0.002462 -0.006997 0.036050 0.000000 0.024613 0.000000
# 4 0.000000 0.000000 0.000000 0.031618 0.000000 0.004624
# 5 0.004817 -0.005778 0.024613 0.000000 0.057253 0.000000
# 6 0.000000 0.000000 0.000000 0.004624 0.000000 0.033553
#
#
# Mechanical properties :
#
#
# Convention : Reuss Voigt Hill
#
# Bulk Modulus (GPa) = 31.61351 59.39568 45.50460
# Shear Modulus (GPa) = 22.93023 30.25561 26.59292
#
# Velocity S-wave (km/s) = 3.52267 4.04642 3.79359
# Velocity P-wave (km/s) = 5.80120 7.34674 6.61924
#
# Compressibility (1/GPa) = 0.03163205
#
# Stress axis : x y z
#
# Youngs Moduli (GPa) = 84.90564 94.96725 27.73889
#
# Poissons Ratio (x) = 0.37083 0.06828
# Poissons Ratio (y) = 0.33154 0.19408
# Poissons Ratio (z) = 0.20901 0.66445
#
# Static dielectric constant tensor:
#      x y z
#    x 1.613150 0.000000 0.002190 
#    y 0.000000 1.681960 0.000000 
#    z 0.002190 0.000000 1.675740 
# 
# From -- ./inp_files/111062.got.cif
#   From: 2010.05.17/outbox.ucp.g08.bks.cvg/sg15_56_cif.got.tgz:111062.got - 2010.06.11 12:40:34.
