data_PCOD9309681
_publ_section_title
;
Structure prediction by ZEFSAII (Michael W. Deem and Ramdas Pophale) SiO2 
 PCOD9309681
Probable space group: C 2/C
;
_chemical_formula_sum "Si O2"
_cell_formula_units_Z 32
_cell_length_a 27.000000
_cell_length_b 12.000000
_cell_length_c 15.000000
_cell_angle_alpha 90.000000
_cell_angle_beta 40.000000
_cell_angle_gamma 90.000000
_cell_volume 3123.947783
_symmetry_space_group_name_H-M "C 2/C"
_symmetry_group_IT_number 15
_symmetry_cell_setting 'monoclinic'
loop_
_space_group_symop_operation_xyz
x,y,z
-x,y,1/2-z
-x,-y,-z
x,-y,1/2+z
1/2+x,1/2+y,z
1/2-x,1/2+y,1/2-z
1/2-x,1/2-y,-z
1/2+x,1/2-y,1/2+z
loop_
_atom_site_type_symbol
_atom_site_label
_atom_site_fract_x
_atom_site_fract_y
_atom_site_fract_z
Si Si1 0.586293 0.220871 0.669525
Si Si2 0.081814 0.237536 0.686742
Si Si3 0.392918 0.988502 0.572844
Si Si4 0.071051 0.509702 0.272589
Si Si5 0.930723 0.850164 0.624650
Si Si6 0.151988 0.728089 0.910056
Si Si7 0.896502 0.899088 0.161579
Si Si8 0.318377 0.246625 0.128719
O O1 0.500000 0.234207 0.750000
O O2 0.590310 0.281146 0.758967
O O3 0.645428 0.272496 0.517224
O O4 0.599282 0.088918 0.669155
O O5 0.080800 0.365856 0.721836
O O6 0.143882 0.228359 0.521572
O O7 0.098651 0.158003 0.747500
O O8 0.000000 0.215034 0.750000
O O9 0.480459 0.990053 0.416560
O O10 0.352384 0.094691 0.585144
O O11 0.391474 0.002318 0.681700
O O12 0.357616 0.869434 0.601012
O O13 0.916665 0.775746 0.556391
O O14 0.021219 0.877929 0.499597
O O15 0.886987 0.968212 0.681128
O O16 0.227597 0.767207 0.755081
O O17 0.836989 0.837464 0.179018
#
# Coordination Sequence:
#
# PCOD9309681 Si02
#       8
#     8   8   8   8   8   8   8   8
#     4  12  22  41  70 100 127 169 223 270 328 386
#     4  12  22  41  70 100 127 169 223 270 328 386
#     4  11  21  42  71  99 134 166 211 281 334 381
#     4  11  20  39  76 105 123 157 227 286 322 380
#     4  11  24  44  67  95 130 172 222 267 311 391
#     4  12  27  44  65  98 137 173 213 271 337 390
#     4  11  24  44  67  95 130 172 222 267 311 391
#     4  12  27  44  65  98 137 173 213 271 337 390
#
# _framework density 10.243449
#
# number of rings (size 3 to 8) (size 9 to 14) (size 15 to 20)
#    0.000    0.500    7.500    1.125    1.750    2.500 
#    0.000    0.000    0.000    0.000    0.000    0.000 
#    0.000    0.000    0.000    0.000    0.000    0.000 
#
# Total GULP energy -178976.769284 kJ/mol
# GULP energy per Si atom -5593.024040 kJ/mol
# Density = 1.022013 g / cm^3
# Si number density = 10.243449 Si / 1000 Ang^3
#
#
#
# Elastic Constant Matrix: (Units=GPa)
#
#
# Indices 1 2 3 4 5 6 
#
# 1 34.5516 4.9575 9.5394 0.0000 27.3219 0.0000
# 2 4.9575 83.7737 -10.3676 0.0000 12.5441 0.0000
# 3 9.5394 -10.3676 75.7123 0.0000 20.6131 0.0000
# 4 0.0000 0.0000 0.0000 10.7891 0.0000 9.8434
# 5 27.3219 12.5441 20.6131 0.0000 37.6294 0.0000
# 6 0.0000 0.0000 0.0000 9.8434 0.0000 -19.7765
#
#
#
# Elastic Compliance Matrix: (Units=1/GPa)
#
#
# Indices 1 2 3 4 5 6 
#
# 1 0.072266 0.005400 0.007533 0.000000 -0.058398 0.000000
# 2 0.005400 0.013741 0.004132 0.000000 -0.010765 0.000000
# 3 0.007533 0.004132 0.017263 0.000000 -0.016304 0.000000
# 4 0.000000 0.000000 0.000000 0.063741 0.000000 0.031726
# 5 -0.058398 -0.010765 -0.016304 0.000000 0.081496 0.000000
# 6 0.000000 0.000000 0.000000 0.031726 0.000000 -0.034774
#
#
# Mechanical properties :
#
#
# Convention : Reuss Voigt Hill
#
# Bulk Modulus (GPa) = 7.27797 22.47734 14.87766
# Shear Modulus (GPa) = 22.18256 18.38895 20.28575
#
# Velocity S-wave (km/s) = 3.29411 2.99924 3.15013
# Velocity P-wave (km/s) = 4.24599 4.79472 4.52867
#
# Compressibility (1/GPa) = 0.13740086
#
# Stress axis : x y z
#
# Youngs Moduli (GPa) = 13.83779 72.77681 57.92609
#
# Poissons Ratio (x) = -0.39301 -0.43638
# Poissons Ratio (y) = -0.07473 -0.23935
# Poissons Ratio (z) = -0.10424 -0.30071
#
# Static dielectric constant tensor:
#      x y z
#    x 1.743650 0.000000 -0.010600 
#    y 0.000000 1.709940 0.000000 
#    z -0.010600 0.000000 1.733780 
# 
# From -- ./inp_files/177826.got.cif
#   From: 2010.05.17/outbox.ucp.g08.bks.cvg/sg15_89_cif.got.tgz:177826.got - 2010.06.11 12:40:34.
