data_PCOD9309169
_publ_section_title
;
Structure prediction by ZEFSAII (Michael W. Deem and Ramdas Pophale) SiO2 
 PCOD9309169
Probable space group: C 2/C
;
_chemical_formula_sum "Si O2"
_cell_formula_units_Z 28
_cell_length_a 15.000000
_cell_length_b 12.000000
_cell_length_c 18.000000
_cell_angle_alpha 90.000000
_cell_angle_beta 60.000000
_cell_angle_gamma 90.000000
_cell_volume 2805.922308
_symmetry_space_group_name_H-M "C 2/C"
_symmetry_group_IT_number 15
_symmetry_cell_setting 'monoclinic'
loop_
_space_group_symop_operation_xyz
x,y,z
-x,y,1/2-z
-x,-y,-z
x,-y,1/2+z
1/2+x,1/2+y,z
1/2-x,1/2+y,1/2-z
1/2-x,1/2-y,-z
1/2+x,1/2-y,1/2+z
loop_
_atom_site_type_symbol
_atom_site_label
_atom_site_fract_x
_atom_site_fract_y
_atom_site_fract_z
Si Si1 0.689958 0.184657 0.817631
Si Si2 0.823270 0.276072 0.898943
Si Si3 0.717439 0.047223 0.378346
Si Si4 0.257681 0.502024 0.535839
Si Si5 0.929308 0.119108 0.210567
Si Si6 0.673871 0.694326 0.886890
Si Si7 0.032368 0.098089 0.591237
O O1 0.764444 0.236750 0.849618
O O2 0.603282 0.277529 0.830214
O O3 0.757642 0.171625 0.715009
O O4 0.663002 0.060318 0.861264
O O5 0.825822 0.411946 0.898256
O O6 0.922823 0.196777 0.873004
O O7 0.750000 0.250000 0.000000
O O8 0.738636 0.016623 0.455606
O O9 0.824407 0.068405 0.289497
O O10 0.668119 0.171518 0.399825
O O11 0.271111 0.620845 0.571404
O O12 0.369238 0.442388 0.497039
O O13 0.000000 0.160279 0.250000
O O14 0.988921 0.014048 0.148946
O O15 0.559699 0.648559 0.918787
#
# Coordination Sequence:
#
# PCOD9309169 Si02
#       7
#     8   8   8   8   8   8   8
#     4  11  22  40  64  88 130 164 209 264 325 374
#     4  10  21  38  65  92 123 164 206 263 314 371
#     4  11  22  43  63  90 132 171 203 263 323 385
#     4  11  22  42  65  91 129 165 214 260 323 371
#     4  11  21  39  67  97 119 168 222 266 313 380
#     4  11  25  37  64  96 124 169 212 262 320 382
#     4  11  21  40  66  95 125 160 224 258 307 381
#
# _framework density 9.9788940000000004
#
# number of rings (size 3 to 8) (size 9 to 14) (size 15 to 20)
#    0.000    1.143    5.714    1.714    2.000    1.143 
#    0.000    3.571    0.000    0.000    0.000    0.000 
#    0.000    0.000    0.000    0.000    0.000    0.000 
#
# Total GULP energy -156304.389505 kJ/mol
# GULP energy per Si atom -5582.299625 kJ/mol
# Density = 0.995618 g / cm^3
# Si number density = 9.978894 Si / 1000 Ang^3
#
#
#
# Elastic Constant Matrix: (Units=GPa)
#
#
# Indices 1 2 3 4 5 6 
#
# 1 92.6288 62.0516 12.7735 0.0000 17.0725 0.0000
# 2 62.0516 194.8486 29.7855 0.0000 18.5095 0.0000
# 3 12.7735 29.7855 55.6541 0.0000 14.2110 0.0000
# 4 0.0000 0.0000 0.0000 41.5051 0.0000 5.2261
# 5 17.0725 18.5095 14.2110 0.0000 28.7700 0.0000
# 6 0.0000 0.0000 0.0000 5.2261 0.0000 53.8763
#
#
#
# Elastic Compliance Matrix: (Units=1/GPa)
#
#
# Indices 1 2 3 4 5 6 
#
# 1 0.014663 -0.004144 0.000450 0.000000 -0.006258 0.000000
# 2 -0.004144 0.006912 -0.002564 0.000000 -0.000722 0.000000
# 3 0.000450 -0.002564 0.021610 0.000000 -0.009292 0.000000
# 4 0.000000 0.000000 0.000000 0.024391 0.000000 -0.002366
# 5 -0.006258 -0.000722 -0.009292 0.000000 0.043526 0.000000
# 6 0.000000 0.000000 0.000000 -0.002366 0.000000 0.018791
#
#
# Mechanical properties :
#
#
# Convention : Reuss Voigt Hill
#
# Bulk Modulus (GPa) = 32.60580 61.37252 46.98916
# Shear Modulus (GPa) = 32.75869 40.73169 36.74519
#
# Velocity S-wave (km/s) = 4.05581 4.52252 4.29551
# Velocity P-wave (km/s) = 6.18916 7.62161 6.94243
#
# Compressibility (1/GPa) = 0.03066939
#
# Stress axis : x y z
#
# Youngs Moduli (GPa) = 68.19861 144.66775 46.27569
#
# Poissons Ratio (x) = 0.59950 -0.02084
# Poissons Ratio (y) = 0.28261 0.11865
# Poissons Ratio (z) = -0.03071 0.37094
#
# Static dielectric constant tensor:
#      x y z
#    x 1.714280 0.000000 -0.004890 
#    y 0.000000 1.766280 0.000000 
#    z -0.004890 0.000000 1.715360 
# 
# From -- ./inp_files/204332.got.cif
#   From: 2010.05.17/outbox.ucp.g08.bks.cvg/sg15_103_cif.got.tgz:204332.got - 2010.06.11 12:40:34.
