data_PCOD9309566
_publ_section_title
;
Structure prediction by ZEFSAII (Michael W. Deem and Ramdas Pophale) SiO2 
 PCOD9309566
Probable space group: C 2/C
;
_chemical_formula_sum "Si O2"
_cell_formula_units_Z 28
_cell_length_a 27.000000
_cell_length_b 9.000000
_cell_length_c 12.000000
_cell_angle_alpha 90.000000
_cell_angle_beta 70.000000
_cell_angle_gamma 90.000000
_cell_volume 2740.143682
_symmetry_space_group_name_H-M "C 2/C"
_symmetry_group_IT_number 15
_symmetry_cell_setting 'monoclinic'
loop_
_space_group_symop_operation_xyz
x,y,z
-x,y,1/2-z
-x,-y,-z
x,-y,1/2+z
1/2+x,1/2+y,z
1/2-x,1/2+y,1/2-z
1/2-x,1/2-y,-z
1/2+x,1/2-y,1/2+z
loop_
_atom_site_type_symbol
_atom_site_label
_atom_site_fract_x
_atom_site_fract_y
_atom_site_fract_z
Si Si1 0.614444 0.738068 0.689393
Si Si2 0.069522 0.725242 0.470009
Si Si3 0.530773 0.757674 0.336265
Si Si4 0.409357 0.435057 0.519758
Si Si5 0.306862 0.538608 0.725630
Si Si6 0.773030 0.266356 0.359505
Si Si7 0.877737 0.578775 0.864365
O O1 0.580214 0.771403 0.829100
O O2 0.590565 0.649190 0.600277
O O3 0.661530 0.638555 0.707292
O O4 0.629193 0.901246 0.631933
O O5 0.112566 0.644172 0.517282
O O6 0.013372 0.663930 0.553352
O O7 0.067027 0.899415 0.506993
O O8 0.500000 0.691837 0.250000
O O9 0.561793 0.650052 0.399197
O O10 0.571672 0.870336 0.247156
O O11 0.349862 0.470047 0.606711
O O12 0.265109 0.638047 0.690615
O O13 0.280547 0.397395 0.803828
O O14 0.750000 0.250000 0.500000
O O15 0.828856 0.345992 0.338571
#
# Coordination Sequence:
#
# PCOD9309566 Si02
#       7
#     8   8   8   8   8   8   8
#     4  11  25  42  70 102 141 181 232 279 351 415
#     4  10  24  43  68 100 137 180 235 277 341 411
#     4  10  23  44  72  97 139 183 228 283 343 403
#     4  11  23  45  71 101 141 179 231 292 341 410
#     4  11  24  44  69 105 137 180 235 289 350 414
#     4  12  24  43  71  97 135 181 235 289 350 407
#     4  11  24  45  66  97 146 184 225 293 344 407
#
# _framework density 10.218442
#
# number of rings (size 3 to 8) (size 9 to 14) (size 15 to 20)
#    0.000    1.143    1.429    4.714    8.000    2.286 
#    5.143    2.857    0.000    0.000    0.000    0.000 
#    0.000    0.000    0.000    0.000    0.000    0.000 
#
# Total GULP energy -156380.274831 kJ/mol
# GULP energy per Si atom -5585.009815 kJ/mol
# Density = 1.019518 g / cm^3
# Si number density = 10.218442 Si / 1000 Ang^3
#
#
#
# Elastic Constant Matrix: (Units=GPa)
#
#
# Indices 1 2 3 4 5 6 
#
# 1 113.3438 40.5426 47.8584 0.0000 15.2270 0.0000
# 2 40.5426 123.5403 55.3979 0.0000 19.4395 0.0000
# 3 47.8584 55.3979 132.7126 0.0000 20.7738 0.0000
# 4 0.0000 0.0000 0.0000 35.2129 0.0000 6.5842
# 5 15.2270 19.4395 20.7738 0.0000 40.8208 0.0000
# 6 0.0000 0.0000 0.0000 6.5842 0.0000 23.2755
#
#
#
# Elastic Compliance Matrix: (Units=1/GPa)
#
#
# Indices 1 2 3 4 5 6 
#
# 1 0.010985 -0.002071 -0.002836 0.000000 -0.001668 0.000000
# 2 -0.002071 0.010665 -0.003293 0.000000 -0.002630 0.000000
# 3 -0.002836 -0.003293 0.010345 0.000000 -0.002639 0.000000
# 4 0.000000 0.000000 0.000000 0.029985 0.000000 -0.008482
# 5 -0.001668 -0.002630 -0.002639 0.000000 0.027715 0.000000
# 6 0.000000 0.000000 0.000000 -0.008482 0.000000 0.045363
#
#
# Mechanical properties :
#
#
# Convention : Reuss Voigt Hill
#
# Bulk Modulus (GPa) = 64.12139 73.02160 68.57149
# Shear Modulus (GPa) = 31.91704 34.91504 33.41604
#
# Velocity S-wave (km/s) = 3.95617 4.13780 4.04800
# Velocity P-wave (km/s) = 7.23269 7.65744 7.44809
#
# Compressibility (1/GPa) = 0.01559542
#
# Stress axis : x y z
#
# Youngs Moduli (GPa) = 91.03355 93.76668 96.66082
#
# Poissons Ratio (x) = 0.19417 0.27411
# Poissons Ratio (y) = 0.18852 0.31833
# Poissons Ratio (z) = 0.25815 0.30880
#
# Static dielectric constant tensor:
#      x y z
#    x 1.772580 0.000000 -0.054390 
#    y 0.000000 1.742470 0.000000 
#    z -0.054390 0.000000 1.752310 
# 
# From -- ./inp_files/121901.got.cif
#   From: 2010.05.17/outbox.ucp.g08.bks.cvg/sg15_61_cif.got.tgz:121901.got - 2010.06.11 12:40:34.
