data_PCOD9309331
_publ_section_title
;
Structure prediction by ZEFSAII (Michael W. Deem and Ramdas Pophale) SiO2 
 PCOD9309331
Probable space group: C 2/C
;
_chemical_formula_sum "Si O2"
_cell_formula_units_Z 26
_cell_length_a 30.000000
_cell_length_b 9.000000
_cell_length_c 15.000000
_cell_angle_alpha 90.000000
_cell_angle_beta 140.000000
_cell_angle_gamma 90.000000
_cell_volume 2603.289819
_symmetry_space_group_name_H-M "C 2/C"
_symmetry_group_IT_number 15
_symmetry_cell_setting 'monoclinic'
loop_
_space_group_symop_operation_xyz
x,y,z
-x,y,1/2-z
-x,-y,-z
x,-y,1/2+z
1/2+x,1/2+y,z
1/2-x,1/2+y,1/2-z
1/2-x,1/2-y,-z
1/2+x,1/2-y,1/2+z
loop_
_atom_site_type_symbol
_atom_site_label
_atom_site_fract_x
_atom_site_fract_y
_atom_site_fract_z
Si Si1 0.264179 0.701100 0.653919
Si Si2 0.782539 0.078718 0.282133
Si Si3 0.824727 0.225302 0.161748
Si Si4 0.128120 0.232103 0.827548
Si Si5 0.000000 0.717189 0.750000
Si Si6 0.447193 0.966417 0.337024
Si Si7 0.113025 0.039582 0.405767
O O1 0.268837 0.826360 0.735980
O O2 0.243978 0.552956 0.673866
O O3 0.198579 0.738104 0.491628
O O4 0.336092 0.682626 0.711082
O O5 0.814608 0.169927 0.248071
O O6 0.837082 0.008180 0.436284
O O7 0.879269 0.361924 0.251350
O O8 0.854183 0.108562 0.134517
O O9 0.750000 0.250000 0.000000
O O10 0.083935 0.377623 0.742991
O O11 0.084996 0.113364 0.819421
O O12 0.014195 0.617186 0.685117
O O13 0.062903 0.831728 0.862559
O O14 0.500000 0.000000 0.500000
#
# Coordination Sequence:
#
# PCOD9309331 Si02
#       7
#     8   8   8   8   4   8   8
#     4  10  22  37  62 101 133 168 216 274 338 399
#     4  11  22  36  65  99 128 175 219 274 342 404
#     4  11  23  43  66  99 140 174 224 287 343 398
#     4  10  22  42  64  92 137 172 218 278 334 389
#     4  10  26  48  64  94 134 180 232 270 336 406
#     4  11  27  44  69  98 135 182 220 278 339 408
#     4  10  23  43  66  92 127 179 224 277 333 398
#
# _framework density 9.9873630000000002
#
# number of rings (size 3 to 8) (size 9 to 14) (size 15 to 20)
#    0.000    1.538    1.538    1.846    8.615    5.538 
#    0.000    3.077    0.000    0.000    0.000    0.000 
#    0.000    0.000    0.000    0.000    0.000    0.000 
#
# Total GULP energy -144860.764099 kJ/mol
# GULP energy per Si atom -5571.567850 kJ/mol
# Density = 0.996463 g / cm^3
# Si number density = 9.987363 Si / 1000 Ang^3
#
#
#
# Elastic Constant Matrix: (Units=GPa)
#
#
# Indices 1 2 3 4 5 6 
#
# 1 59.4457 29.7606 49.8677 0.0000 -4.2851 0.0000
# 2 29.7606 95.7777 41.9594 0.0000 0.3450 0.0000
# 3 49.8677 41.9594 65.1786 0.0000 -15.4209 0.0000
# 4 0.0000 0.0000 0.0000 37.2443 0.0000 -2.6685
# 5 -4.2851 0.3450 -15.4209 0.0000 22.2706 0.0000
# 6 0.0000 0.0000 0.0000 -2.6685 0.0000 34.3324
#
#
#
# Elastic Compliance Matrix: (Units=1/GPa)
#
#
# Indices 1 2 3 4 5 6 
#
# 1 0.056837 0.005843 -0.053436 0.000000 -0.026155 0.000000
# 2 0.005843 0.016449 -0.017764 0.000000 -0.011431 0.000000
# 3 -0.053436 -0.017764 0.078087 0.000000 0.044064 0.000000
# 4 0.000000 0.000000 0.000000 0.027000 0.000000 0.002099
# 5 -0.026155 -0.011431 0.044064 0.000000 0.070558 0.000000
# 6 0.000000 0.000000 0.000000 0.002099 0.000000 0.029290
#
#
# Mechanical properties :
#
#
# Convention : Reuss Voigt Hill
#
# Bulk Modulus (GPa) = 48.40355 51.50860 49.95608
# Shear Modulus (GPa) = 12.02441 25.35707 18.69074
#
# Velocity S-wave (km/s) = 2.45619 3.56681 3.06227
# Velocity P-wave (km/s) = 5.68585 6.54261 6.12922
#
# Compressibility (1/GPa) = 0.02065964
#
# Stress axis : x y z
#
# Youngs Moduli (GPa) = 17.59402 60.79519 12.80628
#
# Poissons Ratio (x) = -0.35523 0.68431
# Poissons Ratio (y) = -0.10280 0.22749
# Poissons Ratio (z) = 0.94015 1.07996
#
# Static dielectric constant tensor:
#      x y z
#    x 2.319570 0.000000 -0.350770 
#    y 0.000000 1.805340 0.000000 
#    z -0.350770 0.000000 1.935640 
# 
# From -- ./inp_files/181205.got.cif
#   From: 2010.05.17/outbox.ucp.g08.bks.cvg/sg15_91_cif.got.tgz:181205.got - 2010.06.11 12:40:34.
