data_PCOD9309844
_publ_section_title
;
Structure prediction by ZEFSAII (Michael W. Deem and Ramdas Pophale) SiO2 
 PCOD9309844
Probable space group: C 2/C
;
_chemical_formula_sum "Si O2"
_cell_formula_units_Z 26
_cell_length_a 24.000000
_cell_length_b 12.000000
_cell_length_c 12.000000
_cell_angle_alpha 90.000000
_cell_angle_beta 130.000000
_cell_angle_gamma 90.000000
_cell_volume 2647.449595
_symmetry_space_group_name_H-M "C 2/C"
_symmetry_group_IT_number 15
_symmetry_cell_setting 'monoclinic'
loop_
_space_group_symop_operation_xyz
x,y,z
-x,y,1/2-z
-x,-y,-z
x,-y,1/2+z
1/2+x,1/2+y,z
1/2-x,1/2+y,1/2-z
1/2-x,1/2-y,-z
1/2+x,1/2-y,1/2+z
loop_
_atom_site_type_symbol
_atom_site_label
_atom_site_fract_x
_atom_site_fract_y
_atom_site_fract_z
Si Si1 0.367849 0.486235 0.230103
Si Si2 0.882562 0.604482 0.050846
Si Si3 0.294082 0.678571 0.465983
Si Si4 0.532278 0.101570 0.114869
Si Si5 0.224752 0.399028 0.654291
Si Si6 0.500000 0.592717 0.250000
Si Si7 0.108833 0.212664 0.556862
O O1 0.301162 0.571956 0.183741
O O2 0.445388 0.532495 0.275146
O O3 0.374434 0.395277 0.341149
O O4 0.338234 0.412941 0.090118
O O5 0.905836 0.580889 0.210230
O O6 0.958881 0.627074 0.087988
O O7 0.841451 0.720974 0.977164
O O8 0.831733 0.501220 0.943780
O O9 0.250000 0.750000 0.500000
O O10 0.249820 0.613386 0.314820
O O11 0.565659 0.197234 0.078386
O O12 0.500000 0.000000 0.000000
O O13 0.176681 0.282275 0.587210
O O14 0.556238 0.666088 0.393647
#
# Coordination Sequence:
#
# PCOD9309844 Si02
#       7
#     8   8   8   8   8   4   8
#     4  12  27  50  74 103 145 196 243 298 361 439
#     4  11  24  42  69 108 141 186 237 294 364 429
#     4  12  23  45  72 106 144 190 240 291 361 432
#     4  11  24  41  74 104 142 188 233 303 361 426
#     4  12  25  43  76 106 143 184 245 300 360 426
#     4  12  32  48  72 106 148 194 246 294 366 438
#     4  12  26  50  71 108 145 189 244 302 362 428
#
# _framework density 9.8207719999999998
#
# number of rings (size 3 to 8) (size 9 to 14) (size 15 to 20)
#    0.000    0.308    6.154    1.385    6.462    0.615 
#    0.000    0.000    0.000    0.000    0.000    0.000 
#    0.000    0.000    0.000    0.000    0.000    0.000 
#
# Total GULP energy -144760.562818 kJ/mol
# GULP energy per Si atom -5567.713955 kJ/mol
# Density = 0.979842 g / cm^3
# Si number density = 9.820772 Si / 1000 Ang^3
#
#
#
# Elastic Constant Matrix: (Units=GPa)
#
#
# Indices 1 2 3 4 5 6 
#
# 1 134.3777 53.0684 12.9832 0.0000 15.7511 0.0000
# 2 53.0684 103.7082 60.6796 0.0000 1.3912 0.0000
# 3 12.9832 60.6796 150.1494 0.0000 1.5529 0.0000
# 4 0.0000 0.0000 0.0000 57.6764 0.0000 4.8232
# 5 15.7511 1.3912 1.5529 0.0000 29.6450 0.0000
# 6 0.0000 0.0000 0.0000 4.8232 0.0000 52.0068
#
#
#
# Elastic Compliance Matrix: (Units=1/GPa)
#
#
# Indices 1 2 3 4 5 6 
#
# 1 0.010350 -0.006199 0.001665 0.000000 -0.005295 0.000000
# 2 -0.006199 0.016345 -0.006099 0.000000 0.002846 0.000000
# 3 0.001665 -0.006099 0.008992 0.000000 -0.001070 0.000000
# 4 0.000000 0.000000 0.000000 0.017474 0.000000 -0.001621
# 5 -0.005295 0.002846 -0.001070 0.000000 0.036469 0.000000
# 6 0.000000 0.000000 0.000000 -0.001621 0.000000 0.019379
#
#
# Mechanical properties :
#
#
# Convention : Reuss Voigt Hill
#
# Bulk Modulus (GPa) = 69.34560 71.29975 70.32267
# Shear Modulus (GPa) = 37.01510 45.29926 41.15718
#
# Velocity S-wave (km/s) = 4.34583 4.80760 4.58254
# Velocity P-wave (km/s) = 7.78228 8.19736 7.99251
#
# Compressibility (1/GPa) = 0.01442053
#
# Stress axis : x y z
#
# Youngs Moduli (GPa) = 96.62062 61.18111 111.21215
#
# Poissons Ratio (x) = 0.37928 -0.18519
# Poissons Ratio (y) = 0.59898 0.67826
# Poissons Ratio (z) = -0.16089 0.37313
#
# Static dielectric constant tensor:
#      x y z
#    x 1.681820 0.000000 0.015150 
#    y 0.000000 1.726630 0.000000 
#    z 0.015150 0.000000 1.714660 
# 
# From -- ./inp_files/118070.got.cif
#   From: 2010.05.17/outbox.ucp.g08.bks.cvg/sg15_60_cif.got.tgz:118070.got - 2010.06.11 12:40:34.
