data_PCOD9309833
_publ_section_title
;
Structure prediction by ZEFSAII (Michael W. Deem and Ramdas Pophale) SiO2 
 PCOD9309833
Probable space group: C 2/C
;
_chemical_formula_sum "Si O2"
_cell_formula_units_Z 30
_cell_length_a 15.000000
_cell_length_b 18.000000
_cell_length_c 12.000000
_cell_angle_alpha 90.000000
_cell_angle_beta 70.000000
_cell_angle_gamma 90.000000
_cell_volume 3044.604091
_symmetry_space_group_name_H-M "C 2/C"
_symmetry_group_IT_number 15
_symmetry_cell_setting 'monoclinic'
loop_
_space_group_symop_operation_xyz
x,y,z
-x,y,1/2-z
-x,-y,-z
x,-y,1/2+z
1/2+x,1/2+y,z
1/2-x,1/2+y,1/2-z
1/2-x,1/2-y,-z
1/2+x,1/2-y,1/2+z
loop_
_atom_site_type_symbol
_atom_site_label
_atom_site_fract_x
_atom_site_fract_y
_atom_site_fract_z
Si Si1 0.307787 0.818513 0.417535
Si Si2 0.308871 0.434033 0.632662
Si Si3 0.652337 0.079143 0.385313
Si Si4 0.161959 0.899835 0.314786
Si Si5 0.970226 0.667825 0.391294
Si Si6 0.000000 0.756985 0.750000
Si Si7 0.210944 0.422332 0.447758
Si Si8 0.983171 0.824379 0.513814
O O1 0.250000 0.750000 0.500000
O O2 0.329801 0.874237 0.509847
O O3 0.240607 0.861852 0.360379
O O4 0.403312 0.791501 0.310932
O O5 0.232000 0.404050 0.756024
O O6 0.347698 0.511249 0.665867
O O7 0.258951 0.454658 0.538018
O O8 0.388817 0.374540 0.564330
O O9 0.549436 0.106880 0.390967
O O10 0.660992 0.991077 0.404991
O O11 0.207684 0.889686 0.170651
O O12 0.063794 0.865164 0.404317
O O13 0.867802 0.633967 0.469062
O O14 0.975298 0.743956 0.458956
O O15 0.000000 0.684117 0.250000
O O16 0.996955 0.806516 0.863869
#
# Coordination Sequence:
#
# PCOD9309833 Si02
#       8
#     8   8   8   8   8   4   8   8
#     4  12  22  43  70  98 138 172 223 281 333 395
#     4  11  25  45  69  97 132 177 225 275 335 396
#     4  11  23  46  68  98 134 172 224 277 332 398
#     4  11  25  45  69  98 133 176 224 279 334 392
#     4  12  25  45  68 100 138 176 218 274 336 403
#     4  12  24  42  70 104 132 178 228 280 338 392
#     4  11  25  45  70  98 131 175 223 275 338 399
#     4  12  27  43  67 101 134 179 226 272 333 400
#
# _framework density 9.8534980000000001
#
# number of rings (size 3 to 8) (size 9 to 14) (size 15 to 20)
#    0.000    0.533    5.333    2.400    1.867    1.600 
#    1.200    0.000    0.000    0.000    0.000    0.000 
#    0.000    0.000    0.000    0.000    0.000    0.000 
#
# Total GULP energy -167443.923752 kJ/mol
# GULP energy per Si atom -5581.464125 kJ/mol
# Density = 0.983107 g / cm^3
# Si number density = 9.853498 Si / 1000 Ang^3
#
#
#
# Elastic Constant Matrix: (Units=GPa)
#
#
# Indices 1 2 3 4 5 6 
#
# 1 43.7649 10.5242 24.7436 0.0000 -27.9784 0.0000
# 2 10.5242 70.4545 28.0136 0.0000 -16.5735 0.0000
# 3 24.7436 28.0136 167.9606 0.0000 -29.7522 0.0000
# 4 0.0000 0.0000 0.0000 39.7944 0.0000 -6.0257
# 5 -27.9784 -16.5735 -29.7522 0.0000 49.7869 0.0000
# 6 0.0000 0.0000 0.0000 -6.0257 0.0000 32.5395
#
#
#
# Elastic Compliance Matrix: (Units=1/GPa)
#
#
# Indices 1 2 3 4 5 6 
#
# 1 0.036216 -0.000140 -0.001918 0.000000 0.019159 0.000000
# 2 -0.000140 0.015936 -0.001914 0.000000 0.004082 0.000000
# 3 -0.001918 -0.001914 0.006992 0.000000 0.002463 0.000000
# 4 0.000000 0.000000 0.000000 0.025854 0.000000 0.004788
# 5 0.019159 0.004082 0.002463 0.000000 0.033683 0.000000
# 6 0.000000 0.000000 0.000000 0.004788 0.000000 0.031618
#
#
# Mechanical properties :
#
#
# Convention : Reuss Voigt Hill
#
# Bulk Modulus (GPa) = 19.53179 45.41587 32.47383
# Shear Modulus (GPa) = 28.52092 39.01741 33.76916
#
# Velocity S-wave (km/s) = 3.80840 4.45441 4.14401
# Velocity P-wave (km/s) = 5.41028 7.03926 6.27783
#
# Compressibility (1/GPa) = 0.05119859
#
# Stress axis : x y z
#
# Youngs Moduli (GPa) = 27.61248 62.75153 143.02217
#
# Poissons Ratio (x) = 0.00880 0.27432
# Poissons Ratio (y) = 0.00387 0.27376
# Poissons Ratio (z) = 0.05296 0.12011
#
# Static dielectric constant tensor:
#      x y z
#    x 1.726140 0.000000 0.020980 
#    y 0.000000 1.686780 0.000000 
#    z 0.020980 0.000000 1.669370 
# 
# From -- ./inp_files/98753.got.cif
#   From: 2010.05.17/outbox.ucp.g08.bks.cvg/sg15_50_cif.got.tgz:98753.got - 2010.06.11 12:40:34.
