data_PCOD9309110
_publ_section_title
;
Structure prediction by ZEFSAII (Michael W. Deem and Ramdas Pophale) SiO2 
 PCOD9309110
Probable space group: C 2/C
;
_chemical_formula_sum "Si O2"
_cell_formula_units_Z 32
_cell_length_a 18.000000
_cell_length_b 21.000000
_cell_length_c 24.000000
_cell_angle_alpha 90.000000
_cell_angle_beta 160.000000
_cell_angle_gamma 90.000000
_cell_volume 3102.806740
_symmetry_space_group_name_H-M "C 2/C"
_symmetry_group_IT_number 15
_symmetry_cell_setting 'monoclinic'
loop_
_space_group_symop_operation_xyz
x,y,z
-x,y,1/2-z
-x,-y,-z
x,-y,1/2+z
1/2+x,1/2+y,z
1/2-x,1/2+y,1/2-z
1/2-x,1/2-y,-z
1/2+x,1/2-y,1/2+z
loop_
_atom_site_type_symbol
_atom_site_label
_atom_site_fract_x
_atom_site_fract_y
_atom_site_fract_z
Si Si1 0.248416 0.556606 0.919180
Si Si2 0.434953 0.442608 0.335188
Si Si3 0.394280 0.025096 0.984497
Si Si4 0.792581 0.370336 0.227290
Si Si5 0.973729 0.336965 0.880373
Si Si6 0.802531 0.657684 0.079363
Si Si7 0.737044 0.595891 0.444825
Si Si8 0.893938 0.774059 0.956229
O O1 0.249451 0.598311 0.863358
O O2 0.000000 0.532319 0.750000
O O3 0.427880 0.501598 0.044384
O O4 0.293034 0.591820 0.009579
O O5 0.332387 0.454680 0.202715
O O6 0.272624 0.419369 0.269284
O O7 0.596279 0.385839 0.436668
O O8 0.332057 0.970948 0.985989
O O9 0.520087 0.086914 0.099325
O O10 0.500000 0.000000 0.000000
O O11 0.052359 0.357934 0.416070
O O12 0.621904 0.312451 0.113966
O O13 0.755574 0.302230 0.700092
O O14 0.132312 0.328909 0.938178
O O15 0.045945 0.299518 0.987726
O O16 0.742878 0.711033 0.083369
O O17 0.000000 0.622718 0.250000
O O18 0.500000 0.609128 0.250000
#
# Coordination Sequence:
#
# PCOD9309110 Si02
#       8
#     8   8   8   8   8   8   8   8
#     4  10  21  35  58  92 129 170 218 278 332 390
#     4  11  20  36  60  88 138 174 222 261 335 396
#     4  12  26  40  62  98 137 176 223 276 346 411
#     4  10  23  39  62  94 132 175 227 272 336 397
#     4  11  25  42  66  96 136 176 230 269 332 400
#     4   9  20  39  60  95 133 177 221 264 317 395
#     4  11  22  40  62  97 138 172 216 279 344 406
#     4  10  24  43  67  95 134 183 225 277 325 391
#
# _framework density 10.313243
#
# number of rings (size 3 to 8) (size 9 to 14) (size 15 to 20)
#    0.000    1.500    2.500    1.875    5.250    5.000 
#    0.000    0.000    0.000    0.000    0.000   28.000 
#    0.000    0.000    0.000    0.000    0.000    0.000 
#
# Total GULP energy -178281.181296 kJ/mol
# GULP energy per Si atom -5571.286916 kJ/mol
# Density = 1.028977 g / cm^3
# Si number density = 10.313243 Si / 1000 Ang^3
#
#
#
# Elastic Constant Matrix: (Units=GPa)
#
#
# Indices 1 2 3 4 5 6 
#
# 1 96.0611 16.3366 22.0015 -0.0303 -4.7739 0.0077
# 2 16.3366 42.6084 9.8575 -0.1492 -4.1085 -0.0245
# 3 22.0015 9.8575 116.0543 -0.3183 -2.5970 -0.0265
# 4 -0.0303 -0.1492 -0.3183 17.2798 -0.0155 -11.3891
# 5 -4.7739 -4.1085 -2.5970 -0.0155 40.3138 0.0143
# 6 0.0077 -0.0245 -0.0265 -11.3891 0.0143 19.1238
#
#
#
# Elastic Compliance Matrix: (Units=1/GPa)
#
#
# Indices 1 2 3 4 5 6 
#
# 1 0.011539 -0.003918 -0.001836 -0.000091 0.000849 -0.000067
# 2 -0.003918 0.025488 -0.001375 0.000346 0.002045 0.000237
# 3 -0.001836 -0.001375 0.009087 0.000263 0.000228 0.000168
# 4 -0.000091 0.000346 0.000263 0.095279 0.000058 0.056744
# 5 0.000849 0.002045 0.000228 0.000058 0.025129 0.000018
# 6 -0.000067 0.000237 0.000168 0.056744 0.000018 0.086085
#
#
# Mechanical properties :
#
#
# Convention : Reuss Voigt Hill
#
# Bulk Modulus (GPa) = 31.39117 39.01278 35.20198
# Shear Modulus (GPa) = 18.01899 29.11204 23.56551
#
# Velocity S-wave (km/s) = 2.95885 3.76092 3.38374
# Velocity P-wave (km/s) = 5.18893 6.14934 5.68944
#
# Compressibility (1/GPa) = 0.03185609
#
# Stress axis : x y z
#
# Youngs Moduli (GPa) = 86.66240 39.23344 110.04219
#
# Poissons Ratio (x) = 0.15371 0.20204
# Poissons Ratio (y) = 0.33954 0.15135
# Poissons Ratio (z) = 0.15912 0.05396
#
# Static dielectric constant tensor:
#      x y z
#    x 1.721440 0.000000 0.017900 
#    y 0.000000 1.810670 -0.000260 
#    z 0.017900 -0.000260 1.792730 
# 
# From -- ./inp_files/278165.got.cif
#   From: 2010.05.17/outbox.ucp.g08.bks.cvg/sg15_140_cif.got.tgz:278165.got - 2010.06.11 12:40:34.
