data_PCOD9309802
_publ_section_title
;
Structure prediction by ZEFSAII (Michael W. Deem and Ramdas Pophale) SiO2 
 PCOD9309802
Probable space group: C 2/C
;
_chemical_formula_sum "Si O2"
_cell_formula_units_Z 26
_cell_length_a 15.000000
_cell_length_b 21.000000
_cell_length_c 9.000000
_cell_angle_alpha 90.000000
_cell_angle_beta 80.000000
_cell_angle_gamma 90.000000
_cell_volume 2791.929980
_symmetry_space_group_name_H-M "C 2/C"
_symmetry_group_IT_number 15
_symmetry_cell_setting 'monoclinic'
loop_
_space_group_symop_operation_xyz
x,y,z
-x,y,1/2-z
-x,-y,-z
x,-y,1/2+z
1/2+x,1/2+y,z
1/2-x,1/2+y,1/2-z
1/2-x,1/2-y,-z
1/2+x,1/2-y,1/2+z
loop_
_atom_site_type_symbol
_atom_site_label
_atom_site_fract_x
_atom_site_fract_y
_atom_site_fract_z
Si Si1 0.172778 0.964377 0.128229
Si Si2 0.883686 0.208607 0.567122
Si Si3 0.500000 0.450566 0.750000
Si Si4 0.897030 0.325045 0.327723
Si Si5 0.742762 0.416435 0.417365
Si Si6 0.276968 0.252556 0.663245
Si Si7 0.924596 0.854437 0.530682
O O1 0.229196 0.940302 0.252629
O O2 0.084583 0.003213 0.205276
O O3 0.134207 0.900470 0.059665
O O4 0.223847 0.019581 0.018640
O O5 0.890265 0.262562 0.436585
O O6 0.828729 0.143208 0.539753
O O7 0.816269 0.242497 0.711009
O O8 0.990085 0.186880 0.563181
O O9 0.476261 0.403960 0.622089
O O10 0.840934 0.383944 0.413166
O O11 0.839203 0.305456 0.199751
O O12 0.000000 0.337292 0.250000
O O13 0.250000 0.250000 0.500000
O O14 0.349669 0.312104 0.642941
#
# Coordination Sequence:
#
# PCOD9309802 Si02
#       7
#     8   8   4   8   8   8   8
#     4  12  24  40  61  95 131 167 211 267 329 383
#     4  11  23  41  67  94 129 174 217 262 328 391
#     4  12  22  36  58  96 124 170 208 254 324 394
#     4  11  23  45  66  92 127 178 224 262 322 393
#     4  11  24  40  64  92 128 171 217 263 324 391
#     4  11  24  39  62  98 130 169 213 273 329 377
#     4  12  22  39  64  94 136 164 214 266 328 394
#
# _framework density 9.3125540000000004
#
# number of rings (size 3 to 8) (size 9 to 14) (size 15 to 20)
#    0.000    0.615    4.615    6.000    2.154    1.846 
#    0.000    0.769    0.000    0.000    0.000    0.000 
#    0.000    0.000    0.000    0.000    0.000    0.000 
#
# Total GULP energy -144957.037954 kJ/mol
# GULP energy per Si atom -5575.270691 kJ/mol
# Density = 0.929136 g / cm^3
# Si number density = 9.312554 Si / 1000 Ang^3
#
#
#
# Elastic Constant Matrix: (Units=GPa)
#
#
# Indices 1 2 3 4 5 6 
#
# 1 104.1708 62.8177 53.1970 0.0000 -28.3145 0.0000
# 2 62.8177 115.9115 42.3392 0.0000 -17.8319 0.0000
# 3 53.1970 42.3392 82.9608 0.0000 -12.5208 0.0000
# 4 0.0000 0.0000 0.0000 31.8668 0.0000 -7.1331
# 5 -28.3145 -17.8319 -12.5208 0.0000 38.1858 0.0000
# 6 0.0000 0.0000 0.0000 -7.1331 0.0000 45.8060
#
#
#
# Elastic Compliance Matrix: (Units=1/GPa)
#
#
# Indices 1 2 3 4 5 6 
#
# 1 0.020295 -0.006551 -0.008271 0.000000 0.009278 0.000000
# 2 -0.006551 0.013140 -0.002433 0.000000 0.000481 0.000000
# 3 -0.008271 -0.002433 0.018413 0.000000 -0.001231 0.000000
# 4 0.000000 0.000000 0.000000 0.032514 0.000000 0.005063
# 5 0.009278 0.000481 -0.001231 0.000000 0.032888 0.000000
# 6 0.000000 0.000000 0.000000 0.005063 0.000000 0.022620
#
#
# Mechanical properties :
#
#
# Convention : Reuss Voigt Hill
#
# Bulk Modulus (GPa) = 57.66986 68.86120 63.26553
# Shear Modulus (GPa) = 27.75338 32.81765 30.28552
#
# Velocity S-wave (km/s) = 3.86438 4.20219 4.03682
# Velocity P-wave (km/s) = 7.13736 7.78441 7.46790
#
# Compressibility (1/GPa) = 0.01734008
#
# Stress axis : x y z
#
# Youngs Moduli (GPa) = 49.27303 76.10327 54.30931
#
# Poissons Ratio (x) = 0.49852 0.44917
# Poissons Ratio (y) = 0.32276 0.13214
# Poissons Ratio (z) = 0.40751 0.18516
#
# Static dielectric constant tensor:
#      x y z
#    x 1.669980 0.000000 0.001300 
#    y 0.000000 1.656640 0.000000 
#    z 0.001300 0.000000 1.719000 
# 
# From -- ./inp_files/40776.got.cif
#   From: 2010.05.17/outbox.ucp.g08.bks.cvg/sg15_21_cif.got.tgz:40776.got - 2010.06.11 12:40:34.
