data_PCOD9309840
_publ_section_title
;
Structure prediction by ZEFSAII (Michael W. Deem and Ramdas Pophale) SiO2 
 PCOD9309840
Probable space group: C 2/C
;
_chemical_formula_sum "Si O2"
_cell_formula_units_Z 20
_cell_length_a 12.000000
_cell_length_b 18.000000
_cell_length_c 18.000000
_cell_angle_alpha 90.000000
_cell_angle_beta 30.000000
_cell_angle_gamma 90.000000
_cell_volume 1944.000000
_symmetry_space_group_name_H-M "C 2/C"
_symmetry_group_IT_number 15
_symmetry_cell_setting 'monoclinic'
loop_
_space_group_symop_operation_xyz
x,y,z
-x,y,1/2-z
-x,-y,-z
x,-y,1/2+z
1/2+x,1/2+y,z
1/2-x,1/2+y,1/2-z
1/2-x,1/2-y,-z
1/2+x,1/2-y,1/2+z
loop_
_atom_site_type_symbol
_atom_site_label
_atom_site_fract_x
_atom_site_fract_y
_atom_site_fract_z
Si Si1 0.706696 0.583526 0.296539
Si Si2 0.170246 0.832194 0.579363
Si Si3 0.340353 0.090666 0.680119
Si Si4 0.145176 0.337903 0.484383
Si Si5 0.588180 0.336941 0.014670
O O1 0.479819 0.616205 0.389694
O O2 0.775693 0.496249 0.238782
O O3 0.686660 0.606917 0.395411
O O4 0.903864 0.633484 0.148848
O O5 0.250000 0.750000 0.500000
O O6 0.401465 0.879900 0.460148
O O7 0.000000 0.822454 0.750000
O O8 0.286328 0.110959 0.625063
O O9 0.171940 0.142018 0.825469
O O10 0.299062 0.345658 0.468878
O O11 0.130688 0.250219 0.469954
#
# Coordination Sequence:
#
# PCOD9309840 Si02
#       5
#     8   8   8   8   8
#     4  12  27  46  73 111 153 194 252 317 379 447
#     4  12  28  49  79 109 151 206 257 311 381 466
#     4  12  27  46  75 109 153 197 250 315 380 450
#     4  11  23  47  77 105 147 195 252 306 382 456
#     4  11  25  46  76 109 146 195 251 315 375 454
#
# _framework density 10.288066000000001
#
# number of rings (size 3 to 8) (size 9 to 14) (size 15 to 20)
#    0.000    0.400    2.000    6.000    5.600    3.200 
#    3.600    0.000    0.000    0.000    0.000    0.000 
#    0.000    0.000    0.000    0.000    0.000    0.000 
#
# Total GULP energy -111743.041180 kJ/mol
# GULP energy per Si atom -5587.152059 kJ/mol
# Density = 1.026465 g / cm^3
# Si number density = 10.288066 Si / 1000 Ang^3
#
#
#
# Elastic Constant Matrix: (Units=GPa)
#
#
# Indices 1 2 3 4 5 6 
#
# 1 106.8366 69.5889 44.2348 0.0037 -2.5122 -0.0002
# 2 69.5889 181.2802 58.3536 0.0110 -0.4968 0.0009
# 3 44.2348 58.3536 149.0355 0.0331 6.8672 -0.0033
# 4 0.0037 0.0110 0.0331 55.3165 -0.0062 5.4738
# 5 -2.5122 -0.4968 6.8672 -0.0062 52.7182 -0.0034
# 6 -0.0002 0.0009 -0.0033 5.4738 -0.0034 40.9761
#
#
#
# Elastic Compliance Matrix: (Units=1/GPa)
#
#
# Indices 1 2 3 4 5 6 
#
# 1 0.013118 -0.004310 -0.002246 0.000001 0.000877 0.000000
# 2 -0.004310 0.007736 -0.001754 0.000000 0.000096 0.000000
# 3 -0.002246 -0.001754 0.008118 -0.000005 -0.001181 0.000001
# 4 0.000001 0.000000 -0.000005 0.018320 0.000003 -0.002447
# 5 0.000877 0.000096 -0.001181 0.000003 0.019165 0.000001
# 6 0.000000 0.000000 0.000001 -0.002447 0.000001 0.024731
#
#
# Mechanical properties :
#
#
# Convention : Reuss Voigt Hill
#
# Bulk Modulus (GPa) = 80.96794 86.83410 83.90102
# Shear Modulus (GPa) = 44.67209 47.46717 46.06963
#
# Velocity S-wave (km/s) = 4.66452 4.80823 4.73692
# Velocity P-wave (km/s) = 8.27322 8.55093 8.41322
#
# Compressibility (1/GPa) = 0.01235057
#
# Stress axis : x y z
#
# Youngs Moduli (GPa) = 76.22907 129.26905 123.18718
#
# Poissons Ratio (x) = 0.55719 0.27672
# Poissons Ratio (y) = 0.32857 0.21607
# Poissons Ratio (z) = 0.17124 0.22674
#
# Static dielectric constant tensor:
#      x y z
#    x 1.797100 -0.000010 0.003150 
#    y -0.000010 1.724000 0.000010 
#    z 0.003150 0.000010 1.759270 
# 
# From -- ./inp_files/199672.got.cif
#   From: 2010.05.17/outbox.ucp.g08.bks.cvg/sg15_100_cif.got.tgz:199672.got - 2010.06.11 12:40:34.
