data_PCOD9309966
_publ_section_title
;
Structure prediction by ZEFSAII (Michael W. Deem and Ramdas Pophale) SiO2 
 PCOD9309966
Probable space group: P 2 2 2
;
_chemical_formula_sum "Si O2"
_cell_formula_units_Z 27
_cell_length_a 7.722886
_cell_length_b 10.258023
_cell_length_c 15.862970
_cell_angle_alpha 90.000000
_cell_angle_beta 90.000000
_cell_angle_gamma 90.000000
_cell_volume 1256.688948
_symmetry_space_group_name_H-M "P 2 2 2"
_symmetry_group_IT_number 16
_symmetry_cell_setting 'orthorhombic'
loop_
_space_group_symop_operation_xyz
x,y,z
-x,-y,z
x,-y,-z
-x,y,-z
loop_
_atom_site_type_symbol
_atom_site_label
_atom_site_fract_x
_atom_site_fract_y
_atom_site_fract_z
Si Si1 0.000000 0.500000 0.142955
Si Si2 0.955363 0.203458 0.095251
Si Si3 0.711183 0.720380 0.413224
Si Si4 0.708278 0.501851 0.277918
Si Si5 0.500000 0.000000 0.000000
Si Si6 0.288883 0.269260 0.602001
Si Si7 0.303832 0.989679 0.654445
Si Si8 0.738424 0.968196 0.148102
O O1 0.042246 0.640052 0.100053
O O2 0.827732 0.524134 0.197893
O O3 0.790199 0.117403 0.123297
O O4 0.105312 0.134376 0.149100
O O5 0.000000 0.165581 0.000000
O O6 0.756029 0.611313 0.346092
O O7 0.767047 0.690580 0.508333
O O8 0.499961 0.726498 0.405857
O O9 0.777676 0.861795 0.385732
O O10 0.500000 0.500000 0.261454
O O11 0.755978 0.366526 0.323067
O O12 0.382849 0.924641 0.930480
O O13 0.224213 0.126452 0.627334
O O14 0.318970 0.973188 0.755149
O O15 0.500000 0.000000 0.620360
#
# Coordination Sequence:
#
# PCOD9309966 Si02
#       8
#     2   4   4   4   1   4   4   4
#     4  12  25  42  63  88 128 160 200 262 309 355
#     4  11  23  43  61  85 118 164 200 243 315 369
#     4   9  17  31  52  80 117 157 197 245 297 351
#     4  10  21  39  59  85 113 159 205 245 295 359
#     4  12  20  38  68  98 122 154 208 258 296 358
#     4   9  17  31  52  80 117 157 197 245 297 351
#     4  10  18  28  51  86 117 147 191 245 300 352
#     4  11  21  39  64  91 120 159 201 248 300 369
#
# _framework density 21.485029000000001
#
# number of rings (size 3 to 8) (size 9 to 14) (size 15 to 20)
#    0.000    1.778    2.222    3.333    0.000    3.556 
#    2.667    1.481    0.000    1.778    0.000    8.296 
#    0.000    0.000    0.000    0.000    0.000    0.000 
#
# Total GULP energy -150514.957030 kJ/mol
# GULP energy per Si atom -5574.628038 kJ/mol
# Density = 2.143613 g / cm^3
# Si number density = 21.485029 Si / 1000 Ang^3
#
#
#
# Elastic Constant Matrix: (Units=GPa)
#
#
# Indices 1 2 3 4 5 6 
#
# 1 45.6335 2.4877 2.4461 0.0000 0.0000 0.0000
# 2 2.4877 105.0223 -19.0278 0.0000 0.0000 0.0000
# 3 2.4461 -19.0278 43.3671 0.0000 0.0000 0.0000
# 4 0.0000 0.0000 0.0000 11.4321 0.0000 0.0000
# 5 0.0000 0.0000 0.0000 0.0000 -248.9802 0.0000
# 6 0.0000 0.0000 0.0000 0.0000 0.0000 2.5152
#
#
#
# Elastic Compliance Matrix: (Units=1/GPa)
#
#
# Indices 1 2 3 4 5 6 
#
# 1 0.022044 -0.000812 -0.001600 0.000000 0.000000 0.000000
# 2 -0.000812 0.010374 0.004597 0.000000 0.000000 0.000000
# 3 -0.001600 0.004597 0.025166 0.000000 0.000000 0.000000
# 4 0.000000 0.000000 0.000000 0.087473 0.000000 0.000000
# 5 0.000000 0.000000 0.000000 0.000000 -0.004016 0.000000
# 6 0.000000 0.000000 0.000000 0.000000 0.000000 0.397589
#
#
# Mechanical properties :
#
#
# Convention : Reuss Voigt Hill
#
# Bulk Modulus (GPa) = 16.14052 18.42611 17.28332
# Shear Modulus (GPa) = 9.01047 -33.13214 -12.06083
#
# Velocity S-wave (km/s) = 2.05011 -3.93122 -2.37187
# Velocity P-wave (km/s) = 3.62390 3.46571 0.74885
#
# Compressibility (1/GPa) = 0.06195587
#
# Stress axis : x y z
#
# Youngs Moduli (GPa) = 45.36437 96.39494 39.73553
#
# Poissons Ratio (x) = 0.07827 0.06356
# Poissons Ratio (y) = 0.03684 -0.18268
# Poissons Ratio (z) = 0.07257 -0.44318
#
# Static dielectric constant tensor:
#      x y z
#    x 1.901950 0.000000 0.000000 
#    y 0.000000 1.836400 0.000000 
#    z 0.000000 0.000000 1.741650 
# 
# From -- ./inp_files/8938.got.cif
#   From: 2010.05.17/outbox.cif.g08.bks.cpg/sg16_5_cif.got.tgz:8938.got - 2010.06.03 22:28:35.
