data_PCOD9309574
_publ_section_title
;
Structure prediction by ZEFSAII (Michael W. Deem and Ramdas Pophale) SiO2 
 PCOD9309574
Probable space group: C 2/C
;
_chemical_formula_sum "Si O2"
_cell_formula_units_Z 28
_cell_length_a 24.000000
_cell_length_b 24.000000
_cell_length_c 15.000000
_cell_angle_alpha 90.000000
_cell_angle_beta 20.000000
_cell_angle_gamma 90.000000
_cell_volume 2955.054038
_symmetry_space_group_name_H-M "C 2/C"
_symmetry_group_IT_number 15
_symmetry_cell_setting 'monoclinic'
loop_
_space_group_symop_operation_xyz
x,y,z
-x,y,1/2-z
-x,-y,-z
x,-y,1/2+z
1/2+x,1/2+y,z
1/2-x,1/2+y,1/2-z
1/2-x,1/2-y,-z
1/2+x,1/2-y,1/2+z
loop_
_atom_site_type_symbol
_atom_site_label
_atom_site_fract_x
_atom_site_fract_y
_atom_site_fract_z
Si Si1 0.500000 0.772331 0.750000
Si Si2 0.836581 0.431567 0.260972
Si Si3 0.577553 0.724592 0.288334
Si Si4 0.278411 0.855100 0.980028
Si Si5 0.604242 0.836833 0.893735
Si Si6 0.950271 0.474315 0.723002
Si Si7 0.500000 0.363266 0.750000
Si Si8 0.917776 0.179235 0.020438
O O1 0.352787 0.812764 0.941077
O O2 0.448151 0.732221 0.909259
O O3 0.849389 0.479026 0.318752
O O4 0.661700 0.402125 0.509420
O O5 0.962968 0.383147 0.102209
O O6 0.903341 0.457837 0.066826
O O7 0.458470 0.777600 0.476408
O O8 0.512349 0.678310 0.316923
O O9 0.604408 0.698979 0.345520
O O10 0.750000 0.750000 0.000000
O O11 0.337121 0.831630 0.796353
O O12 0.350226 0.916687 0.883961
O O13 0.084310 0.855409 0.269582
O O14 0.760875 0.852406 0.717564
O O15 0.000000 0.491196 0.750000
#
# Coordination Sequence:
#
# PCOD9309574 Si02
#       8
#     4   8   8   8   8   8   4   8
#     4  12  20  38  61 103 140 164 208 268 332 392
#     4  10  25  47  68  96 129 175 219 279 332 384
#     4  12  25  41  64  95 134 186 217 253 327 399
#     4  11  22  39  68 101 132 174 210 277 334 384
#     4  11  22  41  63  93 139 173 213 268 323 391
#     4  10  23  46  73  95 125 169 222 277 344 383
#     4  12  26  48  67  93 136 176 230 268 320 406
#     4  12  24  37  64 105 134 169 219 263 326 404
#
# _framework density 9.4752919999999996
#
# number of rings (size 3 to 8) (size 9 to 14) (size 15 to 20)
#    0.000    0.857    5.000    2.143    2.000    1.143 
#    9.000    0.714    0.000    0.000    0.000    0.000 
#    0.000    0.000    0.000    0.000    0.000    0.000 
#
# Total GULP energy -156505.601726 kJ/mol
# GULP energy per Si atom -5589.485776 kJ/mol
# Density = 0.945373 g / cm^3
# Si number density = 9.475292 Si / 1000 Ang^3
#
#
#
# Elastic Constant Matrix: (Units=GPa)
#
#
# Indices 1 2 3 4 5 6 
#
# 1 158.0503 52.8023 51.2106 0.0000 0.5610 -0.0028
# 2 52.8023 80.9159 37.7630 -0.0008 1.7035 -0.0034
# 3 51.2106 37.7630 109.0525 -0.0056 -18.3915 -0.0019
# 4 0.0000 -0.0008 -0.0056 28.2528 0.0019 -5.0958
# 5 0.5610 1.7035 -18.3915 0.0019 41.3693 0.0016
# 6 -0.0028 -0.0034 -0.0019 -5.0958 0.0016 41.2846
#
#
#
# Elastic Compliance Matrix: (Units=1/GPa)
#
#
# Indices 1 2 3 4 5 6 
#
# 1 0.008681 -0.004348 -0.002768 -0.000001 -0.001169 0.000000
# 2 -0.004348 0.017298 -0.004387 0.000000 -0.002604 0.000001
# 3 -0.002768 -0.004387 0.013000 0.000002 0.005998 0.000000
# 4 -0.000001 0.000000 0.000002 0.036201 -0.000001 0.004468
# 5 -0.001169 -0.002604 0.005998 -0.000001 0.026962 -0.000001
# 6 0.000000 0.000001 0.000000 0.004468 -0.000001 0.024774
#
#
# Mechanical properties :
#
#
# Convention : Reuss Voigt Hill
#
# Bulk Modulus (GPa) = 62.60730 70.17449 66.39090
# Shear Modulus (GPa) = 32.20669 35.93086 34.06878
#
# Velocity S-wave (km/s) = 4.12698 4.35907 4.24461
# Velocity P-wave (km/s) = 7.47116 7.90227 7.68974
#
# Compressibility (1/GPa) = 0.01597258
#
# Stress axis : x y z
#
# Youngs Moduli (GPa) = 115.19670 57.80876 76.92042
#
# Poissons Ratio (x) = 0.25137 0.21291
# Poissons Ratio (y) = 0.50092 0.33747
# Poissons Ratio (z) = 0.31885 0.25362
#
# Static dielectric constant tensor:
#      x y z
#    x 1.649200 0.000000 0.003600 
#    y 0.000000 1.642000 0.000010 
#    z 0.003600 0.000010 1.689780 
# 
# From -- ./inp_files/174744.got.cif
#   From: 2010.05.17/outbox.ucp.g08.bks.cvg/sg15_88_cif.got.tgz:174744.got - 2010.06.11 12:40:34.
