data_PCOD9309135
_publ_section_title
;
Structure prediction by ZEFSAII (Michael W. Deem and Ramdas Pophale) SiO2 
 PCOD9309135
Probable space group: C 2/C
;
_chemical_formula_sum "Si O2"
_cell_formula_units_Z 20
_cell_length_a 15.000000
_cell_length_b 27.000000
_cell_length_c 15.000000
_cell_angle_alpha 90.000000
_cell_angle_beta 20.000000
_cell_angle_gamma 90.000000
_cell_volume 2077.772371
_symmetry_space_group_name_H-M "C 2/C"
_symmetry_group_IT_number 15
_symmetry_cell_setting 'monoclinic'
loop_
_space_group_symop_operation_xyz
x,y,z
-x,y,1/2-z
-x,-y,-z
x,-y,1/2+z
1/2+x,1/2+y,z
1/2-x,1/2+y,1/2-z
1/2-x,1/2-y,-z
1/2+x,1/2-y,1/2+z
loop_
_atom_site_type_symbol
_atom_site_label
_atom_site_fract_x
_atom_site_fract_y
_atom_site_fract_z
Si Si1 0.219225 0.034665 0.968393
Si Si2 0.174632 0.214705 0.829991
Si Si3 0.285937 0.648148 0.527915
Si Si4 0.926278 0.873637 0.212684
Si Si5 0.420036 0.064432 0.220784
O O1 0.500000 0.041462 0.750000
O O2 0.152960 0.090685 0.000357
O O3 0.285925 0.990298 0.835791
O O4 0.000000 0.019920 0.250000
O O5 0.425057 0.249405 0.576476
O O6 0.204040 0.182997 0.894352
O O7 0.140267 0.176168 0.779471
O O8 0.000000 0.651093 0.750000
O O9 0.500000 0.660780 0.250000
O O10 0.685538 0.913163 0.429075
O O11 0.000000 0.866376 0.250000
O O12 0.187016 0.897100 0.925934
O O13 0.500000 0.063694 0.250000
#
# Coordination Sequence:
#
# PCOD9309135 Si02
#       5
#     8   8   8   8   8
#     4   9  16  30  55  86 117 149 183 224 280 343
#     4  12  26  42  60  83 113 151 200 251 291 332
#     4  10  22  40  62  87 116 150 190 237 290 346
#     4  10  21  37  58  85 117 152 190 233 283 341
#     4   9  16  31  56  85 115 150 185 222 277 343
#
# _framework density 9.6256930000000001
#
# number of rings (size 3 to 8) (size 9 to 14) (size 15 to 20)
#    0.000    2.000    0.000    5.400    0.000    3.200 
#    0.000    2.000    0.000    0.000    0.000    8.400 
#    0.000    0.000    0.000    0.000    0.000    0.000 
#
# Total GULP energy -111463.051323 kJ/mol
# GULP energy per Si atom -5573.152566 kJ/mol
# Density = 0.960378 g / cm^3
# Si number density = 9.625693 Si / 1000 Ang^3
#
#
#
# Elastic Constant Matrix: (Units=GPa)
#
#
# Indices 1 2 3 4 5 6 
#
# 1 61.5073 43.7370 23.1506 0.0393 -1.8243 -0.0203
# 2 43.7370 131.0938 41.8075 0.1341 -3.0140 -0.1220
# 3 23.1506 41.8075 155.8530 0.4338 -14.6487 -0.6950
# 4 0.0393 0.1341 0.4338 41.3666 -0.1495 6.4287
# 5 -1.8243 -3.0140 -14.6487 -0.1495 23.4520 0.1149
# 6 -0.0203 -0.1220 -0.6950 6.4287 0.1149 17.1519
#
#
#
# Elastic Compliance Matrix: (Units=1/GPa)
#
#
# Indices 1 2 3 4 5 6 
#
# 1 0.021589 -0.006758 -0.001401 0.000030 -0.000063 -0.000090
# 2 -0.006758 0.010460 -0.001833 -0.000009 -0.000326 -0.000002
# 3 -0.001401 -0.001833 0.007527 -0.000102 0.004355 0.000300
# 4 0.000030 -0.000009 -0.000102 0.025672 0.000148 -0.009627
# 5 -0.000063 -0.000326 0.004355 0.000148 0.045315 -0.000185
# 6 -0.000090 -0.000002 0.000300 -0.009627 -0.000185 0.061924
#
#
# Mechanical properties :
#
#
# Convention : Reuss Voigt Hill
#
# Bulk Modulus (GPa) = 51.03689 62.87159 56.95424
# Shear Modulus (GPa) = 25.12569 32.37803 28.75186
#
# Velocity S-wave (km/s) = 3.61659 4.10549 3.86877
# Velocity P-wave (km/s) = 6.63385 7.42984 7.04310
#
# Compressibility (1/GPa) = 0.01959367
#
# Stress axis : x y z
#
# Youngs Moduli (GPa) = 46.32063 95.60571 132.85714
#
# Poissons Ratio (x) = 0.64606 0.18607
# Poissons Ratio (y) = 0.31301 0.24348
# Poissons Ratio (z) = 0.06487 0.17521
#
# Static dielectric constant tensor:
#      x y z
#    x 1.674090 -0.000100 -0.000120 
#    y -0.000100 1.735190 0.000120 
#    z -0.000120 0.000120 1.672150 
# 
# From -- ./inp_files/157152.got.cif
#   From: 2010.05.17/outbox.ucp.g08.bks.cvg/sg15_79_cif.got.tgz:157152.got - 2010.06.11 12:40:34.
