data_PCOD9309848
_publ_section_title
;
Structure prediction by ZEFSAII (Michael W. Deem and Ramdas Pophale) SiO2 
 PCOD9309848
Probable space group: C 2/C
;
_chemical_formula_sum "Si O2"
_cell_formula_units_Z 30
_cell_length_a 21.000000
_cell_length_b 15.000000
_cell_length_c 27.000000
_cell_angle_alpha 90.000000
_cell_angle_beta 20.000000
_cell_angle_gamma 90.000000
_cell_volume 2908.881319
_symmetry_space_group_name_H-M "C 2/C"
_symmetry_group_IT_number 15
_symmetry_cell_setting 'monoclinic'
loop_
_space_group_symop_operation_xyz
x,y,z
-x,y,1/2-z
-x,-y,-z
x,-y,1/2+z
1/2+x,1/2+y,z
1/2-x,1/2+y,1/2-z
1/2-x,1/2-y,-z
1/2+x,1/2-y,1/2+z
loop_
_atom_site_type_symbol
_atom_site_label
_atom_site_fract_x
_atom_site_fract_y
_atom_site_fract_z
Si Si1 0.029039 0.110842 0.618297
Si Si2 0.137180 0.543988 0.196054
Si Si3 0.518775 0.735876 0.379848
Si Si4 0.373007 0.837366 0.294541
Si Si5 0.500000 0.390990 0.250000
Si Si6 0.649441 0.105959 0.347072
Si Si7 0.582236 0.182041 0.068965
Si Si8 0.631094 0.907509 0.359238
O O1 0.170407 0.076112 0.471892
O O2 0.074297 0.215997 0.593376
O O3 0.024342 0.065143 0.676852
O O4 0.821051 0.103058 0.750529
O O5 0.156437 0.441255 0.201228
O O6 0.000000 0.539392 0.250000
O O7 0.030953 0.614404 0.310823
O O8 0.524597 0.773029 0.319679
O O9 0.321859 0.707868 0.547005
O O10 0.651503 0.650193 0.289665
O O11 0.605908 0.821539 0.343841
O O12 0.500000 0.842526 0.250000
O O13 0.297274 0.341841 0.397834
O O14 0.532265 0.171997 0.398130
O O15 0.544908 0.094778 0.475431
O O16 0.645540 0.007035 0.326109
#
# Coordination Sequence:
#
# PCOD9309848 Si02
#       8
#     8   8   8   8   4   8   8   8
#     4  12  24  41  67  99 137 183 230 275 347 407
#     4  11  25  43  64 102 141 175 224 294 338 404
#     4  12  23  48  74 103 130 184 224 284 348 411
#     4  11  26  47  74 101 138 173 229 286 352 408
#     4  12  24  38  64  98 132 188 222 272 334 418
#     4  11  24  43  69  99 137 177 228 286 336 405
#     4  12  24  41  67  99 137 183 230 275 347 407
#     4  11  24  43  69  99 137 177 228 286 336 405
#
# _framework density 10.313243
#
# number of rings (size 3 to 8) (size 9 to 14) (size 15 to 20)
#    0.000    0.533    5.333    3.200    1.867    1.067 
#    0.000    2.667    5.867    0.000    0.000    0.000 
#    0.000    0.000    0.000    0.000    0.000    0.000 
#
# Total GULP energy -167356.238383 kJ/mol
# GULP energy per Si atom -5578.541279 kJ/mol
# Density = 1.028977 g / cm^3
# Si number density = 10.313243 Si / 1000 Ang^3
#
#
#
# Elastic Constant Matrix: (Units=GPa)
#
#
# Indices 1 2 3 4 5 6 
#
# 1 47.1453 0.9415 -14.3008 -0.0024 4.8790 0.0023
# 2 0.9415 97.9049 8.8036 0.0182 12.1343 0.0002
# 3 -14.3008 8.8036 69.7303 0.0154 7.1628 0.0024
# 4 -0.0024 0.0182 0.0154 26.0988 -0.0026 5.9188
# 5 4.8790 12.1343 7.1628 -0.0026 35.8198 0.0008
# 6 0.0023 0.0002 0.0024 5.9188 0.0008 25.9271
#
#
#
# Elastic Compliance Matrix: (Units=1/GPa)
#
#
# Indices 1 2 3 4 5 6 
#
# 1 0.023224 -0.000178 0.005211 -0.000001 -0.004145 -0.000002
# 2 -0.000178 0.010731 -0.001042 -0.000008 -0.003403 0.000002
# 3 0.005211 -0.001042 0.015905 -0.000009 -0.003537 0.000000
# 4 -0.000001 -0.000008 -0.000009 0.040408 0.000008 -0.009224
# 5 -0.004145 -0.003403 -0.003537 0.000008 0.030342 -0.000002
# 6 -0.000002 0.000002 0.000000 -0.009224 -0.000002 0.040675
#
#
# Mechanical properties :
#
#
# Convention : Reuss Voigt Hill
#
# Bulk Modulus (GPa) = 17.28829 22.85212 20.07021
# Shear Modulus (GPa) = 28.97141 32.19156 30.58148
#
# Velocity S-wave (km/s) = 3.75183 3.95484 3.85467
# Velocity P-wave (km/s) = 5.21230 5.65309 5.43717
#
# Compressibility (1/GPa) = 0.05784261
#
# Stress axis : x y z
#
# Youngs Moduli (GPa) = 43.05834 93.18692 62.87475
#
# Poissons Ratio (x) = 0.01660 -0.32766
# Poissons Ratio (y) = 0.00767 0.06551
# Poissons Ratio (z) = -0.22439 0.09709
#
# Static dielectric constant tensor:
#      x y z
#    x 1.789290 0.000000 0.028290 
#    y 0.000000 1.751400 0.000010 
#    z 0.028290 0.000010 1.730850 
# 
# From -- ./inp_files/301179.got.cif
#   From: 2010.05.17/outbox.ucp.g08.bks.cvg/sg15_151_cif.got.tgz:301179.got - 2010.06.11 12:40:34.
