data_PCOD9309948
_publ_section_title
;
Structure prediction by ZEFSAII (Michael W. Deem and Ramdas Pophale) SiO2 
 PCOD9309948
Probable space group: P 2 2 2
;
_chemical_formula_sum "Si O2"
_cell_formula_units_Z 28
_cell_length_a 25.604344
_cell_length_b 5.276068
_cell_length_c 11.702387
_cell_angle_alpha 90.000000
_cell_angle_beta 90.000000
_cell_angle_gamma 90.000000
_cell_volume 1580.878503
_symmetry_space_group_name_H-M "P 2 2 2"
_symmetry_group_IT_number 16
_symmetry_cell_setting 'orthorhombic'
loop_
_space_group_symop_operation_xyz
x,y,z
-x,-y,z
x,-y,-z
-x,y,-z
loop_
_atom_site_type_symbol
_atom_site_label
_atom_site_fract_x
_atom_site_fract_y
_atom_site_fract_z
Si Si1 0.476726 0.742525 0.869617
Si Si2 0.308806 0.033978 0.863267
Si Si3 0.081096 0.943998 0.130655
Si Si4 0.641346 0.544153 0.132440
Si Si5 0.805819 0.938133 0.769670
Si Si6 0.831677 0.562954 0.369786
Si Si7 0.944000 0.561821 0.268803
O O1 0.500000 0.500000 0.807626
O O2 0.415658 0.677620 0.872433
O O3 0.500000 0.000000 0.819756
O O4 0.500000 0.744645 0.000000
O O5 0.323465 0.760433 0.812060
O O6 0.248596 0.078790 0.835933
O O7 0.346555 0.262746 0.820601
O O8 0.316076 0.000000 0.000000
O O9 0.143713 0.970021 0.149085
O O10 0.055755 0.166370 0.206598
O O11 0.066116 0.665373 0.177039
O O12 0.067667 0.000000 0.000000
O O13 0.655725 0.500000 0.000000
O O14 0.809131 0.174915 0.681471
O O15 0.812657 0.673445 0.704896
O O16 0.818655 0.500000 0.500000
O O17 0.894566 0.569107 0.352776
O O18 0.000000 0.500000 0.322613
#
# Coordination Sequence:
#
# PCOD9309948 Si02
#       7
#     4   4   4   4   4   4   4
#     4  10  17  24  39  54  83 127 173 222 229 255
#     4  10  20  30  47  66  98 129 164 213 240 283
#     4  10  20  33  51  71 100 135 167 196 233 295
#     4  10  18  28  39  64  90 126 177 215 235 270
#     4  10  20  36  52  73  96 124 164 204 258 290
#     4  10  21  37  57  74  93 121 160 204 250 319
#     4  10  21  34  50  76 102 126 158 200 246 297
#
# _framework density 17.711670000000002
#
# number of rings (size 3 to 8) (size 9 to 14) (size 15 to 20)
#    0.000    2.000    1.429    3.429    4.000    2.000 
#    0.000    4.286    0.000    5.143    0.000    0.000 
#    0.000    0.000    0.000    0.000    0.000  150.000 
#
# Total GULP energy -155873.540544 kJ/mol
# GULP energy per Si atom -5566.912162 kJ/mol
# Density = 1.767136 g / cm^3
# Si number density = 17.711670 Si / 1000 Ang^3
#
#
#
# Elastic Constant Matrix: (Units=GPa)
#
#
# Indices 1 2 3 4 5 6 
#
# 1 81.2696 31.3357 -10.4136 0.0000 0.0000 0.0000
# 2 31.3357 128.9746 -3.2169 0.0000 0.0000 0.0000
# 3 -10.4136 -3.2169 12.7161 0.0000 0.0000 0.0000
# 4 0.0000 0.0000 0.0000 416.2047 0.0000 0.0000
# 5 0.0000 0.0000 0.0000 0.0000 5.5922 0.0000
# 6 0.0000 0.0000 0.0000 0.0000 0.0000 24.5125
#
#
#
# Elastic Compliance Matrix: (Units=1/GPa)
#
#
# Indices 1 2 3 4 5 6 
#
# 1 0.015080 -0.003377 0.011495 0.000000 0.000000 0.000000
# 2 -0.003377 0.008559 -0.000600 0.000000 0.000000 0.000000
# 3 0.011495 -0.000600 0.087902 0.000000 0.000000 0.000000
# 4 0.000000 0.000000 0.000000 0.002403 0.000000 0.000000
# 5 0.000000 0.000000 0.000000 0.000000 0.178821 0.000000
# 6 0.000000 0.000000 0.000000 0.000000 0.000000 0.040795
#
#
# Mechanical properties :
#
#
# Convention : Reuss Voigt Hill
#
# Bulk Modulus (GPa) = 7.90041 28.70786 18.30414
# Shear Modulus (GPa) = 13.86127 102.94556 58.40342
#
# Velocity S-wave (km/s) = 2.80055 7.63212 5.74858
# Velocity P-wave (km/s) = 3.86363 9.69068 7.37689
#
# Compressibility (1/GPa) = 0.12657577
#
# Stress axis : x y z
#
# Youngs Moduli (GPa) = 66.31406 116.83633 11.37630
#
# Poissons Ratio (x) = 0.39456 -0.13077
# Poissons Ratio (y) = 0.22395 0.00683
# Poissons Ratio (z) = -0.76228 0.07014
#
# Static dielectric constant tensor:
#      x y z
#    x -7.465570 0.000000 0.000000 
#    y 0.000000 1.635160 0.000000 
#    z 0.000000 0.000000 1.540410 
# 
# From -- ./inp_files/7356.got.cif
#   From: 2010.05.17/outbox.cif.g08.bks.cpg/sg16_4_cif.got.tgz:7356.got - 2010.06.03 22:28:35.
