data_PCOD9309473
_publ_section_title
;
Structure prediction by ZEFSAII (Michael W. Deem and Ramdas Pophale) SiO2 
 PCOD9309473
Probable space group: C 2/C
;
_chemical_formula_sum "Si O2"
_cell_formula_units_Z 28
_cell_length_a 9.000000
_cell_length_b 21.000000
_cell_length_c 30.000000
_cell_angle_alpha 90.000000
_cell_angle_beta 30.000000
_cell_angle_gamma 90.000000
_cell_volume 2835.000000
_symmetry_space_group_name_H-M "C 2/C"
_symmetry_group_IT_number 15
_symmetry_cell_setting 'monoclinic'
loop_
_space_group_symop_operation_xyz
x,y,z
-x,y,1/2-z
-x,-y,-z
x,-y,1/2+z
1/2+x,1/2+y,z
1/2-x,1/2+y,1/2-z
1/2-x,1/2-y,-z
1/2+x,1/2-y,1/2+z
loop_
_atom_site_type_symbol
_atom_site_label
_atom_site_fract_x
_atom_site_fract_y
_atom_site_fract_z
Si Si1 0.759115 0.445815 0.588276
Si Si2 0.926482 0.428999 0.355009
Si Si3 0.305894 0.370708 0.487986
Si Si4 0.145915 0.688504 0.327805
Si Si5 0.582093 0.334717 0.320347
Si Si6 0.924096 0.419232 0.079233
Si Si7 0.588316 0.072001 0.278835
O O1 0.755721 0.521389 0.598986
O O2 0.445228 0.425470 0.687970
O O3 0.046270 0.419641 0.540078
O O4 0.795844 0.420399 0.527691
O O5 0.582274 0.405193 0.441355
O O6 0.145670 0.379413 0.270028
O O7 0.012018 0.429804 0.385381
O O8 0.972539 0.501770 0.324870
O O9 0.477894 0.348154 0.398467
O O10 0.101293 0.318482 0.567652
O O11 0.500000 0.679016 0.250000
O O12 0.141860 0.758655 0.305554
O O13 0.019942 0.632218 0.328250
O O14 0.289631 0.358128 0.369397
O O15 0.500000 0.079804 0.250000
#
# Coordination Sequence:
#
# PCOD9309473 Si02
#       7
#     8   8   8   8   8   8   8
#     4  10  22  44  66  99 136 178 219 290 338 404
#     4  12  25  43  73 106 138 183 233 285 342 421
#     4  11  24  44  72 102 135 180 235 284 348 414
#     4  12  26  46  71  99 138 188 234 286 350 416
#     4  11  24  45  70 100 139 183 233 285 341 414
#     4  10  23  40  71  96 137 178 226 276 348 399
#     4  12  27  43  68 102 142 177 231 287 350 405
#
# _framework density 9.8765429999999999
#
# number of rings (size 3 to 8) (size 9 to 14) (size 15 to 20)
#    0.000    0.857    2.857    3.857    6.000    2.286 
#    0.000    0.714    0.000    0.000    0.000    0.000 
#    0.000    0.000    0.000    0.000    0.000    0.000 
#
# Total GULP energy -156090.280033 kJ/mol
# GULP energy per Si atom -5574.652858 kJ/mol
# Density = 0.985406 g / cm^3
# Si number density = 9.876543 Si / 1000 Ang^3
#
#
#
# Elastic Constant Matrix: (Units=GPa)
#
#
# Indices 1 2 3 4 5 6 
#
# 1 119.6306 45.9766 29.4068 -0.0116 7.1347 -0.0548
# 2 45.9766 137.8039 32.2583 -0.0376 3.9127 0.0551
# 3 29.4068 32.2583 109.2520 -0.0966 -5.7712 0.0586
# 4 -0.0116 -0.0376 -0.0966 38.0671 0.0606 3.6349
# 5 7.1347 3.9127 -5.7712 0.0606 30.4590 0.0326
# 6 -0.0548 0.0551 0.0586 3.6349 0.0326 30.4922
#
#
#
# Elastic Compliance Matrix: (Units=1/GPa)
#
#
# Indices 1 2 3 4 5 6 
#
# 1 0.010080 -0.002826 -0.002004 -0.000004 -0.002378 0.000030
# 2 -0.002826 0.008652 -0.001836 0.000006 -0.000797 -0.000017
# 3 -0.002004 -0.001836 0.010376 0.000022 0.002671 -0.000026
# 4 -0.000004 0.000006 0.000022 0.026572 -0.000045 -0.003168
# 5 -0.002378 -0.000797 0.002671 -0.000045 0.033997 -0.000039
# 6 0.000030 -0.000017 -0.000026 -0.003168 -0.000039 0.033173
#
#
# Mechanical properties :
#
#
# Convention : Reuss Voigt Hill
#
# Bulk Modulus (GPa) = 63.39305 64.66330 64.02817
# Shear Modulus (GPa) = 35.35048 37.07331 36.21190
#
# Velocity S-wave (km/s) = 4.23498 4.33695 4.28627
# Velocity P-wave (km/s) = 7.48838 7.60826 7.54856
#
# Compressibility (1/GPa) = 0.01577460
#
# Stress axis : x y z
#
# Youngs Moduli (GPa) = 99.20861 115.57894 96.37749
#
# Poissons Ratio (x) = 0.32666 0.19316
# Poissons Ratio (y) = 0.28040 0.17695
# Poissons Ratio (z) = 0.19884 0.21220
#
# Static dielectric constant tensor:
#      x y z
#    x 1.721610 0.000010 0.026530 
#    y 0.000010 1.723690 0.000020 
#    z 0.026530 0.000020 1.755280 
# 
# From -- ./inp_files/308987.got.cif
#   From: 2010.05.17/outbox.ucp.g08.bks.cvg/sg15_155_cif.got.tgz:308987.got - 2010.06.11 12:40:34.
