data_PCOD9309404
_publ_section_title
;
Structure prediction by ZEFSAII (Michael W. Deem and Ramdas Pophale) SiO2 
 PCOD9309404
Probable space group: C 2/C
;
_chemical_formula_sum "Si O2"
_cell_formula_units_Z 24
_cell_length_a 12.000000
_cell_length_b 27.000000
_cell_length_c 21.000000
_cell_angle_alpha 90.000000
_cell_angle_beta 20.000000
_cell_angle_gamma 90.000000
_cell_volume 2327.105055
_symmetry_space_group_name_H-M "C 2/C"
_symmetry_group_IT_number 15
_symmetry_cell_setting 'monoclinic'
loop_
_space_group_symop_operation_xyz
x,y,z
-x,y,1/2-z
-x,-y,-z
x,-y,1/2+z
1/2+x,1/2+y,z
1/2-x,1/2+y,1/2-z
1/2-x,1/2-y,-z
1/2+x,1/2-y,1/2+z
loop_
_atom_site_type_symbol
_atom_site_label
_atom_site_fract_x
_atom_site_fract_y
_atom_site_fract_z
Si Si1 0.365242 0.557385 0.892645
Si Si2 0.906204 0.052796 0.224076
Si Si3 0.754915 0.151569 0.767697
Si Si4 0.612768 0.699380 0.466382
Si Si5 0.925378 0.148825 0.436903
Si Si6 0.342038 0.809240 0.602695
O O1 0.500000 0.564078 0.750000
O O2 0.470361 0.502267 0.856391
O O3 0.560345 0.598411 0.828929
O O4 0.975548 0.558207 0.089409
O O5 0.000000 0.062368 0.250000
O O6 0.070836 0.092082 0.088791
O O7 0.020980 0.184508 0.587969
O O8 0.432960 0.163401 0.897194
O O9 0.619968 0.162689 0.911748
O O10 0.475450 0.662826 0.483996
O O11 0.453040 0.752804 0.541513
O O12 0.000000 0.701709 0.250000
O O13 0.228906 0.172929 0.233701
O O14 0.000000 0.815696 0.750000
#
# Coordination Sequence:
#
# PCOD9309404 Si02
#       6
#     8   8   8   8   8   8
#     4  11  21  36  61  92 124 157 201 250 301 358
#     4  11  21  37  61  92 124 158 200 249 301 357
#     4  11  23  41  64  90 122 163 206 252 306 360
#     4  12  26  40  58  89 127 165 205 251 306 366
#     4  11  22  41  64  89 122 161 206 254 306 361
#     4  10  22  41  65  90 118 159 210 257 303 359
#
# _framework density 10.313243
#
# number of rings (size 3 to 8) (size 9 to 14) (size 15 to 20)
#    0.000    1.000    0.000   10.000    0.000    7.333 
#    0.000    0.833    0.000    0.000    0.000    0.000 
#    0.000    0.000    0.000    0.000    0.000    0.000 
#
# Total GULP energy -133865.062679 kJ/mol
# GULP energy per Si atom -5577.710945 kJ/mol
# Density = 1.028977 g / cm^3
# Si number density = 10.313243 Si / 1000 Ang^3
#
#
#
# Elastic Constant Matrix: (Units=GPa)
#
#
# Indices 1 2 3 4 5 6 
#
# 1 39.5699 16.2781 5.8334 1.4342 -3.8975 -0.2034
# 2 16.2781 125.4212 22.4584 -0.1176 3.9763 -0.0507
# 3 5.8334 22.4584 127.9175 1.3196 1.5484 0.0387
# 4 1.4342 -0.1176 1.3196 242.4865 -1.7286 -9.6749
# 5 -3.8975 3.9763 1.5484 -1.7286 30.6716 -0.0164
# 6 -0.2034 -0.0507 0.0387 -9.6749 -0.0164 23.5547
#
#
#
# Elastic Compliance Matrix: (Units=1/GPa)
#
#
# Indices 1 2 3 4 5 6 
#
# 1 0.027220 -0.003538 -0.000667 -0.000124 0.003944 0.000181
# 2 -0.003538 0.008722 -0.001352 0.000022 -0.001511 -0.000002
# 3 -0.000667 -0.001352 0.008090 -0.000045 -0.000320 -0.000041
# 4 -0.000124 0.000022 -0.000045 0.004195 0.000221 0.001722
# 5 0.003944 -0.001511 -0.000320 0.000221 0.033329 0.000145
# 6 0.000181 -0.000002 -0.000041 0.001722 0.000145 0.043164
#
#
# Mechanical properties :
#
#
# Convention : Reuss Voigt Hill
#
# Bulk Modulus (GPa) = 30.37890 42.44984 36.41437
# Shear Modulus (GPa) = 34.05850 75.89847 54.97849
#
# Velocity S-wave (km/s) = 4.06791 6.07260 5.16838
# Velocity P-wave (km/s) = 6.06827 8.35426 7.30128
#
# Compressibility (1/GPa) = 0.03291759
#
# Stress axis : x y z
#
# Youngs Moduli (GPa) = 36.73827 114.64737 123.61478
#
# Poissons Ratio (x) = 0.40568 0.08240
# Poissons Ratio (y) = 0.13000 0.16712
# Poissons Ratio (z) = 0.02449 0.15500
#
# Static dielectric constant tensor:
#      x y z
#    x 1.758250 -0.000100 -0.049930 
#    y -0.000100 1.788310 0.000450 
#    z -0.049930 0.000450 1.807800 
# 
# From -- ./inp_files/241052.got.cif
#   From: 2010.05.17/outbox.ucp.g08.bks.cvg/sg15_121_cif.got.tgz:241052.got - 2010.06.11 12:40:34.
