data_PCOD9309078
_publ_section_title
;
Structure prediction by ZEFSAII (Michael W. Deem and Ramdas Pophale) SiO2 
 PCOD9309078
Probable space group: C 2/C
;
_chemical_formula_sum "Si O2"
_cell_formula_units_Z 30
_cell_length_a 12.000000
_cell_length_b 15.000000
_cell_length_c 18.000000
_cell_angle_alpha 90.000000
_cell_angle_beta 80.000000
_cell_angle_gamma 90.000000
_cell_volume 3190.777120
_symmetry_space_group_name_H-M "C 2/C"
_symmetry_group_IT_number 15
_symmetry_cell_setting 'monoclinic'
loop_
_space_group_symop_operation_xyz
x,y,z
-x,y,1/2-z
-x,-y,-z
x,-y,1/2+z
1/2+x,1/2+y,z
1/2-x,1/2+y,1/2-z
1/2-x,1/2-y,-z
1/2+x,1/2-y,1/2+z
loop_
_atom_site_type_symbol
_atom_site_label
_atom_site_fract_x
_atom_site_fract_y
_atom_site_fract_z
Si Si1 0.617532 0.783691 0.772970
Si Si2 0.463656 0.905830 0.168094
Si Si3 0.214253 0.530025 0.605184
Si Si4 0.500000 0.514278 0.750000
Si Si5 0.739793 0.961395 0.770701
Si Si6 0.171554 0.122226 0.498780
Si Si7 0.713653 0.222086 0.876970
Si Si8 0.940470 0.129884 0.611138
O O1 0.500000 0.817611 0.750000
O O2 0.696448 0.862810 0.790915
O O3 0.694530 0.733663 0.700905
O O4 0.575784 0.724732 0.846889
O O5 0.500000 0.892012 0.250000
O O6 0.582421 0.937726 0.115731
O O7 0.403357 0.818884 0.140521
O O8 0.355396 0.974040 0.181043
O O9 0.224500 0.480473 0.684112
O O10 0.260684 0.465553 0.535054
O O11 0.314354 0.603424 0.599152
O O12 0.373731 0.470587 0.774177
O O13 0.479840 0.569691 0.676805
O O14 0.231144 0.159988 0.565981
O O15 0.187553 0.188140 0.426345
O O16 0.038453 0.118401 0.537657
#
# Coordination Sequence:
#
# PCOD9309078 Si02
#       8
#     8   8   8   4   8   8   8   8
#     4  12  20  37  62  90 118 154 213 255 301 359
#     4  10  21  41  62  91 123 159 207 256 311 360
#     4  10  21  39  58  86 123 162 199 250 314 366
#     4  10  20  42  60  92 122 160 216 252 308 366
#     4  10  21  35  63  90 119 157 203 259 307 359
#     4  11  22  39  60  90 123 159 210 249 309 372
#     4  11  23  38  62  91 121 160 203 262 304 363
#     4  11  21  38  63  87 119 168 207 254 304 373
#
# _framework density 9.4020980000000005
#
# number of rings (size 3 to 8) (size 9 to 14) (size 15 to 20)
#    0.000    1.333    3.333    4.800    0.000    0.533 
#    3.600    2.000    0.000    0.000    0.000    0.000 
#    0.000    0.000    0.000    0.000    0.000    0.000 
#
# Total GULP energy -167193.689727 kJ/mol
# GULP energy per Si atom -5573.122991 kJ/mol
# Density = 0.938070 g / cm^3
# Si number density = 9.402098 Si / 1000 Ang^3
#
#
#
# Elastic Constant Matrix: (Units=GPa)
#
#
# Indices 1 2 3 4 5 6 
#
# 1 179.0459 41.9664 15.8051 0.0000 -18.4057 0.0000
# 2 41.9664 47.8611 2.8664 0.0000 7.8362 0.0000
# 3 15.8051 2.8664 43.7106 0.0000 -20.4111 0.0000
# 4 0.0000 0.0000 0.0000 13.8834 0.0000 -5.3780
# 5 -18.4057 7.8362 -20.4111 0.0000 36.4802 0.0000
# 6 0.0000 0.0000 0.0000 -5.3780 0.0000 32.9985
#
#
#
# Elastic Compliance Matrix: (Units=1/GPa)
#
#
# Indices 1 2 3 4 5 6 
#
# 1 0.008064 -0.008089 0.000441 0.000000 0.006053 0.000000
# 2 -0.008089 0.030560 -0.005483 0.000000 -0.013713 0.000000
# 3 0.000441 -0.005483 0.032125 0.000000 0.019374 0.000000
# 4 0.000000 0.000000 0.000000 0.076882 0.000000 0.012530
# 5 0.006053 -0.013713 0.019374 0.000000 0.044252 0.000000
# 6 0.000000 0.000000 0.000000 0.012530 0.000000 0.032347
#
#
# Mechanical properties :
#
#
# Convention : Reuss Voigt Hill
#
# Bulk Modulus (GPa) = 22.47785 43.54372 33.01079
# Shear Modulus (GPa) = 18.84518 30.67108 24.75813
#
# Velocity S-wave (km/s) = 3.16916 4.04304 3.63247
# Velocity P-wave (km/s) = 5.03696 6.70832 5.93180
#
# Compressibility (1/GPa) = 0.04448824
#
# Stress axis : x y z
#
# Youngs Moduli (GPa) = 124.00258 32.72277 31.12852
#
# Poissons Ratio (x) = 0.26468 -0.01373
# Poissons Ratio (y) = 1.00301 0.17067
# Poissons Ratio (z) = -0.05468 0.17941
#
# Static dielectric constant tensor:
#      x y z
#    x 1.642620 0.000000 -0.008670 
#    y 0.000000 1.733250 0.000000 
#    z -0.008670 0.000000 1.647300 
# 
# From -- ./inp_files/197841.got.cif
#   From: 2010.05.17/outbox.ucp.g08.bks.cvg/sg15_99_cif.got.tgz:197841.got - 2010.06.11 12:40:34.
