data_PCOD9309221
_publ_section_title
;
Structure prediction by ZEFSAII (Michael W. Deem and Ramdas Pophale) SiO2 
 PCOD9309221
Probable space group: C 2/C
;
_chemical_formula_sum "Si O2"
_cell_formula_units_Z 30
_cell_length_a 21.000000
_cell_length_b 15.000000
_cell_length_c 15.000000
_cell_angle_alpha 90.000000
_cell_angle_beta 140.000000
_cell_angle_gamma 90.000000
_cell_volume 3037.171456
_symmetry_space_group_name_H-M "C 2/C"
_symmetry_group_IT_number 15
_symmetry_cell_setting 'monoclinic'
loop_
_space_group_symop_operation_xyz
x,y,z
-x,y,1/2-z
-x,-y,-z
x,-y,1/2+z
1/2+x,1/2+y,z
1/2-x,1/2+y,1/2-z
1/2-x,1/2-y,-z
1/2+x,1/2-y,1/2+z
loop_
_atom_site_type_symbol
_atom_site_label
_atom_site_fract_x
_atom_site_fract_y
_atom_site_fract_z
Si Si1 0.500000 0.992940 0.750000
Si Si2 0.685142 0.589988 0.786517
Si Si3 0.403089 0.117426 0.981283
Si Si4 0.903786 0.025154 0.455253
Si Si5 0.436043 0.285174 0.766062
Si Si6 0.846960 0.038545 0.079932
Si Si7 0.356240 0.900598 0.226330
Si Si8 0.995337 0.800853 0.027061
O O1 0.446854 0.937577 0.612536
O O2 0.573491 0.053874 0.771365
O O3 0.790505 0.637342 0.890126
O O4 0.678731 0.520422 0.695711
O O5 0.673697 0.536545 0.867336
O O6 0.594860 0.658263 0.675325
O O7 0.390987 0.078712 0.865835
O O8 0.469974 0.204244 0.036909
O O9 0.905251 0.131950 0.454610
O O10 0.915115 0.994019 0.569927
O O11 0.000000 0.000000 0.500000
O O12 0.500000 0.253654 0.750000
O O13 0.385377 0.375360 0.675533
O O14 0.362933 0.206334 0.718840
O O15 0.501114 0.301316 0.925053
O O16 0.750707 0.065570 0.919104
#
# Coordination Sequence:
#
# PCOD9309221 Si02
#       8
#     4   8   8   8   8   8   8   8
#     4  12  24  48  66  92 130 182 232 266 336 404
#     4  11  22  43  67  99 135 172 224 277 337 404
#     4  11  25  46  70  93 136 177 226 282 332 401
#     4  10  21  40  64  96 137 164 215 274 334 397
#     4  11  22  38  65 100 135 170 217 279 340 391
#     4  12  23  38  71  99 132 178 217 274 344 406
#     4  11  24  44  65  99 131 176 225 274 333 405
#     4  10  24  43  62 100 136 176 221 282 332 394
#
# _framework density 9.8776119999999992
#
# number of rings (size 3 to 8) (size 9 to 14) (size 15 to 20)
#    0.000    1.067    4.667    2.400    1.867    1.067 
#    2.400    2.667    0.000    0.000    0.000    0.000 
#    0.000    0.000    0.000    0.000    0.000    0.000 
#
# Total GULP energy -167282.184156 kJ/mol
# GULP energy per Si atom -5576.072805 kJ/mol
# Density = 0.985513 g / cm^3
# Si number density = 9.877612 Si / 1000 Ang^3
#
#
#
# Elastic Constant Matrix: (Units=GPa)
#
#
# Indices 1 2 3 4 5 6 
#
# 1 123.3986 42.5607 48.7247 0.0000 -32.8839 0.0000
# 2 42.5607 67.1470 40.0223 0.0000 -15.6890 0.0000
# 3 48.7247 40.0223 107.8441 0.0000 -27.9703 0.0000
# 4 0.0000 0.0000 0.0000 34.3075 0.0000 -6.9514
# 5 -32.8839 -15.6890 -27.9703 0.0000 45.9046 0.0000
# 6 0.0000 0.0000 0.0000 -6.9514 0.0000 26.4051
#
#
#
# Elastic Compliance Matrix: (Units=1/GPa)
#
#
# Indices 1 2 3 4 5 6 
#
# 1 0.012248 -0.005154 -0.002141 0.000000 0.005708 0.000000
# 2 -0.005154 0.021561 -0.005605 0.000000 0.000262 0.000000
# 3 -0.002141 -0.005605 0.013570 0.000000 0.004819 0.000000
# 4 0.000000 0.000000 0.000000 0.030791 0.000000 0.008106
# 5 0.005708 0.000262 0.004819 0.000000 0.028899 0.000000
# 6 0.000000 0.000000 0.000000 0.008106 0.000000 0.040005
#
#
# Mechanical properties :
#
#
# Convention : Reuss Voigt Hill
#
# Bulk Modulus (GPa) = 46.33932 62.33391 54.33661
# Shear Modulus (GPa) = 27.76753 32.46224 30.11489
#
# Velocity S-wave (km/s) = 3.75317 4.05807 3.90859
# Velocity P-wave (km/s) = 6.50303 7.31976 6.92345
#
# Compressibility (1/GPa) = 0.02157995
#
# Stress axis : x y z
#
# Youngs Moduli (GPa) = 81.64862 46.37902 73.69252
#
# Poissons Ratio (x) = 0.23901 0.15775
# Poissons Ratio (y) = 0.42078 0.41308
# Poissons Ratio (z) = 0.17478 0.25997
#
# Static dielectric constant tensor:
#      x y z
#    x 1.725730 0.000000 0.055980 
#    y 0.000000 1.739120 0.000000 
#    z 0.055980 0.000000 1.729110 
# 
# From -- ./inp_files/168651.got.cif
#   From: 2010.05.17/outbox.ucp.g08.bks.cvg/sg15_85_cif.got.tgz:168651.got - 2010.06.11 12:40:34.
