data_PCOD9309506
_publ_section_title
;
Structure prediction by ZEFSAII (Michael W. Deem and Ramdas Pophale) SiO2 
 PCOD9309506
Probable space group: C 2/C
;
_chemical_formula_sum "Si O2"
_cell_formula_units_Z 20
_cell_length_a 12.000000
_cell_length_b 18.000000
_cell_length_c 9.000000
_cell_angle_alpha 90.000000
_cell_angle_beta 80.000000
_cell_angle_gamma 90.000000
_cell_volume 1914.466272
_symmetry_space_group_name_H-M "C 2/C"
_symmetry_group_IT_number 15
_symmetry_cell_setting 'monoclinic'
loop_
_space_group_symop_operation_xyz
x,y,z
-x,y,1/2-z
-x,-y,-z
x,-y,1/2+z
1/2+x,1/2+y,z
1/2-x,1/2+y,1/2-z
1/2-x,1/2-y,-z
1/2+x,1/2-y,1/2+z
loop_
_atom_site_type_symbol
_atom_site_label
_atom_site_fract_x
_atom_site_fract_y
_atom_site_fract_z
Si Si1 0.221068 0.423597 0.324245
Si Si2 0.916494 0.978632 0.890064
Si Si3 0.126620 0.558171 0.166876
Si Si4 0.242550 0.146728 0.125271
Si Si5 0.626789 0.201654 0.673922
O O1 0.345676 0.452712 0.338426
O O2 0.165597 0.477653 0.215166
O O3 0.145254 0.433379 0.488796
O O4 0.211481 0.341450 0.264205
O O5 0.822505 0.918054 0.947466
O O6 0.000000 0.944741 0.750000
O O7 0.000000 0.000000 0.000000
O O8 0.210117 0.613284 0.234523
O O9 0.000000 0.571344 0.250000
O O10 0.155758 0.212326 0.173946
O O11 0.343800 0.175655 0.999058
O O12 0.500000 0.184379 0.750000
#
# Coordination Sequence:
#
# PCOD9309506 Si02
#       5
#     8   8   8   8   8
#     4  11  22  36  60  89 114 149 199 238 288 354
#     4  11  21  38  60  84 116 153 192 241 290 337
#     4  11  21  38  60  86 117 149 192 246 291 338
#     4  10  23  40  59  87 118 153 198 236 288 357
#     4  11  22  40  61  84 119 157 190 238 296 346
#
# _framework density 10.446776
#
# number of rings (size 3 to 8) (size 9 to 14) (size 15 to 20)
#    0.000    1.200    0.000    9.000    0.000    0.800 
#    0.000    5.000    0.000    0.000    0.000    0.000 
#    0.000    0.000    0.000    0.000    0.000    0.000 
#
# Total GULP energy -111717.769823 kJ/mol
# GULP energy per Si atom -5585.888491 kJ/mol
# Density = 1.042300 g / cm^3
# Si number density = 10.446776 Si / 1000 Ang^3
#
#
#
# Elastic Constant Matrix: (Units=GPa)
#
#
# Indices 1 2 3 4 5 6 
#
# 1 62.9099 22.6565 0.5724 0.0000 -4.1901 0.0000
# 2 22.6565 84.9006 31.8202 0.0000 16.5717 0.0000
# 3 0.5724 31.8202 79.6259 0.0000 -8.2140 0.0000
# 4 0.0000 0.0000 0.0000 6.7988 0.0000 -5.2550
# 5 -4.1901 16.5717 -8.2140 0.0000 33.8885 0.0000
# 6 0.0000 0.0000 0.0000 -5.2550 0.0000 3.2849
#
#
#
# Elastic Compliance Matrix: (Units=1/GPa)
#
#
# Indices 1 2 3 4 5 6 
#
# 1 0.019197 -0.007936 0.003773 0.000000 0.007169 0.000000
# 2 -0.007936 0.019877 -0.009221 0.000000 -0.012936 0.000000
# 3 0.003773 -0.009221 0.017159 0.000000 0.009135 0.000000
# 4 0.000000 0.000000 0.000000 -0.621970 0.000000 -0.994997
# 5 0.007169 -0.012936 0.009135 0.000000 0.038935 0.000000
# 6 0.000000 0.000000 0.000000 -0.994997 0.000000 -1.287321
#
#
# Mechanical properties :
#
#
# Convention : Reuss Voigt Hill
#
# Bulk Modulus (GPa) = 33.93863 37.50382 35.72122
# Shear Modulus (GPa) = -2.81289 20.28693 8.73702
#
# Velocity S-wave (km/s) = -1.16156 3.11941 2.04713
# Velocity P-wave (km/s) = 3.80525 5.56446 4.76671
#
# Compressibility (1/GPa) = 0.02946495
#
# Stress axis : x y z
#
# Youngs Moduli (GPa) = 52.09115 50.30865 58.27943
#
# Poissons Ratio (x) = 0.39927 -0.21989
# Poissons Ratio (y) = 0.41341 0.53738
# Poissons Ratio (z) = -0.19654 0.46389
#
# Static dielectric constant tensor:
#      x y z
#    x 1.711440 0.000000 -0.042510 
#    y 0.000000 1.769580 0.000000 
#    z -0.042510 0.000000 1.753440 
# 
# From -- ./inp_files/29083.got.cif
#   From: 2010.05.17/outbox.ucp.g08.bks.cvg/sg15_15_cif.got.tgz:29083.got - 2010.06.11 12:40:34.
