data_PCOD9309049
_publ_section_title
;
Structure prediction by ZEFSAII (Michael W. Deem and Ramdas Pophale) SiO2 
 PCOD9309049
Probable space group: C 2/C
;
_chemical_formula_sum "Si O2"
_cell_formula_units_Z 28
_cell_length_a 15.000000
_cell_length_b 24.000000
_cell_length_c 9.000000
_cell_angle_alpha 90.000000
_cell_angle_beta 60.000000
_cell_angle_gamma 90.000000
_cell_volume 2805.922308
_symmetry_space_group_name_H-M "C 2/C"
_symmetry_group_IT_number 15
_symmetry_cell_setting 'monoclinic'
loop_
_space_group_symop_operation_xyz
x,y,z
-x,y,1/2-z
-x,-y,-z
x,-y,1/2+z
1/2+x,1/2+y,z
1/2-x,1/2+y,1/2-z
1/2-x,1/2-y,-z
1/2+x,1/2-y,1/2+z
loop_
_atom_site_type_symbol
_atom_site_label
_atom_site_fract_x
_atom_site_fract_y
_atom_site_fract_z
Si Si1 0.272789 0.579892 0.106207
Si Si2 0.715687 0.139301 0.845197
Si Si3 0.340024 0.722908 0.526907
Si Si4 0.420641 0.950510 0.523371
Si Si5 0.505437 0.822751 0.069303
Si Si6 0.109579 0.119639 0.211070
Si Si7 0.262490 0.958330 0.405914
O O1 0.168693 0.561209 0.280669
O O2 0.354719 0.611013 0.147094
O O3 0.303826 0.515611 0.043456
O O4 0.246244 0.619397 0.986882
O O5 0.795029 0.181415 0.693436
O O6 0.606470 0.172679 0.917901
O O7 0.712120 0.078979 0.761198
O O8 0.250000 0.750000 0.500000
O O9 0.413337 0.772191 0.535531
O O10 0.389605 0.681246 0.362654
O O11 0.460512 0.887310 0.473000
O O12 0.365523 0.968268 0.415840
O O13 0.500000 0.000000 0.500000
O O14 0.500000 0.813296 0.250000
O O15 0.000000 0.095730 0.250000
O O16 0.197594 0.085439 0.055041
#
# Coordination Sequence:
#
# PCOD9309049 Si02
#       7
#     8   8   8   8   8   8   8
#     4  11  23  41  64  99 140 168 215 290 343 391
#     4  11  23  39  67  99 136 173 224 287 335 404
#     4  11  22  42  68  89 123 175 235 274 319 411
#     4  11  23  38  64 100 140 174 218 267 344 429
#     4  12  21  39  68  95 122 182 229 257 336 411
#     4  10  23  42  67  91 124 176 229 272 333 402
#     4  10  20  40  62  97 135 180 217 265 342 414
#
# _framework density 9.9788940000000004
#
# number of rings (size 3 to 8) (size 9 to 14) (size 15 to 20)
#    0.000    1.143    2.857    5.571    0.000    2.286 
#    0.000    6.429    9.429    0.000    0.000    0.000 
#    0.000    0.000    0.000    0.000    0.000    0.000 
#
# Total GULP energy -155926.575874 kJ/mol
# GULP energy per Si atom -5568.806281 kJ/mol
# Density = 0.995618 g / cm^3
# Si number density = 9.978894 Si / 1000 Ang^3
#
#
#
# Elastic Constant Matrix: (Units=GPa)
#
#
# Indices 1 2 3 4 5 6 
#
# 1 164.1976 56.4016 49.6407 0.0000 22.5001 0.0000
# 2 56.4016 138.1108 29.1791 0.0000 1.9085 0.0000
# 3 49.6407 29.1791 63.6618 0.0000 27.0685 0.0000
# 4 0.0000 0.0000 0.0000 27.1868 0.0000 -1.3202
# 5 22.5001 1.9085 27.0685 0.0000 26.3870 0.0000
# 6 0.0000 0.0000 0.0000 -1.3202 0.0000 39.6154
#
#
#
# Elastic Compliance Matrix: (Units=1/GPa)
#
#
# Indices 1 2 3 4 5 6 
#
# 1 0.008685 -0.002564 -0.004482 0.000000 -0.002622 0.000000
# 2 -0.002564 0.009280 -0.005141 0.000000 0.006788 0.000000
# 3 -0.004482 -0.005141 0.035075 0.000000 -0.031787 0.000000
# 4 0.000000 0.000000 0.000000 0.036842 0.000000 0.001228
# 5 -0.002622 0.006788 -0.031787 0.000000 0.072250 0.000000
# 6 0.000000 0.000000 0.000000 0.001228 0.000000 0.025284
#
#
# Mechanical properties :
#
#
# Convention : Reuss Voigt Hill
#
# Bulk Modulus (GPa) = 34.88376 70.71255 52.79816
# Shear Modulus (GPa) = 22.58919 34.02109 28.30514
#
# Velocity S-wave (km/s) = 3.36794 4.13322 3.77005
# Velocity P-wave (km/s) = 5.71321 7.63453 6.74266
#
# Compressibility (1/GPa) = 0.02866664
#
# Stress axis : x y z
#
# Youngs Moduli (GPa) = 115.13694 107.76126 28.51046
#
# Poissons Ratio (x) = 0.27626 0.12779
# Poissons Ratio (y) = 0.29517 0.14656
# Poissons Ratio (z) = 0.51609 0.55396
#
# Static dielectric constant tensor:
#      x y z
#    x 1.763840 0.000000 -0.049330 
#    y 0.000000 1.831220 0.000000 
#    z -0.049330 0.000000 1.825690 
# 
# From -- ./inp_files/42532.got.cif
#   From: 2010.05.17/outbox.ucp.g08.bks.cvg/sg15_22_cif.got.tgz:42532.got - 2010.06.11 12:40:34.
