data_PCOD9309732
_publ_section_title
;
Structure prediction by ZEFSAII (Michael W. Deem and Ramdas Pophale) SiO2 
 PCOD9309732
Probable space group: C 2/C
;
_chemical_formula_sum "Si O2"
_cell_formula_units_Z 20
_cell_length_a 12.000000
_cell_length_b 15.000000
_cell_length_c 12.000000
_cell_angle_alpha 90.000000
_cell_angle_beta 110.000000
_cell_angle_gamma 90.000000
_cell_volume 2029.736061
_symmetry_space_group_name_H-M "C 2/C"
_symmetry_group_IT_number 15
_symmetry_cell_setting 'monoclinic'
loop_
_space_group_symop_operation_xyz
x,y,z
-x,y,1/2-z
-x,-y,-z
x,-y,1/2+z
1/2+x,1/2+y,z
1/2-x,1/2+y,1/2-z
1/2-x,1/2-y,-z
1/2+x,1/2-y,1/2+z
loop_
_atom_site_type_symbol
_atom_site_label
_atom_site_fract_x
_atom_site_fract_y
_atom_site_fract_z
Si Si1 0.193357 0.815188 0.758385
Si Si2 0.059972 0.223430 0.440903
Si Si3 0.302326 0.008071 0.751207
Si Si4 0.385210 0.663908 0.793892
Si Si5 0.456443 0.915126 0.120488
O O1 0.154437 0.800686 0.875156
O O2 0.250339 0.911422 0.755591
O O3 0.291384 0.744819 0.749474
O O4 0.071007 0.801146 0.648717
O O5 0.077463 0.172901 0.563460
O O6 0.069605 0.331109 0.465536
O O7 0.198392 0.077016 0.746361
O O8 0.424881 0.027317 0.863324
O O9 0.349712 0.972645 0.139258
O O10 0.500000 0.665687 0.750000
O O11 0.500000 0.864983 0.250000
#
# Coordination Sequence:
#
# PCOD9309732 Si02
#       5
#     8   8   8   8   8
#     4  11  21  42  67  92 121 163 210 253 310 373
#     4  11  21  43  69  84 121 177 207 240 318 373
#     4   9  20  39  62  93 129 151 206 259 302 367
#     4  12  26  40  61  95 129 160 206 264 306 359
#     4   8  16  40  65  82 122 166 195 254 291 364
#
# _framework density 9.8534980000000001
#
# number of rings (size 3 to 8) (size 9 to 14) (size 15 to 20)
#    1.200    0.400    6.000    0.600    5.600    1.600 
#    0.000    1.000    0.000    0.000    0.000    0.000 
#    0.000    0.000    0.000    0.000    0.000    0.000 
#
# Total GULP energy -111456.243105 kJ/mol
# GULP energy per Si atom -5572.812155 kJ/mol
# Density = 0.983107 g / cm^3
# Si number density = 9.853498 Si / 1000 Ang^3
#
#
#
# Elastic Constant Matrix: (Units=GPa)
#
#
# Indices 1 2 3 4 5 6 
#
# 1 205.4740 85.0440 27.7951 0.0000 -1.4534 0.0000
# 2 85.0440 176.9570 13.1175 0.0000 6.3240 0.0000
# 3 27.7951 13.1175 49.0729 0.0000 6.7144 0.0000
# 4 0.0000 0.0000 0.0000 3.5840 0.0000 1.6355
# 5 -1.4534 6.3240 6.7144 0.0000 27.3386 0.0000
# 6 0.0000 0.0000 0.0000 1.6355 0.0000 48.7804
#
#
#
# Elastic Compliance Matrix: (Units=1/GPa)
#
#
# Indices 1 2 3 4 5 6 
#
# 1 0.006537 -0.002972 -0.003156 0.000000 0.001810 0.000000
# 2 -0.002972 0.007143 0.000023 0.000000 -0.001816 0.000000
# 3 -0.003156 0.000023 0.022954 0.000000 -0.005811 0.000000
# 4 0.000000 0.000000 0.000000 0.283355 0.000000 -0.009500
# 5 0.001810 -0.001816 -0.005811 0.000000 0.038522 0.000000
# 6 0.000000 0.000000 0.000000 -0.009500 0.000000 0.020819
#
#
# Mechanical properties :
#
#
# Convention : Reuss Voigt Hill
#
# Bulk Modulus (GPa) = 40.94456 75.93520 58.43988
# Shear Modulus (GPa) = 12.51001 36.31043 24.41022
#
# Velocity S-wave (km/s) = 2.52226 4.29711 3.52327
# Velocity P-wave (km/s) = 5.41333 7.95210 6.80221
#
# Compressibility (1/GPa) = 0.02442327
#
# Stress axis : x y z
#
# Youngs Moduli (GPa) = 152.98384 140.00247 43.56508
#
# Poissons Ratio (x) = 0.41612 0.13747
# Poissons Ratio (y) = 0.45470 -0.00099
# Poissons Ratio (z) = 0.48275 -0.00317
#
# Static dielectric constant tensor:
#      x y z
#    x 1.685960 0.000000 0.026720 
#    y 0.000000 1.692460 0.000000 
#    z 0.026720 0.000000 1.761970 
# 
# From -- ./inp_files/86236.got.cif
#   From: 2010.05.17/outbox.ucp.g08.bks.cvg/sg15_44_cif.got.tgz:86236.got - 2010.06.11 12:40:34.
