data_PCOD9309168
_publ_section_title
;
Structure prediction by ZEFSAII (Michael W. Deem and Ramdas Pophale) SiO2 
 PCOD9309168
Probable space group: C 2/C
;
_chemical_formula_sum "Si O2"
_cell_formula_units_Z 24
_cell_length_a 9.000000
_cell_length_b 27.000000
_cell_length_c 15.000000
_cell_angle_alpha 90.000000
_cell_angle_beta 40.000000
_cell_angle_gamma 90.000000
_cell_volume 2342.960837
_symmetry_space_group_name_H-M "C 2/C"
_symmetry_group_IT_number 15
_symmetry_cell_setting 'monoclinic'
loop_
_space_group_symop_operation_xyz
x,y,z
-x,y,1/2-z
-x,-y,-z
x,-y,1/2+z
1/2+x,1/2+y,z
1/2-x,1/2+y,1/2-z
1/2-x,1/2-y,-z
1/2+x,1/2-y,1/2+z
loop_
_atom_site_type_symbol
_atom_site_label
_atom_site_fract_x
_atom_site_fract_y
_atom_site_fract_z
Si Si1 0.659438 0.322344 0.590725
Si Si2 0.926139 0.607875 0.387674
Si Si3 0.614520 0.692119 0.613887
Si Si4 0.509664 0.737218 0.491065
Si Si5 0.248211 0.571939 0.407131
Si Si6 0.738353 0.995814 0.576332
O O1 0.500000 0.325639 0.750000
O O2 0.510390 0.303663 0.575930
O O3 0.851798 0.282003 0.528277
O O4 0.755080 0.377158 0.534186
O O5 0.802055 0.656738 0.481712
O O6 0.759177 0.561241 0.454236
O O7 0.000000 0.617718 0.250000
O O8 0.102028 0.587304 0.384348
O O9 0.500000 0.664815 0.750000
O O10 0.442575 0.712067 0.616296
O O11 0.744417 0.738783 0.599310
O O12 0.500000 0.560708 0.250000
O O13 0.200205 0.529667 0.504446
O O14 0.500000 0.001531 0.750000
O O15 0.000000 0.000000 0.500000
#
# Coordination Sequence:
#
# PCOD9309168 Si02
#       6
#     8   8   8   8   8   8
#     4  10  21  38  64  92 128 175 224 268 341 402
#     4  11  25  44  68  97 135 179 226 275 346 414
#     4  11  24  39  63  95 132 175 227 275 338 392
#     4  10  22  40  59  91 133 175 222 279 331 404
#     4  11  23  43  71 102 134 180 229 282 346 418
#     4  11  26  48  74 107 140 182 227 288 356 418
#
# _framework density 10.243449
#
# number of rings (size 3 to 8) (size 9 to 14) (size 15 to 20)
#    0.000    1.333    1.667    3.500    7.000    4.667 
#    0.000    0.833    0.000    0.000    0.000    0.000 
#    0.000    0.000    0.000    0.000    0.000    0.000 
#
# Total GULP energy -133665.901595 kJ/mol
# GULP energy per Si atom -5569.412566 kJ/mol
# Density = 1.022013 g / cm^3
# Si number density = 10.243449 Si / 1000 Ang^3
#
#
#
# Elastic Constant Matrix: (Units=GPa)
#
#
# Indices 1 2 3 4 5 6 
#
# 1 141.4986 36.8348 41.8069 0.0000 21.2354 0.0000
# 2 36.8348 90.9015 27.1901 0.0000 15.8118 0.0000
# 3 41.8069 27.1901 77.5285 0.0000 21.8409 0.0000
# 4 0.0000 0.0000 0.0000 36.8562 0.0000 18.7081
# 5 21.2354 15.8118 21.8409 0.0000 39.5009 0.0000
# 6 0.0000 0.0000 0.0000 18.7081 0.0000 49.7535
#
#
#
# Elastic Compliance Matrix: (Units=1/GPa)
#
#
# Indices 1 2 3 4 5 6 
#
# 1 0.008985 -0.002248 -0.003493 0.000000 -0.001999 0.000000
# 2 -0.002248 0.013161 -0.002677 0.000000 -0.002580 0.000000
# 3 -0.003493 -0.002677 0.017637 0.000000 -0.006803 0.000000
# 4 0.000000 0.000000 0.000000 0.033533 0.000000 -0.012609
# 5 -0.001999 -0.002580 -0.006803 0.000000 0.031184 0.000000
# 6 0.000000 0.000000 0.000000 -0.012609 0.000000 0.024840
#
#
# Mechanical properties :
#
#
# Convention : Reuss Voigt Hill
#
# Bulk Modulus (GPa) = 43.57928 57.95468 50.76698
# Shear Modulus (GPa) = 32.50428 38.82856 35.66642
#
# Velocity S-wave (km/s) = 3.98752 4.35821 4.17698
# Velocity P-wave (km/s) = 6.52061 7.32635 6.93519
#
# Compressibility (1/GPa) = 0.02294668
#
# Stress axis : x y z
#
# Youngs Moduli (GPa) = 111.30255 75.98036 56.69751
#
# Poissons Ratio (x) = 0.17081 0.19807
# Poissons Ratio (y) = 0.25022 0.15177
# Poissons Ratio (z) = 0.38882 0.20338
#
# Static dielectric constant tensor:
#      x y z
#    x 1.772320 0.000000 0.000560 
#    y 0.000000 1.741700 0.000000 
#    z 0.000560 0.000000 1.822320 
# 
# From -- ./inp_files/138901.got.cif
#   From: 2010.05.17/outbox.ucp.g08.bks.cvg/sg15_70_cif.got.tgz:138901.got - 2010.06.11 12:40:34.
