data_PCOD9309832
_publ_section_title
;
Structure prediction by ZEFSAII (Michael W. Deem and Ramdas Pophale) SiO2 
 PCOD9309832
Probable space group: C 2/C
;
_chemical_formula_sum "Si O2"
_cell_formula_units_Z 24
_cell_length_a 15.000000
_cell_length_b 27.000000
_cell_length_c 9.000000
_cell_angle_alpha 90.000000
_cell_angle_beta 40.000000
_cell_angle_gamma 90.000000
_cell_volume 2342.960837
_symmetry_space_group_name_H-M "C 2/C"
_symmetry_group_IT_number 15
_symmetry_cell_setting 'monoclinic'
loop_
_space_group_symop_operation_xyz
x,y,z
-x,y,1/2-z
-x,-y,-z
x,-y,1/2+z
1/2+x,1/2+y,z
1/2-x,1/2+y,1/2-z
1/2-x,1/2-y,-z
1/2+x,1/2-y,1/2+z
loop_
_atom_site_type_symbol
_atom_site_label
_atom_site_fract_x
_atom_site_fract_y
_atom_site_fract_z
Si Si1 0.507162 0.848491 0.564797
Si Si2 0.162745 0.016022 0.791306
Si Si3 0.922178 0.144212 0.113724
Si Si4 0.745319 0.574191 0.373026
Si Si5 0.698030 0.611597 0.915726
Si Si6 0.095331 0.249577 0.270539
O O1 0.500000 0.835799 0.750000
O O2 0.380019 0.888544 0.704931
O O3 0.650128 0.875350 0.336484
O O4 0.527297 0.798026 0.438495
O O5 0.210058 0.045431 0.577009
O O6 0.175852 0.054040 0.912128
O O7 0.250552 0.968228 0.736297
O O8 0.000000 0.000000 0.000000
O O9 0.875523 0.110872 0.034604
O O10 0.833393 0.127274 0.374293
O O11 0.901270 0.202823 0.122465
O O12 0.080861 0.136417 0.960952
O O13 0.000000 0.237776 0.250000
O O14 0.250000 0.250000 0.000000
#
# Coordination Sequence:
#
# PCOD9309832 Si02
#       6
#     8   8   8   8   8   8
#     4  12  27  49  68 112 160 194 239 319 385 443
#     4  12  25  45  75 107 141 200 256 303 366 446
#     4  11  23  45  76 110 136 199 254 311 360 449
#     4  12  27  46  76 108 150 195 251 314 375 439
#     4  11  23  46  74 101 151 186 251 306 368 439
#     4  12  23  47  78 108 144 200 253 302 376 459
#
# _framework density 10.243449
#
# number of rings (size 3 to 8) (size 9 to 14) (size 15 to 20)
#    0.000    0.333    6.667    2.500    2.333    0.667 
#    3.000    2.500    0.000    0.000    0.000    0.000 
#    0.000    0.000    0.000    0.000    0.000    0.000 
#
# Total GULP energy -133942.673527 kJ/mol
# GULP energy per Si atom -5580.944730 kJ/mol
# Density = 1.022013 g / cm^3
# Si number density = 10.243449 Si / 1000 Ang^3
#
#
#
# Elastic Constant Matrix: (Units=GPa)
#
#
# Indices 1 2 3 4 5 6 
#
# 1 88.6367 40.8145 48.7028 0.0000 1.2197 0.0000
# 2 40.8145 171.0890 40.4504 0.0000 1.5299 0.0000
# 3 48.7028 40.4504 127.7147 0.0000 -8.1276 0.0000
# 4 0.0000 0.0000 0.0000 48.9179 0.0000 4.7679
# 5 1.2197 1.5299 -8.1276 0.0000 36.0602 0.0000
# 6 0.0000 0.0000 0.0000 4.7679 0.0000 38.0162
#
#
#
# Elastic Compliance Matrix: (Units=1/GPa)
#
#
# Indices 1 2 3 4 5 6 
#
# 1 0.015241 -0.002404 -0.005151 0.000000 -0.001574 0.000000
# 2 -0.002404 0.006716 -0.001241 0.000000 -0.000483 0.000000
# 3 -0.005151 -0.001241 0.010350 0.000000 0.002560 0.000000
# 4 0.000000 0.000000 0.000000 0.020695 0.000000 -0.002596
# 5 -0.001574 -0.000483 0.002560 0.000000 0.028382 0.000000
# 6 0.000000 0.000000 0.000000 -0.002596 0.000000 0.026630
#
#
# Mechanical properties :
#
#
# Convention : Reuss Voigt Hill
#
# Bulk Modulus (GPa) = 67.95639 71.93063 69.94351
# Shear Modulus (GPa) = 38.31076 41.76369 40.03722
#
# Velocity S-wave (km/s) = 4.32906 4.51994 4.42552
# Velocity P-wave (km/s) = 7.63088 7.90105 7.76714
#
# Compressibility (1/GPa) = 0.01471532
#
# Stress axis : x y z
#
# Youngs Moduli (GPa) = 65.61351 148.89435 96.61687
#
# Poissons Ratio (x) = 0.35793 0.49765
# Poissons Ratio (y) = 0.15773 0.11992
# Poissons Ratio (z) = 0.33796 0.18481
#
# Static dielectric constant tensor:
#      x y z
#    x 1.771740 0.000000 -0.017550 
#    y 0.000000 1.816900 0.000000 
#    z -0.017550 0.000000 1.726050 
# 
# From -- ./inp_files/43808.got.cif
#   From: 2010.05.17/outbox.ucp.g08.bks.cvg/sg15_22_cif.got.tgz:43808.got - 2010.06.11 12:40:34.
