data_PCOD9309957
_publ_section_title
;
Structure prediction by ZEFSAII (Michael W. Deem and Ramdas Pophale) SiO2 
 PCOD9309957
Probable space group: P 2 2 2
;
_chemical_formula_sum "Si O2"
_cell_formula_units_Z 24
_cell_length_a 8.760764
_cell_length_b 10.573226
_cell_length_c 12.261547
_cell_angle_alpha 90.000000
_cell_angle_beta 90.000000
_cell_angle_gamma 90.000000
_cell_volume 1135.781430
_symmetry_space_group_name_H-M "P 2 2 2"
_symmetry_group_IT_number 16
_symmetry_cell_setting 'orthorhombic'
loop_
_space_group_symop_operation_xyz
x,y,z
-x,-y,z
x,-y,-z
-x,y,-z
loop_
_atom_site_type_symbol
_atom_site_label
_atom_site_fract_x
_atom_site_fract_y
_atom_site_fract_z
Si Si1 0.581160 0.137025 0.237522
Si Si2 0.824645 0.989636 0.349604
Si Si3 0.373432 0.757635 0.591306
Si Si4 0.776413 0.853234 0.962882
Si Si5 0.915226 0.199108 0.828846
Si Si6 0.927826 0.362268 0.611199
O O1 0.462624 0.229653 0.294765
O O2 0.639081 0.175151 0.119003
O O3 0.500000 0.000000 0.231152
O O4 0.724738 0.112399 0.320399
O O5 0.726829 0.887804 0.418282
O O6 0.845536 0.921672 0.232290
O O7 0.000000 0.000000 0.386536
O O8 0.500000 0.750546 0.500000
O O9 0.253077 0.644883 0.590805
O O10 0.928622 0.832397 0.890765
O O11 0.798621 0.770944 0.072714
O O12 0.767975 0.000000 0.000000
O O13 0.947049 0.291625 0.727067
O O14 0.000000 0.500000 0.620192
O O15 0.000000 0.303471 0.500000
#
# Coordination Sequence:
#
# PCOD9309957 Si02
#       6
#     4   4   4   4   4   4
#     4  10  21  34  53  94 145 185 218 254 319 396
#     4  10  17  34  56  84 134 183 224 244 293 395
#     4  10  24  40  60  96 136 169 217 287 353 403
#     4  11  19  33  61  94 148 186 220 255 301 400
#     4  10  19  34  62  98 124 172 239 279 308 377
#     4  10  24  48  73  89 115 162 236 300 357 412
#
# _framework density 21.130825000000002
#
# number of rings (size 3 to 8) (size 9 to 14) (size 15 to 20)
#    0.000    1.833    3.333    1.000    2.333    3.333 
#    0.000    7.500    0.000    2.000    0.000    0.000 
#   20.000    0.000    0.000    0.000    0.000    0.000 
#
# Total GULP energy -133931.421587 kJ/mol
# GULP energy per Si atom -5580.475899 kJ/mol
# Density = 2.108273 g / cm^3
# Si number density = 21.130825 Si / 1000 Ang^3
#
#
#
# Elastic Constant Matrix: (Units=GPa)
#
#
# Indices 1 2 3 4 5 6 
#
# 1 147.5330 36.9566 69.6085 0.0000 0.0000 0.0000
# 2 36.9566 51.0619 36.9191 0.0000 0.0000 0.0000
# 3 69.6085 36.9191 186.2576 0.0000 0.0000 0.0000
# 4 0.0000 0.0000 0.0000 20.4200 0.0000 0.0000
# 5 0.0000 0.0000 0.0000 0.0000 54.8932 0.0000
# 6 0.0000 0.0000 0.0000 0.0000 0.0000 30.8030
#
#
#
# Elastic Compliance Matrix: (Units=1/GPa)
#
#
# Indices 1 2 3 4 5 6 
#
# 1 0.009153 -0.004846 -0.002460 0.000000 0.000000 0.000000
# 2 -0.004846 0.025426 -0.003229 0.000000 0.000000 0.000000
# 3 -0.002460 -0.003229 0.006928 0.000000 0.000000 0.000000
# 4 0.000000 0.000000 0.000000 0.048972 0.000000 0.000000
# 5 0.000000 0.000000 0.000000 0.000000 0.018217 0.000000
# 6 0.000000 0.000000 0.000000 0.000000 0.000000 0.032464
#
#
# Mechanical properties :
#
#
# Convention : Reuss Voigt Hill
#
# Bulk Modulus (GPa) = 48.92954 74.64677 61.78815
# Shear Modulus (GPa) = 29.57856 37.31447 33.44651
#
# Velocity S-wave (km/s) = 3.74543 4.20679 3.98280
# Velocity P-wave (km/s) = 6.47380 7.68107 7.10313
#
# Compressibility (1/GPa) = 0.02043755
#
# Stress axis : x y z
#
# Youngs Moduli (GPa) = 109.25777 39.33027 144.33566
#
# Poissons Ratio (x) = 0.19058 0.35508
# Poissons Ratio (y) = 0.52942 0.46604
# Poissons Ratio (z) = 0.26878 0.12699
#
# Static dielectric constant tensor:
#      x y z
#    x 1.848860 0.000000 0.000000 
#    y 0.000000 1.755130 0.000000 
#    z 0.000000 0.000000 1.831510 
# 
# From -- ./inp_files/6508.got.cif
#   From: 2010.05.17/outbox.cif.g08.bks.cpg/sg16_4_cif.got.tgz:6508.got - 2010.06.03 22:28:35.
