data_PCOD9309410
_publ_section_title
;
Structure prediction by ZEFSAII (Michael W. Deem and Ramdas Pophale) SiO2 
 PCOD9309410
Probable space group: C 2/C
;
_chemical_formula_sum "Si O2"
_cell_formula_units_Z 28
_cell_length_a 21.000000
_cell_length_b 30.000000
_cell_length_c 9.000000
_cell_angle_alpha 90.000000
_cell_angle_beta 150.000000
_cell_angle_gamma 90.000000
_cell_volume 2835.000000
_symmetry_space_group_name_H-M "C 2/C"
_symmetry_group_IT_number 15
_symmetry_cell_setting 'monoclinic'
loop_
_space_group_symop_operation_xyz
x,y,z
-x,y,1/2-z
-x,-y,-z
x,-y,1/2+z
1/2+x,1/2+y,z
1/2-x,1/2+y,1/2-z
1/2-x,1/2-y,-z
1/2+x,1/2-y,1/2+z
loop_
_atom_site_type_symbol
_atom_site_label
_atom_site_fract_x
_atom_site_fract_y
_atom_site_fract_z
Si Si1 0.000000 0.743605 0.750000
Si Si2 0.648595 0.164594 0.905940
Si Si3 0.136106 0.125416 0.953021
Si Si4 0.000000 0.593618 0.750000
Si Si5 0.679980 0.704540 0.810280
Si Si6 0.150645 0.651680 0.581769
Si Si7 0.275121 0.039181 0.147909
Si Si8 0.846815 0.452752 0.451485
O O1 0.893333 0.709624 0.596879
O O2 0.947297 0.775908 0.518371
O O3 0.533395 0.128270 0.685028
O O4 0.680545 0.172270 0.801672
O O5 0.759465 0.138832 0.213763
O O6 0.148265 0.166352 0.863817
O O7 0.000000 0.125142 0.750000
O O8 0.165075 0.076076 0.947617
O O9 0.888972 0.561994 0.471079
O O10 0.771123 0.678941 0.880132
O O11 0.750000 0.750000 0.000000
O O12 0.181520 0.598857 0.643580
O O13 0.000000 0.655874 0.250000
O O14 0.270859 0.988644 0.198509
O O15 0.310153 0.038428 0.046877
O O16 0.000000 0.458890 0.750000
#
# Coordination Sequence:
#
# PCOD9309410 Si02
#       8
#     4   8   8   4   8   8   8   8
#     4  11  24  42  70  96 132 168 228 268 325 384
#     4  10  22  41  67  95 126 172 218 268 325 387
#     4  11  26  47  67  90 135 182 224 267 330 396
#     4   9  18  34  64  90 134 164 202 266 331 392
#     4  12  25  46  67  97 136 177 214 280 329 391
#     4  11  24  40  66 100 137 168 216 270 336 399
#     4  11  22  39  62  98 132 169 215 273 334 393
#     4  11  22  36  65 101 133 166 213 275 341 392
#
# _framework density 9.8765429999999999
#
# number of rings (size 3 to 8) (size 9 to 14) (size 15 to 20)
#    0.000    1.143    3.571    3.000    8.000    2.286 
#    0.000    0.714    1.571    0.000    0.000    0.000 
#    0.000    0.000    0.000    0.000    0.000    0.000 
#
# Total GULP energy -156268.420156 kJ/mol
# GULP energy per Si atom -5581.015006 kJ/mol
# Density = 0.985406 g / cm^3
# Si number density = 9.876543 Si / 1000 Ang^3
#
#
#
# Elastic Constant Matrix: (Units=GPa)
#
#
# Indices 1 2 3 4 5 6 
#
# 1 147.6043 58.5951 23.8100 0.0000 1.9542 0.0000
# 2 58.5951 115.3630 18.3080 0.0000 12.7137 0.0000
# 3 23.8100 18.3080 29.0703 0.0000 -1.4483 0.0000
# 4 0.0000 0.0000 0.0000 17.8589 0.0000 -45.5704
# 5 1.9542 12.7137 -1.4483 0.0000 21.1599 0.0000
# 6 0.0000 0.0000 0.0000 -45.5704 0.0000 -88.5113
#
#
#
# Elastic Compliance Matrix: (Units=1/GPa)
#
#
# Indices 1 2 3 4 5 6 
#
# 1 0.009137 -0.003997 -0.004905 0.000000 0.001222 0.000000
# 2 -0.003997 0.012272 -0.004820 0.000000 -0.007334 0.000000
# 3 -0.004905 -0.004820 0.041762 0.000000 0.006208 0.000000
# 4 0.000000 0.000000 0.000000 0.024201 0.000000 -0.012460
# 5 0.001222 -0.007334 0.006208 0.000000 0.051978 0.000000
# 6 0.000000 0.000000 0.000000 -0.012460 0.000000 -0.004883
#
#
# Mechanical properties :
#
#
# Convention : Reuss Voigt Hill
#
# Bulk Modulus (GPa) = 27.99123 54.82931 41.41027
# Shear Modulus (GPa) = 28.76554 2.85647 15.81100
#
# Velocity S-wave (km/s) = 3.82023 1.20384 2.83226
# Velocity P-wave (km/s) = 5.80174 5.45435 5.63072
#
# Compressibility (1/GPa) = 0.03572547
#
# Stress axis : x y z
#
# Youngs Moduli (GPa) = 109.44973 81.48902 23.94521
#
# Poissons Ratio (x) = 0.32570 0.11746
# Poissons Ratio (y) = 0.43745 0.11542
# Poissons Ratio (z) = 0.53688 0.39279
#
# Static dielectric constant tensor:
#      x y z
#    x 1.727990 0.000000 -0.012980 
#    y 0.000000 1.686080 0.000000 
#    z -0.012980 0.000000 1.741820 
# 
# From -- ./inp_files/59383.got.cif
#   From: 2010.05.17/outbox.ucp.g08.bks.cvg/sg15_30_cif.got.tgz:59383.got - 2010.06.11 12:40:34.
