data_PCOD9309367
_publ_section_title
;
Structure prediction by ZEFSAII (Michael W. Deem and Ramdas Pophale) SiO2 
 PCOD9309367
Probable space group: C 2/C
;
_chemical_formula_sum "Si O2"
_cell_formula_units_Z 32
_cell_length_a 21.000000
_cell_length_b 15.000000
_cell_length_c 30.000000
_cell_angle_alpha 90.000000
_cell_angle_beta 160.000000
_cell_angle_gamma 90.000000
_cell_volume 3232.090354
_symmetry_space_group_name_H-M "C 2/C"
_symmetry_group_IT_number 15
_symmetry_cell_setting 'monoclinic'
loop_
_space_group_symop_operation_xyz
x,y,z
-x,y,1/2-z
-x,-y,-z
x,-y,1/2+z
1/2+x,1/2+y,z
1/2-x,1/2+y,1/2-z
1/2-x,1/2-y,-z
1/2+x,1/2-y,1/2+z
loop_
_atom_site_type_symbol
_atom_site_label
_atom_site_fract_x
_atom_site_fract_y
_atom_site_fract_z
Si Si1 0.865165 0.066975 0.118808
Si Si2 0.642492 0.353460 0.383472
Si Si3 0.033159 0.898583 0.635269
Si Si4 0.074475 0.178439 0.065755
Si Si5 0.499387 0.039395 0.574476
Si Si6 0.904358 0.917473 0.370805
Si Si7 0.541517 0.871125 0.548412
Si Si8 0.527264 0.248088 0.146205
O O1 0.915222 0.109255 0.103733
O O2 0.000000 0.088092 0.250000
O O3 0.863615 0.959456 0.112309
O O4 0.659784 0.085796 0.001546
O O5 0.500000 0.334550 0.250000
O O6 0.547840 0.305867 0.362741
O O7 0.846708 0.308922 0.512776
O O8 0.001049 0.840087 0.568607
O O9 0.243452 0.879611 0.792979
O O10 0.008064 0.000328 0.600065
O O11 0.296935 0.188906 0.221674
O O12 0.002109 0.102620 0.983057
O O13 0.013454 0.269459 0.999699
O O14 0.688933 0.049636 0.727220
O O15 0.508085 0.086414 0.532163
O O16 0.449222 0.938911 0.524113
O O17 0.910793 0.822912 0.348829
#
# Coordination Sequence:
#
# PCOD9309367 Si02
#       8
#     8   8   8   8   8   8   8   8
#     4  11  22  40  68  95 132 171 218 280 336 399
#     4  10  23  36  62 100 137 169 214 275 343 402
#     4  11  24  44  64  95 132 180 223 273 343 404
#     4  12  25  40  69  95 136 179 221 278 335 404
#     4  10  22  39  69  96 126 165 226 279 336 388
#     4  11  23  42  65  96 135 175 223 276 333 404
#     4  10  22  40  67 100 120 165 228 281 325 392
#     4  11  22  40  63  99 134 175 219 277 339 407
#
# _framework density 9.9007129999999997
#
# number of rings (size 3 to 8) (size 9 to 14) (size 15 to 20)
#    0.000    1.250    3.750    1.875    8.750    0.000 
#    0.000    1.250    2.750    0.000    0.000    0.000 
#    0.000    0.000    0.000    0.000    0.000    0.000 
#
# Total GULP energy -178244.100863 kJ/mol
# GULP energy per Si atom -5570.128152 kJ/mol
# Density = 0.987818 g / cm^3
# Si number density = 9.900713 Si / 1000 Ang^3
#
#
#
# Elastic Constant Matrix: (Units=GPa)
#
#
# Indices 1 2 3 4 5 6 
#
# 1 66.5505 24.2139 28.1354 -0.0011 -9.7541 -0.0008
# 2 24.2139 50.7460 14.2844 0.0091 -14.1535 0.0028
# 3 28.1354 14.2844 94.6426 0.0222 -16.8878 0.0027
# 4 -0.0011 0.0091 0.0222 0.9325 -0.0019 -14.4130
# 5 -9.7541 -14.1535 -16.8878 -0.0019 33.9814 0.0000
# 6 -0.0008 0.0028 0.0027 -14.4130 0.0000 36.6471
#
#
#
# Elastic Compliance Matrix: (Units=1/GPa)
#
#
# Indices 1 2 3 4 5 6 
#
# 1 0.020008 -0.008228 -0.004710 -0.000047 -0.000025 -0.000017
# 2 -0.008228 0.025987 0.000037 0.000055 0.008480 0.000020
# 3 -0.004710 0.000037 0.012863 0.000063 0.005056 0.000024
# 4 -0.000047 0.000055 0.000063 -0.211147 0.000029 -0.083042
# 5 -0.000025 0.008480 0.005056 0.000029 0.035465 0.000010
# 6 -0.000017 0.000020 0.000024 -0.083042 0.000010 -0.005373
#
#
# Mechanical properties :
#
#
# Convention : Reuss Voigt Hill
#
# Bulk Modulus (GPa) = 30.25283 38.35627 34.30455
# Shear Modulus (GPa) = -58.56429 23.99923 -17.28253
#
# Velocity S-wave (km/s) = -5.44426 3.48515 -2.95751
# Velocity P-wave (km/s) = 4.92024 5.96720 2.38734
#
# Compressibility (1/GPa) = 0.03305476
#
# Stress axis : x y z
#
# Youngs Moduli (GPa) = 49.98106 38.48117 77.74256
#
# Poissons Ratio (x) = 0.31661 0.36621
# Poissons Ratio (y) = 0.41123 -0.00288
# Poissons Ratio (z) = 0.23544 -0.00142
#
# Static dielectric constant tensor:
#      x y z
#    x 1.733790 -0.000010 0.032270 
#    y -0.000010 1.756210 -0.000020 
#    z 0.032270 -0.000020 1.698920 
# 
# From -- ./inp_files/318014.got.cif
#   From: 2010.05.17/outbox.ucp.g08.bks.cvg/sg15_160_cif.got.tgz:318014.got - 2010.06.11 12:40:34.
