data_PCOD9309879
_publ_section_title
;
Structure prediction by ZEFSAII (Michael W. Deem and Ramdas Pophale) SiO2 
 PCOD9309879
Probable space group: C 2/C
;
_chemical_formula_sum "Si O2"
_cell_formula_units_Z 24
_cell_length_a 21.000000
_cell_length_b 6.000000
_cell_length_c 30.000000
_cell_angle_alpha 90.000000
_cell_angle_beta 140.000000
_cell_angle_gamma 90.000000
_cell_volume 2429.737165
_symmetry_space_group_name_H-M "C 2/C"
_symmetry_group_IT_number 15
_symmetry_cell_setting 'monoclinic'
loop_
_space_group_symop_operation_xyz
x,y,z
-x,y,1/2-z
-x,-y,-z
x,-y,1/2+z
1/2+x,1/2+y,z
1/2-x,1/2+y,1/2-z
1/2-x,1/2-y,-z
1/2+x,1/2-y,1/2+z
loop_
_atom_site_type_symbol
_atom_site_label
_atom_site_fract_x
_atom_site_fract_y
_atom_site_fract_z
Si Si1 0.317626 0.551348 0.055137
Si Si2 0.879362 0.379135 0.766197
Si Si3 0.342201 0.233337 0.982943
Si Si4 0.568142 0.892783 0.601135
Si Si5 0.972385 0.123886 0.287439
Si Si6 0.152365 0.891585 0.613411
O O1 0.340833 0.387231 0.026240
O O2 0.423415 0.627985 0.130336
O O3 0.250000 0.750000 0.000000
O O4 0.251656 0.428547 0.057975
O O5 0.898233 0.383528 0.829333
O O6 0.921025 0.627475 0.770370
O O7 0.762148 0.385425 0.693308
O O8 0.921179 0.126742 0.771779
O O9 0.448250 0.110145 0.036240
O O10 0.334870 0.372813 0.933296
O O11 0.603314 0.641797 0.599324
O O12 0.602934 0.143002 0.600793
O O13 0.000000 0.118412 0.250000
#
# Coordination Sequence:
#
# PCOD9309879 Si02
#       6
#     8   8   8   8   8   8
#     4  11  26  44  74 100 144 185 228 292 354 414
#     4  12  25  47  70 102 144 181 237 285 348 415
#     4  11  26  45  70 106 140 185 235 289 352 415
#     4  12  25  47  70 104 141 188 231 290 348 409
#     4  12  26  45  73 104 141 184 232 286 348 416
#     4  12  27  44  74 103 141 184 240 286 343 416
#
# _framework density 9.8776119999999992
#
# number of rings (size 3 to 8) (size 9 to 14) (size 15 to 20)
#    0.000    0.333    1.667    6.500    9.333    0.000 
#    0.000    0.000    0.000    0.000    0.000    0.000 
#    0.000    0.000    0.000    0.000    0.000    0.000 
#
# Total GULP energy -133702.932646 kJ/mol
# GULP energy per Si atom -5570.955527 kJ/mol
# Density = 0.985513 g / cm^3
# Si number density = 9.877612 Si / 1000 Ang^3
#
#
#
# Elastic Constant Matrix: (Units=GPa)
#
#
# Indices 1 2 3 4 5 6 
#
# 1 118.9526 59.9848 19.1317 0.0001 -4.2243 -0.0001
# 2 59.9848 175.9813 2.3999 0.0000 15.2026 -0.0009
# 3 19.1317 2.3999 72.1422 -0.0003 16.3922 0.0001
# 4 0.0001 0.0000 -0.0003 43.7392 -0.0001 6.7508
# 5 -4.2243 15.2026 16.3922 -0.0001 56.4342 -0.0001
# 6 -0.0001 -0.0009 0.0001 6.7508 -0.0001 52.0210
#
#
#
# Elastic Compliance Matrix: (Units=1/GPa)
#
#
# Indices 1 2 3 4 5 6 
#
# 1 0.011073 -0.003978 -0.003465 0.000000 0.002907 0.000000
# 2 -0.003978 0.007249 0.001419 0.000000 -0.002663 0.000000
# 3 -0.003465 0.001419 0.015930 0.000000 -0.005269 0.000000
# 4 0.000000 0.000000 0.000000 0.023330 0.000000 -0.003028
# 5 0.002907 -0.002663 -0.005269 0.000000 0.020185 0.000000
# 6 0.000000 0.000000 0.000000 -0.003028 0.000000 0.019616
#
#
# Mechanical properties :
#
#
# Convention : Reuss Voigt Hill
#
# Bulk Modulus (GPa) = 45.03603 58.90101 51.96852
# Shear Modulus (GPa) = 42.79583 49.47618 46.13600
#
# Velocity S-wave (km/s) = 4.65941 5.00989 4.83782
# Velocity P-wave (km/s) = 7.19675 7.95898 7.58745
#
# Compressibility (1/GPa) = 0.02220444
#
# Stress axis : x y z
#
# Youngs Moduli (GPa) = 90.30665 137.94714 62.77333
#
# Poissons Ratio (x) = 0.54880 0.21750
# Poissons Ratio (y) = 0.35927 -0.08907
# Poissons Ratio (z) = 0.31289 -0.19573
#
# Static dielectric constant tensor:
#      x y z
#    x 1.713510 0.000000 0.001230 
#    y 0.000000 1.770640 0.000000 
#    z 0.001230 0.000000 1.713920 
# 
# From -- ./inp_files/250858.got.cif
#   From: 2010.05.17/outbox.ucp.g08.bks.cvg/sg15_126_cif.got.tgz:250858.got - 2010.06.11 12:40:34.
