data_PCOD9309218
_publ_section_title
;
Structure prediction by ZEFSAII (Michael W. Deem and Ramdas Pophale) SiO2 
 PCOD9309218
Probable space group: C 2/C
;
_chemical_formula_sum "Si O2"
_cell_formula_units_Z 24
_cell_length_a 9.000000
_cell_length_b 21.000000
_cell_length_c 21.000000
_cell_angle_alpha 90.000000
_cell_angle_beta 40.000000
_cell_angle_gamma 90.000000
_cell_volume 2551.224023
_symmetry_space_group_name_H-M "C 2/C"
_symmetry_group_IT_number 15
_symmetry_cell_setting 'monoclinic'
loop_
_space_group_symop_operation_xyz
x,y,z
-x,y,1/2-z
-x,-y,-z
x,-y,1/2+z
1/2+x,1/2+y,z
1/2-x,1/2+y,1/2-z
1/2-x,1/2-y,-z
1/2+x,1/2-y,1/2+z
loop_
_atom_site_type_symbol
_atom_site_label
_atom_site_fract_x
_atom_site_fract_y
_atom_site_fract_z
Si Si1 0.149312 0.566010 0.351214
Si Si2 0.208952 0.528668 0.132545
Si Si3 0.662663 0.602852 0.970079
Si Si4 0.000000 0.176821 0.250000
Si Si5 0.552890 0.883233 0.452055
Si Si6 0.500000 0.547218 0.750000
Si Si7 0.838815 0.250823 0.543091
O O1 0.307172 0.628232 0.284068
O O2 0.312856 0.504404 0.283430
O O3 0.910548 0.556583 0.391977
O O4 0.069118 0.576378 0.450995
O O5 0.278040 0.454476 0.098946
O O6 0.000000 0.532470 0.250000
O O7 0.429621 0.572512 0.077677
O O8 0.614116 0.674983 0.959624
O O9 0.879576 0.608095 0.948045
O O10 0.137645 0.220968 0.154800
O O11 0.533283 0.807828 0.478956
O O12 0.814643 0.908386 0.350335
O O13 0.750000 0.250000 0.500000
#
# Coordination Sequence:
#
# PCOD9309218 Si02
#       7
#     8   8   8   4   8   4   8
#     4  10  22  38  62  92 119 156 204 262 290 357
#     4  11  25  38  60  89 124 160 197 241 312 359
#     4  10  23  42  59  88 124 162 193 251 295 367
#     4   9  20  38  68  88 115 162 210 242 311 348
#     4  10  21  40  64  92 118 156 210 249 299 350
#     4  11  20  32  64  92 119 150 200 256 299 346
#     4   9  20  39  62  88 123 161 200 251 296 364
#
# _framework density 9.4072490000000002
#
# number of rings (size 3 to 8) (size 9 to 14) (size 15 to 20)
#    0.000    2.000    1.667    0.500   10.500    1.333 
#    1.500    3.333    0.000    0.000    0.000    0.000 
#    0.000    0.000    0.000    0.000    0.000    0.000 
#
# Total GULP energy -133636.638081 kJ/mol
# GULP energy per Si atom -5568.193253 kJ/mol
# Density = 0.938584 g / cm^3
# Si number density = 9.407249 Si / 1000 Ang^3
#
#
#
# Elastic Constant Matrix: (Units=GPa)
#
#
# Indices 1 2 3 4 5 6 
#
# 1 36.0457 14.7392 10.9103 -0.0004 -10.3021 0.0006
# 2 14.7392 175.8615 67.0007 -0.0001 -4.8153 0.0002
# 3 10.9103 67.0007 153.6959 -0.0006 -15.7812 0.0005
# 4 -0.0004 -0.0001 -0.0006 34.3678 0.0006 -7.1014
# 5 -10.3021 -4.8153 -15.7812 0.0006 30.1033 -0.0004
# 6 0.0006 0.0002 0.0005 -7.1014 -0.0004 19.7568
#
#
#
# Elastic Compliance Matrix: (Units=1/GPa)
#
#
# Indices 1 2 3 4 5 6 
#
# 1 0.031708 -0.002305 -0.000179 0.000000 0.010389 -0.000001
# 2 -0.002305 0.006993 -0.003013 0.000000 -0.001250 0.000000
# 3 -0.000179 -0.003013 0.008219 0.000000 0.003765 0.000000
# 4 0.000000 0.000000 0.000000 0.031431 0.000000 0.011298
# 5 0.010389 -0.001250 0.003765 0.000000 0.038548 0.000000
# 6 -0.000001 0.000000 0.000000 0.011298 0.000000 0.054676
#
#
# Mechanical properties :
#
#
# Convention : Reuss Voigt Hill
#
# Bulk Modulus (GPa) = 27.83499 61.21150 44.52324
# Shear Modulus (GPa) = 25.70068 35.04243 30.37155
#
# Velocity S-wave (km/s) = 3.69996 4.32038 4.02215
# Velocity P-wave (km/s) = 5.75148 7.58237 6.72948
#
# Compressibility (1/GPa) = 0.03592601
#
# Stress axis : x y z
#
# Youngs Moduli (GPa) = 31.53738 142.99488 121.66465
#
# Poissons Ratio (x) = 0.32956 0.02184
# Poissons Ratio (y) = 0.07268 0.36661
# Poissons Ratio (z) = 0.00566 0.43089
#
# Static dielectric constant tensor:
#      x y z
#    x 1.672310 0.000000 0.027570 
#    y 0.000000 1.691530 0.000000 
#    z 0.027570 0.000000 1.667970 
# 
# From -- ./inp_files/233729.got.cif
#   From: 2010.05.17/outbox.ucp.g08.bks.cvg/sg15_117_cif.got.tgz:233729.got - 2010.06.11 12:40:34.
