data_PCOD9309800
_publ_section_title
;
Structure prediction by ZEFSAII (Michael W. Deem and Ramdas Pophale) SiO2 
 PCOD9309800
Probable space group: C 2/C
;
_chemical_formula_sum "Si O2"
_cell_formula_units_Z 24
_cell_length_a 12.000000
_cell_length_b 15.000000
_cell_length_c 27.000000
_cell_angle_alpha 90.000000
_cell_angle_beta 150.000000
_cell_angle_gamma 90.000000
_cell_volume 2430.000000
_symmetry_space_group_name_H-M "C 2/C"
_symmetry_group_IT_number 15
_symmetry_cell_setting 'monoclinic'
loop_
_space_group_symop_operation_xyz
x,y,z
-x,y,1/2-z
-x,-y,-z
x,-y,1/2+z
1/2+x,1/2+y,z
1/2-x,1/2+y,1/2-z
1/2-x,1/2-y,-z
1/2+x,1/2-y,1/2+z
loop_
_atom_site_type_symbol
_atom_site_label
_atom_site_fract_x
_atom_site_fract_y
_atom_site_fract_z
Si Si1 0.500000 0.417829 0.750000
Si Si2 0.269044 0.733577 0.096791
Si Si3 0.781611 0.522350 0.775916
Si Si4 0.932935 0.695845 0.877127
Si Si5 0.000000 0.274918 0.750000
Si Si6 0.818452 0.573121 0.114315
Si Si7 0.145956 0.909131 0.114744
O O1 0.667217 0.350954 0.844372
O O2 0.611193 0.479589 0.749930
O O3 0.464228 0.754357 0.131407
O O4 0.228573 0.817724 0.118904
O O5 0.065864 0.716833 0.979378
O O6 0.938657 0.592166 0.865323
O O7 0.691759 0.572600 0.690987
O O8 0.944297 0.445315 0.819010
O O9 0.673541 0.718607 0.784842
O O10 0.847360 0.339142 0.658024
O O11 0.760043 0.490081 0.127919
O O12 0.617050 0.583352 0.998267
#
# Coordination Sequence:
#
# PCOD9309800 Si02
#       7
#     4   8   8   8   4   8   8
#     4  12  29  43  68  98 144 178 222 275 345 398
#     4  11  24  46  69 103 131 183 224 278 336 408
#     4  12  25  46  66  99 135 183 217 278 334 405
#     4  11  25  42  73  96 142 176 224 276 342 399
#     4  12  21  43  62 106 132 176 222 279 329 392
#     4  11  23  40  72 100 132 169 229 281 323 396
#     4  11  23  43  71 101 129 175 230 276 332 391
#
# _framework density 9.8765429999999999
#
# number of rings (size 3 to 8) (size 9 to 14) (size 15 to 20)
#    0.000    0.667    5.000    2.500    2.333    0.667 
#    3.000    1.667    0.000    0.000    0.000    0.000 
#    0.000    0.000    0.000    0.000    0.000    0.000 
#
# Total GULP energy -134022.513842 kJ/mol
# GULP energy per Si atom -5584.271410 kJ/mol
# Density = 0.985406 g / cm^3
# Si number density = 9.876543 Si / 1000 Ang^3
#
#
#
# Elastic Constant Matrix: (Units=GPa)
#
#
# Indices 1 2 3 4 5 6 
#
# 1 135.5622 30.1776 47.5389 0.0002 -18.1647 0.0000
# 2 30.1776 47.3010 6.4752 0.0000 -13.6537 0.0000
# 3 47.5389 6.4752 99.0263 0.0012 -15.6302 -0.0004
# 4 0.0002 0.0000 0.0012 26.4338 0.0001 0.6970
# 5 -18.1647 -13.6537 -15.6302 0.0001 30.9285 -0.0001
# 6 0.0000 0.0000 -0.0004 0.6970 -0.0001 38.5774
#
#
#
# Elastic Compliance Matrix: (Units=1/GPa)
#
#
# Indices 1 2 3 4 5 6 
#
# 1 0.010346 -0.005599 -0.004381 0.000000 0.001390 0.000000
# 2 -0.005599 0.027260 0.002484 0.000000 0.010001 0.000000
# 3 -0.004381 0.002484 0.012829 -0.000001 0.005007 0.000000
# 4 0.000000 0.000000 -0.000001 0.037848 0.000000 -0.000684
# 5 0.001390 0.010001 0.005007 0.000000 0.040095 0.000000
# 6 0.000000 0.000000 0.000000 -0.000684 0.000000 0.025934
#
#
# Mechanical properties :
#
#
# Convention : Reuss Voigt Hill
#
# Bulk Modulus (GPa) = 28.21447 50.03032 39.12239
# Shear Modulus (GPa) = 27.60599 32.36779 29.98689
#
# Velocity S-wave (km/s) = 3.74244 4.05238 3.90049
# Velocity P-wave (km/s) = 5.74361 6.87594 6.33512
#
# Compressibility (1/GPa) = 0.03544281
#
# Stress axis : x y z
#
# Youngs Moduli (GPa) = 96.65725 36.68321 77.94595
#
# Poissons Ratio (x) = 0.20541 0.34149
# Poissons Ratio (y) = 0.54123 -0.19363
# Poissons Ratio (z) = 0.42346 -0.09113
#
# Static dielectric constant tensor:
#      x y z
#    x 1.679460 0.000000 0.016580 
#    y 0.000000 1.686330 0.000000 
#    z 0.016580 0.000000 1.711800 
# 
# From -- ./inp_files/182477.got.cif
#   From: 2010.05.17/outbox.ucp.g08.bks.cvg/sg15_92_cif.got.tgz:182477.got - 2010.06.11 12:40:34.
