data_PCOD9309765
_publ_section_title
;
Structure prediction by ZEFSAII (Michael W. Deem and Ramdas Pophale) SiO2 
 PCOD9309765
Probable space group: C 2/C
;
_chemical_formula_sum "Si O2"
_cell_formula_units_Z 30
_cell_length_a 21.000000
_cell_length_b 21.000000
_cell_length_c 9.000000
_cell_angle_alpha 90.000000
_cell_angle_beta 130.000000
_cell_angle_gamma 90.000000
_cell_volume 3040.430395
_symmetry_space_group_name_H-M "C 2/C"
_symmetry_group_IT_number 15
_symmetry_cell_setting 'monoclinic'
loop_
_space_group_symop_operation_xyz
x,y,z
-x,y,1/2-z
-x,-y,-z
x,-y,1/2+z
1/2+x,1/2+y,z
1/2-x,1/2+y,1/2-z
1/2-x,1/2-y,-z
1/2+x,1/2-y,1/2+z
loop_
_atom_site_type_symbol
_atom_site_label
_atom_site_fract_x
_atom_site_fract_y
_atom_site_fract_z
Si Si1 0.194795 0.208445 0.540795
Si Si2 0.805823 0.653208 0.976791
Si Si3 0.608779 0.812264 0.600887
Si Si4 0.650256 0.067114 0.969327
Si Si5 0.500000 0.972389 0.750000
Si Si6 0.196132 0.026526 0.830122
Si Si7 0.101730 0.926414 0.896731
Si Si8 0.553826 0.122822 0.546460
O O1 0.250000 0.250000 0.500000
O O2 0.252415 0.188472 0.768367
O O3 0.126913 0.255508 0.513059
O O4 0.148370 0.141541 0.422092
O O5 0.754725 0.589370 0.953055
O O6 0.890764 0.638183 0.014207
O O7 0.837544 0.693127 0.166705
O O8 0.643360 0.875849 0.574257
O O9 0.510606 0.824616 0.488104
O O10 0.620005 0.097898 0.767056
O O11 0.579554 0.015630 0.892943
O O12 0.736166 0.028780 0.104680
O O13 0.506430 0.931755 0.608809
O O14 0.138900 0.054082 0.612851
O O15 0.134551 0.986758 0.847175
O O16 0.000000 0.920569 0.750000
#
# Coordination Sequence:
#
# PCOD9309765 Si02
#       8
#     8   8   8   8   4   8   8   8
#     4  11  26  46  66  93 129 179 233 279 341 418
#     4  11  23  40  66  93 131 170 223 282 338 407
#     4  12  23  40  60  93 133 183 223 271 335 403
#     4  12  23  35  62  96 139 182 219 271 336 418
#     4  12  22  34  58 100 146 174 228 266 338 410
#     4  11  22  41  67  97 129 167 217 280 348 392
#     4  11  25  45  70  97 126 168 223 290 337 399
#     4  12  22  38  59  99 138 182 219 274 335 411
#
# _framework density 9.8670240000000007
#
# number of rings (size 3 to 8) (size 9 to 14) (size 15 to 20)
#    0.000    0.533    4.000    5.200    1.867    2.133 
#    0.000    0.000    0.000    6.400    0.000    0.000 
#    0.000    0.000    0.000    0.000    0.000    0.000 
#
# Total GULP energy -167344.867545 kJ/mol
# GULP energy per Si atom -5578.162252 kJ/mol
# Density = 0.984457 g / cm^3
# Si number density = 9.867024 Si / 1000 Ang^3
#
#
#
# Elastic Constant Matrix: (Units=GPa)
#
#
# Indices 1 2 3 4 5 6 
#
# 1 106.0497 44.4283 22.0118 0.0000 7.0336 0.0000
# 2 44.4283 93.3292 17.8685 0.0000 -2.4339 0.0000
# 3 22.0118 17.8685 95.5512 0.0000 4.2218 0.0000
# 4 0.0000 0.0000 0.0000 35.9165 0.0000 -4.5068
# 5 7.0336 -2.4339 4.2218 0.0000 39.9947 0.0000
# 6 0.0000 0.0000 0.0000 -4.5068 0.0000 40.4597
#
#
#
# Elastic Compliance Matrix: (Units=1/GPa)
#
#
# Indices 1 2 3 4 5 6 
#
# 1 0.012270 -0.005580 -0.001681 0.000000 -0.002320 0.000000
# 2 -0.005580 0.013682 -0.001360 0.000000 0.001957 0.000000
# 3 -0.001681 -0.001360 0.011150 0.000000 -0.000964 0.000000
# 4 0.000000 0.000000 0.000000 0.028237 0.000000 0.003145
# 5 -0.002320 0.001957 -0.000964 0.000000 0.025632 0.000000
# 6 0.000000 0.000000 0.000000 0.003145 0.000000 0.025066
#
#
# Mechanical properties :
#
#
# Convention : Reuss Voigt Hill
#
# Bulk Modulus (GPa) = 50.34833 51.50525 50.92679
# Shear Modulus (GPa) = 35.74039 37.31561 36.52800
#
# Velocity S-wave (km/s) = 4.26032 4.35319 4.30701
# Velocity P-wave (km/s) = 7.05473 7.17101 7.11311
#
# Compressibility (1/GPa) = 0.01986163
#
# Stress axis : x y z
#
# Youngs Moduli (GPa) = 81.50126 73.08737 89.68899
#
# Poissons Ratio (x) = 0.40780 0.15073
# Poissons Ratio (y) = 0.45474 0.12196
# Poissons Ratio (z) = 0.13697 0.09938
#
# Static dielectric constant tensor:
#      x y z
#    x 1.741930 0.000000 -0.019270 
#    y 0.000000 1.741510 0.000000 
#    z -0.019270 0.000000 1.726630 
# 
# From -- ./inp_files/58106.got.cif
#   From: 2010.05.17/outbox.ucp.g08.bks.cvg/sg15_30_cif.got.tgz:58106.got - 2010.06.11 12:40:34.
