data_PCOD9309696
_publ_section_title
;
Structure prediction by ZEFSAII (Michael W. Deem and Ramdas Pophale) SiO2 
 PCOD9309696
Probable space group: C 2/C
;
_chemical_formula_sum "Si O2"
_cell_formula_units_Z 32
_cell_length_a 15.000000
_cell_length_b 24.000000
_cell_length_c 18.000000
_cell_angle_alpha 90.000000
_cell_angle_beta 30.000000
_cell_angle_gamma 90.000000
_cell_volume 3240.000000
_symmetry_space_group_name_H-M "C 2/C"
_symmetry_group_IT_number 15
_symmetry_cell_setting 'monoclinic'
loop_
_space_group_symop_operation_xyz
x,y,z
-x,y,1/2-z
-x,-y,-z
x,-y,1/2+z
1/2+x,1/2+y,z
1/2-x,1/2+y,1/2-z
1/2-x,1/2-y,-z
1/2+x,1/2-y,1/2+z
loop_
_atom_site_type_symbol
_atom_site_label
_atom_site_fract_x
_atom_site_fract_y
_atom_site_fract_z
Si Si1 0.201642 0.151062 0.570826
Si Si2 0.014874 0.284795 0.926300
Si Si3 0.638758 0.019468 0.835874
Si Si4 0.416374 0.878493 0.508834
Si Si5 0.377358 0.576340 0.162611
Si Si6 0.674168 0.673888 0.413859
Si Si7 0.660425 0.431841 0.575449
Si Si8 0.894379 0.459679 0.897052
O O1 0.330385 0.193022 0.522533
O O2 0.211652 0.164128 0.474828
O O3 0.292510 0.089832 0.512644
O O4 0.000000 0.152270 0.750000
O O5 0.045884 0.318640 0.981387
O O6 0.167959 0.299746 0.753526
O O7 0.983990 0.220012 0.968585
O O8 0.833624 0.990648 0.695484
O O9 0.550881 0.989934 0.828893
O O10 0.598726 0.085521 0.866154
O O11 0.500000 0.000000 0.000000
O O12 0.286630 0.903534 0.666668
O O13 0.299775 0.890691 0.517818
O O14 0.368263 0.614136 0.095103
O O15 0.560171 0.589033 0.074164
O O16 0.500000 0.442724 0.750000
O O17 0.757266 0.489527 0.484810
O O18 0.000000 0.436383 0.750000
#
# Coordination Sequence:
#
# PCOD9309696 Si02
#       8
#     8   8   8   8   8   8   8   8
#     4  12  24  38  58  85 112 148 193 239 286 341
#     4  11  22  40  60  82 114 153 189 238 286 338
#     4   9  16  31  55  82 109 148 188 226 282 343
#     4   8  17  32  57  83 112 149 191 229 280 337
#     4   9  17  33  57  84 114 147 186 239 285 328
#     4  11  23  40  59  83 114 150 194 237 287 341
#     4   9  18  35  58  85 114 149 192 237 282 337
#     4  11  21  35  53  82 120 154 183 227 288 347
#
# _framework density 9.8765429999999999
#
# number of rings (size 3 to 8) (size 9 to 14) (size 15 to 20)
#    0.000    2.000    0.000    6.375    0.000    1.000 
#    0.000    9.375    0.000    0.000    0.000    0.000 
#    0.000    0.000    0.000    0.000    0.000    0.000 
#
# Total GULP energy -178291.938190 kJ/mol
# GULP energy per Si atom -5571.623068 kJ/mol
# Density = 0.985406 g / cm^3
# Si number density = 9.876543 Si / 1000 Ang^3
#
#
#
# Elastic Constant Matrix: (Units=GPa)
#
#
# Indices 1 2 3 4 5 6 
#
# 1 78.3380 26.1647 23.8695 0.0019 -5.2179 0.0037
# 2 26.1647 71.4941 7.2319 0.0279 2.1687 -0.0346
# 3 23.8695 7.2319 70.0315 0.0065 9.8483 -0.0311
# 4 0.0019 0.0279 0.0065 31.9950 -0.0180 1.8231
# 5 -5.2179 2.1687 9.8483 -0.0180 15.2944 0.0199
# 6 0.0037 -0.0346 -0.0311 1.8231 0.0199 25.4109
#
#
#
# Elastic Compliance Matrix: (Units=1/GPa)
#
#
# Indices 1 2 3 4 5 6 
#
# 1 0.017704 -0.006117 -0.007009 0.000014 0.011421 -0.000029
# 2 -0.006117 0.016267 0.001125 -0.000019 -0.005118 0.000030
# 3 -0.007009 0.001125 0.018594 -0.000015 -0.014524 0.000038
# 4 0.000014 -0.000019 -0.000015 0.031383 0.000057 -0.002252
# 5 0.011421 -0.005118 -0.014524 0.000057 0.079358 -0.000093
# 6 -0.000029 0.000030 0.000038 -0.002252 -0.000093 0.039515
#
#
# Mechanical properties :
#
#
# Convention : Reuss Voigt Hill
#
# Bulk Modulus (GPa) = 35.00857 37.15508 36.08183
# Shear Modulus (GPa) = 21.15551 25.37989 23.26770
#
# Velocity S-wave (km/s) = 3.27616 3.58838 3.43582
# Velocity P-wave (km/s) = 5.66326 6.00160 5.83488
#
# Compressibility (1/GPa) = 0.02856443
#
# Stress axis : x y z
#
# Youngs Moduli (GPa) = 56.48301 61.47327 53.77946
#
# Poissons Ratio (x) = 0.37602 0.37693
# Poissons Ratio (y) = 0.34549 -0.06049
# Poissons Ratio (z) = 0.39588 -0.06914
#
# Static dielectric constant tensor:
#      x y z
#    x 1.723240 -0.000170 -0.053040 
#    y -0.000170 1.530040 -0.000160 
#    z -0.053040 -0.000160 1.663220 
# 
# From -- ./inp_files/207325.got.cif
#   From: 2010.05.17/outbox.ucp.g08.bks.cvg/sg15_104_cif.got.tgz:207325.got - 2010.06.11 12:40:34.
