data_PCOD9309487
_publ_section_title
;
Structure prediction by ZEFSAII (Michael W. Deem and Ramdas Pophale) SiO2 
 PCOD9309487
Probable space group: C 2/C
;
_chemical_formula_sum "Si O2"
_cell_formula_units_Z 26
_cell_length_a 9.000000
_cell_length_b 12.000000
_cell_length_c 27.000000
_cell_angle_alpha 90.000000
_cell_angle_beta 60.000000
_cell_angle_gamma 90.000000
_cell_volume 2525.330077
_symmetry_space_group_name_H-M "C 2/C"
_symmetry_group_IT_number 15
_symmetry_cell_setting 'monoclinic'
loop_
_space_group_symop_operation_xyz
x,y,z
-x,y,1/2-z
-x,-y,-z
x,-y,1/2+z
1/2+x,1/2+y,z
1/2-x,1/2+y,1/2-z
1/2-x,1/2-y,-z
1/2+x,1/2-y,1/2+z
loop_
_atom_site_type_symbol
_atom_site_label
_atom_site_fract_x
_atom_site_fract_y
_atom_site_fract_z
Si Si1 0.709864 0.081040 0.683483
Si Si2 0.925810 0.840058 0.534711
Si Si3 0.843279 0.620861 0.238476
Si Si4 0.916746 0.418426 0.053667
Si Si5 0.039515 0.054612 0.575912
Si Si6 0.000000 0.217448 0.250000
Si Si7 0.563979 0.938920 0.617160
O O1 0.615752 0.197664 0.699177
O O2 0.908810 0.089115 0.640186
O O3 0.676236 0.005902 0.737773
O O4 0.649294 0.009830 0.646715
O O5 0.963333 0.712380 0.542110
O O6 0.985501 0.870464 0.469269
O O7 0.720254 0.866935 0.568805
O O8 0.009980 0.928802 0.559173
O O9 0.644274 0.660857 0.262597
O O10 0.000000 0.666373 0.250000
O O11 0.923880 0.630603 0.170570
O O12 0.720077 0.428163 0.071349
O O13 0.974421 0.475437 0.095022
O O14 0.000000 0.500000 0.000000
#
# Coordination Sequence:
#
# PCOD9309487 Si02
#       7
#     8   8   8   8   8   4   8
#     4  10  23  48  64  98 140 168 233 291 327 418
#     4  10  23  45  64  94 136 179 219 282 345 395
#     4  10  24  47  67 100 140 173 232 291 341 415
#     4  12  25  40  67 102 132 178 233 274 339 419
#     4  10  23  44  67  94 138 179 222 283 345 400
#     4  12  24  44  76  96 130 194 226 280 360 404
#     4  10  22  45  65  94 138 172 222 293 336 406
#
# _framework density 10.295684
#
# number of rings (size 3 to 8) (size 9 to 14) (size 15 to 20)
#    0.000    1.538    3.846    0.462    4.308    4.308 
#    1.385    0.000    0.000    0.000    0.000    0.000 
#    0.000    0.000    0.000    0.000    0.000    0.000 
#
# Total GULP energy -144766.857571 kJ/mol
# GULP energy per Si atom -5567.956060 kJ/mol
# Density = 1.027225 g / cm^3
# Si number density = 10.295684 Si / 1000 Ang^3
#
#
#
# Elastic Constant Matrix: (Units=GPa)
#
#
# Indices 1 2 3 4 5 6 
#
# 1 24.0500 20.9942 -43.3393 0.0000 -2.4160 0.0000
# 2 20.9942 105.7140 8.6619 0.0000 1.5808 0.0000
# 3 -43.3393 8.6619 35.5333 0.0000 -11.0840 0.0000
# 4 0.0000 0.0000 0.0000 11.9279 0.0000 -3.5148
# 5 -2.4160 1.5808 -11.0840 0.0000 26.9153 0.0000
# 6 0.0000 0.0000 0.0000 -3.5148 0.0000 20.9673
#
#
#
# Elastic Compliance Matrix: (Units=1/GPa)
#
#
# Indices 1 2 3 4 5 6 
#
# 1 -0.019535 0.006549 -0.029936 0.000000 -0.014466 0.000000
# 2 0.006549 0.007530 0.007111 0.000000 0.003074 0.000000
# 3 -0.029936 0.007111 -0.012703 0.000000 -0.008336 0.000000
# 4 0.000000 0.000000 0.000000 0.088194 0.000000 0.014784
# 5 -0.014466 0.003074 -0.008336 0.000000 0.032242 0.000000
# 6 0.000000 0.000000 0.000000 0.014784 0.000000 0.050172
#
#
# Mechanical properties :
#
#
# Convention : Reuss Voigt Hill
#
# Bulk Modulus (GPa) = -17.46410 15.32565 -1.06923
# Shear Modulus (GPa) = 31.37450 23.89413 27.63432
#
# Velocity S-wave (km/s) = 3.90766 3.41015 3.66735
# Velocity P-wave (km/s) = 3.44384 4.79212 4.17280
#
# Compressibility (1/GPa) = -0.05726032
#
# Stress axis : x y z
#
# Youngs Moduli (GPa) = -51.18950 132.79575 -78.72283
#
# Poissons Ratio (x) = -0.86965 -2.35661
# Poissons Ratio (y) = 0.33523 0.55976
# Poissons Ratio (z) = -1.53239 -0.94424
#
# Static dielectric constant tensor:
#      x y z
#    x 1.702220 0.000000 -0.059900 
#    y 0.000000 1.750660 0.000000 
#    z -0.059900 0.000000 1.827980 
# 
# From -- ./inp_files/287896.got.cif
#   From: 2010.05.17/outbox.ucp.g08.bks.cvg/sg15_144_cif.got.tgz:287896.got - 2010.06.11 12:40:34.
