data_PCOD9309482
_publ_section_title
;
Structure prediction by ZEFSAII (Michael W. Deem and Ramdas Pophale) SiO2 
 PCOD9309482
Probable space group: C 2/C
;
_chemical_formula_sum "Si O2"
_cell_formula_units_Z 32
_cell_length_a 12.000000
_cell_length_b 9.000000
_cell_length_c 30.000000
_cell_angle_alpha 90.000000
_cell_angle_beta 90.000000
_cell_angle_gamma 90.000000
_cell_volume 3240.000000
_symmetry_space_group_name_H-M "C 2/C"
_symmetry_group_IT_number 15
_symmetry_cell_setting 'monoclinic'
loop_
_space_group_symop_operation_xyz
x,y,z
-x,y,1/2-z
-x,-y,-z
x,-y,1/2+z
1/2+x,1/2+y,z
1/2-x,1/2+y,1/2-z
1/2-x,1/2-y,-z
1/2+x,1/2-y,1/2+z
loop_
_atom_site_type_symbol
_atom_site_label
_atom_site_fract_x
_atom_site_fract_y
_atom_site_fract_z
Si Si1 0.041843 0.843728 0.927225
Si Si2 0.258450 0.497631 0.679062
Si Si3 0.194564 0.994295 0.073355
Si Si4 0.713442 0.147787 0.091786
Si Si5 0.113482 0.411894 0.495410
Si Si6 0.230558 0.167875 0.163070
Si Si7 0.026803 0.787417 0.825530
Si Si8 0.387950 0.002799 0.731250
O O1 0.161573 0.917329 0.916812
O O2 0.075778 0.735269 0.967871
O O3 0.024148 0.757316 0.879565
O O4 0.932686 0.946229 0.936644
O O5 0.185526 0.413310 0.640889
O O6 0.271122 0.663635 0.661523
O O7 0.376457 0.410591 0.682877
O O8 0.192938 0.516066 0.725742
O O9 0.202256 0.826752 0.092811
O O10 0.283507 0.986515 0.032362
O O11 0.232213 0.099536 0.113706
O O12 0.650138 0.111055 0.046324
O O13 0.000000 0.500000 0.500000
O O14 0.102192 0.164714 0.181929
O O15 0.314218 0.081114 0.195007
O O16 0.064530 0.650020 0.794375
O O17 0.500000 0.925416 0.750000
#
# Coordination Sequence:
#
# PCOD9309482 Si02
#       8
#     8   8   8   8   8   8   8   8
#     4   9  20  42  68  92 123 171 219 266 329 390
#     4  11  24  43  68  95 130 173 222 273 329 391
#     4  10  22  44  71  92 128 177 217 270 333 389
#     4  10  23  43  63  93 132 172 218 271 328 386
#     4  11  24  38  63  99 136 173 212 275 327 393
#     4  11  24  45  69  99 131 171 223 277 329 394
#     4  10  23  47  68  94 134 173 216 274 337 389
#     4  12  24  43  68  94 133 178 213 269 335 399
#
# _framework density 9.8765429999999999
#
# number of rings (size 3 to 8) (size 9 to 14) (size 15 to 20)
#    0.000    1.500    1.250    4.500    3.500    3.500 
#   18.000    0.000    0.000    0.000    0.000    0.000 
#    0.000    0.000    0.000    0.000    0.000    0.000 
#
# Total GULP energy -178337.906937 kJ/mol
# GULP energy per Si atom -5573.059592 kJ/mol
# Density = 0.985406 g / cm^3
# Si number density = 9.876543 Si / 1000 Ang^3
#
#
#
# Elastic Constant Matrix: (Units=GPa)
#
#
# Indices 1 2 3 4 5 6 
#
# 1 110.1094 38.4768 7.5180 0.0000 18.7099 0.0000
# 2 38.4768 69.8837 23.6756 0.0000 2.2766 0.0000
# 3 7.5180 23.6756 50.5997 0.0000 14.2839 0.0000
# 4 0.0000 0.0000 0.0000 29.5132 0.0000 -2.4014
# 5 18.7099 2.2766 14.2839 0.0000 42.5649 0.0000
# 6 0.0000 0.0000 0.0000 -2.4014 0.0000 33.9197
#
#
#
# Elastic Compliance Matrix: (Units=1/GPa)
#
#
# Indices 1 2 3 4 5 6 
#
# 1 0.012730 -0.008048 0.003681 0.000000 -0.006401 0.000000
# 2 -0.008048 0.022239 -0.010906 0.000000 0.006008 0.000000
# 3 0.003681 -0.010906 0.027187 0.000000 -0.010158 0.000000
# 4 0.000000 0.000000 0.000000 0.034079 0.000000 0.002413
# 5 -0.006401 0.006008 -0.010158 0.000000 0.029394 0.000000
# 6 0.000000 0.000000 0.000000 0.002413 0.000000 0.029652
#
#
# Mechanical properties :
#
#
# Convention : Reuss Voigt Hill
#
# Bulk Modulus (GPa) = 31.63494 41.10373 36.36933
# Shear Modulus (GPa) = 25.46279 31.92772 28.69526
#
# Velocity S-wave (km/s) = 3.59423 4.02474 3.81556
# Velocity P-wave (km/s) = 5.76842 6.51551 6.15332
#
# Compressibility (1/GPa) = 0.03161062
#
# Stress axis : x y z
#
# Youngs Moduli (GPa) = 78.55270 44.96509 36.78291
#
# Poissons Ratio (x) = 0.36186 -0.13539
# Poissons Ratio (y) = 0.63216 0.40116
# Poissons Ratio (z) = -0.28914 0.49039
#
# Static dielectric constant tensor:
#      x y z
#    x 1.723570 0.000000 0.006750 
#    y 0.000000 1.713470 0.000000 
#    z 0.006750 0.000000 1.889780 
# 
# From -- ./inp_files/310330.got.cif
#   From: 2010.05.17/outbox.ucp.g08.bks.cvg/sg15_156_cif.got.tgz:310330.got - 2010.06.11 12:40:34.
