data_PCOD9309024
_publ_section_title
;
Structure prediction by ZEFSAII (Michael W. Deem and Ramdas Pophale) SiO2 
 PCOD9309024
Probable space group: C 2/C
;
_chemical_formula_sum "Si O2"
_cell_formula_units_Z 30
_cell_length_a 12.000000
_cell_length_b 21.000000
_cell_length_c 24.000000
_cell_angle_alpha 90.000000
_cell_angle_beta 30.000000
_cell_angle_gamma 90.000000
_cell_volume 3024.000000
_symmetry_space_group_name_H-M "C 2/C"
_symmetry_group_IT_number 15
_symmetry_cell_setting 'monoclinic'
loop_
_space_group_symop_operation_xyz
x,y,z
-x,y,1/2-z
-x,-y,-z
x,-y,1/2+z
1/2+x,1/2+y,z
1/2-x,1/2+y,1/2-z
1/2-x,1/2-y,-z
1/2+x,1/2-y,1/2+z
loop_
_atom_site_type_symbol
_atom_site_label
_atom_site_fract_x
_atom_site_fract_y
_atom_site_fract_z
Si Si1 0.000000 0.968069 0.250000
Si Si2 0.599082 0.070222 0.595218
Si Si3 0.152323 0.861145 0.272202
Si Si4 0.623738 0.042610 0.374517
Si Si5 0.111535 0.098231 0.343876
Si Si6 0.099269 0.283161 0.767313
Si Si7 0.247977 0.971721 0.892217
Si Si8 0.208164 0.632993 0.029420
O O1 0.068660 0.919729 0.269622
O O2 0.215862 0.013690 0.147305
O O3 0.402642 0.121775 0.682362
O O4 0.848720 0.091620 0.470139
O O5 0.516555 0.017142 0.587118
O O6 0.612035 0.032109 0.647670
O O7 0.152355 0.791461 0.244869
O O8 0.960244 0.856760 0.401760
O O9 0.803305 0.066288 0.250086
O O10 0.445846 0.100688 0.452617
O O11 0.190111 0.171328 0.312096
O O12 0.255702 0.061909 0.329183
O O13 0.000000 0.298926 0.750000
O O14 0.917426 0.305479 0.891927
O O15 0.281980 0.918234 0.924720
O O16 0.000000 0.000000 0.000000
#
# Coordination Sequence:
#
# PCOD9309024 Si02
#       8
#     4   8   8   8   8   8   8   8
#     4  10  22  38  56  86 118 158 192 242 292 346
#     4   9  21  34  55  89 120 153 183 241 298 351
#     4  11  23  40  57  86 118 157 207 235 287 345
#     4   9  21  36  57  86 119 151 191 242 293 352
#     4  10  20  39  60  87 118 154 195 236 304 350
#     4  11  21  40  62  82 116 158 206 239 285 349
#     4   9  18  33  57  90 118 144 179 239 306 356
#     4  10  21  38  60  88 114 155 195 247 291 346
#
# _framework density 9.9206350000000008
#
# number of rings (size 3 to 8) (size 9 to 14) (size 15 to 20)
#    0.000    2.133    2.000    0.400   11.200    1.067 
#    4.800    0.000    0.000    0.000    3.467    0.000 
#    0.000    0.000    0.000    0.000    0.000    0.000 
#
# Total GULP energy -167265.576902 kJ/mol
# GULP energy per Si atom -5575.519230 kJ/mol
# Density = 0.989806 g / cm^3
# Si number density = 9.920635 Si / 1000 Ang^3
#
#
#
# Elastic Constant Matrix: (Units=GPa)
#
#
# Indices 1 2 3 4 5 6 
#
# 1 69.6600 32.5324 32.5008 -0.0159 -23.5575 0.0017
# 2 32.5324 93.7006 35.3226 0.0099 -12.2412 -0.0170
# 3 32.5008 35.3226 130.5841 -0.0700 -26.1083 -0.0331
# 4 -0.0159 0.0099 -0.0700 22.8436 0.0029 -4.2643
# 5 -23.5575 -12.2412 -26.1083 0.0029 29.3122 -0.0113
# 6 0.0017 -0.0170 -0.0331 -4.2643 -0.0113 24.8298
#
#
#
# Elastic Compliance Matrix: (Units=1/GPa)
#
#
# Indices 1 2 3 4 5 6 
#
# 1 0.022402 -0.005416 -0.001172 0.000013 0.014699 0.000002
# 2 -0.005416 0.013353 -0.002457 -0.000016 -0.000965 0.000003
# 3 -0.001172 -0.002457 0.010002 0.000034 0.006941 0.000021
# 4 0.000013 -0.000016 0.000034 0.045226 0.000032 0.007767
# 5 0.014699 -0.000965 0.006941 0.000032 0.051708 0.000037
# 6 0.000002 0.000003 0.000021 0.007767 0.000037 0.041608
#
#
# Mechanical properties :
#
#
# Convention : Reuss Voigt Hill
#
# Bulk Modulus (GPa) = 36.14319 54.96181 45.55250
# Shear Modulus (GPa) = 23.62828 28.30305 25.96567
#
# Velocity S-wave (km/s) = 3.45464 3.78097 3.62148
# Velocity P-wave (km/s) = 5.84537 6.84265 6.36358
#
# Compressibility (1/GPa) = 0.02766773
#
# Stress axis : x y z
#
# Youngs Moduli (GPa) = 44.63822 74.89063 99.98131
#
# Poissons Ratio (x) = 0.40560 0.11717
# Poissons Ratio (y) = 0.24176 0.24563
# Poissons Ratio (z) = 0.05231 0.18399
#
# Static dielectric constant tensor:
#      x y z
#    x 1.728690 0.000000 0.015290 
#    y 0.000000 1.691950 0.000000 
#    z 0.015290 0.000000 1.757120 
# 
# From -- ./inp_files/271018.got.cif
#   From: 2010.05.17/outbox.ucp.g08.bks.cvg/sg15_136_cif.got.tgz:271018.got - 2010.06.11 12:40:34.
