data_PCOD9309775
_publ_section_title
;
Structure prediction by ZEFSAII (Michael W. Deem and Ramdas Pophale) SiO2 
 PCOD9309775
Probable space group: C 2/C
;
_chemical_formula_sum "Si O2"
_cell_formula_units_Z 24
_cell_length_a 27.000000
_cell_length_b 9.000000
_cell_length_c 15.000000
_cell_angle_alpha 90.000000
_cell_angle_beta 40.000000
_cell_angle_gamma 90.000000
_cell_volume 2342.960837
_symmetry_space_group_name_H-M "C 2/C"
_symmetry_group_IT_number 15
_symmetry_cell_setting 'monoclinic'
loop_
_space_group_symop_operation_xyz
x,y,z
-x,y,1/2-z
-x,-y,-z
x,-y,1/2+z
1/2+x,1/2+y,z
1/2-x,1/2+y,1/2-z
1/2-x,1/2-y,-z
1/2+x,1/2-y,1/2+z
loop_
_atom_site_type_symbol
_atom_site_label
_atom_site_fract_x
_atom_site_fract_y
_atom_site_fract_z
Si Si1 0.813924 0.994271 0.790056
Si Si2 0.932436 0.919227 0.406122
Si Si3 0.571276 0.765989 0.424755
Si Si4 0.913275 0.203270 0.554096
Si Si5 0.815729 0.525276 0.179007
Si Si6 0.720535 0.609664 0.485029
O O1 0.863501 0.849760 0.697719
O O2 0.872319 0.133683 0.698268
O O3 0.745082 0.019925 0.813660
O O4 0.785905 0.985336 0.929728
O O5 0.959062 0.797471 0.439872
O O6 0.861606 0.860586 0.446610
O O7 0.000000 0.964850 0.250000
O O8 0.912132 0.064054 0.490402
O O9 0.498322 0.762850 0.459698
O O10 0.617308 0.912914 0.385153
O O11 0.858978 0.327362 0.588332
O O12 0.771757 0.562684 0.330982
O O13 0.750000 0.750000 0.500000
#
# Coordination Sequence:
#
# PCOD9309775 Si02
#       6
#     8   8   8   8   8   8
#     4  11  22  42  68  91 127 171 224 261 318 394
#     4  11  23  42  68  94 127 172 225 261 317 399
#     4  11  23  41  66  95 131 174 212 273 328 377
#     4  11  22  43  64  91 134 169 214 270 325 385
#     4  12  24  43  65  99 136 164 215 278 330 378
#     4  12  23  40  70  98 126 172 220 268 327 389
#
# _framework density 10.243449
#
# number of rings (size 3 to 8) (size 9 to 14) (size 15 to 20)
#    0.000    0.667    5.000    6.500    0.000    0.667 
#    3.000    0.833    0.000    0.000    0.000    0.000 
#    0.000    0.000    0.000    0.000    0.000    0.000 
#
# Total GULP energy -133924.162642 kJ/mol
# GULP energy per Si atom -5580.173443 kJ/mol
# Density = 1.022013 g / cm^3
# Si number density = 10.243449 Si / 1000 Ang^3
#
#
#
# Elastic Constant Matrix: (Units=GPa)
#
#
# Indices 1 2 3 4 5 6 
#
# 1 108.4121 -14.1288 29.4527 0.0001 -15.6637 -0.0003
# 2 -14.1288 15.3995 16.3809 -0.0005 -16.5467 0.0004
# 3 29.4527 16.3809 51.9723 -0.0001 -1.2583 0.0000
# 4 0.0001 -0.0005 -0.0001 -1.2172 0.0002 -8.5741
# 5 -15.6637 -16.5467 -1.2583 0.0002 33.5570 -0.0002
# 6 -0.0003 0.0004 0.0000 -8.5741 -0.0002 29.6227
#
#
#
# Elastic Compliance Matrix: (Units=1/GPa)
#
#
# Indices 1 2 3 4 5 6 
#
# 1 -0.003374 -0.042038 0.014635 0.000003 -0.021754 0.000001
# 2 -0.042038 -0.116793 0.058818 0.000008 -0.075007 0.000003
# 3 0.014635 0.058818 -0.006730 -0.000004 0.035582 -0.000002
# 4 0.000003 0.000008 -0.000004 -0.270350 0.000006 -0.078251
# 5 -0.021754 -0.075007 0.035582 0.000006 -0.016006 0.000002
# 6 0.000001 0.000003 -0.000002 -0.078251 0.000002 0.011109
#
#
# Mechanical properties :
#
#
# Convention : Reuss Voigt Hill
#
# Bulk Modulus (GPa) = -15.60892 26.57702 5.48405
# Shear Modulus (GPa) = -10.28109 21.99779 5.85835
#
# Velocity S-wave (km/s) = -2.24260 3.28037 1.69286
# Velocity P-wave (km/s) = 3.78698 5.22959 2.55023
#
# Compressibility (1/GPa) = -0.06406592
#
# Stress axis : x y z
#
# Youngs Moduli (GPa) = -296.42518 -8.56212 -148.59574
#
# Poissons Ratio (x) = -0.35993 2.17466
# Poissons Ratio (y) = -12.46104 8.74016
# Poissons Ratio (z) = 4.33811 0.50361
#
# Static dielectric constant tensor:
#      x y z
#    x 1.699060 0.000000 -0.014060 
#    y 0.000000 1.776400 0.000000 
#    z -0.014060 0.000000 1.850280 
# 
# From -- ./inp_files/176909.got.cif
#   From: 2010.05.17/outbox.ucp.g08.bks.cvg/sg15_89_cif.got.tgz:176909.got - 2010.06.11 12:40:34.
