data_PCOD9309200
_publ_section_title
;
Structure prediction by ZEFSAII (Michael W. Deem and Ramdas Pophale) SiO2 
 PCOD9309200
Probable space group: C 2/C
;
_chemical_formula_sum "Si O2"
_cell_formula_units_Z 32
_cell_length_a 30.000000
_cell_length_b 9.000000
_cell_length_c 18.000000
_cell_angle_alpha 90.000000
_cell_angle_beta 40.000000
_cell_angle_gamma 90.000000
_cell_volume 3123.947783
_symmetry_space_group_name_H-M "C 2/C"
_symmetry_group_IT_number 15
_symmetry_cell_setting 'monoclinic'
loop_
_space_group_symop_operation_xyz
x,y,z
-x,y,1/2-z
-x,-y,-z
x,-y,1/2+z
1/2+x,1/2+y,z
1/2-x,1/2+y,1/2-z
1/2-x,1/2-y,-z
1/2+x,1/2-y,1/2+z
loop_
_atom_site_type_symbol
_atom_site_label
_atom_site_fract_x
_atom_site_fract_y
_atom_site_fract_z
Si Si1 0.049122 0.157550 0.015026
Si Si2 0.998554 0.124763 0.668776
Si Si3 0.893752 0.770044 0.680500
Si Si4 0.869070 0.888915 0.241230
Si Si5 0.747407 0.155628 0.143974
Si Si6 0.118174 0.319084 0.477185
Si Si7 0.264034 0.165967 0.905017
Si Si8 0.325004 0.147697 0.100457
O O1 0.973391 0.228199 0.103149
O O2 0.034843 0.995393 0.067777
O O3 0.082961 0.150768 0.890690
O O4 0.106521 0.249216 0.985726
O O5 0.043377 0.274699 0.605182
O O6 0.000000 0.065194 0.750000
O O7 0.918954 0.140971 0.746721
O O8 0.886513 0.718068 0.604773
O O9 0.846649 0.662585 0.788518
O O10 0.861533 0.934085 0.738346
O O11 0.800798 0.787327 0.328461
O O12 0.824172 0.212663 0.061567
O O13 0.711550 0.130220 0.271441
O O14 0.755011 0.005949 0.085700
O O15 0.147009 0.484055 0.454348
O O16 0.227715 0.267106 0.887216
O O17 0.250000 0.250000 0.000000
#
# Coordination Sequence:
#
# PCOD9309200 Si02
#       8
#     8   8   8   8   8   8   8   8
#     4  10  21  39  65  93 124 164 215 264 322 391
#     4  11  23  40  62  93 131 168 208 268 333 390
#     4  11  20  39  66  95 126 170 216 267 321 393
#     4  10  21  39  65  95 124 162 220 269 316 386
#     4  11  23  39  69  95 127 171 219 272 323 389
#     4  12  22  39  67  96 123 170 222 269 321 384
#     4  12  27  44  63  96 138 173 216 277 338 388
#     4  11  23  40  66  98 128 169 222 271 320 392
#
# _framework density 10.243449
#
# number of rings (size 3 to 8) (size 9 to 14) (size 15 to 20)
#    0.000    1.000    5.000    2.250    1.750    6.500 
#    0.000    2.500    0.000    0.000    0.000    0.000 
#    0.000    0.000    0.000    0.000    0.000    0.000 
#
# Total GULP energy -178690.815376 kJ/mol
# GULP energy per Si atom -5584.087981 kJ/mol
# Density = 1.022013 g / cm^3
# Si number density = 10.243449 Si / 1000 Ang^3
#
#
#
# Elastic Constant Matrix: (Units=GPa)
#
#
# Indices 1 2 3 4 5 6 
#
# 1 93.2107 6.5507 24.0642 0.0071 -10.9132 -0.0085
# 2 6.5507 42.5193 -11.5199 -0.0216 -7.9163 0.0003
# 3 24.0642 -11.5199 24.1057 -0.0169 -3.8345 -0.0055
# 4 0.0071 -0.0216 -0.0169 27.7200 0.0089 -11.6753
# 5 -10.9132 -7.9163 -3.8345 0.0089 27.9245 0.0007
# 6 -0.0085 0.0003 -0.0055 -11.6753 0.0007 29.4745
#
#
#
# Elastic Compliance Matrix: (Units=1/GPa)
#
#
# Indices 1 2 3 4 5 6 
#
# 1 0.016621 -0.007693 -0.020020 -0.000027 0.001566 -0.000010
# 2 -0.007693 0.033381 0.025210 0.000049 0.009918 0.000021
# 3 -0.020020 0.025210 0.075049 0.000085 0.009629 0.000041
# 4 -0.000027 0.000049 0.000085 0.043299 0.000001 0.017151
# 5 0.001566 0.009918 0.009629 0.000001 0.040557 0.000002
# 6 -0.000010 0.000021 0.000041 0.017151 0.000002 0.040722
#
#
# Mechanical properties :
#
#
# Convention : Reuss Voigt Hill
#
# Bulk Modulus (GPa) = 8.33016 22.00285 15.16650
# Shear Modulus (GPa) = 16.96934 26.40652 21.68793
#
# Velocity S-wave (km/s) = 2.88115 3.59409 3.25718
# Velocity P-wave (km/s) = 3.89139 5.29023 4.64378
#
# Compressibility (1/GPa) = 0.12004567
#
# Stress axis : x y z
#
# Youngs Moduli (GPa) = 60.16518 29.95708 13.32459
#
# Poissons Ratio (x) = 0.23047 0.26676
# Poissons Ratio (y) = 0.46287 -0.33592
# Poissons Ratio (z) = 1.20450 -0.75523
#
# Static dielectric constant tensor:
#      x y z
#    x 1.714210 0.000160 0.028350 
#    y 0.000160 1.648630 -0.000060 
#    z 0.028350 -0.000060 1.734330 
# 
# From -- ./inp_files/224601.got.cif
#   From: 2010.05.17/outbox.ucp.g08.bks.cvg/sg15_113_cif.got.tgz:224601.got - 2010.06.11 12:40:34.
