data_PCOD9309106
_publ_section_title
;
Structure prediction by ZEFSAII (Michael W. Deem and Ramdas Pophale) SiO2 
 PCOD9309106
Probable space group: C 2/C
;
_chemical_formula_sum "Si O2"
_cell_formula_units_Z 30
_cell_length_a 27.000000
_cell_length_b 15.000000
_cell_length_c 21.000000
_cell_angle_alpha 90.000000
_cell_angle_beta 20.000000
_cell_angle_gamma 90.000000
_cell_volume 2908.881319
_symmetry_space_group_name_H-M "C 2/C"
_symmetry_group_IT_number 15
_symmetry_cell_setting 'monoclinic'
loop_
_space_group_symop_operation_xyz
x,y,z
-x,y,1/2-z
-x,-y,-z
x,-y,1/2+z
1/2+x,1/2+y,z
1/2-x,1/2+y,1/2-z
1/2-x,1/2-y,-z
1/2+x,1/2-y,1/2+z
loop_
_atom_site_type_symbol
_atom_site_label
_atom_site_fract_x
_atom_site_fract_y
_atom_site_fract_z
Si Si1 0.970824 0.669054 0.971743
Si Si2 0.799768 0.456308 0.759625
Si Si3 0.000000 0.309273 0.750000
Si Si4 0.738458 0.447522 0.068094
Si Si5 0.035586 0.839272 0.103224
Si Si6 0.156672 0.253190 0.348170
Si Si7 0.310499 0.939637 0.120790
Si Si8 0.104012 0.536930 0.732945
O O1 0.091961 0.728455 0.857396
O O2 0.023519 0.629467 0.841437
O O3 0.944493 0.593198 0.059200
O O4 0.812246 0.708063 0.155311
O O5 0.753439 0.502979 0.749710
O O6 0.807312 0.524422 0.808781
O O7 0.694489 0.381090 0.914749
O O8 0.987614 0.245103 0.824927
O O9 0.143726 0.368348 0.580114
O O10 0.583385 0.411572 0.234503
O O11 0.725556 0.463810 0.159091
O O12 0.806105 0.521035 0.939239
O O13 0.034939 0.805431 0.031374
O O14 0.184897 0.339406 0.358799
O O15 0.474455 0.965287 0.900146
#
# Coordination Sequence:
#
# PCOD9309106 Si02
#       8
#     8   8   4   8   8   8   8   8
#     4  10  21  34  61  90 119 161 202 257 299 357
#     4  10  21  37  60  84 120 161 206 240 289 369
#     4  12  22  36  54  86 134 158 184 228 308 386
#     4  12  23  36  58  87 125 160 194 245 300 369
#     4  11  24  34  54  93 122 157 191 243 304 354
#     4  11  19  36  58  92 126 152 202 252 304 352
#     4  11  19  37  60  86 116 159 200 241 296 352
#     4  11  19  38  59  83 120 167 204 230 300 376
#
# _framework density 10.313243
#
# number of rings (size 3 to 8) (size 9 to 14) (size 15 to 20)
#    0.000    1.067    5.333    2.800    1.867    0.533 
#    0.000    1.333    0.000    0.000    0.000   35.467 
#    0.000    0.000    0.000    0.000    0.000    0.000 
#
# Total GULP energy -167136.930203 kJ/mol
# GULP energy per Si atom -5571.231007 kJ/mol
# Density = 1.028977 g / cm^3
# Si number density = 10.313243 Si / 1000 Ang^3
#
#
#
# Elastic Constant Matrix: (Units=GPa)
#
#
# Indices 1 2 3 4 5 6 
#
# 1 54.2727 22.5681 70.6614 -0.0003 22.4446 0.0004
# 2 22.5681 37.2768 24.8699 0.0001 6.7531 0.0010
# 3 70.6614 24.8699 5.9134 0.0011 -7.3738 0.0000
# 4 -0.0003 0.0001 0.0011 41.1106 0.0001 11.4179
# 5 22.4446 6.7531 -7.3738 0.0001 13.2358 -0.0011
# 6 0.0004 0.0010 0.0000 11.4179 -0.0011 26.4544
#
#
#
# Elastic Compliance Matrix: (Units=1/GPa)
#
#
# Indices 1 2 3 4 5 6 
#
# 1 0.003919 -0.012197 0.012891 -0.000001 0.006758 0.000001
# 2 -0.012197 0.035579 -0.002378 0.000000 0.001206 -0.000001
# 3 0.012891 -0.002378 -0.002195 0.000001 -0.021869 -0.000001
# 4 -0.000001 0.000000 0.000001 0.027638 0.000000 -0.011929
# 5 0.006758 0.001206 -0.021869 0.000000 0.051294 0.000002
# 6 0.000001 -0.000001 -0.000001 -0.011929 0.000002 0.042949
#
#
# Mechanical properties :
#
#
# Convention : Reuss Voigt Hill
#
# Bulk Modulus (GPa) = 29.46927 37.07353 33.27140
# Shear Modulus (GPa) = 28.75797 14.78441 21.77119
#
# Velocity S-wave (km/s) = 3.73798 2.68016 3.25237
# Velocity P-wave (km/s) = 5.74005 5.25266 5.50175
#
# Compressibility (1/GPa) = 0.03393365
#
# Stress axis : x y z
#
# Youngs Moduli (GPa) = 255.13694 28.10653 -455.57629
#
# Poissons Ratio (x) = 0.34283 5.87264
# Poissons Ratio (y) = 3.11201 -1.08336
# Poissons Ratio (z) = -3.28886 0.06684
#
# Static dielectric constant tensor:
#      x y z
#    x 1.820490 0.000000 -0.035750 
#    y 0.000000 1.862720 0.000000 
#    z -0.035750 0.000000 1.691790 
# 
# From -- ./inp_files/257851.got.cif
#   From: 2010.05.17/outbox.ucp.g08.bks.cvg/sg15_129_cif.got.tgz:257851.got - 2010.06.11 12:40:34.
