data_PCOD9309499
_publ_section_title
;
Structure prediction by ZEFSAII (Michael W. Deem and Ramdas Pophale) SiO2 
 PCOD9309499
Probable space group: C 2/C
;
_chemical_formula_sum "Si O2"
_cell_formula_units_Z 32
_cell_length_a 21.000000
_cell_length_b 24.000000
_cell_length_c 18.000000
_cell_angle_alpha 90.000000
_cell_angle_beta 20.000000
_cell_angle_gamma 90.000000
_cell_volume 3102.806740
_symmetry_space_group_name_H-M "C 2/C"
_symmetry_group_IT_number 15
_symmetry_cell_setting 'monoclinic'
loop_
_space_group_symop_operation_xyz
x,y,z
-x,y,1/2-z
-x,-y,-z
x,-y,1/2+z
1/2+x,1/2+y,z
1/2-x,1/2+y,1/2-z
1/2-x,1/2-y,-z
1/2+x,1/2-y,1/2+z
loop_
_atom_site_type_symbol
_atom_site_label
_atom_site_fract_x
_atom_site_fract_y
_atom_site_fract_z
Si Si1 0.232309 0.185783 0.334318
Si Si2 0.638456 0.123669 0.447115
Si Si3 0.900139 0.139421 0.786441
Si Si4 0.105120 0.097384 0.207512
Si Si5 0.214701 0.522932 0.988810
Si Si6 0.276524 0.497780 0.753023
Si Si7 0.760785 0.602350 0.794212
Si Si8 0.135111 0.683759 0.955545
O O1 0.289007 0.171024 0.187975
O O2 0.175020 0.250583 0.400689
O O3 0.064898 0.146062 0.545062
O O4 0.413628 0.175729 0.187343
O O5 0.722516 0.125975 0.437748
O O6 0.710019 0.065668 0.331278
O O7 0.415538 0.120943 0.684305
O O8 0.828210 0.077942 0.887600
O O9 0.724159 0.167261 0.937273
O O10 0.000000 0.165334 0.750000
O O11 0.000000 0.120237 0.250000
O O12 0.942769 0.098838 0.447423
O O13 0.181290 0.035066 0.105008
O O14 0.219253 0.523950 0.894547
O O15 0.000000 0.522929 0.250000
O O16 0.500000 0.500000 0.500000
O O17 0.195880 0.539233 0.779787
O O18 0.775698 0.644580 0.707484
#
# Coordination Sequence:
#
# PCOD9309499 Si02
#       8
#     8   8   8   8   8   8   8   8
#     4  11  24  44  69  95 129 170 229 291 330 393
#     4  10  23  38  66  97 123 169 218 277 332 400
#     4  12  26  42  64  92 136 182 225 274 331 391
#     4  11  25  42  66  96 139 172 213 269 346 414
#     4  11  25  42  66  97 141 183 222 270 332 403
#     4  11  19  39  66  94 130 166 226 270 329 401
#     4  11  22  40  68  96 124 177 219 282 329 404
#     4  11  24  44  68  99 126 171 235 283 335 387
#
# _framework density 10.313243
#
# number of rings (size 3 to 8) (size 9 to 14) (size 15 to 20)
#    0.000    1.000    5.000    2.250    5.250    0.500 
#    0.000    0.000    0.000    0.750    0.000    0.000 
#    0.000    0.000    0.000    0.000    0.000    0.000 
#
# Total GULP energy -178731.477835 kJ/mol
# GULP energy per Si atom -5585.358682 kJ/mol
# Density = 1.028977 g / cm^3
# Si number density = 10.313243 Si / 1000 Ang^3
#
#
#
# Elastic Constant Matrix: (Units=GPa)
#
#
# Indices 1 2 3 4 5 6 
#
# 1 125.2355 3.7459 13.2601 0.0220 -34.9639 -0.0602
# 2 3.7459 38.5209 22.8377 0.0569 -8.3542 -0.2077
# 3 13.2601 22.8377 122.1516 -0.1003 -16.4868 0.0378
# 4 0.0220 0.0569 -0.1003 23.7510 0.0649 -5.1166
# 5 -34.9639 -8.3542 -16.4868 0.0649 34.7981 0.0230
# 6 -0.0602 -0.2077 0.0378 -5.1166 0.0230 17.6924
#
#
#
# Elastic Compliance Matrix: (Units=1/GPa)
#
#
# Indices 1 2 3 4 5 6 
#
# 1 0.011173 0.001373 0.000096 -0.000039 0.011601 0.000028
# 2 0.001373 0.030113 -0.004933 -0.000036 0.006271 0.000350
# 3 0.000096 -0.004933 0.009563 0.000027 0.003443 -0.000075
# 4 -0.000039 -0.000036 0.000027 0.044901 -0.000127 0.012985
# 5 0.011601 0.006271 0.003443 -0.000127 0.043531 0.000012
# 6 0.000028 0.000350 -0.000075 0.012985 0.000012 0.060281
#
#
# Mechanical properties :
#
#
# Convention : Reuss Voigt Hill
#
# Bulk Modulus (GPa) = 22.76810 40.62170 31.69490
# Shear Modulus (GPa) = 22.61117 31.65257 27.13187
#
# Velocity S-wave (km/s) = 3.31451 3.92160 3.63076
# Velocity P-wave (km/s) = 5.07053 6.34365 5.74248
#
# Compressibility (1/GPa) = 0.04392109
#
# Stress axis : x y z
#
# Youngs Moduli (GPa) = 89.50506 33.20832 104.56839
#
# Poissons Ratio (x) = -0.04558 -0.01007
# Poissons Ratio (y) = -0.12286 0.51580
# Poissons Ratio (z) = -0.00862 0.16381
#
# Static dielectric constant tensor:
#      x y z
#    x 1.769180 -0.000040 -0.005720 
#    y -0.000040 1.745720 0.000090 
#    z -0.005720 0.000090 1.729690 
# 
# From -- ./inp_files/216950.got.cif
#   From: 2010.05.17/outbox.ucp.g08.bks.cvg/sg15_109_cif.got.tgz:216950.got - 2010.06.11 12:40:34.
