data_PCOD9309715
_publ_section_title
;
Structure prediction by ZEFSAII (Michael W. Deem and Ramdas Pophale) SiO2 
 PCOD9309715
Probable space group: C 2/C
;
_chemical_formula_sum "Si O2"
_cell_formula_units_Z 28
_cell_length_a 21.000000
_cell_length_b 15.000000
_cell_length_c 18.000000
_cell_angle_alpha 90.000000
_cell_angle_beta 150.000000
_cell_angle_gamma 90.000000
_cell_volume 2835.000000
_symmetry_space_group_name_H-M "C 2/C"
_symmetry_group_IT_number 15
_symmetry_cell_setting 'monoclinic'
loop_
_space_group_symop_operation_xyz
x,y,z
-x,y,1/2-z
-x,-y,-z
x,-y,1/2+z
1/2+x,1/2+y,z
1/2-x,1/2+y,1/2-z
1/2-x,1/2-y,-z
1/2+x,1/2-y,1/2+z
loop_
_atom_site_type_symbol
_atom_site_label
_atom_site_fract_x
_atom_site_fract_y
_atom_site_fract_z
Si Si1 0.828257 0.722104 0.376915
Si Si2 0.871239 0.078197 0.931027
Si Si3 0.341322 0.452441 0.767738
Si Si4 0.986462 0.402553 0.945756
Si Si5 0.365277 0.588508 0.659789
Si Si6 0.232143 0.910674 0.588277
Si Si7 0.706690 0.785806 0.100544
O O1 0.838816 0.820609 0.426140
O O2 0.748699 0.635442 0.326115
O O3 0.957832 0.672875 0.480213
O O4 0.763449 0.758086 0.236760
O O5 0.806966 0.032129 0.792250
O O6 0.844383 0.997868 0.961376
O O7 0.021586 0.082725 0.066320
O O8 0.360781 0.503392 0.709835
O O9 0.861495 0.408682 0.766803
O O10 0.000000 0.500000 0.000000
O O11 0.097825 0.359647 0.007007
O O12 0.500000 0.594835 0.750000
O O13 0.255665 0.578384 0.487025
O O14 0.318623 0.672917 0.661968
O O15 0.165652 0.812824 0.529983
#
# Coordination Sequence:
#
# PCOD9309715 Si02
#       7
#     8   8   8   8   8   8   8
#     4  11  22  39  68 101 123 175 226 278 329 381
#     4  11  21  39  66  96 126 172 230 274 319 395
#     4  11  22  40  68  94 132 174 224 278 321 389
#     4  11  23  41  65  99 139 167 221 283 338 388
#     4  12  25  43  67  96 139 178 221 268 338 407
#     4  11  25  41  64  99 134 179 218 271 340 403
#     4  11  23  40  65  99 137 172 214 277 339 403
#
# _framework density 9.8765429999999999
#
# number of rings (size 3 to 8) (size 9 to 14) (size 15 to 20)
#    0.000    0.857    5.714    3.000    6.000    0.571 
#    0.000    0.714    0.000    0.000    0.000    0.000 
#    0.000    0.000    0.000    0.000    0.000    0.000 
#
# Total GULP energy -155888.609891 kJ/mol
# GULP energy per Si atom -5567.450353 kJ/mol
# Density = 0.985406 g / cm^3
# Si number density = 9.876543 Si / 1000 Ang^3
#
#
#
# Elastic Constant Matrix: (Units=GPa)
#
#
# Indices 1 2 3 4 5 6 
#
# 1 86.9569 54.6843 21.9058 0.0000 8.7120 0.0000
# 2 54.6843 197.1394 28.8050 0.0000 12.7804 0.0000
# 3 21.9058 28.8050 57.6163 0.0000 -0.0706 0.0000
# 4 0.0000 0.0000 0.0000 26.1038 0.0000 7.2739
# 5 8.7120 12.7804 -0.0706 0.0000 35.5998 0.0000
# 6 0.0000 0.0000 0.0000 7.2739 0.0000 41.7989
#
#
#
# Elastic Compliance Matrix: (Units=1/GPa)
#
#
# Indices 1 2 3 4 5 6 
#
# 1 0.014873 -0.003389 -0.003963 0.000000 -0.002431 0.000000
# 2 -0.003389 0.006386 -0.001906 0.000000 -0.001467 0.000000
# 3 -0.003963 -0.001906 0.019818 0.000000 0.001694 0.000000
# 4 0.000000 0.000000 0.000000 0.040261 0.000000 -0.007006
# 5 -0.002431 -0.001467 0.001694 0.000000 0.029215 0.000000
# 6 0.000000 0.000000 0.000000 -0.007006 0.000000 0.025143
#
#
# Mechanical properties :
#
#
# Convention : Reuss Voigt Hill
#
# Bulk Modulus (GPa) = 44.32524 61.38919 52.85722
# Shear Modulus (GPa) = 30.91498 36.45500 33.68499
#
# Velocity S-wave (km/s) = 3.96039 4.30063 4.13401
# Velocity P-wave (km/s) = 6.58796 7.47036 7.04300
#
# Compressibility (1/GPa) = 0.02256051
#
# Stress axis : x y z
#
# Youngs Moduli (GPa) = 67.23525 156.58708 50.45884
#
# Poissons Ratio (x) = 0.53066 0.19999
# Poissons Ratio (y) = 0.22786 0.09618
# Poissons Ratio (z) = 0.26649 0.29847
#
# Static dielectric constant tensor:
#      x y z
#    x 1.746450 0.000000 0.007750 
#    y 0.000000 1.792710 0.000000 
#    z 0.007750 0.000000 1.792040 
# 
# From -- ./inp_files/215767.got.cif
#   From: 2010.05.17/outbox.ucp.g08.bks.cvg/sg15_108_cif.got.tgz:215767.got - 2010.06.11 12:40:34.
