data_PCOD9309727
_publ_section_title
;
Structure prediction by ZEFSAII (Michael W. Deem and Ramdas Pophale) SiO2 
 PCOD9309727
Probable space group: C 2/C
;
_chemical_formula_sum "Si O2"
_cell_formula_units_Z 24
_cell_length_a 15.000000
_cell_length_b 30.000000
_cell_length_c 15.000000
_cell_angle_alpha 90.000000
_cell_angle_beta 20.000000
_cell_angle_gamma 90.000000
_cell_volume 2308.635967
_symmetry_space_group_name_H-M "C 2/C"
_symmetry_group_IT_number 15
_symmetry_cell_setting 'monoclinic'
loop_
_space_group_symop_operation_xyz
x,y,z
-x,y,1/2-z
-x,-y,-z
x,-y,1/2+z
1/2+x,1/2+y,z
1/2-x,1/2+y,1/2-z
1/2-x,1/2-y,-z
1/2+x,1/2-y,1/2+z
loop_
_atom_site_type_symbol
_atom_site_label
_atom_site_fract_x
_atom_site_fract_y
_atom_site_fract_z
Si Si1 0.411209 0.507895 0.981668
Si Si2 0.409352 0.122777 0.067141
Si Si3 0.554308 0.222422 0.939981
Si Si4 0.239604 0.310616 0.455762
Si Si5 0.117316 0.455105 0.044294
Si Si6 0.542264 0.607737 0.864446
O O1 0.614178 0.481492 0.727938
O O2 0.434092 0.560019 0.935105
O O3 0.500000 0.500000 0.000000
O O4 0.116546 0.489609 0.259806
O O5 0.478788 0.173421 0.975822
O O6 0.178855 0.124606 0.357942
O O7 0.340094 0.089369 0.053447
O O8 0.677784 0.101213 0.851789
O O9 0.315516 0.256383 0.154862
O O10 0.616189 0.214162 0.986759
O O11 0.500000 0.286542 0.250000
O O12 0.375801 0.355014 0.284642
O O13 0.000000 0.319631 0.750000
O O14 0.000000 0.440558 0.250000
#
# Coordination Sequence:
#
# PCOD9309727 Si02
#       6
#     8   8   8   8   8   8
#     4  12  22  40  64  91 125 168 207 246 285 353
#     4  11  21  41  62  85 117 157 195 251 295 360
#     4  11  23  39  61  87 109 150 205 245 296 368
#     4  11  23  38  55  85 124 159 193 244 301 344
#     4  12  25  40  62  96 124 156 203 253 305 346
#     4  11  22  37  63  83 118 168 210 231 284 353
#
# _framework density 10.395749
#
# number of rings (size 3 to 8) (size 9 to 14) (size 15 to 20)
#    0.000    0.667    3.333    7.000    0.000    4.000 
#    0.000    0.000    0.000    1.000    0.000    0.000 
#    0.000    0.000    0.000    0.000    0.000    0.000 
#
# Total GULP energy -134026.294619 kJ/mol
# GULP energy per Si atom -5584.428942 kJ/mol
# Density = 1.037209 g / cm^3
# Si number density = 10.395749 Si / 1000 Ang^3
#
#
#
# Elastic Constant Matrix: (Units=GPa)
#
#
# Indices 1 2 3 4 5 6 
#
# 1 39.2592 18.8615 18.7503 0.0859 5.2711 -0.1027
# 2 18.8615 124.3195 28.4374 0.0836 4.4339 -0.0937
# 3 18.7503 28.4374 154.9095 0.2364 5.8097 -0.2072
# 4 0.0859 0.0836 0.2364 39.3932 0.0829 0.4941
# 5 5.2711 4.4339 5.8097 0.0829 19.1497 0.0696
# 6 -0.1027 -0.0937 -0.2072 0.4941 0.0696 17.5576
#
#
#
# Elastic Compliance Matrix: (Units=1/GPa)
#
#
# Indices 1 2 3 4 5 6 
#
# 1 0.029337 -0.003616 -0.002646 -0.000029 -0.006436 0.000147
# 2 -0.003616 0.008885 -0.001167 -0.000003 -0.000708 0.000015
# 3 -0.002646 -0.001167 0.007032 -0.000032 -0.001135 0.000067
# 4 -0.000029 -0.000003 -0.000032 0.025395 -0.000089 -0.000715
# 5 -0.006436 -0.000708 -0.001135 -0.000089 0.054501 -0.000268
# 6 0.000147 0.000015 0.000067 -0.000715 -0.000268 0.056978
#
#
# Mechanical properties :
#
#
# Convention : Reuss Voigt Hill
#
# Bulk Modulus (GPa) = 32.89756 50.06517 41.48137
# Shear Modulus (GPa) = 24.14087 32.04936 28.09512
#
# Velocity S-wave (km/s) = 3.41118 3.93041 3.67996
# Velocity P-wave (km/s) = 5.60105 6.68800 6.16852
#
# Compressibility (1/GPa) = 0.03039739
#
# Stress axis : x y z
#
# Youngs Moduli (GPa) = 34.08654 112.55481 142.19716
#
# Poissons Ratio (x) = 0.40701 0.37619
# Poissons Ratio (y) = 0.12326 0.16590
# Poissons Ratio (z) = 0.09018 0.13132
#
# Static dielectric constant tensor:
#      x y z
#    x 1.874710 -0.000320 -0.041780 
#    y -0.000320 1.787340 0.000280 
#    z -0.041780 0.000280 1.696040 
# 
# From -- ./inp_files/157615.got.cif
#   From: 2010.05.17/outbox.ucp.g08.bks.cvg/sg15_79_cif.got.tgz:157615.got - 2010.06.11 12:40:34.
