data_PCOD9309183
_publ_section_title
;
Structure prediction by ZEFSAII (Michael W. Deem and Ramdas Pophale) SiO2 
 PCOD9309183
Probable space group: C 2/C
;
_chemical_formula_sum "Si O2"
_cell_formula_units_Z 30
_cell_length_a 27.000000
_cell_length_b 9.000000
_cell_length_c 24.000000
_cell_angle_alpha 90.000000
_cell_angle_beta 150.000000
_cell_angle_gamma 90.000000
_cell_volume 2916.000000
_symmetry_space_group_name_H-M "C 2/C"
_symmetry_group_IT_number 15
_symmetry_cell_setting 'monoclinic'
loop_
_space_group_symop_operation_xyz
x,y,z
-x,y,1/2-z
-x,-y,-z
x,-y,1/2+z
1/2+x,1/2+y,z
1/2-x,1/2+y,1/2-z
1/2-x,1/2-y,-z
1/2+x,1/2-y,1/2+z
loop_
_atom_site_type_symbol
_atom_site_label
_atom_site_fract_x
_atom_site_fract_y
_atom_site_fract_z
Si Si1 0.323906 0.727803 0.432469
Si Si2 0.857522 0.558260 0.203268
Si Si3 0.011005 0.193826 0.679887
Si Si4 0.609081 0.019455 0.134179
Si Si5 0.315162 0.500283 0.204717
Si Si6 0.000000 0.953564 0.750000
Si Si7 0.179119 0.765992 0.878780
Si Si8 0.203920 0.193749 0.213555
O O1 0.250255 0.633755 0.399093
O O2 0.428174 0.757977 0.560004
O O3 0.334691 0.646073 0.384492
O O4 0.268982 0.880999 0.365813
O O5 0.928193 0.667130 0.236692
O O6 0.895898 0.557269 0.304784
O O7 0.848095 0.393008 0.172330
O O8 0.094019 0.095224 0.730159
O O9 0.955790 0.073018 0.664067
O O10 0.678792 0.148436 0.174380
O O11 0.670516 0.863610 0.190921
O O12 0.500000 0.000000 0.000000
O O13 0.276245 0.623102 0.123559
O O14 0.344597 0.592106 0.287109
O O15 0.919167 0.850281 0.698103
O O16 0.250000 0.750000 0.000000
#
# Coordination Sequence:
#
# PCOD9309183 Si02
#       8
#     8   8   8   8   8   4   8   8
#     4  10  21  39  62  89 122 168 202 246 318 378
#     4  10  22  38  62  92 124 157 211 257 306 388
#     4  10  22  42  62  86 122 163 211 259 315 375
#     4  11  23  42  63  96 133 171 208 259 320 379
#     4  10  22  40  60  89 126 157 205 264 304 376
#     4  10  24  42  60  88 122 156 214 262 308 374
#     4  11  23  42  62  90 122 157 203 264 317 362
#     4  11  21  41  61  94 133 163 212 256 306 389
#
# _framework density 10.288066000000001
#
# number of rings (size 3 to 8) (size 9 to 14) (size 15 to 20)
#    0.000    1.600    2.667    1.600    0.000    3.200 
#    4.800    4.000    0.000    0.000    0.000    0.000 
#    0.000    0.000    0.000    0.000    0.000    0.000 
#
# Total GULP energy -167191.240519 kJ/mol
# GULP energy per Si atom -5573.041351 kJ/mol
# Density = 1.026465 g / cm^3
# Si number density = 10.288066 Si / 1000 Ang^3
#
#
#
# Elastic Constant Matrix: (Units=GPa)
#
#
# Indices 1 2 3 4 5 6 
#
# 1 31.4159 35.9057 -0.6167 0.0000 -5.6474 0.0000
# 2 35.9057 119.7994 22.4191 -0.0001 11.4904 0.0000
# 3 -0.6167 22.4191 62.5823 0.0000 14.9265 0.0000
# 4 0.0000 -0.0001 0.0000 15.9397 0.0000 -2.0685
# 5 -5.6474 11.4904 14.9265 0.0000 -0.2450 0.0000
# 6 0.0000 0.0000 0.0000 -2.0685 0.0000 26.4244
#
#
#
# Elastic Compliance Matrix: (Units=1/GPa)
#
#
# Indices 1 2 3 4 5 6 
#
# 1 0.030066 -0.006732 0.015666 0.000000 -0.054330 0.000000
# 2 -0.006732 0.009725 -0.009616 0.000000 0.025433 0.000000
# 3 0.015666 -0.009616 0.013732 0.000000 0.024511 0.000000
# 4 0.000000 0.000000 0.000000 0.063380 0.000000 0.004961
# 5 -0.054330 0.025433 0.024511 0.000000 -0.143212 0.000000
# 6 0.000000 0.000000 0.000000 0.004961 0.000000 0.038232
#
#
# Mechanical properties :
#
#
# Convention : Reuss Voigt Hill
#
# Bulk Modulus (GPa) = 19.17202 36.57931 27.87567
# Shear Modulus (GPa) = 163.00234 18.82980 90.91607
#
# Velocity S-wave (km/s) = 8.91017 3.02839 6.65441
# Velocity P-wave (km/s) = 10.73278 5.48127 8.52165
#
# Compressibility (1/GPa) = 0.05215934
#
# Stress axis : x y z
#
# Youngs Moduli (GPa) = 33.26010 102.82586 72.82257
#
# Poissons Ratio (x) = 0.69222 -1.14085
# Poissons Ratio (y) = 0.22391 0.70027
# Poissons Ratio (z) = -0.52106 0.98879
#
# Static dielectric constant tensor:
#      x y z
#    x 1.856500 0.000000 -0.076550 
#    y 0.000000 1.725490 0.000000 
#    z -0.076550 0.000000 1.468560 
# 
# From -- ./inp_files/283361.got.cif
#   From: 2010.05.17/outbox.ucp.g08.bks.cvg/sg15_142_cif.got.tgz:283361.got - 2010.06.11 12:40:34.
