data_PCOD9309455
_publ_section_title
;
Structure prediction by ZEFSAII (Michael W. Deem and Ramdas Pophale) SiO2 
 PCOD9309455
Probable space group: C 2/C
;
_chemical_formula_sum "Si O2"
_cell_formula_units_Z 26
_cell_length_a 6.000000
_cell_length_b 27.000000
_cell_length_c 21.000000
_cell_angle_alpha 90.000000
_cell_angle_beta 130.000000
_cell_angle_gamma 90.000000
_cell_volume 2606.083195
_symmetry_space_group_name_H-M "C 2/C"
_symmetry_group_IT_number 15
_symmetry_cell_setting 'monoclinic'
loop_
_space_group_symop_operation_xyz
x,y,z
-x,y,1/2-z
-x,-y,-z
x,-y,1/2+z
1/2+x,1/2+y,z
1/2-x,1/2+y,1/2-z
1/2-x,1/2-y,-z
1/2+x,1/2-y,1/2+z
loop_
_atom_site_type_symbol
_atom_site_label
_atom_site_fract_x
_atom_site_fract_y
_atom_site_fract_z
Si Si1 0.104845 0.018672 0.368371
Si Si2 0.643172 0.192044 0.115718
Si Si3 0.232615 0.754998 0.651106
Si Si4 0.343580 0.049440 0.545056
Si Si5 0.000000 0.894464 0.750000
Si Si6 0.666668 0.847845 0.067814
Si Si7 0.800446 0.919209 0.339286
O O1 0.132488 0.035143 0.447582
O O2 0.986195 0.065278 0.305831
O O3 0.426008 0.996622 0.408927
O O4 0.915806 0.968867 0.325069
O O5 0.407058 0.220701 0.120002
O O6 0.939653 0.219334 0.134561
O O7 0.761068 0.145407 0.179726
O O8 0.456038 0.172008 0.021862
O O9 0.500000 0.753689 0.750000
O O10 0.147507 0.699189 0.612404
O O11 0.489553 0.102121 0.552828
O O12 0.219814 0.061843 0.591652
O O13 0.990038 0.871398 0.124484
O O14 0.500000 0.906009 0.250000
#
# Coordination Sequence:
#
# PCOD9309455 Si02
#       7
#     8   8   8   8   4   8   8
#     4  10  22  43  66 102 142 186 238 304 363 434
#     4  12  27  51  72 115 144 194 250 306 373 441
#     4  12  27  49  76 108 149 189 251 311 367 441
#     4  10  22  43  68 101 142 184 244 293 372 448
#     4  12  22  46  74  98 146 188 248 298 366 432
#     4  11  27  44  75 102 147 194 235 310 375 444
#     4  11  25  43  68 108 140 193 250 297 368 448
#
# _framework density 9.9766580000000005
#
# number of rings (size 3 to 8) (size 9 to 14) (size 15 to 20)
#    0.000    0.923    3.077    2.308    6.462    1.231 
#   11.077    0.000    0.000    0.000    0.000    0.000 
#    0.000    0.000    0.000    0.000    0.000    0.000 
#
# Total GULP energy -144768.538629 kJ/mol
# GULP energy per Si atom -5568.020716 kJ/mol
# Density = 0.995395 g / cm^3
# Si number density = 9.976658 Si / 1000 Ang^3
#
#
#
# Elastic Constant Matrix: (Units=GPa)
#
#
# Indices 1 2 3 4 5 6 
#
# 1 78.0829 30.9004 23.2328 0.0000 -3.5013 0.0000
# 2 30.9004 129.1863 47.2302 0.0000 2.0611 0.0000
# 3 23.2328 47.2302 125.6747 0.0000 7.7524 0.0000
# 4 0.0000 0.0000 0.0000 52.6415 0.0000 -5.2055
# 5 -3.5013 2.0611 7.7524 0.0000 34.5691 0.0000
# 6 0.0000 0.0000 0.0000 -5.2055 0.0000 26.1426
#
#
#
# Elastic Compliance Matrix: (Units=1/GPa)
#
#
# Indices 1 2 3 4 5 6 
#
# 1 0.014554 -0.002880 -0.001734 0.000000 0.002035 0.000000
# 2 -0.002880 0.009545 -0.003044 0.000000 -0.000178 0.000000
# 3 -0.001734 -0.003044 0.009553 0.000000 -0.002137 0.000000
# 4 0.000000 0.000000 0.000000 0.019378 0.000000 0.003859
# 5 0.002035 -0.000178 -0.002137 0.000000 0.029623 0.000000
# 6 0.000000 0.000000 0.000000 0.003859 0.000000 0.039020
#
#
# Mechanical properties :
#
#
# Convention : Reuss Voigt Hill
#
# Bulk Modulus (GPa) = 54.53313 59.51898 57.02605
# Shear Modulus (GPa) = 34.94043 38.10933 36.52488
#
# Velocity S-wave (km/s) = 4.18917 4.37501 4.28310
# Velocity P-wave (km/s) = 7.12660 7.44411 7.28709
#
# Compressibility (1/GPa) = 0.01833748
#
# Stress axis : x y z
#
# Youngs Moduli (GPa) = 68.71153 104.76422 104.67612
#
# Poissons Ratio (x) = 0.30169 0.18148
# Poissons Ratio (y) = 0.19787 0.31862
# Poissons Ratio (z) = 0.11913 0.31889
#
# Static dielectric constant tensor:
#      x y z
#    x 1.804260 0.000000 0.009660 
#    y 0.000000 1.683690 0.000000 
#    z 0.009660 0.000000 1.704890 
# 
# From -- ./inp_files/228651.got.cif
#   From: 2010.05.17/outbox.ucp.g08.bks.cvg/sg15_115_cif.got.tgz:228651.got - 2010.06.11 12:40:34.
