data_PCOD9309831
_publ_section_title
;
Structure prediction by ZEFSAII (Michael W. Deem and Ramdas Pophale) SiO2 
 PCOD9309831
Probable space group: C 2/C
;
_chemical_formula_sum "Si O2"
_cell_formula_units_Z 28
_cell_length_a 21.000000
_cell_length_b 18.000000
_cell_length_c 21.000000
_cell_angle_alpha 90.000000
_cell_angle_beta 160.000000
_cell_angle_gamma 90.000000
_cell_volume 2714.955898
_symmetry_space_group_name_H-M "C 2/C"
_symmetry_group_IT_number 15
_symmetry_cell_setting 'monoclinic'
loop_
_space_group_symop_operation_xyz
x,y,z
-x,y,1/2-z
-x,-y,-z
x,-y,1/2+z
1/2+x,1/2+y,z
1/2-x,1/2+y,1/2-z
1/2-x,1/2-y,-z
1/2+x,1/2-y,1/2+z
loop_
_atom_site_type_symbol
_atom_site_label
_atom_site_fract_x
_atom_site_fract_y
_atom_site_fract_z
Si Si1 0.636998 0.064470 0.507991
Si Si2 0.836476 0.208524 0.641416
Si Si3 0.502682 0.911980 0.328063
Si Si4 0.838656 0.851834 0.430289
Si Si5 0.427495 0.429248 0.390659
Si Si6 0.797128 0.665024 0.221701
Si Si7 0.766353 0.681704 0.346574
O O1 0.724246 0.137182 0.557751
O O2 0.785347 0.044444 0.702693
O O3 0.444086 0.098334 0.352375
O O4 0.589262 0.993955 0.419359
O O5 0.750000 0.250000 0.500000
O O6 0.836601 0.268290 0.704145
O O7 0.000000 0.174974 0.750000
O O8 0.500000 0.890459 0.250000
O O9 0.286797 0.905978 0.145665
O O10 0.607771 0.862522 0.482654
O O11 0.817776 0.878181 0.337928
O O12 0.769183 0.767375 0.370955
O O13 0.057752 0.851372 0.652139
O O14 0.500000 0.500000 0.500000
O O15 0.594414 0.374945 0.522345
O O16 0.813508 0.685440 0.313587
#
# Coordination Sequence:
#
# PCOD9309831 Si02
#       7
#     8   8   8   8   8   8   8
#     4  12  26  46  74 103 151 200 240 299 367 441
#     4  12  25  45  70 109 150 195 243 295 359 444
#     4  12  29  49  71 105 144 198 247 304 377 437
#     4  11  23  45  75 106 146 181 243 310 371 435
#     4  11  24  44  71 113 148 189 246 310 366 432
#     4  11  25  43  77 107 147 193 244 297 367 442
#     4  11  24  46  76 111 141 185 249 312 365 433
#
# _framework density 10.313243
#
# number of rings (size 3 to 8) (size 9 to 14) (size 15 to 20)
#    0.000    0.571    2.857    5.143    6.000    2.857 
#    5.143    0.000    0.000    0.000    0.000    0.000 
#    0.000    0.000    0.000    0.000    0.000    0.000 
#
# Total GULP energy -155983.729847 kJ/mol
# GULP energy per Si atom -5570.847495 kJ/mol
# Density = 1.028977 g / cm^3
# Si number density = 10.313243 Si / 1000 Ang^3
#
#
#
# Elastic Constant Matrix: (Units=GPa)
#
#
# Indices 1 2 3 4 5 6 
#
# 1 130.9756 23.7239 53.7687 -0.0117 -9.0095 0.0028
# 2 23.7239 109.3943 17.1295 -0.0532 -14.4625 -0.0168
# 3 53.7687 17.1295 77.6684 0.0161 -11.9895 0.0114
# 4 -0.0117 -0.0532 0.0161 34.7273 0.0009 2.3046
# 5 -9.0095 -14.4625 -11.9895 0.0009 43.3446 0.0082
# 6 0.0028 -0.0168 0.0114 2.3046 0.0082 24.8614
#
#
#
# Elastic Compliance Matrix: (Units=1/GPa)
#
#
# Indices 1 2 3 4 5 6 
#
# 1 0.010821 -0.001234 -0.007245 0.000005 -0.000167 0.000001
# 2 -0.001234 0.009921 -0.000901 0.000015 0.002805 0.000005
# 3 -0.007245 -0.000901 0.018605 -0.000012 0.003340 -0.000008
# 4 0.000005 0.000015 -0.000012 0.028974 0.000003 -0.002686
# 5 -0.000167 0.002805 0.003340 0.000003 0.024896 -0.000008
# 6 0.000001 0.000005 -0.000008 -0.002686 -0.000008 0.040472
#
#
# Mechanical properties :
#
#
# Convention : Reuss Voigt Hill
#
# Bulk Modulus (GPa) = 48.57335 56.36472 52.46903
# Shear Modulus (GPa) = 31.38509 35.48106 33.43307
#
# Velocity S-wave (km/s) = 3.90499 4.15199 4.03038
# Velocity P-wave (km/s) = 6.62813 7.09726 6.86670
#
# Compressibility (1/GPa) = 0.02058742
#
# Stress axis : x y z
#
# Youngs Moduli (GPa) = 92.40966 100.79907 53.74892
#
# Poissons Ratio (x) = 0.12442 0.38941
# Poissons Ratio (y) = 0.11407 0.04840
# Poissons Ratio (z) = 0.66951 0.09077
#
# Static dielectric constant tensor:
#      x y z
#    x 1.710040 0.000020 0.042210 
#    y 0.000020 1.735460 -0.000070 
#    z 0.042210 -0.000070 1.626300 
# 
# From -- ./inp_files/253386.got.cif
#   From: 2010.05.17/outbox.ucp.g08.bks.cvg/sg15_127_cif.got.tgz:253386.got - 2010.06.11 12:40:34.
