data_PCOD9309130
_publ_section_title
;
Structure prediction by ZEFSAII (Michael W. Deem and Ramdas Pophale) SiO2 
 PCOD9309130
Probable space group: C 2/C
;
_chemical_formula_sum "Si O2"
_cell_formula_units_Z 32
_cell_length_a 21.000000
_cell_length_b 18.000000
_cell_length_c 24.000000
_cell_angle_alpha 90.000000
_cell_angle_beta 160.000000
_cell_angle_gamma 90.000000
_cell_volume 3102.806740
_symmetry_space_group_name_H-M "C 2/C"
_symmetry_group_IT_number 15
_symmetry_cell_setting 'monoclinic'
loop_
_space_group_symop_operation_xyz
x,y,z
-x,y,1/2-z
-x,-y,-z
x,-y,1/2+z
1/2+x,1/2+y,z
1/2-x,1/2+y,1/2-z
1/2-x,1/2-y,-z
1/2+x,1/2-y,1/2+z
loop_
_atom_site_type_symbol
_atom_site_label
_atom_site_fract_x
_atom_site_fract_y
_atom_site_fract_z
Si Si1 0.598552 0.673226 0.450273
Si Si2 0.195079 0.785323 0.394903
Si Si3 0.389320 0.606159 0.379394
Si Si4 0.714026 0.340440 0.222581
Si Si5 0.403573 0.800735 0.800215
Si Si6 0.016267 0.663409 0.662266
Si Si7 0.651556 0.432889 0.834262
Si Si8 0.711621 0.982269 0.159000
O O1 0.458831 0.662253 0.388000
O O2 0.809823 0.655756 0.649198
O O3 0.583005 0.756679 0.415086
O O4 0.491423 0.623915 0.315621
O O5 0.250000 0.750000 0.500000
O O6 0.382986 0.824727 0.530419
O O7 0.158328 0.728525 0.312401
O O8 0.000000 0.824308 0.250000
O O9 0.556670 0.614410 0.559994
O O10 0.214392 0.633113 0.270973
O O11 0.339673 0.530288 0.307247
O O12 0.633050 0.266017 0.184684
O O13 0.879845 0.334702 0.313156
O O14 0.769472 0.394863 0.317669
O O15 0.839128 0.606243 0.514775
O O16 0.500000 0.470349 0.750000
O O17 0.731843 0.488611 0.854623
O O18 0.500000 0.000000 0.000000
#
# Coordination Sequence:
#
# PCOD9309130 Si02
#       8
#     8   8   8   8   8   8   8   8
#     4  10  21  36  62  99 133 161 200 265 321 382
#     4   9  20  35  51  83 128 163 196 248 314 376
#     4  10  22  36  62  97 126 149 202 265 321 371
#     4  11  22  37  64  96 124 158 208 261 325 371
#     4  11  19  34  65  92 119 156 202 262 314 373
#     4  11  20  37  63  97 133 161 206 262 326 379
#     4  11  25  44  63  87 131 175 217 261 311 392
#     4  11  24  42  65  88 122 169 209 259 319 379
#
# _framework density 10.313243
#
# number of rings (size 3 to 8) (size 9 to 14) (size 15 to 20)
#    0.000    1.500    5.000    0.375    1.750    1.000 
#    0.000    1.875    0.000    0.000    0.000    0.000 
#    0.000    0.000    0.000    0.000    0.000    0.000 
#
# Total GULP energy -178237.978273 kJ/mol
# GULP energy per Si atom -5569.936821 kJ/mol
# Density = 1.028977 g / cm^3
# Si number density = 10.313243 Si / 1000 Ang^3
#
#
#
# Elastic Constant Matrix: (Units=GPa)
#
#
# Indices 1 2 3 4 5 6 
#
# 1 67.3388 -5.4550 32.4383 0.0009 26.2743 -0.0066
# 2 -5.4550 32.8885 0.2674 0.0249 7.6572 0.0065
# 3 32.4383 0.2674 107.7239 0.0305 15.1828 0.0245
# 4 0.0009 0.0249 0.0305 20.4000 0.0097 2.4233
# 5 26.2743 7.6572 15.1828 0.0097 53.2601 0.0090
# 6 -0.0066 0.0065 0.0245 2.4233 0.0090 6.2779
#
#
#
# Elastic Compliance Matrix: (Units=1/GPa)
#
#
# Indices 1 2 3 4 5 6 
#
# 1 0.021770 0.006013 -0.005141 -0.000002 -0.010138 0.000052
# 2 0.006013 0.033155 -0.000837 -0.000036 -0.007495 0.000000
# 3 -0.005141 -0.000837 0.010897 -0.000010 -0.000450 -0.000043
# 4 -0.000002 -0.000036 -0.000010 0.051375 0.000003 -0.019831
# 5 -0.010138 -0.007495 -0.000450 0.000003 0.024983 -0.000038
# 6 0.000052 0.000000 -0.000043 -0.019831 -0.000038 0.166943
#
#
# Mechanical properties :
#
#
# Convention : Reuss Voigt Hill
#
# Bulk Modulus (GPa) = 15.17650 29.16139 22.16895
# Shear Modulus (GPa) = 15.10497 28.03431 21.56964
#
# Velocity S-wave (km/s) = 2.70906 3.69065 3.23728
# Velocity P-wave (km/s) = 4.14235 5.68593 4.97438
#
# Compressibility (1/GPa) = 0.06589133
#
# Stress axis : x y z
#
# Youngs Moduli (GPa) = 45.93488 30.16150 91.77111
#
# Poissons Ratio (x) = -0.18136 0.47184
# Poissons Ratio (y) = -0.27621 0.07678
# Poissons Ratio (z) = 0.23617 0.02524
#
# Static dielectric constant tensor:
#      x y z
#    x 1.776120 -0.000020 -0.025820 
#    y -0.000020 1.718860 -0.000030 
#    z -0.025820 -0.000030 1.787340 
# 
# From -- ./inp_files/280515.got.cif
#   From: 2010.05.17/outbox.ucp.g08.bks.cvg/sg15_141_cif.got.tgz:280515.got - 2010.06.11 12:40:34.
