data_PCOD9309876
_publ_section_title
;
Structure prediction by ZEFSAII (Michael W. Deem and Ramdas Pophale) SiO2 
 PCOD9309876
Probable space group: C 2/C
;
_chemical_formula_sum "Si O2"
_cell_formula_units_Z 22
_cell_length_a 12.000000
_cell_length_b 9.000000
_cell_length_c 24.000000
_cell_angle_alpha 90.000000
_cell_angle_beta 60.000000
_cell_angle_gamma 90.000000
_cell_volume 2244.737847
_symmetry_space_group_name_H-M "C 2/C"
_symmetry_group_IT_number 15
_symmetry_cell_setting 'monoclinic'
loop_
_space_group_symop_operation_xyz
x,y,z
-x,y,1/2-z
-x,-y,-z
x,-y,1/2+z
1/2+x,1/2+y,z
1/2-x,1/2+y,1/2-z
1/2-x,1/2-y,-z
1/2+x,1/2-y,1/2+z
loop_
_atom_site_type_symbol
_atom_site_label
_atom_site_fract_x
_atom_site_fract_y
_atom_site_fract_z
Si Si1 0.492878 0.664214 0.073277
Si Si2 0.142914 0.369977 0.117424
Si Si3 0.000000 0.441467 0.750000
Si Si4 0.747284 0.269325 0.206498
Si Si5 0.166004 0.107930 0.493112
Si Si6 0.843380 0.880948 0.794076
O O1 0.578519 0.795709 0.078652
O O2 0.360200 0.690137 0.141581
O O3 0.440261 0.675732 0.023035
O O4 0.578910 0.509040 0.053184
O O5 0.243369 0.494000 0.067038
O O6 0.185249 0.221055 0.143066
O O7 0.046318 0.456941 0.185144
O O8 0.119085 0.330197 0.731533
O O9 0.793861 0.230282 0.257622
O O10 0.717827 0.447696 0.198928
O O11 0.250000 0.250000 0.500000
O O12 0.000000 0.898750 0.750000
#
# Coordination Sequence:
#
# PCOD9309876 Si02
#       6
#     8   8   4   8   8   8
#     4  11  25  48  69 104 137 188 241 295 351 433
#     4  12  24  47  72 106 147 177 241 299 363 436
#     4  12  24  46  74 114 144 194 232 302 372 436
#     4  12  25  45  73 106 151 189 236 292 373 434
#     4  11  28  50  73  98 143 192 247 300 357 427
#     4  12  25  44  72 111 148 187 231 301 368 441
#
# _framework density 9.8006989999999998
#
# number of rings (size 3 to 8) (size 9 to 14) (size 15 to 20)
#    0.000    0.364    5.455    2.727    2.545    2.182 
#    9.818    0.000    0.000    0.000    0.000    0.000 
#    0.000    0.000    0.000    0.000    0.000    0.000 
#
# Total GULP energy -122486.127538 kJ/mol
# GULP energy per Si atom -5567.551252 kJ/mol
# Density = 0.977839 g / cm^3
# Si number density = 9.800699 Si / 1000 Ang^3
#
#
#
# Elastic Constant Matrix: (Units=GPa)
#
#
# Indices 1 2 3 4 5 6 
#
# 1 127.1134 62.1231 28.4519 0.0000 8.2502 0.0000
# 2 62.1231 178.0467 51.4683 0.0000 3.1577 0.0000
# 3 28.4519 51.4683 93.6938 0.0000 -9.7039 0.0000
# 4 0.0000 0.0000 0.0000 53.3429 0.0000 -3.0536
# 5 8.2502 3.1577 -9.7039 0.0000 43.7495 0.0000
# 6 0.0000 0.0000 0.0000 -3.0536 0.0000 57.1500
#
#
#
# Elastic Compliance Matrix: (Units=1/GPa)
#
#
# Indices 1 2 3 4 5 6 
#
# 1 0.009775 -0.002922 -0.001568 0.000000 -0.001980 0.000000
# 2 -0.002922 0.007626 -0.003380 0.000000 -0.000749 0.000000
# 3 -0.001568 -0.003380 0.013369 0.000000 0.003505 0.000000
# 4 0.000000 0.000000 0.000000 0.018804 0.000000 0.001005
# 5 -0.001980 -0.000749 0.003505 0.000000 0.024062 0.000000
# 6 0.000000 0.000000 0.000000 0.001005 0.000000 0.017551
#
#
# Mechanical properties :
#
#
# Convention : Reuss Voigt Hill
#
# Bulk Modulus (GPa) = 66.53332 75.88229 71.20781
# Shear Modulus (GPa) = 44.66795 47.96920 46.31858
#
# Velocity S-wave (km/s) = 4.77887 4.95232 4.86637
# Velocity P-wave (km/s) = 8.02913 8.45561 8.24513
#
# Compressibility (1/GPa) = 0.01503006
#
# Stress axis : x y z
#
# Youngs Moduli (GPa) = 102.30596 131.12573 74.80143
#
# Poissons Ratio (x) = 0.38316 0.11730
# Poissons Ratio (y) = 0.29895 0.25279
# Poissons Ratio (z) = 0.16043 0.44314
#
# Static dielectric constant tensor:
#      x y z
#    x 1.761330 0.000000 0.003100 
#    y 0.000000 1.707000 0.000000 
#    z 0.003100 0.000000 1.752490 
# 
# From -- ./inp_files/267970.got.cif
#   From: 2010.05.17/outbox.ucp.g08.bks.cvg/sg15_134_cif.got.tgz:267970.got - 2010.06.11 12:40:34.
