data_PCOD9309059
_publ_section_title
;
Structure prediction by ZEFSAII (Michael W. Deem and Ramdas Pophale) SiO2 
 PCOD9309059
Probable space group: C 2/C
;
_chemical_formula_sum "Si O2"
_cell_formula_units_Z 28
_cell_length_a 30.000000
_cell_length_b 12.000000
_cell_length_c 24.000000
_cell_angle_alpha 90.000000
_cell_angle_beta 160.000000
_cell_angle_gamma 90.000000
_cell_volume 2955.054038
_symmetry_space_group_name_H-M "C 2/C"
_symmetry_group_IT_number 15
_symmetry_cell_setting 'monoclinic'
loop_
_space_group_symop_operation_xyz
x,y,z
-x,y,1/2-z
-x,-y,-z
x,-y,1/2+z
1/2+x,1/2+y,z
1/2-x,1/2+y,1/2-z
1/2-x,1/2-y,-z
1/2+x,1/2-y,1/2+z
loop_
_atom_site_type_symbol
_atom_site_label
_atom_site_fract_x
_atom_site_fract_y
_atom_site_fract_z
Si Si1 0.835113 0.402281 0.771944
Si Si2 0.684509 0.766239 0.016224
Si Si3 0.267113 0.155920 0.669747
Si Si4 0.709921 0.417846 0.455371
Si Si5 0.852164 0.837634 0.591104
Si Si6 0.935095 0.670042 0.510457
Si Si7 0.509978 0.056612 0.155061
O O1 0.743918 0.306951 0.636851
O O2 0.781583 0.529875 0.710695
O O3 0.876158 0.371391 0.882435
O O4 0.951516 0.406610 0.862704
O O5 0.776953 0.848152 0.086950
O O6 0.580251 0.852217 0.920152
O O7 0.649156 0.668856 0.929366
O O8 0.208002 0.138106 0.539538
O O9 0.165142 0.236492 0.582852
O O10 0.414758 0.202707 0.830703
O O11 0.643836 0.540354 0.373722
O O12 0.856018 0.443714 0.651392
O O13 0.750000 0.750000 0.500000
O O14 0.000000 0.796812 0.750000
O O15 0.951282 0.567625 0.574483
#
# Coordination Sequence:
#
# PCOD9309059 Si02
#       7
#     8   8   8   8   8   8   8
#     4  10  23  42  64  95 130 176 219 274 328 387
#     4  10  21  38  65  92 129 166 221 271 325 392
#     4  11  23  49  62  99 131 173 220 271 331 389
#     4  10  22  42  59  98 126 170 217 273 332 391
#     4  12  26  42  66  94 132 175 212 270 331 394
#     4  11  24  41  73  92 134 177 223 269 324 394
#     4  10  20  40  66  88 127 172 221 265 332 392
#
# _framework density 9.4752919999999996
#
# number of rings (size 3 to 8) (size 9 to 14) (size 15 to 20)
#    0.000    1.429    4.286    3.000    6.000    3.429 
#    0.000    0.714    0.000    0.000    0.000    0.000 
#    0.000    0.000    0.000    0.000    0.000    0.000 
#
# Total GULP energy -156096.131433 kJ/mol
# GULP energy per Si atom -5574.861837 kJ/mol
# Density = 0.945373 g / cm^3
# Si number density = 9.475292 Si / 1000 Ang^3
#
#
#
# Elastic Constant Matrix: (Units=GPa)
#
#
# Indices 1 2 3 4 5 6 
#
# 1 65.3684 46.8099 31.5410 0.0000 14.9958 -0.0001
# 2 46.8099 127.5062 39.4982 -0.0001 23.1918 -0.0001
# 3 31.5410 39.4982 93.2875 -0.0001 16.9164 -0.0001
# 4 0.0000 -0.0001 -0.0001 36.3679 0.0000 10.9255
# 5 14.9958 23.1918 16.9164 0.0000 37.1709 0.0000
# 6 -0.0001 -0.0001 -0.0001 10.9255 0.0000 41.7926
#
#
#
# Elastic Compliance Matrix: (Units=1/GPa)
#
#
# Indices 1 2 3 4 5 6 
#
# 1 0.022737 -0.006407 -0.004399 0.000000 -0.003173 0.000000
# 2 -0.006407 0.011491 -0.002036 0.000000 -0.003658 0.000000
# 3 -0.004399 -0.002036 0.013643 0.000000 -0.003164 0.000000
# 4 0.000000 0.000000 0.000000 0.029840 0.000000 -0.007801
# 5 -0.003173 -0.003658 -0.003164 0.000000 0.031905 0.000000
# 6 0.000000 0.000000 0.000000 -0.007801 0.000000 0.025967
#
#
# Mechanical properties :
#
#
# Convention : Reuss Voigt Hill
#
# Bulk Modulus (GPa) = 45.07317 57.98446 51.52882
# Shear Modulus (GPa) = 29.64516 34.28716 31.96616
#
# Velocity S-wave (km/s) = 3.95946 4.25819 4.11154
# Velocity P-wave (km/s) = 6.68875 7.40543 7.05620
#
# Compressibility (1/GPa) = 0.02218615
#
# Stress axis : x y z
#
# Youngs Moduli (GPa) = 43.98206 87.02545 73.30008
#
# Poissons Ratio (x) = 0.55758 0.32246
# Poissons Ratio (y) = 0.28180 0.14921
# Poissons Ratio (z) = 0.19348 0.17715
#
# Static dielectric constant tensor:
#      x y z
#    x 1.648750 0.000000 0.022560 
#    y 0.000000 1.687300 0.000000 
#    z 0.022560 0.000000 1.726050 
# 
# From -- ./inp_files/284648.got.cif
#   From: 2010.05.17/outbox.ucp.g08.bks.cvg/sg15_143_cif.got.tgz:284648.got - 2010.06.11 12:40:34.
