data_PCOD9309929
_publ_section_title
;
Structure prediction by ZEFSAII (Michael W. Deem and Ramdas Pophale) SiO2 
 PCOD9309929
Probable space group: P 2 2 2
;
_chemical_formula_sum "Si O2"
_cell_formula_units_Z 17
_cell_length_a 19.975704
_cell_length_b 5.474296
_cell_length_c 7.337657
_cell_angle_alpha 90.000000
_cell_angle_beta 90.000000
_cell_angle_gamma 90.000000
_cell_volume 802.394193
_symmetry_space_group_name_H-M "P 2 2 2"
_symmetry_group_IT_number 16
_symmetry_cell_setting 'orthorhombic'
loop_
_space_group_symop_operation_xyz
x,y,z
-x,-y,z
x,-y,-z
-x,y,-z
loop_
_atom_site_type_symbol
_atom_site_label
_atom_site_fract_x
_atom_site_fract_y
_atom_site_fract_z
Si Si1 0.972200 0.250813 0.789172
Si Si2 0.500000 0.500000 0.500000
Si Si3 0.323069 0.237808 0.284475
Si Si4 0.819901 0.249310 0.883285
Si Si5 0.378283 0.264310 0.691883
O O1 0.892227 0.257020 0.789196
O O2 0.000000 0.500000 0.707715
O O3 0.000000 0.000000 0.709425
O O4 0.000000 0.250617 0.000000
O O5 0.453161 0.328081 0.624924
O O6 0.244913 0.228478 0.243465
O O7 0.337595 0.249526 0.500592
O O8 0.351964 0.493249 0.209752
O O9 0.362262 0.995171 0.218221
O O10 0.814227 0.500000 0.000000
O O11 0.820090 0.000000 0.000000
#
# Coordination Sequence:
#
# PCOD9309929 Si02
#       5
#     4   1   4   4   4
#     4  10  16  29  42  63  95 116 167 219 237 279
#     4   8  16  30  60  82  94 118 154 230 252 264
#     4   9  19  31  46  73 104 128 153 203 243 297
#     4  12  20  29  48  72 102 135 163 197 265 292
#     4   9  18  34  52  76  98 118 166 198 249 285
#
# _framework density 21.186596000000002
#
# number of rings (size 3 to 8) (size 9 to 14) (size 15 to 20)
#    0.000    2.353    4.706    1.412    0.000    7.529 
#    0.000    0.000    0.000    0.000    0.000  105.412 
#    0.000    0.000    0.000    0.000    0.000    0.000 
#
# Total GULP energy -94777.662270 kJ/mol
# GULP energy per Si atom -5575.156604 kJ/mol
# Density = 2.113837 g / cm^3
# Si number density = 21.186596 Si / 1000 Ang^3
#
#
#
# Elastic Constant Matrix: (Units=GPa)
#
#
# Indices 1 2 3 4 5 6 
#
# 1 215.4058 73.2253 29.5022 0.0000 0.0000 0.0000
# 2 73.2253 248.5809 25.8176 0.0000 0.0000 0.0000
# 3 29.5022 25.8176 57.3330 0.0000 0.0000 0.0000
# 4 0.0000 0.0000 0.0000 -11.6051 0.0000 0.0000
# 5 0.0000 0.0000 0.0000 0.0000 20.3018 0.0000
# 6 0.0000 0.0000 0.0000 0.0000 0.0000 12.2583
#
#
#
# Elastic Compliance Matrix: (Units=1/GPa)
#
#
# Indices 1 2 3 4 5 6 
#
# 1 0.005404 -0.001367 -0.002165 0.000000 0.000000 0.000000
# 2 -0.001367 0.004566 -0.001353 0.000000 0.000000 0.000000
# 3 -0.002165 -0.001353 0.019165 0.000000 0.000000 0.000000
# 4 0.000000 0.000000 0.000000 -0.086169 0.000000 0.000000
# 5 0.000000 0.000000 0.000000 0.000000 0.049257 0.000000
# 6 0.000000 0.000000 0.000000 0.000000 0.000000 0.081577
#
#
# Mechanical properties :
#
#
# Convention : Reuss Voigt Hill
#
# Bulk Modulus (GPa) = 51.63842 86.49000 69.06421
# Shear Modulus (GPa) = 55.54075 30.37597 42.95836
#
# Velocity S-wave (km/s) = 5.12562 3.79058 4.50780
# Velocity P-wave (km/s) = 7.71073 7.75046 7.73062
#
# Compressibility (1/GPa) = 0.01936543
#
# Stress axis : x y z
#
# Youngs Moduli (GPa) = 185.06214 219.01103 52.17798
#
# Poissons Ratio (x) = 0.29936 0.11297
# Poissons Ratio (y) = 0.25296 0.07058
# Poissons Ratio (z) = 0.40067 0.29626
#
# Static dielectric constant tensor:
#      x y z
#    x 1.732200 0.000000 0.000000 
#    y 0.000000 2.049780 0.000000 
#    z 0.000000 0.000000 1.702120 
# 
# From -- ./inp_files/5331.got.cif
#   From: 2010.05.17/outbox.cif.g08.bks.cpg/sg16_3_cif.got.tgz:5331.got - 2010.06.03 22:28:35.
