data_PCOD9309864
_publ_section_title
;
Structure prediction by ZEFSAII (Michael W. Deem and Ramdas Pophale) SiO2 
 PCOD9309864
Probable space group: C 2/C
;
_chemical_formula_sum "Si O2"
_cell_formula_units_Z 28
_cell_length_a 15.000000
_cell_length_b 9.000000
_cell_length_c 24.000000
_cell_angle_alpha 90.000000
_cell_angle_beta 120.000000
_cell_angle_gamma 90.000000
_cell_volume 2805.922308
_symmetry_space_group_name_H-M "C 2/C"
_symmetry_group_IT_number 15
_symmetry_cell_setting 'monoclinic'
loop_
_space_group_symop_operation_xyz
x,y,z
-x,y,1/2-z
-x,-y,-z
x,-y,1/2+z
1/2+x,1/2+y,z
1/2-x,1/2+y,1/2-z
1/2-x,1/2-y,-z
1/2+x,1/2-y,1/2+z
loop_
_atom_site_type_symbol
_atom_site_label
_atom_site_fract_x
_atom_site_fract_y
_atom_site_fract_z
Si Si1 0.891628 0.718164 0.435878
Si Si2 0.729738 0.974173 0.174982
Si Si3 0.869699 0.239920 0.271907
Si Si4 0.175507 0.617419 0.858206
Si Si5 0.060548 0.788485 0.920517
Si Si6 0.719849 0.783634 0.897747
Si Si7 0.601048 0.365601 0.462941
O O1 0.852347 0.570171 0.389154
O O2 0.793693 0.826330 0.396235
O O3 0.925703 0.709332 0.513027
O O4 0.989614 0.795050 0.438232
O O5 0.805944 0.093080 0.230265
O O6 0.687622 0.869770 0.211297
O O7 0.773678 0.850214 0.145185
O O8 0.883718 0.318081 0.214865
O O9 0.958183 0.199916 0.346921
O O10 0.131503 0.692931 0.900812
O O11 0.173751 0.438346 0.859963
O O12 0.093162 0.958758 0.945386
O O13 0.653353 0.719439 0.927889
O O14 0.829240 0.831133 0.960391
#
# Coordination Sequence:
#
# PCOD9309864 Si02
#       7
#     8   8   8   8   8   8   8
#     4  11  25  43  75 104 138 181 236 292 352 415
#     4  11  26  46  73 104 141 188 235 297 353 428
#     4  11  26  44  73  99 143 186 239 285 362 426
#     4  11  25  46  70 101 141 188 233 293 352 422
#     4  12  25  45  72 103 143 188 236 291 359 425
#     4  11  25  44  69 103 143 178 237 291 354 419
#     4  11  25  42  71 107 139 182 228 296 359 414
#
# _framework density 9.9788940000000004
#
# number of rings (size 3 to 8) (size 9 to 14) (size 15 to 20)
#    0.000    0.857    1.429    4.714   12.000    1.143 
#    0.000    0.000    0.000    0.000    0.000    0.000 
#    0.000    0.000    0.000    0.000    0.000    0.000 
#
# Total GULP energy -156041.919267 kJ/mol
# GULP energy per Si atom -5572.925688 kJ/mol
# Density = 0.995618 g / cm^3
# Si number density = 9.978894 Si / 1000 Ang^3
#
#
#
# Elastic Constant Matrix: (Units=GPa)
#
#
# Indices 1 2 3 4 5 6 
#
# 1 84.9762 51.0361 42.9807 0.0000 -0.5053 0.0000
# 2 51.0361 171.9634 54.6176 0.0000 -0.9566 0.0000
# 3 42.9807 54.6176 173.0613 0.0000 -1.5489 0.0000
# 4 0.0000 0.0000 0.0000 60.5644 0.0000 -9.7932
# 5 -0.5053 -0.9566 -1.5489 0.0000 44.6748 0.0000
# 6 0.0000 0.0000 0.0000 -9.7932 0.0000 32.5251
#
#
#
# Elastic Compliance Matrix: (Units=1/GPa)
#
#
# Indices 1 2 3 4 5 6 
#
# 1 0.015331 -0.003713 -0.002636 0.000000 0.000003 0.000000
# 2 -0.003713 0.007362 -0.001401 0.000000 0.000067 0.000000
# 3 -0.002636 -0.001401 0.006877 0.000000 0.000179 0.000000
# 4 0.000000 0.000000 0.000000 0.017356 0.000000 0.005226
# 5 0.000003 0.000067 0.000179 0.000000 0.022392 0.000000
# 6 0.000000 0.000000 0.000000 0.005226 0.000000 0.032319
#
#
# Mechanical properties :
#
#
# Convention : Reuss Voigt Hill
#
# Bulk Modulus (GPa) = 71.06737 80.80776 75.93757
# Shear Modulus (GPa) = 41.04199 46.31064 43.67632
#
# Velocity S-wave (km/s) = 4.53972 4.82231 4.68315
# Velocity P-wave (km/s) = 7.94763 8.46070 8.20818
#
# Compressibility (1/GPa) = 0.01407115
#
# Stress axis : x y z
#
# Youngs Moduli (GPa) = 65.22689 135.82506 145.42056
#
# Poissons Ratio (x) = 0.50430 0.38329
# Poissons Ratio (y) = 0.24218 0.20371
# Poissons Ratio (z) = 0.17192 0.19027
#
# Static dielectric constant tensor:
#      x y z
#    x 1.780730 0.000000 0.013260 
#    y 0.000000 1.693440 0.000000 
#    z 0.013260 0.000000 1.711570 
# 
# From -- ./inp_files/273271.got.cif
#   From: 2010.05.17/outbox.ucp.g08.bks.cvg/sg15_137_cif.got.tgz:273271.got - 2010.06.11 12:40:34.
