data_PCOD9309270
_publ_section_title
;
Structure prediction by ZEFSAII (Michael W. Deem and Ramdas Pophale) SiO2 
 PCOD9309270
Probable space group: C 2/C
;
_chemical_formula_sum "Si O2"
_cell_formula_units_Z 26
_cell_length_a 15.000000
_cell_length_b 9.000000
_cell_length_c 24.000000
_cell_angle_alpha 90.000000
_cell_angle_beta 80.000000
_cell_angle_gamma 90.000000
_cell_volume 3190.777120
_symmetry_space_group_name_H-M "C 2/C"
_symmetry_group_IT_number 15
_symmetry_cell_setting 'monoclinic'
loop_
_space_group_symop_operation_xyz
x,y,z
-x,y,1/2-z
-x,-y,-z
x,-y,1/2+z
1/2+x,1/2+y,z
1/2-x,1/2+y,1/2-z
1/2-x,1/2-y,-z
1/2+x,1/2-y,1/2+z
loop_
_atom_site_type_symbol
_atom_site_label
_atom_site_fract_x
_atom_site_fract_y
_atom_site_fract_z
Si Si1 0.941169 0.779969 0.136164
Si Si2 0.611735 0.099251 0.133702
Si Si3 0.125721 0.295921 0.063131
Si Si4 0.537063 0.574128 0.438666
Si Si5 0.000000 0.689926 0.250000
Si Si6 0.280523 0.238406 0.561598
Si Si7 0.309365 0.886018 0.566531
O O1 0.946783 0.774914 0.204287
O O2 0.861885 0.688053 0.113305
O O3 0.033216 0.691976 0.110697
O O4 0.944863 0.943056 0.108261
O O5 0.574211 0.103581 0.202382
O O6 0.704074 0.187748 0.109865
O O7 0.618543 0.936316 0.105610
O O8 0.213277 0.197233 0.069470
O O9 0.038520 0.189870 0.074167
O O10 0.138774 0.353392 0.997815
O O11 0.500000 0.500000 0.500000
O O12 0.628571 0.665079 0.440960
O O13 0.250000 0.250000 0.500000
O O14 0.296485 0.063860 0.573288
#
# Coordination Sequence:
#
# PCOD9309270 Si02
#       7
#     8   8   8   8   4   8   8
#     4  10  21  42  65  86 127 163 209 260 304 379
#     4  10  21  42  65  86 127 162 210 262 309 371
#     4  11  22  36  62  99 129 159 202 260 315 384
#     4  12  23  36  62 100 130 161 203 254 328 374
#     4   8  24  44  68  84 124 172 216 252 318 362
#     4  12  23  36  61  99 129 164 201 256 322 381
#     4  11  22  36  61 100 130 160 200 254 326 371
#
# _framework density 8.1484850000000009
#
# number of rings (size 3 to 8) (size 9 to 14) (size 15 to 20)
#    0.923    0.308    3.077    4.615    0.000    1.231 
#    0.000    3.846    0.000    0.000    0.000    0.000 
#    0.000    0.000    0.000    0.000    0.000    0.000 
#
# Total GULP energy -144871.721380 kJ/mol
# GULP energy per Si atom -5571.989284 kJ/mol
# Density = 0.812994 g / cm^3
# Si number density = 8.148485 Si / 1000 Ang^3
#
#
#
# Elastic Constant Matrix: (Units=GPa)
#
#
# Indices 1 2 3 4 5 6 
#
# 1 129.7642 66.5633 48.3993 0.0000 3.0186 0.0000
# 2 66.5633 164.3387 63.1068 0.0000 2.8649 0.0000
# 3 48.3993 63.1068 136.4287 0.0000 5.3188 0.0000
# 4 0.0000 0.0000 0.0000 27.9370 0.0000 0.8026
# 5 3.0186 2.8649 5.3188 0.0000 32.6499 0.0000
# 6 0.0000 0.0000 0.0000 0.8026 0.0000 40.4530
#
#
#
# Elastic Compliance Matrix: (Units=1/GPa)
#
#
# Indices 1 2 3 4 5 6 
#
# 1 0.010191 -0.003330 -0.002063 0.000000 -0.000314 0.000000
# 2 -0.003330 0.008488 -0.002745 0.000000 0.000010 0.000000
# 3 -0.002063 -0.002745 0.009374 0.000000 -0.001096 0.000000
# 4 0.000000 0.000000 0.000000 0.035815 0.000000 -0.000711
# 5 -0.000314 0.000010 -0.001096 0.000000 0.030835 0.000000
# 6 0.000000 0.000000 0.000000 -0.000711 0.000000 0.024734
#
#
# Mechanical properties :
#
#
# Convention : Reuss Voigt Hill
#
# Bulk Modulus (GPa) = 84.91166 87.40783 86.15975
# Shear Modulus (GPa) = 35.80663 37.03879 36.42271
#
# Velocity S-wave (km/s) = 4.69245 4.77250 4.73264
# Velocity P-wave (km/s) = 9.03186 9.17169 9.10204
#
# Compressibility (1/GPa) = 0.01177695
#
# Stress axis : x y z
#
# Youngs Moduli (GPa) = 98.12371 117.81581 106.67680
#
# Poissons Ratio (x) = 0.39236 0.22005
# Poissons Ratio (y) = 0.32678 0.29284
# Poissons Ratio (z) = 0.20240 0.32342
#
# Static dielectric constant tensor:
#      x y z
#    x 1.566510 0.000000 -0.003140 
#    y 0.000000 1.541860 0.000000 
#    z -0.003140 0.000000 1.535570 
# 
# From -- ./inp_files/272295.got.cif
#   From: 2010.05.17/outbox.ucp.g08.bks.cvg/sg15_137_cif.got.tgz:272295.got - 2010.06.11 12:40:34.
