data_PCOD9309855
_publ_section_title
;
Structure prediction by ZEFSAII (Michael W. Deem and Ramdas Pophale) SiO2 
 PCOD9309855
Probable space group: C 2/C
;
_chemical_formula_sum "Si O2"
_cell_formula_units_Z 28
_cell_length_a 18.000000
_cell_length_b 6.000000
_cell_length_c 27.000000
_cell_angle_alpha 90.000000
_cell_angle_beta 110.000000
_cell_angle_gamma 90.000000
_cell_volume 2740.143682
_symmetry_space_group_name_H-M "C 2/C"
_symmetry_group_IT_number 15
_symmetry_cell_setting 'monoclinic'
loop_
_space_group_symop_operation_xyz
x,y,z
-x,y,1/2-z
-x,-y,-z
x,-y,1/2+z
1/2+x,1/2+y,z
1/2-x,1/2+y,1/2-z
1/2-x,1/2-y,-z
1/2+x,1/2-y,1/2+z
loop_
_atom_site_type_symbol
_atom_site_label
_atom_site_fract_x
_atom_site_fract_y
_atom_site_fract_z
Si Si1 0.330430 0.675325 0.421136
Si Si2 0.747017 0.179212 0.113878
Si Si3 0.547571 0.842658 0.972119
Si Si4 0.960906 0.999022 0.884779
Si Si5 0.783138 0.611896 0.275040
Si Si6 0.086354 0.360390 0.389817
Si Si7 0.466468 0.836260 0.797727
O O1 0.291848 0.421529 0.413459
O O2 0.390461 0.703410 0.480866
O O3 0.384881 0.644954 0.384168
O O4 0.282213 0.920430 0.409483
O O5 0.730255 0.159101 0.169161
O O6 0.837571 0.240701 0.118265
O O7 0.481788 0.691967 0.929292
O O8 0.595612 0.971965 0.939191
O O9 0.500000 0.000000 0.000000
O O10 0.034247 0.834845 0.900927
O O11 0.959372 0.116963 0.830955
O O12 0.744162 0.361002 0.254280
O O13 0.875264 0.579600 0.279477
O O14 0.030045 0.496269 0.338297
O O15 0.500000 0.794413 0.750000
#
# Coordination Sequence:
#
# PCOD9309855 Si02
#       7
#     8   8   8   8   8   8   8
#     4  12  25  46  75 103 152 194 247 302 371 437
#     4  12  28  47  71 108 153 193 241 310 374 435
#     4  11  24  44  75 108 142 197 251 307 368 442
#     4  11  24  45  74 105 143 196 255 303 365 453
#     4  12  27  47  74 104 144 190 243 303 376 441
#     4  11  27  45  73 106 150 191 252 305 365 450
#     4  11  26  47  75 107 145 196 248 307 371 445
#
# _framework density 10.218442
#
# number of rings (size 3 to 8) (size 9 to 14) (size 15 to 20)
#    0.000    0.571    2.857    3.857   10.000    1.714 
#    0.000    0.000    0.000    0.000    0.000    0.000 
#    0.000    0.000    0.000    0.000    0.000    0.000 
#
# Total GULP energy -155999.700639 kJ/mol
# GULP energy per Si atom -5571.417880 kJ/mol
# Density = 1.019518 g / cm^3
# Si number density = 10.218442 Si / 1000 Ang^3
#
#
#
# Elastic Constant Matrix: (Units=GPa)
#
#
# Indices 1 2 3 4 5 6 
#
# 1 145.2583 34.8990 11.8824 0.0000 -9.8211 0.0000
# 2 34.8990 140.2373 33.0829 0.0000 3.4231 -0.0001
# 3 11.8824 33.0829 93.1071 0.0000 -16.6149 0.0000
# 4 0.0000 0.0000 0.0000 32.8486 0.0000 3.5258
# 5 -9.8211 3.4231 -16.6149 0.0000 31.7147 0.0000
# 6 0.0000 -0.0001 0.0000 3.5258 0.0000 51.6960
#
#
#
# Elastic Compliance Matrix: (Units=1/GPa)
#
#
# Indices 1 2 3 4 5 6 
#
# 1 0.007524 -0.001990 0.000222 0.000000 0.002661 0.000000
# 2 -0.001990 0.008497 -0.003352 0.000000 -0.003289 0.000000
# 3 0.000222 -0.003352 0.013215 0.000000 0.007354 0.000000
# 4 0.000000 0.000000 0.000000 0.030667 0.000000 -0.002092
# 5 0.002661 -0.003289 0.007354 0.000000 0.036563 0.000000
# 6 0.000000 0.000000 0.000000 -0.002092 0.000000 0.019487
#
#
# Mechanical properties :
#
#
# Convention : Reuss Voigt Hill
#
# Bulk Modulus (GPa) = 52.64295 59.81457 56.22876
# Shear Modulus (GPa) = 37.72856 43.16775 40.44815
#
# Velocity S-wave (km/s) = 4.30129 4.60091 4.45362
# Velocity P-wave (km/s) = 7.10513 7.58656 7.34979
#
# Compressibility (1/GPa) = 0.01899590
#
# Stress axis : x y z
#
# Youngs Moduli (GPa) = 132.90654 117.68839 75.66899
#
# Poissons Ratio (x) = 0.23416 -0.01676
# Poissons Ratio (y) = 0.26443 0.25366
# Poissons Ratio (z) = -0.02945 0.39452
#
# Static dielectric constant tensor:
#      x y z
#    x 1.749370 0.000000 0.034460 
#    y 0.000000 1.798480 0.000000 
#    z 0.034460 0.000000 1.767080 
# 
# From -- ./inp_files/297785.got.cif
#   From: 2010.05.17/outbox.ucp.g08.bks.cvg/sg15_149_cif.got.tgz:297785.got - 2010.06.11 12:40:34.
