data_PCOD9309067
_publ_section_title
;
Structure prediction by ZEFSAII (Michael W. Deem and Ramdas Pophale) SiO2 
 PCOD9309067
Probable space group: C 2/C
;
_chemical_formula_sum "Si O2"
_cell_formula_units_Z 28
_cell_length_a 27.000000
_cell_length_b 9.000000
_cell_length_c 18.000000
_cell_angle_alpha 90.000000
_cell_angle_beta 140.000000
_cell_angle_gamma 90.000000
_cell_volume 2811.553005
_symmetry_space_group_name_H-M "C 2/C"
_symmetry_group_IT_number 15
_symmetry_cell_setting 'monoclinic'
loop_
_space_group_symop_operation_xyz
x,y,z
-x,y,1/2-z
-x,-y,-z
x,-y,1/2+z
1/2+x,1/2+y,z
1/2-x,1/2+y,1/2-z
1/2-x,1/2-y,-z
1/2+x,1/2-y,1/2+z
loop_
_atom_site_type_symbol
_atom_site_label
_atom_site_fract_x
_atom_site_fract_y
_atom_site_fract_z
Si Si1 0.807137 0.581163 0.572238
Si Si2 0.920771 0.433415 0.614937
Si Si3 0.634954 0.614148 0.335000
Si Si4 0.602163 0.590843 0.936026
Si Si5 0.749204 0.953419 0.325203
Si Si6 0.643713 0.842845 0.590357
Si Si7 0.994701 0.890982 0.564943
O O1 0.854257 0.439518 0.600906
O O2 0.727562 0.587846 0.433965
O O3 0.860451 0.725995 0.618232
O O4 0.791110 0.581512 0.641828
O O5 0.924453 0.261847 0.593078
O O6 0.889010 0.547887 0.514140
O O7 0.000000 0.473648 0.750000
O O8 0.608950 0.483180 0.361513
O O9 0.580201 0.635040 0.199953
O O10 0.545455 0.484595 0.915993
O O11 0.683302 0.568217 0.072439
O O12 0.794562 0.796914 0.353782
O O13 0.690075 0.041465 0.200422
O O14 0.563893 0.749017 0.519428
O O15 0.000000 0.000000 0.500000
#
# Coordination Sequence:
#
# PCOD9309067 Si02
#       7
#     8   8   8   8   8   8   8
#     4  10  22  38  65  91 116 161 209 259 303 365
#     4  12  24  40  63  94 128 162 205 258 315 372
#     4  10  20  41  64  88 121 160 209 252 308 370
#     4  10  23  41  64  90 125 166 205 257 311 370
#     4  10  23  43  64  92 125 165 214 254 310 372
#     4  11  24  41  64  91 129 170 205 259 314 367
#     4  11  24  40  63  91 124 167 207 253 310 374
#
# _framework density 9.9589090000000002
#
# number of rings (size 3 to 8) (size 9 to 14) (size 15 to 20)
#    0.000    1.429    0.000    6.429    0.000   11.429 
#    0.000    2.143    0.000    0.000    0.000    0.000 
#    0.000    0.000    0.000    0.000    0.000    0.000 
#
# Total GULP energy -155917.570823 kJ/mol
# GULP energy per Si atom -5568.484672 kJ/mol
# Density = 0.993624 g / cm^3
# Si number density = 9.958909 Si / 1000 Ang^3
#
#
#
# Elastic Constant Matrix: (Units=GPa)
#
#
# Indices 1 2 3 4 5 6 
#
# 1 39.1684 19.5607 31.8500 0.0000 0.8275 0.0000
# 2 19.5607 101.9851 46.6628 0.0000 0.7564 0.0000
# 3 31.8500 46.6628 212.8682 0.0000 2.8862 0.0000
# 4 0.0000 0.0000 0.0000 47.7776 0.0000 -2.6558
# 5 0.8275 0.7564 2.8862 0.0000 21.8881 0.0000
# 6 0.0000 0.0000 0.0000 -2.6558 0.0000 31.7431
#
#
#
# Elastic Compliance Matrix: (Units=1/GPa)
#
#
# Indices 1 2 3 4 5 6 
#
# 1 0.030607 -0.004195 -0.003653 0.000000 -0.000531 0.000000
# 2 -0.004195 0.011474 -0.001888 0.000000 0.000011 0.000000
# 3 -0.003653 -0.001888 0.005665 0.000000 -0.000544 0.000000
# 4 0.000000 0.000000 0.000000 0.021028 0.000000 0.001759
# 5 -0.000531 0.000011 -0.000544 0.000000 0.045778 0.000000
# 6 0.000000 0.000000 0.000000 0.001759 0.000000 0.031650
#
#
# Mechanical properties :
#
#
# Convention : Reuss Voigt Hill
#
# Bulk Modulus (GPa) = 35.36667 61.12989 48.24828
# Shear Modulus (GPa) = 28.55528 37.34497 32.95012
#
# Velocity S-wave (km/s) = 3.79047 4.33477 4.07173
# Velocity P-wave (km/s) = 6.07879 7.47070 6.81040
#
# Compressibility (1/GPa) = 0.02827521
#
# Stress axis : x y z
#
# Youngs Moduli (GPa) = 32.67192 87.15681 176.50941
#
# Poissons Ratio (x) = 0.36565 0.64474
# Poissons Ratio (y) = 0.13707 0.33317
# Poissons Ratio (z) = 0.11934 0.16451
#
# Static dielectric constant tensor:
#      x y z
#    x 1.768060 0.000000 0.025350 
#    y 0.000000 1.727860 0.000000 
#    z 0.025350 0.000000 1.731890 
# 
# From -- ./inp_files/222090.got.cif
#   From: 2010.05.17/outbox.ucp.g08.bks.cvg/sg15_112_cif.got.tgz:222090.got - 2010.06.11 12:40:34.
