data_PCOD9309002
_publ_section_title
;
Structure prediction by ZEFSAII (Michael W. Deem and Ramdas Pophale) SiO2 
 PCOD9309002
Probable space group: C 2/C
;
_chemical_formula_sum "Si O2"
_cell_formula_units_Z 30
_cell_length_a 24.000000
_cell_length_b 21.000000
_cell_length_c 9.000000
_cell_angle_alpha 90.000000
_cell_angle_beta 140.000000
_cell_angle_gamma 90.000000
_cell_volume 2915.684598
_symmetry_space_group_name_H-M "C 2/C"
_symmetry_group_IT_number 15
_symmetry_cell_setting 'monoclinic'
loop_
_space_group_symop_operation_xyz
x,y,z
-x,y,1/2-z
-x,-y,-z
x,-y,1/2+z
1/2+x,1/2+y,z
1/2-x,1/2+y,1/2-z
1/2-x,1/2-y,-z
1/2+x,1/2-y,1/2+z
loop_
_atom_site_type_symbol
_atom_site_label
_atom_site_fract_x
_atom_site_fract_y
_atom_site_fract_z
Si Si1 0.386551 0.803245 0.177587
Si Si2 0.704815 0.956178 0.800887
Si Si3 0.089700 0.331091 0.614528
Si Si4 0.500000 0.489347 0.250000
Si Si5 0.092688 0.798499 0.273854
Si Si6 0.392200 0.427820 0.300884
Si Si7 0.615486 0.324563 0.650370
Si Si8 0.736638 0.918438 0.521926
O O1 0.484428 0.829193 0.412294
O O2 0.363253 0.734665 0.198829
O O3 0.385260 0.803843 0.996468
O O4 0.318508 0.853969 0.098256
O O5 0.635269 0.901379 0.711407
O O6 0.722710 0.945297 0.661768
O O7 0.794653 0.947518 0.071565
O O8 0.692971 0.030654 0.819626
O O9 0.114241 0.274301 0.778319
O O10 0.447966 0.447468 0.266255
O O11 0.564624 0.534806 0.474974
O O12 0.115961 0.851678 0.199631
O O13 0.138735 0.814973 0.523980
O O14 0.989208 0.814313 0.069150
O O15 0.663436 0.391199 0.794113
#
# Coordination Sequence:
#
# PCOD9309002 Si02
#       8
#     8   8   8   4   8   8   8   8
#     4   9  20  41  66  86 123 156 206 256 306 358
#     4  11  24  40  61  86 127 158 205 254 300 362
#     4   9  21  42  61  92 118 159 204 256 305 357
#     4  10  24  36  60  80 126 162 210 238 312 368
#     4  10  21  37  63  84 123 156 202 245 306 359
#     4  11  22  39  55  86 116 168 194 254 290 370
#     4  10  20  38  60  91 118 160 197 253 301 366
#     4  11  23  41  59  91 123 165 203 252 307 359
#
# _framework density 10.289179000000001
#
# number of rings (size 3 to 8) (size 9 to 14) (size 15 to 20)
#    0.000    1.867    1.333    2.000    3.733    4.267 
#    2.400    0.000    0.000    0.000    0.000    0.000 
#    0.000    0.000    0.000    0.000    0.000    0.000 
#
# Total GULP energy -167211.094029 kJ/mol
# GULP energy per Si atom -5573.703134 kJ/mol
# Density = 1.026576 g / cm^3
# Si number density = 10.289179 Si / 1000 Ang^3
#
#
#
# Elastic Constant Matrix: (Units=GPa)
#
#
# Indices 1 2 3 4 5 6 
#
# 1 40.0813 27.3609 13.1453 0.0000 5.8273 0.0000
# 2 27.3609 108.8813 20.4355 0.0000 -17.0116 0.0000
# 3 13.1453 20.4355 53.8550 0.0000 -12.0947 0.0000
# 4 0.0000 0.0000 0.0000 42.3157 0.0000 0.9424
# 5 5.8273 -17.0116 -12.0947 0.0000 22.4788 0.0000
# 6 0.0000 0.0000 0.0000 0.9424 0.0000 32.6796
#
#
#
# Elastic Compliance Matrix: (Units=1/GPa)
#
#
# Indices 1 2 3 4 5 6 
#
# 1 0.040591 -0.012132 -0.011066 0.000000 -0.025658 0.000000
# 2 -0.012132 0.014342 0.000754 0.000000 0.014404 0.000000
# 3 -0.011066 0.000754 0.024746 0.000000 0.016754 0.000000
# 4 0.000000 0.000000 0.000000 0.023647 0.000000 -0.000682
# 5 -0.025658 0.014404 0.016754 0.000000 0.071053 0.000000
# 6 0.000000 0.000000 0.000000 -0.000682 0.000000 0.030620
#
#
# Mechanical properties :
#
#
# Convention : Reuss Voigt Hill
#
# Bulk Modulus (GPa) = 28.74373 36.07790 32.41081
# Shear Modulus (GPa) = 19.12166 28.95323 24.03744
#
# Velocity S-wave (km/s) = 3.05160 3.75504 3.42145
# Velocity P-wave (km/s) = 5.13952 6.03079 5.60290
#
# Compressibility (1/GPa) = 0.03479020
#
# Stress axis : x y z
#
# Youngs Moduli (GPa) = 24.63627 69.72554 40.41059
#
# Poissons Ratio (x) = 0.84590 0.44720
# Poissons Ratio (y) = 0.29888 -0.03047
# Poissons Ratio (z) = 0.27263 -0.05258
#
# Static dielectric constant tensor:
#      x y z
#    x 1.796340 0.000000 0.030590 
#    y 0.000000 1.809200 0.000000 
#    z 0.030590 0.000000 1.758550 
# 
# From -- ./inp_files/63545.got.cif
#   From: 2010.05.17/outbox.ucp.g08.bks.cvg/sg15_32_cif.got.tgz:63545.got - 2010.06.11 12:40:34.
