data_PCOD9309338
_publ_section_title
;
Structure prediction by ZEFSAII (Michael W. Deem and Ramdas Pophale) SiO2 
 PCOD9309338
Probable space group: C 2/C
;
_chemical_formula_sum "Si O2"
_cell_formula_units_Z 32
_cell_length_a 15.000000
_cell_length_b 9.000000
_cell_length_c 27.000000
_cell_angle_alpha 90.000000
_cell_angle_beta 70.000000
_cell_angle_gamma 90.000000
_cell_volume 3425.179603
_symmetry_space_group_name_H-M "C 2/C"
_symmetry_group_IT_number 15
_symmetry_cell_setting 'monoclinic'
loop_
_space_group_symop_operation_xyz
x,y,z
-x,y,1/2-z
-x,-y,-z
x,-y,1/2+z
1/2+x,1/2+y,z
1/2-x,1/2+y,1/2-z
1/2-x,1/2-y,-z
1/2+x,1/2-y,1/2+z
loop_
_atom_site_type_symbol
_atom_site_label
_atom_site_fract_x
_atom_site_fract_y
_atom_site_fract_z
Si Si1 0.865683 0.901902 0.446917
Si Si2 0.931293 0.792401 0.684044
Si Si3 0.404776 0.158840 0.788149
Si Si4 0.068901 0.245266 0.922764
Si Si5 0.797852 0.982949 0.150745
Si Si6 0.698809 0.276271 0.936844
Si Si7 0.136582 0.771458 0.522559
Si Si8 0.959690 0.405443 0.084685
O O1 0.791070 0.829615 0.422951
O O2 0.817842 0.862849 0.508860
O O3 0.968703 0.827905 0.427358
O O4 0.880018 0.078603 0.442969
O O5 0.877775 0.754249 0.745066
O O6 0.874726 0.935422 0.673065
O O7 0.925526 0.666035 0.642887
O O8 0.042896 0.769788 0.681611
O O9 0.500000 0.071217 0.750000
O O10 0.312376 0.061085 0.817342
O O11 0.058257 0.420766 0.916820
O O12 0.151144 0.168886 0.875271
O O13 0.097064 0.210104 0.974281
O O14 0.792510 0.100519 0.106929
O O15 0.605469 0.177382 0.943766
O O16 0.250000 0.750000 0.500000
O O17 0.070226 0.639779 0.556547
#
# Coordination Sequence:
#
# PCOD9309338 Si02
#       8
#     8   8   8   8   8   8   8   8
#     4  11  22  38  56  85 128 165 217 259 307 365
#     4   8  21  41  67  92 121 166 202 272 326 388
#     4   8  21  42  69  95 125 158 210 269 339 387
#     4  12  25  36  60  94 124 173 215 260 312 380
#     4  11  21  42  69  93 128 169 214 260 333 390
#     4  10  22  38  60  85 125 169 208 265 308 375
#     4  12  25  37  58  84 124 175 214 258 314 372
#     4  11  23  41  58  88 129 162 218 262 314 381
#
# _framework density 9.3425759999999993
#
# number of rings (size 3 to 8) (size 9 to 14) (size 15 to 20)
#    0.750    0.750    2.500    3.000    7.000    1.000 
#    2.250    0.000    5.500    3.000    0.000    0.000 
#    0.000    0.000    0.000    0.000    0.000    0.000 
#
# Total GULP energy -178151.929014 kJ/mol
# GULP energy per Si atom -5567.247782 kJ/mol
# Density = 0.932131 g / cm^3
# Si number density = 9.342576 Si / 1000 Ang^3
#
#
#
# Elastic Constant Matrix: (Units=GPa)
#
#
# Indices 1 2 3 4 5 6 
#
# 1 138.9221 47.4521 29.3163 0.0000 -19.8209 0.0000
# 2 47.4521 122.9645 27.5456 0.0000 -14.5726 0.0000
# 3 29.3163 27.5456 47.7520 0.0000 -3.2763 0.0000
# 4 0.0000 0.0000 0.0000 14.0572 0.0000 -5.2756
# 5 -19.8209 -14.5726 -3.2763 0.0000 36.0428 0.0000
# 6 0.0000 0.0000 0.0000 -5.2756 0.0000 37.9689
#
#
#
# Elastic Compliance Matrix: (Units=1/GPa)
#
#
# Indices 1 2 3 4 5 6 
#
# 1 0.009404 -0.002222 -0.004225 0.000000 0.003889 0.000000
# 2 -0.002222 0.010273 -0.004388 0.000000 0.002533 0.000000
# 3 -0.004225 -0.004388 0.025947 0.000000 -0.001739 0.000000
# 4 0.000000 0.000000 0.000000 0.075051 0.000000 0.010428
# 5 0.003889 0.002533 -0.001739 0.000000 0.030750 0.000000
# 6 0.000000 0.000000 0.000000 0.010428 0.000000 0.027786
#
#
# Mechanical properties :
#
#
# Convention : Reuss Voigt Hill
#
# Bulk Modulus (GPa) = 41.74565 57.58519 49.66542
# Shear Modulus (GPa) = 23.93891 31.30208 27.62049
#
# Velocity S-wave (km/s) = 3.58323 4.09741 3.84891
# Velocity P-wave (km/s) = 6.28566 7.29867 6.81102
#
# Compressibility (1/GPa) = 0.02395459
#
# Stress axis : x y z
#
# Youngs Moduli (GPa) = 106.34324 97.34325 38.53965
#
# Poissons Ratio (x) = 0.21625 0.16282
# Poissons Ratio (y) = 0.23624 0.16912
# Poissons Ratio (z) = 0.44928 0.42717
#
# Static dielectric constant tensor:
#      x y z
#    x 1.677770 0.000000 0.002520 
#    y 0.000000 1.645370 0.000000 
#    z 0.002520 0.000000 1.690530 
# 
# From -- ./inp_files/295105.got.cif
#   From: 2010.05.17/outbox.ucp.g08.bks.cvg/sg15_148_cif.got.tgz:295105.got - 2010.06.11 12:40:34.
