data_PCOD9309013
_publ_section_title
;
Structure prediction by ZEFSAII (Michael W. Deem and Ramdas Pophale) SiO2 
 PCOD9309013
Probable space group: C 2/C
;
_chemical_formula_sum "Si O2"
_cell_formula_units_Z 30
_cell_length_a 18.000000
_cell_length_b 15.000000
_cell_length_c 24.000000
_cell_angle_alpha 90.000000
_cell_angle_beta 30.000000
_cell_angle_gamma 90.000000
_cell_volume 3240.000000
_symmetry_space_group_name_H-M "C 2/C"
_symmetry_group_IT_number 15
_symmetry_cell_setting 'monoclinic'
loop_
_space_group_symop_operation_xyz
x,y,z
-x,y,1/2-z
-x,-y,-z
x,-y,1/2+z
1/2+x,1/2+y,z
1/2-x,1/2+y,1/2-z
1/2-x,1/2-y,-z
1/2+x,1/2-y,1/2+z
loop_
_atom_site_type_symbol
_atom_site_label
_atom_site_fract_x
_atom_site_fract_y
_atom_site_fract_z
Si Si1 0.958519 0.294733 0.896718
Si Si2 0.469751 0.916690 0.476122
Si Si3 0.500000 0.029549 0.250000
Si Si4 0.681783 0.011720 0.029223
Si Si5 0.709833 0.583724 0.783261
Si Si6 0.019194 0.897196 0.170232
Si Si7 0.259368 0.896435 0.816775
Si Si8 0.512640 0.272378 0.475595
O O1 0.871595 0.384632 0.939376
O O2 0.941717 0.207302 0.869121
O O3 0.128383 0.329921 0.788043
O O4 0.918694 0.265223 0.984368
O O5 0.623699 0.897857 0.344480
O O6 0.434081 0.818918 0.527223
O O7 0.500000 0.000000 0.500000
O O8 0.359489 0.957190 0.500019
O O9 0.587682 0.977910 0.143842
O O10 0.636760 0.081130 0.194871
O O11 0.855677 0.028475 0.924819
O O12 0.612786 0.582040 0.788636
O O13 0.722387 0.489514 0.808984
O O14 0.639926 0.662342 0.867133
O O15 0.000000 0.902092 0.250000
O O16 0.106148 0.841475 0.920919
#
# Coordination Sequence:
#
# PCOD9309013 Si02
#       8
#     8   8   4   8   8   8   8   8
#     4  10  21  35  56  93 130 165 206 254 339 396
#     4  12  22  42  65  92 133 180 220 261 324 401
#     4  10  20  38  64  90 126 166 216 262 334 390
#     4  11  22  38  60  92 129 176 208 263 331 391
#     4  11  23  43  61  96 132 173 221 264 332 388
#     4  11  24  36  61  99 135 163 210 272 330 392
#     4  11  22  40  63  93 129 173 213 273 328 389
#     4  11  22  36  63  94 129 170 217 274 317 384
#
# _framework density 9.2592590000000001
#
# number of rings (size 3 to 8) (size 9 to 14) (size 15 to 20)
#    0.000    1.067    4.000    4.800    5.600    0.000 
#    0.000    0.000    0.000    3.200    3.467    0.000 
#    0.000    0.000    0.000    0.000    0.000    0.000 
#
# Total GULP energy -167039.501111 kJ/mol
# GULP energy per Si atom -5567.983370 kJ/mol
# Density = 0.923818 g / cm^3
# Si number density = 9.259259 Si / 1000 Ang^3
#
#
#
# Elastic Constant Matrix: (Units=GPa)
#
#
# Indices 1 2 3 4 5 6 
#
# 1 97.3230 44.0767 11.3997 -0.0003 4.2337 0.0000
# 2 44.0767 108.9880 36.6333 -0.0006 6.2364 0.0002
# 3 11.3997 36.6333 56.9803 -0.0030 0.9084 0.0011
# 4 -0.0003 -0.0006 -0.0030 34.2823 0.0008 0.6856
# 5 4.2337 6.2364 0.9084 0.0008 35.4997 -0.0002
# 6 0.0000 0.0002 0.0011 0.6856 -0.0002 40.9747
#
#
#
# Elastic Compliance Matrix: (Units=1/GPa)
#
#
# Indices 1 2 3 4 5 6 
#
# 1 0.012632 -0.005395 0.000950 0.000000 -0.000583 0.000000
# 2 -0.005395 0.014133 -0.007981 0.000000 -0.001635 0.000000
# 3 0.000950 -0.007981 0.022480 0.000002 0.000714 -0.000001
# 4 0.000000 0.000000 0.000002 0.029179 -0.000001 -0.000488
# 5 -0.000583 -0.001635 0.000714 -0.000001 0.028508 0.000000
# 6 0.000000 0.000000 -0.000001 -0.000488 0.000000 0.024413
#
#
# Mechanical properties :
#
#
# Convention : Reuss Voigt Hill
#
# Bulk Modulus (GPa) = 40.99335 49.72341 45.35838
# Shear Modulus (GPa) = 30.42692 33.56345 31.99518
#
# Velocity S-wave (km/s) = 4.05786 4.26188 4.16112
# Velocity P-wave (km/s) = 6.64375 7.15032 6.90168
#
# Compressibility (1/GPa) = 0.02439420
#
# Stress axis : x y z
#
# Youngs Moduli (GPa) = 79.16165 70.75495 44.48493
#
# Poissons Ratio (x) = 0.38171 -0.04228
# Poissons Ratio (y) = 0.42707 0.35504
# Poissons Ratio (z) = -0.07524 0.56470
#
# Static dielectric constant tensor:
#      x y z
#    x 1.657600 0.000000 0.021280 
#    y 0.000000 1.632220 0.000000 
#    z 0.021280 0.000000 1.736810 
# 
# From -- ./inp_files/277532.got.cif
#   From: 2010.05.17/outbox.ucp.g08.bks.cvg/sg15_139_cif.got.tgz:277532.got - 2010.06.11 12:40:34.
