data_PCOD9309652
_publ_section_title
;
Structure prediction by ZEFSAII (Michael W. Deem and Ramdas Pophale) SiO2 
 PCOD9309652
Probable space group: C 2/C
;
_chemical_formula_sum "Si O2"
_cell_formula_units_Z 30
_cell_length_a 24.000000
_cell_length_b 21.000000
_cell_length_c 9.000000
_cell_angle_alpha 90.000000
_cell_angle_beta 40.000000
_cell_angle_gamma 90.000000
_cell_volume 2915.684598
_symmetry_space_group_name_H-M "C 2/C"
_symmetry_group_IT_number 15
_symmetry_cell_setting 'monoclinic'
loop_
_space_group_symop_operation_xyz
x,y,z
-x,y,1/2-z
-x,-y,-z
x,-y,1/2+z
1/2+x,1/2+y,z
1/2-x,1/2+y,1/2-z
1/2-x,1/2-y,-z
1/2+x,1/2-y,1/2+z
loop_
_atom_site_type_symbol
_atom_site_label
_atom_site_fract_x
_atom_site_fract_y
_atom_site_fract_z
Si Si1 0.000000 0.025919 0.750000
Si Si2 0.589102 0.424660 0.357423
Si Si3 0.039304 0.558772 0.332552
Si Si4 0.283450 0.894424 0.947296
Si Si5 0.067146 0.218916 0.931655
Si Si6 0.437780 0.816758 0.087527
Si Si7 0.675100 0.811572 0.917406
Si Si8 0.173305 0.725431 0.951062
O O1 0.059799 0.979349 0.529723
O O2 0.048495 0.066576 0.776562
O O3 0.562624 0.355219 0.472745
O O4 0.691655 0.426903 0.132060
O O5 0.142153 0.560794 0.138872
O O6 0.000000 0.554456 0.250000
O O7 0.000000 0.500000 0.500000
O O8 0.008745 0.628032 0.453196
O O9 0.307873 0.867171 0.735558
O O10 0.279430 0.831777 0.060165
O O11 0.107002 0.263230 0.978330
O O12 0.130848 0.229938 0.661821
O O13 0.978606 0.250668 0.057903
O O14 0.362569 0.836428 0.353100
O O15 0.398704 0.805783 0.005744
O O16 0.759995 0.769406 0.771884
#
# Coordination Sequence:
#
# PCOD9309652 Si02
#       8
#     4   8   8   8   8   8   8   8
#     4  10  28  48  68  96 134 166 230 274 330 408
#     4  11  24  48  70  98 128 177 220 278 334 392
#     4  12  27  45  67  95 137 188 224 265 326 394
#     4  11  22  43  70  90 140 174 222 269 327 392
#     4  11  21  36  71  92 126 171 213 262 337 388
#     4  12  24  39  63 105 138 163 224 277 322 393
#     4  11  22  37  63 104 131 166 212 279 331 392
#     4  11  20  41  61 100 132 168 211 278 336 386
#
# _framework density 10.289179000000001
#
# number of rings (size 3 to 8) (size 9 to 14) (size 15 to 20)
#    0.000    0.800    6.667    2.000    5.600    1.067 
#    0.000    1.333    0.000    0.000    0.000    0.000 
#    0.000    0.000    0.000    0.000    0.000    0.000 
#
# Total GULP energy -167608.309601 kJ/mol
# GULP energy per Si atom -5586.943653 kJ/mol
# Density = 1.026576 g / cm^3
# Si number density = 10.289179 Si / 1000 Ang^3
#
#
#
# Elastic Constant Matrix: (Units=GPa)
#
#
# Indices 1 2 3 4 5 6 
#
# 1 59.1087 27.6384 52.5193 0.0000 -22.8047 0.0000
# 2 27.6384 44.2937 23.8003 0.0000 -7.1687 0.0000
# 3 52.5193 23.8003 84.1395 0.0000 -6.9332 0.0000
# 4 0.0000 0.0000 0.0000 16.3338 0.0000 -11.3067
# 5 -22.8047 -7.1687 -6.9332 0.0000 21.5005 0.0000
# 6 0.0000 0.0000 0.0000 -11.3067 0.0000 -15.6464
#
#
#
# Elastic Compliance Matrix: (Units=1/GPa)
#
#
# Indices 1 2 3 4 5 6 
#
# 1 0.122444 -0.027635 -0.060271 0.000000 0.101222 0.000000
# 2 -0.027635 0.033811 0.006368 0.000000 -0.015984 0.000000
# 3 -0.060271 0.006368 0.043775 0.000000 -0.047688 0.000000
# 4 0.000000 0.000000 0.000000 0.040809 0.000000 -0.029490
# 5 0.101222 -0.015984 -0.047688 0.000000 0.133165 0.000000
# 6 0.000000 0.000000 0.000000 -0.029490 0.000000 -0.042602
#
#
# Mechanical properties :
#
#
# Convention : Reuss Voigt Hill
#
# Bulk Modulus (GPa) = 27.05986 43.93974 35.49980
# Shear Modulus (GPa) = 9.86591 10.00985 9.93788
#
# Velocity S-wave (km/s) = 2.19197 2.20790 2.19995
# Velocity P-wave (km/s) = 4.42544 5.28190 4.87253
#
# Compressibility (1/GPa) = 0.03695511
#
# Stress axis : x y z
#
# Youngs Moduli (GPa) = 8.16701 29.57586 22.84420
#
# Poissons Ratio (x) = 0.81732 1.37684
# Poissons Ratio (y) = 0.22569 -0.14548
# Poissons Ratio (z) = 0.49223 -0.18835
#
# Static dielectric constant tensor:
#      x y z
#    x 1.709860 0.000000 -0.011550 
#    y 0.000000 1.707140 0.000000 
#    z -0.011550 0.000000 1.796550 
# 
# From -- ./inp_files/63496.got.cif
#   From: 2010.05.17/outbox.ucp.g08.bks.cvg/sg15_32_cif.got.tgz:63496.got - 2010.06.11 12:40:34.
