data_PCOD9309359
_publ_section_title
;
Structure prediction by ZEFSAII (Michael W. Deem and Ramdas Pophale) SiO2 
 PCOD9309359
Probable space group: C 2/C
;
_chemical_formula_sum "Si O2"
_cell_formula_units_Z 28
_cell_length_a 12.000000
_cell_length_b 21.000000
_cell_length_c 12.000000
_cell_angle_alpha 90.000000
_cell_angle_beta 110.000000
_cell_angle_gamma 90.000000
_cell_volume 2841.630485
_symmetry_space_group_name_H-M "C 2/C"
_symmetry_group_IT_number 15
_symmetry_cell_setting 'monoclinic'
loop_
_space_group_symop_operation_xyz
x,y,z
-x,y,1/2-z
-x,-y,-z
x,-y,1/2+z
1/2+x,1/2+y,z
1/2-x,1/2+y,1/2-z
1/2-x,1/2-y,-z
1/2+x,1/2-y,1/2+z
loop_
_atom_site_type_symbol
_atom_site_label
_atom_site_fract_x
_atom_site_fract_y
_atom_site_fract_z
Si Si1 0.191956 0.554483 0.728703
Si Si2 0.500000 0.034442 0.250000
Si Si3 0.578142 0.713470 0.448558
Si Si4 0.614905 0.468127 0.596681
Si Si5 0.500000 0.609093 0.250000
Si Si6 0.804557 0.304631 0.179859
Si Si7 0.192382 0.408407 0.983486
Si Si8 0.341777 0.770525 0.438122
O O1 0.077861 0.510744 0.699610
O O2 0.293857 0.523593 0.839479
O O3 0.168612 0.623777 0.773324
O O4 0.221372 0.554374 0.607860
O O5 0.409176 0.070902 0.138310
O O6 0.566672 0.654519 0.360524
O O7 0.682523 0.701099 0.570802
O O8 0.603393 0.773436 0.375318
O O9 0.460083 0.729147 0.476075
O O10 0.500000 0.500000 0.500000
O O11 0.581348 0.434147 0.700389
O O12 0.685439 0.416730 0.544524
O O13 0.797213 0.267401 0.294961
O O14 0.142597 0.343296 0.019328
O O15 0.250000 0.750000 0.500000
#
# Coordination Sequence:
#
# PCOD9309359 Si02
#       8
#     8   4   8   8   4   8   8   8
#     4  10  22  40  63  90 126 167 214 261 328 382
#     4  10  22  39  62  90 127 160 216 258 326 390
#     4  11  23  42  64  97 125 170 223 264 327 387
#     4  11  23  41  63  94 131 170 218 267 325 386
#     4  12  22  39  68  90 131 168 216 270 314 390
#     4  10  23  41  65  93 125 173 218 266 322 401
#     4  10  23  39  59  94 121 170 208 266 328 381
#     4  11  23  41  64  90 133 165 213 271 331 386
#
# _framework density 9.8534980000000001
#
# number of rings (size 3 to 8) (size 9 to 14) (size 15 to 20)
#    0.000    1.429    1.429    3.000    4.000    2.857 
#    7.714    2.857    0.000    0.000    0.000    0.000 
#    0.000    0.000    0.000    0.000    0.000    0.000 
#
# Total GULP energy -156076.917977 kJ/mol
# GULP energy per Si atom -5574.175642 kJ/mol
# Density = 0.983107 g / cm^3
# Si number density = 9.853498 Si / 1000 Ang^3
#
#
#
# Elastic Constant Matrix: (Units=GPa)
#
#
# Indices 1 2 3 4 5 6 
#
# 1 91.4293 19.9295 26.4688 0.0000 -11.5020 0.0000
# 2 19.9295 51.0310 6.0729 0.0000 -4.1491 0.0000
# 3 26.4688 6.0729 62.5344 0.0000 -0.4246 0.0000
# 4 0.0000 0.0000 0.0000 -87.9947 0.0000 28.8655
# 5 -11.5020 -4.1491 -0.4246 0.0000 44.9364 0.0000
# 6 0.0000 0.0000 0.0000 28.8655 0.0000 -5.5968
#
#
#
# Elastic Compliance Matrix: (Units=1/GPa)
#
#
# Indices 1 2 3 4 5 6 
#
# 1 0.013879 -0.004525 -0.005414 0.000000 0.003084 0.000000
# 2 -0.004525 0.021449 -0.000162 0.000000 0.000821 0.000000
# 3 -0.005414 -0.000162 0.018290 0.000000 -0.001228 0.000000
# 4 0.000000 0.000000 0.000000 0.016426 0.000000 0.084717
# 5 0.003084 0.000821 -0.001228 0.000000 0.023107 0.000000
# 6 0.000000 0.000000 0.000000 0.084717 0.000000 0.258254
#
#
# Mechanical properties :
#
#
# Convention : Reuss Voigt Hill
#
# Bulk Modulus (GPa) = 29.92612 34.43745 32.18178
# Shear Modulus (GPa) = 13.06345 0.43723 6.75034
#
# Velocity S-wave (km/s) = 2.57745 0.47154 1.85278
# Velocity P-wave (km/s) = 4.90674 4.22009 4.57631
#
# Compressibility (1/GPa) = 0.03341562
#
# Stress axis : x y z
#
# Youngs Moduli (GPa) = 72.05053 46.62174 54.67397
#
# Poissons Ratio (x) = 0.21098 0.29602
# Poissons Ratio (y) = 0.32605 0.00886
# Poissons Ratio (z) = 0.39009 0.00755
#
# Static dielectric constant tensor:
#      x y z
#    x 1.619030 0.000000 0.069380 
#    y 0.000000 1.849850 0.000000 
#    z 0.069380 0.000000 1.583540 
# 
# From -- ./inp_files/89697.got.cif
#   From: 2010.05.17/outbox.ucp.g08.bks.cvg/sg15_45_cif.got.tgz:89697.got - 2010.06.11 12:40:34.
