data_PCOD9309987
_publ_section_title
;
Structure prediction by ZEFSAII (Michael W. Deem and Ramdas Pophale) SiO2 
 PCOD9309987
Probable space group: P 2 2 2
;
_chemical_formula_sum "Si O2"
_cell_formula_units_Z 25
_cell_length_a 5.453348
_cell_length_b 7.153513
_cell_length_c 25.997707
_cell_angle_alpha 90.000000
_cell_angle_beta 90.000000
_cell_angle_gamma 90.000000
_cell_volume 1014.186040
_symmetry_space_group_name_H-M "P 2 2 2"
_symmetry_group_IT_number 16
_symmetry_cell_setting 'orthorhombic'
loop_
_space_group_symop_operation_xyz
x,y,z
-x,-y,z
x,-y,-z
-x,y,-z
loop_
_atom_site_type_symbol
_atom_site_label
_atom_site_fract_x
_atom_site_fract_y
_atom_site_fract_z
Si Si1 0.254264 0.287637 0.021717
Si Si2 0.786515 0.775958 0.705356
Si Si3 0.040232 0.778570 0.178275
Si Si4 0.385031 0.707191 0.553891
Si Si5 0.000000 0.500000 0.500000
Si Si6 0.547206 0.224430 0.865613
Si Si7 0.288368 0.198379 0.334563
O O1 0.309316 0.277971 0.082098
O O2 0.252278 0.500000 0.000000
O O3 0.500000 0.197410 0.000000
O O4 0.000000 0.207528 0.000000
O O5 0.858591 0.755058 0.764474
O O6 0.516675 0.702199 0.692777
O O7 0.020573 0.710918 0.672145
O O8 0.750402 0.996189 0.691567
O O9 0.265541 0.705228 0.142067
O O10 0.756765 0.711741 0.174931
O O11 0.000000 0.000000 0.167361
O O12 0.500000 0.500000 0.562661
O O13 0.500000 0.780032 0.500000
O O14 0.371073 0.818004 0.606226
O O15 0.116132 0.647820 0.538605
O O16 0.500000 0.000000 0.863659
#
# Coordination Sequence:
#
# PCOD9309987 Si02
#       7
#     4   4   4   4   1   4   4
#     4  10  21  39  61  88 120 161 201 236 297 363
#     4  10  20  34  55  87 115 158 184 233 293 364
#     4  10  18  33  54  85 121 148 195 241 289 345
#     4   9  20  36  56  83 107 152 202 256 296 354
#     4   8  18  36  60  72 104 144 210 240 304 320
#     4  10  21  33  58  91 118 151 198 249 294 339
#     4  10  20  33  57  83 117 147 196 228 304 358
#
# _framework density 24.650310999999999
#
# number of rings (size 3 to 8) (size 9 to 14) (size 15 to 20)
#    0.000    2.400    1.600    1.920    8.960    0.320 
#    0.000    2.400    0.000    0.000   41.600    0.000 
#    0.000    0.000    0.000    0.000    0.000    0.000 
#
# Total GULP energy -139247.613225 kJ/mol
# GULP energy per Si atom -5569.904529 kJ/mol
# Density = 2.459421 g / cm^3
# Si number density = 24.650311 Si / 1000 Ang^3
#
#
#
# Elastic Constant Matrix: (Units=GPa)
#
#
# Indices 1 2 3 4 5 6 
#
# 1 223.9338 21.7005 72.6843 0.0000 0.0000 0.0000
# 2 21.7005 101.0749 8.0177 0.0000 0.0000 0.0000
# 3 72.6843 8.0177 149.6512 0.0000 0.0000 0.0000
# 4 0.0000 0.0000 0.0000 9.6847 0.0000 0.0000
# 5 0.0000 0.0000 0.0000 0.0000 57.0973 0.0000
# 6 0.0000 0.0000 0.0000 0.0000 0.0000 17.6288
#
#
#
# Elastic Compliance Matrix: (Units=1/GPa)
#
#
# Indices 1 2 3 4 5 6 
#
# 1 0.005391 -0.000954 -0.002567 0.000000 0.000000 0.000000
# 2 -0.000954 0.010105 -0.000078 0.000000 0.000000 0.000000
# 3 -0.002567 -0.000078 0.007933 0.000000 0.000000 0.000000
# 4 0.000000 0.000000 0.000000 0.103256 0.000000 0.000000
# 5 0.000000 0.000000 0.000000 0.000000 0.017514 0.000000
# 6 0.000000 0.000000 0.000000 0.000000 0.000000 0.056725
#
#
# Mechanical properties :
#
#
# Convention : Reuss Voigt Hill
#
# Bulk Modulus (GPa) = 61.61193 75.49611 68.55402
# Shear Modulus (GPa) = 23.41555 41.69933 32.55744
#
# Velocity S-wave (km/s) = 3.08540 4.11741 3.63819
# Velocity P-wave (km/s) = 6.14342 7.30051 6.74681
#
# Compressibility (1/GPa) = 0.01623062
#
# Stress axis : x y z
#
# Youngs Moduli (GPa) = 185.48137 98.96445 126.04980
#
# Poissons Ratio (x) = 0.09440 0.32363
# Poissons Ratio (y) = 0.17692 0.00984
# Poissons Ratio (z) = 0.47621 0.00773
#
# Static dielectric constant tensor:
#      x y z
#    x 1.996380 0.000000 0.000000 
#    y 0.000000 1.886730 0.000000 
#    z 0.000000 0.000000 1.945100 
# 
# From -- ./inp_files/9474.got.cif
#   From: 2010.05.17/outbox.cif.g08.bks.cpg/sg16_5_cif.got.tgz:9474.got - 2010.06.03 22:28:35.
