data_PCOD9309655
_publ_section_title
;
Structure prediction by ZEFSAII (Michael W. Deem and Ramdas Pophale) SiO2 
 PCOD9309655
Probable space group: C 2/C
;
_chemical_formula_sum "Si O2"
_cell_formula_units_Z 32
_cell_length_a 18.000000
_cell_length_b 24.000000
_cell_length_c 24.000000
_cell_angle_alpha 90.000000
_cell_angle_beta 20.000000
_cell_angle_gamma 90.000000
_cell_volume 3546.064846
_symmetry_space_group_name_H-M "C 2/C"
_symmetry_group_IT_number 15
_symmetry_cell_setting 'monoclinic'
loop_
_space_group_symop_operation_xyz
x,y,z
-x,y,1/2-z
-x,-y,-z
x,-y,1/2+z
1/2+x,1/2+y,z
1/2-x,1/2+y,1/2-z
1/2-x,1/2-y,-z
1/2+x,1/2-y,1/2+z
loop_
_atom_site_type_symbol
_atom_site_label
_atom_site_fract_x
_atom_site_fract_y
_atom_site_fract_z
Si Si1 0.332510 0.121960 0.749251
Si Si2 0.471110 0.483366 0.833054
Si Si3 0.752697 0.316804 0.586652
Si Si4 0.745382 0.559649 0.702869
Si Si5 0.494224 0.985885 0.189060
Si Si6 0.855502 0.877246 0.736543
Si Si7 0.250456 0.186355 0.909676
Si Si8 0.940131 0.447873 0.620215
O O1 0.573474 0.146170 0.568112
O O2 0.237942 0.106908 0.754966
O O3 0.334449 0.064522 0.784159
O O4 0.221457 0.168469 0.865878
O O5 0.500000 0.503014 0.750000
O O6 0.520469 0.532153 0.841936
O O7 0.628601 0.431823 0.735144
O O8 0.231216 0.461907 0.009202
O O9 0.500000 0.328679 0.750000
O O10 0.776664 0.332454 0.634812
O O11 0.790177 0.251455 0.550525
O O12 0.871149 0.508574 0.644667
O O13 0.870098 0.570942 0.556584
O O14 0.500000 0.999343 0.250000
O O15 0.475877 0.038045 0.159662
O O16 0.744818 0.902175 0.759733
O O17 0.085172 0.850509 0.561174
O O18 0.500000 0.174461 0.750000
#
# Coordination Sequence:
#
# PCOD9309655 Si02
#       8
#     8   8   8   8   8   8   8   8
#     4  11  20  35  51  69 105 139 168 206 249 294
#     4  11  19  30  52  75  99 131 172 203 239 303
#     4  11  21  33  52  72  97 137 178 211 238 282
#     4   9  18  32  50  73  96 129 170 211 241 290
#     4  11  21  32  50  76 107 134 164 206 252 300
#     4  11  20  33  52  71  98 141 170 197 256 296
#     4  11  23  35  46  73 107 132 172 216 244 284
#     4   9  18  33  49  72  99 128 170 207 242 301
#
# _framework density 9.0240880000000008
#
# number of rings (size 3 to 8) (size 9 to 14) (size 15 to 20)
#    0.000    1.500    2.500    5.250    0.000    3.000 
#    0.000    3.750    0.000    0.000    0.000    0.000 
#    0.000   20.000    0.000    0.000    0.000    0.000 
#
# Total GULP energy -178341.842212 kJ/mol
# GULP energy per Si atom -5573.182569 kJ/mol
# Density = 0.900355 g / cm^3
# Si number density = 9.024088 Si / 1000 Ang^3
#
#
#
# Elastic Constant Matrix: (Units=GPa)
#
#
# Indices 1 2 3 4 5 6 
#
# 1 113.0624 40.0668 16.8342 0.0457 22.1702 -0.0093
# 2 40.0668 63.0927 15.8824 0.0059 -1.2836 -0.0026
# 3 16.8342 15.8824 31.7007 -0.2600 8.1907 0.0099
# 4 0.0457 0.0059 -0.2600 21.4354 -0.0149 2.0577
# 5 22.1702 -1.2836 8.1907 -0.0149 22.0436 0.0142
# 6 -0.0093 -0.0026 0.0099 2.0577 0.0142 21.4311
#
#
#
# Elastic Compliance Matrix: (Units=1/GPa)
#
#
# Indices 1 2 3 4 5 6 
#
# 1 0.015764 -0.010705 0.001382 -0.000027 -0.016992 0.000019
# 2 -0.010705 0.025898 -0.011574 -0.000114 0.016575 0.000004
# 3 0.001382 -0.011574 0.041092 0.000492 -0.017332 -0.000056
# 4 -0.000027 -0.000114 0.000492 0.047092 -0.000127 -0.004522
# 5 -0.016992 0.016575 -0.017332 -0.000127 0.069859 -0.000031
# 6 0.000019 0.000004 -0.000056 -0.004522 -0.000031 0.047095
#
#
# Mechanical properties :
#
#
# Convention : Reuss Voigt Hill
#
# Bulk Modulus (GPa) = 24.41368 39.26918 31.84143
# Shear Modulus (GPa) = 16.54266 21.98685 19.26476
#
# Velocity S-wave (km/s) = 3.03080 3.49410 3.27066
# Velocity P-wave (km/s) = 5.07976 6.17119 5.65188
#
# Compressibility (1/GPa) = 0.04096064
#
# Stress axis : x y z
#
# Youngs Moduli (GPa) = 63.43461 38.61236 24.33546
#
# Poissons Ratio (x) = 0.41333 -0.03362
# Poissons Ratio (y) = 0.67904 0.28167
# Poissons Ratio (z) = -0.08765 0.44691
#
# Static dielectric constant tensor:
#      x y z
#    x 1.680290 -0.000040 -0.010100 
#    y -0.000040 1.592210 0.000100 
#    z -0.010100 0.000100 1.671330 
# 
# From -- ./inp_files/58667.got.cif
#   From: 2010.05.17/outbox.ucp.g08.bks.cvg/sg15_30_cif.got.tgz:58667.got - 2010.06.11 12:40:34.
