data_PCOD9309653
_publ_section_title
;
Structure prediction by ZEFSAII (Michael W. Deem and Ramdas Pophale) SiO2 
 PCOD9309653
Probable space group: C 2/C
;
_chemical_formula_sum "Si O2"
_cell_formula_units_Z 20
_cell_length_a 15.000000
_cell_length_b 21.000000
_cell_length_c 21.000000
_cell_angle_alpha 90.000000
_cell_angle_beta 20.000000
_cell_angle_gamma 90.000000
_cell_volume 2262.463248
_symmetry_space_group_name_H-M "C 2/C"
_symmetry_group_IT_number 15
_symmetry_cell_setting 'monoclinic'
loop_
_space_group_symop_operation_xyz
x,y,z
-x,y,1/2-z
-x,-y,-z
x,-y,1/2+z
1/2+x,1/2+y,z
1/2-x,1/2+y,1/2-z
1/2-x,1/2-y,-z
1/2+x,1/2-y,1/2+z
loop_
_atom_site_type_symbol
_atom_site_label
_atom_site_fract_x
_atom_site_fract_y
_atom_site_fract_z
Si Si1 0.557324 0.585855 0.050941
Si Si2 0.259243 0.319597 0.961597
Si Si3 0.256361 0.443693 0.535467
Si Si4 0.017381 0.474245 0.913045
Si Si5 0.758080 0.106806 0.715000
O O1 0.674483 0.631171 0.026154
O O2 0.244960 0.578122 0.264091
O O3 0.666093 0.514809 0.992468
O O4 0.628197 0.610301 0.932898
O O5 0.500000 0.322404 0.750000
O O6 0.250000 0.250000 0.000000
O O7 0.978427 0.341769 0.120262
O O8 0.503872 0.399593 0.392776
O O9 0.000000 0.425861 0.750000
O O10 0.192176 0.448824 0.501322
O O11 0.120086 0.538052 0.810660
O O12 0.000000 0.500000 0.000000
#
# Coordination Sequence:
#
# PCOD9309653 Si02
#       5
#     8   8   8   8   8
#     4  11  20  34  59  87 123 161 204 244 309 368
#     4  12  25  42  62  88 119 158 209 267 313 372
#     4  11  18  35  59  90 128 167 200 244 309 376
#     4  11  21  33  55  92 130 165 201 254 305 369
#     4  11  21  36  59  86 121 164 205 246 312 370
#
# _framework density 8.8399230000000006
#
# number of rings (size 3 to 8) (size 9 to 14) (size 15 to 20)
#    0.000    0.800    6.000    4.200    0.000    2.400 
#    0.000    0.000    0.000    1.200    0.000    0.000 
#    0.000    0.000    0.000    0.000    0.000    0.000 
#
# Total GULP energy -111382.627146 kJ/mol
# GULP energy per Si atom -5569.131357 kJ/mol
# Density = 0.881980 g / cm^3
# Si number density = 8.839923 Si / 1000 Ang^3
#
#
#
# Elastic Constant Matrix: (Units=GPa)
#
#
# Indices 1 2 3 4 5 6 
#
# 1 158.2151 16.6801 64.7574 0.0907 -11.7751 -0.0153
# 2 16.6801 64.9127 31.9355 0.2040 -13.4102 -0.1340
# 3 64.7574 31.9355 112.5881 0.0975 -8.6620 -0.1996
# 4 0.0907 0.2040 0.0975 23.7731 -0.0669 -1.4732
# 5 -11.7751 -13.4102 -8.6620 -0.0669 51.1014 0.0306
# 6 -0.0153 -0.1340 -0.1996 -1.4732 0.0306 28.1312
#
#
#
# Elastic Compliance Matrix: (Units=1/GPa)
#
#
# Indices 1 2 3 4 5 6 
#
# 1 0.008343 0.000494 -0.004844 -0.000015 0.001231 -0.000030
# 2 0.000494 0.018730 -0.005278 -0.000127 0.004134 0.000041
# 3 -0.004844 -0.005278 0.013144 0.000013 -0.000273 0.000066
# 4 -0.000015 -0.000127 0.000013 0.042202 0.000020 0.002209
# 5 0.001231 0.004134 -0.000273 0.000020 0.020891 -0.000003
# 6 -0.000030 0.000041 0.000066 0.002209 -0.000003 0.035664
#
#
# Mechanical properties :
#
#
# Convention : Reuss Voigt Hill
#
# Bulk Modulus (GPa) = 47.71103 62.49577 55.10340
# Shear Modulus (GPa) = 30.26304 35.42397 32.84351
#
# Velocity S-wave (km/s) = 4.14179 4.48106 4.31476
# Velocity P-wave (km/s) = 7.06521 7.88660 7.48718
#
# Compressibility (1/GPa) = 0.02095951
#
# Stress axis : x y z
#
# Youngs Moduli (GPa) = 119.86599 53.39083 76.07905
#
# Poissons Ratio (x) = -0.02635 0.36851
# Poissons Ratio (y) = -0.05916 0.40157
# Poissons Ratio (z) = 0.58061 0.28181
#
# Static dielectric constant tensor:
#      x y z
#    x 1.655070 0.000050 -0.002140 
#    y 0.000050 1.572990 -0.000040 
#    z -0.002140 -0.000040 1.691400 
# 
# From -- ./inp_files/41067.got.cif
#   From: 2010.05.17/outbox.ucp.g08.bks.cvg/sg15_21_cif.got.tgz:41067.got - 2010.06.11 12:40:34.
