data_PCOD9309865
_publ_section_title
;
Structure prediction by ZEFSAII (Michael W. Deem and Ramdas Pophale) SiO2 
 PCOD9309865
Probable space group: C 2/C
;
_chemical_formula_sum "Si O2"
_cell_formula_units_Z 24
_cell_length_a 15.000000
_cell_length_b 15.000000
_cell_length_c 30.000000
_cell_angle_alpha 90.000000
_cell_angle_beta 160.000000
_cell_angle_gamma 90.000000
_cell_volume 2308.635967
_symmetry_space_group_name_H-M "C 2/C"
_symmetry_group_IT_number 15
_symmetry_cell_setting 'monoclinic'
loop_
_space_group_symop_operation_xyz
x,y,z
-x,y,1/2-z
-x,-y,-z
x,-y,1/2+z
1/2+x,1/2+y,z
1/2-x,1/2+y,1/2-z
1/2-x,1/2-y,-z
1/2+x,1/2-y,1/2+z
loop_
_atom_site_type_symbol
_atom_site_label
_atom_site_fract_x
_atom_site_fract_y
_atom_site_fract_z
Si Si1 0.566885 0.649772 0.173342
Si Si2 0.861586 0.672012 0.020919
Si Si3 0.822567 0.916183 0.399872
Si Si4 0.969742 0.336046 0.397730
Si Si5 0.713125 0.264693 0.607770
Si Si6 0.589957 0.449792 0.160482
O O1 0.553905 0.742556 0.140392
O O2 0.600806 0.556945 0.162522
O O3 0.829383 0.656365 0.326326
O O4 0.269472 0.643581 0.051412
O O5 0.804386 0.712419 0.946263
O O6 0.682801 0.585906 0.947460
O O7 0.750000 0.750000 0.000000
O O8 0.500000 0.921945 0.250000
O O9 0.881445 0.908661 0.375083
O O10 0.965493 0.832834 0.491883
O O11 0.000000 0.000000 0.500000
O O12 0.812308 0.311596 0.367478
O O13 0.826324 0.411701 0.301610
O O14 0.000000 0.309288 0.750000
#
# Coordination Sequence:
#
# PCOD9309865 Si02
#       6
#     8   8   8   8   8   8
#     4  11  25  43  72 100 140 184 236 291 358 422
#     4  12  23  45  70  98 136 191 229 284 358 418
#     4  12  29  43  70 108 142 179 234 298 361 428
#     4  11  25  44  71 103 139 187 236 296 354 417
#     4  12  24  45  70  99 141 186 240 292 349 418
#     4  12  25  48  72 103 141 186 236 285 363 426
#
# _framework density 10.395749
#
# number of rings (size 3 to 8) (size 9 to 14) (size 15 to 20)
#    0.000    0.333    5.000    2.500   11.667    0.000 
#    0.000    5.000    0.000    0.000    0.000    0.000 
#    0.000    0.000    0.000    0.000    0.000    0.000 
#
# Total GULP energy -133965.551551 kJ/mol
# GULP energy per Si atom -5581.897981 kJ/mol
# Density = 1.037209 g / cm^3
# Si number density = 10.395749 Si / 1000 Ang^3
#
#
#
# Elastic Constant Matrix: (Units=GPa)
#
#
# Indices 1 2 3 4 5 6 
#
# 1 54.8116 -0.6716 29.9094 0.0046 -2.9205 -0.0050
# 2 -0.6716 70.4474 23.7302 -0.0061 4.8885 -0.0071
# 3 29.9094 23.7302 214.5078 -0.0035 14.8712 -0.0309
# 4 0.0046 -0.0061 -0.0035 47.5248 -0.0236 -0.0972
# 5 -2.9205 4.8885 14.8712 -0.0236 26.9022 0.0019
# 6 -0.0050 -0.0071 -0.0309 -0.0972 0.0019 16.2158
#
#
#
# Elastic Compliance Matrix: (Units=1/GPa)
#
#
# Indices 1 2 3 4 5 6 
#
# 1 0.020198 0.001005 -0.003189 0.000000 0.003773 0.000000
# 2 0.001005 0.014883 -0.001671 0.000001 -0.001672 0.000004
# 3 -0.003189 -0.001671 0.005505 -0.000001 -0.003086 0.000009
# 4 0.000000 0.000001 -0.000001 0.021042 0.000019 0.000126
# 5 0.003773 -0.001672 -0.003086 0.000019 0.039591 -0.000010
# 6 0.000000 0.000004 0.000009 0.000126 -0.000010 0.061669
#
#
# Mechanical properties :
#
#
# Convention : Reuss Voigt Hill
#
# Bulk Modulus (GPa) = 30.41646 49.52255 39.96950
# Shear Modulus (GPa) = 27.53959 37.24847 32.39403
#
# Velocity S-wave (km/s) = 3.64340 4.23723 3.95149
# Velocity P-wave (km/s) = 5.68860 6.91442 6.33125
#
# Compressibility (1/GPa) = 0.03287694
#
# Stress axis : x y z
#
# Youngs Moduli (GPa) = 49.51031 67.18917 181.64512
#
# Poissons Ratio (x) = -0.06752 0.57926
# Poissons Ratio (y) = -0.04976 0.30348
# Poissons Ratio (z) = 0.15789 0.11225
#
# Static dielectric constant tensor:
#      x y z
#    x 2.006780 0.000000 -0.064470 
#    y 0.000000 1.745200 -0.000020 
#    z -0.064470 -0.000020 1.782140 
# 
# From -- ./inp_files/314142.got.cif
#   From: 2010.05.17/outbox.ucp.g08.bks.cvg/sg15_158_cif.got.tgz:314142.got - 2010.06.11 12:40:34.
