data_PCOD9309186
_publ_section_title
;
Structure prediction by ZEFSAII (Michael W. Deem and Ramdas Pophale) SiO2 
 PCOD9309186
Probable space group: C 2/C
;
_chemical_formula_sum "Si O2"
_cell_formula_units_Z 26
_cell_length_a 9.000000
_cell_length_b 18.000000
_cell_length_c 27.000000
_cell_angle_alpha 90.000000
_cell_angle_beta 40.000000
_cell_angle_gamma 90.000000
_cell_volume 2811.553005
_symmetry_space_group_name_H-M "C 2/C"
_symmetry_group_IT_number 15
_symmetry_cell_setting 'monoclinic'
loop_
_space_group_symop_operation_xyz
x,y,z
-x,y,1/2-z
-x,-y,-z
x,-y,1/2+z
1/2+x,1/2+y,z
1/2-x,1/2+y,1/2-z
1/2-x,1/2-y,-z
1/2+x,1/2-y,1/2+z
loop_
_atom_site_type_symbol
_atom_site_label
_atom_site_fract_x
_atom_site_fract_y
_atom_site_fract_z
Si Si1 0.524412 0.718016 0.492178
Si Si2 0.700548 0.859231 0.998579
Si Si3 0.241685 0.418784 0.331166
Si Si4 0.729004 0.927368 0.222887
Si Si5 0.000000 0.172948 0.250000
Si Si6 0.043772 0.221876 0.873115
Si Si7 0.583140 0.448781 0.644120
O O1 0.363981 0.787718 0.517994
O O2 0.413117 0.656829 0.482810
O O3 0.486248 0.703616 0.560491
O O4 0.798781 0.740808 0.417731
O O5 0.460889 0.875062 0.089040
O O6 0.769279 0.920963 0.940399
O O7 0.500000 0.387590 0.250000
O O8 0.149724 0.433967 0.299931
O O9 0.291113 0.492043 0.351412
O O10 0.500000 0.917816 0.250000
O O11 0.893492 0.855756 0.170207
O O12 0.869879 0.003002 0.177510
O O13 0.766458 0.223612 0.309363
O O14 0.988580 0.119699 0.301660
#
# Coordination Sequence:
#
# PCOD9309186 Si02
#       7
#     8   8   8   8   4   8   8
#     4  10  23  40  62  95 134 166 227 269 329 394
#     4  11  22  41  63  94 131 175 212 282 322 395
#     4  10  21  39  63  91 125 168 220 262 332 392
#     4  11  22  40  64  98 131 167 222 275 321 392
#     4  12  22  44  70  90 132 174 218 264 338 384
#     4  11  23  41  67  94 130 179 214 273 336 392
#     4  11  23  42  64  94 128 175 219 269 333 396
#
# _framework density 9.2475579999999997
#
# number of rings (size 3 to 8) (size 9 to 14) (size 15 to 20)
#    0.000    1.231    4.615    3.231    0.000    1.231 
#    0.000    3.077    0.000    0.000    0.000    0.000 
#    0.000    0.000    0.000    0.000    0.000    0.000 
#
# Total GULP energy -144898.607569 kJ/mol
# GULP energy per Si atom -5573.023368 kJ/mol
# Density = 0.922651 g / cm^3
# Si number density = 9.247558 Si / 1000 Ang^3
#
#
#
# Elastic Constant Matrix: (Units=GPa)
#
#
# Indices 1 2 3 4 5 6 
#
# 1 124.9744 18.4781 45.8811 -0.0010 -3.5871 0.0012
# 2 18.4781 64.9760 36.5827 0.0004 -5.6171 0.0013
# 3 45.8811 36.5827 119.8027 0.0029 2.2669 0.0023
# 4 -0.0010 0.0004 0.0029 38.8190 0.0023 1.9103
# 5 -3.5871 -5.6171 2.2669 0.0023 31.2319 -0.0022
# 6 0.0012 0.0013 0.0023 1.9103 -0.0022 34.7985
#
#
#
# Elastic Compliance Matrix: (Units=1/GPa)
#
#
# Indices 1 2 3 4 5 6 
#
# 1 0.009388 -0.000637 -0.003423 0.000000 0.001212 0.000000
# 2 -0.000637 0.019080 -0.005654 0.000000 0.003769 0.000000
# 3 -0.003423 -0.005654 0.011427 -0.000001 -0.002239 -0.000001
# 4 0.000000 0.000000 -0.000001 0.025830 -0.000002 -0.001418
# 5 0.001212 0.003769 -0.002239 -0.000002 0.032998 0.000002
# 6 0.000000 0.000000 -0.000001 -0.001418 0.000002 0.028815
#
#
# Mechanical properties :
#
#
# Convention : Reuss Voigt Hill
#
# Bulk Modulus (GPa) = 48.86159 56.84856 52.85507
# Shear Modulus (GPa) = 32.51211 34.89063 33.70137
#
# Velocity S-wave (km/s) = 4.19725 4.34807 4.27333
# Velocity P-wave (km/s) = 7.06861 7.48408 7.27931
#
# Compressibility (1/GPa) = 0.02046597
#
# Stress axis : x y z
#
# Youngs Moduli (GPa) = 106.52460 52.40968 87.51289
#
# Poissons Ratio (x) = 0.03341 0.29960
# Poissons Ratio (y) = 0.06790 0.49476
# Poissons Ratio (z) = 0.36468 0.29630
#
# Static dielectric constant tensor:
#      x y z
#    x 1.657480 0.000000 -0.003290 
#    y 0.000000 1.660240 0.000000 
#    z -0.003290 0.000000 1.634650 
# 
# From -- ./inp_files/289537.got.cif
#   From: 2010.05.17/outbox.ucp.g08.bks.cvg/sg15_145_cif.got.tgz:289537.got - 2010.06.11 12:40:34.
