data_PCOD9309717
_publ_section_title
;
Structure prediction by ZEFSAII (Michael W. Deem and Ramdas Pophale) SiO2 
 PCOD9309717
Probable space group: C 2/C
;
_chemical_formula_sum "Si O2"
_cell_formula_units_Z 32
_cell_length_a 15.000000
_cell_length_b 24.000000
_cell_length_c 18.000000
_cell_angle_alpha 90.000000
_cell_angle_beta 150.000000
_cell_angle_gamma 90.000000
_cell_volume 3240.000000
_symmetry_space_group_name_H-M "C 2/C"
_symmetry_group_IT_number 15
_symmetry_cell_setting 'monoclinic'
loop_
_space_group_symop_operation_xyz
x,y,z
-x,y,1/2-z
-x,-y,-z
x,-y,1/2+z
1/2+x,1/2+y,z
1/2-x,1/2+y,1/2-z
1/2-x,1/2-y,-z
1/2+x,1/2-y,1/2+z
loop_
_atom_site_type_symbol
_atom_site_label
_atom_site_fract_x
_atom_site_fract_y
_atom_site_fract_z
Si Si1 0.795683 0.721908 0.299631
Si Si2 0.014216 0.632559 0.979033
Si Si3 0.538201 0.382635 0.570222
Si Si4 0.149906 0.325846 0.288770
Si Si5 0.904544 0.901780 0.059816
Si Si6 0.563274 0.280033 0.378296
Si Si7 0.762578 0.435462 0.406447
Si Si8 0.347416 0.440921 0.702188
O O1 0.950782 0.692942 0.460537
O O2 0.672466 0.670583 0.180839
O O3 0.693932 0.765217 0.281813
O O4 0.903735 0.751336 0.310031
O O5 0.913692 0.638619 0.828795
O O6 0.923104 0.595637 0.978834
O O7 0.203730 0.607598 0.092613
O O8 0.341715 0.355367 0.443690
O O9 0.573911 0.411605 0.514336
O O10 0.571403 0.429767 0.657390
O O11 0.000000 0.324167 0.250000
O O12 0.884004 0.835961 0.042528
O O13 0.764036 0.924309 0.023037
O O14 0.089201 0.914744 0.235414
O O15 0.500000 0.294476 0.250000
O O16 0.750000 0.250000 0.500000
O O17 0.757389 0.501332 0.386660
O O18 0.500000 0.438432 0.750000
#
# Coordination Sequence:
#
# PCOD9309717 Si02
#       8
#     8   8   8   8   8   8   8   8
#     4  11  25  40  64  97 136 176 215 270 334 411
#     4  11  24  43  66  94 133 172 224 273 339 402
#     4  11  24  43  66  99 135 169 233 274 330 401
#     4  12  25  42  65  94 131 178 225 277 328 394
#     4  11  21  39  67  96 130 167 216 269 330 403
#     4  12  23  36  63  97 133 172 211 258 332 402
#     4  11  21  43  68  95 128 173 219 277 345 398
#     4  11  24  44  67  95 128 177 226 283 339 387
#
# _framework density 9.8765429999999999
#
# number of rings (size 3 to 8) (size 9 to 14) (size 15 to 20)
#    0.000    0.750    5.000    3.375    1.750    4.500 
#    0.000    1.875    0.000    1.500    0.000    0.000 
#    0.000    0.000    0.000    0.000    0.000    0.000 
#
# Total GULP energy -178251.253718 kJ/mol
# GULP energy per Si atom -5570.351679 kJ/mol
# Density = 0.985406 g / cm^3
# Si number density = 9.876543 Si / 1000 Ang^3
#
#
#
# Elastic Constant Matrix: (Units=GPa)
#
#
# Indices 1 2 3 4 5 6 
#
# 1 175.1827 29.7152 22.2006 -0.0007 -19.1621 -0.0073
# 2 29.7152 57.2483 -4.4501 -0.0005 -12.0912 -0.0052
# 3 22.2006 -4.4501 52.2982 0.0011 -13.9987 0.0106
# 4 -0.0007 -0.0005 0.0011 21.4044 0.0003 -3.0460
# 5 -19.1621 -12.0912 -13.9987 0.0003 35.8291 0.0026
# 6 -0.0073 -0.0052 0.0106 -3.0460 0.0026 -65.6426
#
#
#
# Elastic Compliance Matrix: (Units=1/GPa)
#
#
# Indices 1 2 3 4 5 6 
#
# 1 0.006802 -0.003460 -0.002815 0.000000 0.001370 -0.000001
# 2 -0.003460 0.021226 0.005246 0.000000 0.007362 0.000000
# 3 -0.002815 0.005246 0.023267 -0.000001 0.009355 0.000004
# 4 0.000000 0.000000 -0.000001 0.046413 0.000000 -0.002154
# 5 0.001370 0.007362 0.009355 0.000000 0.034783 0.000002
# 6 -0.000001 0.000000 0.000004 -0.002154 0.000002 -0.015134
#
#
# Mechanical properties :
#
#
# Convention : Reuss Voigt Hill
#
# Bulk Modulus (GPa) = 20.31029 42.18449 31.24739
# Shear Modulus (GPa) = 36.81145 14.13575 25.47360
#
# Velocity S-wave (km/s) = 4.32160 2.67801 3.59500
# Velocity P-wave (km/s) = 5.93347 5.56458 5.75199
#
# Compressibility (1/GPa) = 0.04923614
#
# Stress axis : x y z
#
# Youngs Moduli (GPa) = 147.01888 47.11107 42.98018
#
# Poissons Ratio (x) = 0.16300 0.12099
# Poissons Ratio (y) = 0.50868 -0.22546
# Poissons Ratio (z) = 0.41386 -0.24713
#
# Static dielectric constant tensor:
#      x y z
#    x 1.751620 0.000000 -0.074170 
#    y 0.000000 1.905680 0.000000 
#    z -0.074170 0.000000 1.774680 
# 
# From -- ./inp_files/207385.got.cif
#   From: 2010.05.17/outbox.ucp.g08.bks.cvg/sg15_104_cif.got.tgz:207385.got - 2010.06.11 12:40:34.
