data_PCOD9309947
_publ_section_title
;
Structure prediction by ZEFSAII (Michael W. Deem and Ramdas Pophale) SiO2 
 PCOD9309947
Probable space group: P 2 2 2
;
_chemical_formula_sum "Si O2"
_cell_formula_units_Z 20
_cell_length_a 9.179856
_cell_length_b 8.974391
_cell_length_c 12.363450
_cell_angle_alpha 90.000000
_cell_angle_beta 90.000000
_cell_angle_gamma 90.000000
_cell_volume 1018.545730
_symmetry_space_group_name_H-M "P 2 2 2"
_symmetry_group_IT_number 16
_symmetry_cell_setting 'orthorhombic'
loop_
_space_group_symop_operation_xyz
x,y,z
-x,-y,z
x,-y,-z
-x,y,-z
loop_
_atom_site_type_symbol
_atom_site_label
_atom_site_fract_x
_atom_site_fract_y
_atom_site_fract_z
Si Si1 0.000000 0.000000 0.500000
Si Si2 0.249060 0.023270 0.643077
Si Si3 0.000000 0.000000 0.000000
Si Si4 0.858208 0.205002 0.174968
Si Si5 0.500000 0.000000 0.500000
Si Si6 0.325716 0.496837 0.868491
Si Si7 0.000000 0.500000 0.500000
Si Si8 0.852089 0.694484 0.307336
O O1 0.109759 0.085069 0.577246
O O2 0.236109 0.086371 0.759792
O O3 0.389528 0.079674 0.580306
O O4 0.227802 0.845029 0.649704
O O5 0.907251 0.113510 0.071395
O O6 0.755819 0.344666 0.159533
O O7 0.002788 0.256356 0.240616
O O8 0.500000 0.500000 0.850211
O O9 0.248245 0.613236 0.784397
O O10 0.304004 0.500000 0.000000
O O11 0.901895 0.596837 0.413102
#
# Coordination Sequence:
#
# PCOD9309947 Si02
#       8
#     1   4   1   4   1   4   1   4
#     4  10  16  38  64  86 134 166 214 280 322 380
#     4  11  23  41  64 102 131 179 227 284 336 415
#     4  12  22  40  78 112 132 172 236 322 354 400
#     4  12  23  43  72 105 133 173 235 297 353 409
#     4  10  28  38  64  94 144 186 212 268 348 400
#     4  11  27  48  69  95 142 186 227 284 356 430
#     4  12  26  40  70 104 138 188 228 278 354 412
#     4  12  23  45  70 101 137 181 233 289 346 414
#
# _framework density 19.635840999999999
#
# number of rings (size 3 to 8) (size 9 to 14) (size 15 to 20)
#    0.000    0.600    6.000    1.800    5.600    0.800 
#    0.000    0.000    0.000    0.000    0.000    0.000 
#    0.000    0.000    0.000    0.000    0.000    0.000 
#
# Total GULP energy -111352.312044 kJ/mol
# GULP energy per Si atom -5567.615602 kJ/mol
# Density = 1.959115 g / cm^3
# Si number density = 19.635841 Si / 1000 Ang^3
#
#
#
# Elastic Constant Matrix: (Units=GPa)
#
#
# Indices 1 2 3 4 5 6 
#
# 1 126.5990 45.6512 63.0053 0.0000 0.0000 0.0000
# 2 45.6512 117.6646 62.1817 0.0000 0.0000 0.0000
# 3 63.0053 62.1817 151.2879 0.0000 0.0000 0.0000
# 4 0.0000 0.0000 0.0000 30.4955 0.0000 0.0000
# 5 0.0000 0.0000 0.0000 0.0000 33.3854 0.0000
# 6 0.0000 0.0000 0.0000 0.0000 0.0000 10.5695
#
#
#
# Elastic Compliance Matrix: (Units=1/GPa)
#
#
# Indices 1 2 3 4 5 6 
#
# 1 0.010403 -0.002231 -0.003415 0.000000 0.000000 0.000000
# 2 -0.002231 0.011336 -0.003730 0.000000 0.000000 0.000000
# 3 -0.003415 -0.003730 0.009565 0.000000 0.000000 0.000000
# 4 0.000000 0.000000 0.000000 0.032792 0.000000 0.000000
# 5 0.000000 0.000000 0.000000 0.000000 0.029953 0.000000
# 6 0.000000 0.000000 0.000000 0.000000 0.000000 0.094612
#
#
# Mechanical properties :
#
#
# Convention : Reuss Voigt Hill
#
# Bulk Modulus (GPa) = 79.67497 81.91422 80.79459
# Shear Modulus (GPa) = 23.62976 29.87098 26.75037
#
# Velocity S-wave (km/s) = 3.47277 3.90455 3.69497
# Velocity P-wave (km/s) = 7.53290 7.88255 7.70971
#
# Compressibility (1/GPa) = 0.01255099
#
# Stress axis : x y z
#
# Youngs Moduli (GPa) = 96.12279 88.21836 104.54410
#
# Poissons Ratio (x) = 0.19684 0.35707
# Poissons Ratio (y) = 0.21448 0.38993
# Poissons Ratio (z) = 0.32831 0.32904
#
# Static dielectric constant tensor:
#      x y z
#    x 1.790190 0.000000 0.000000 
#    y 0.000000 1.710570 0.000000 
#    z 0.000000 0.000000 1.737970 
# 
# From -- ./inp_files/3911.got.cif
#   From: 2010.05.17/outbox.cif.g08.bks.cpg/sg16_2_cif.got.tgz:3911.got - 2010.06.03 22:28:35.
