data_PCOD9309824
_publ_section_title
;
Structure prediction by ZEFSAII (Michael W. Deem and Ramdas Pophale) SiO2 
 PCOD9309824
Probable space group: C 2/C
;
_chemical_formula_sum "Si O2"
_cell_formula_units_Z 20
_cell_length_a 27.000000
_cell_length_b 6.000000
_cell_length_c 24.000000
_cell_angle_alpha 90.000000
_cell_angle_beta 30.000000
_cell_angle_gamma 90.000000
_cell_volume 1944.000000
_symmetry_space_group_name_H-M "C 2/C"
_symmetry_group_IT_number 15
_symmetry_cell_setting 'monoclinic'
loop_
_space_group_symop_operation_xyz
x,y,z
-x,y,1/2-z
-x,-y,-z
x,-y,1/2+z
1/2+x,1/2+y,z
1/2-x,1/2+y,1/2-z
1/2-x,1/2-y,-z
1/2+x,1/2-y,1/2+z
loop_
_atom_site_type_symbol
_atom_site_label
_atom_site_fract_x
_atom_site_fract_y
_atom_site_fract_z
Si Si1 0.080263 0.736396 0.808292
Si Si2 0.111395 0.555762 0.005316
Si Si3 0.239255 0.208559 0.943916
Si Si4 0.198189 0.256277 0.306666
Si Si5 0.537978 0.569061 0.649686
O O1 0.161496 0.628991 0.685717
O O2 0.129960 0.778709 0.819134
O O3 0.979474 0.605104 0.921762
O O4 0.042636 0.952740 0.811383
O O5 0.061198 0.687316 0.105233
O O6 0.203375 0.421972 0.942525
O O7 0.146635 0.699780 0.917394
O O8 0.250000 0.250000 0.000000
O O9 0.143577 0.049866 0.036491
O O10 0.246451 0.508709 0.246383
O O11 0.500000 0.555343 0.750000
#
# Coordination Sequence:
#
# PCOD9309824 Si02
#       5
#     8   8   8   8   8
#     4  11  25  46  72 101 145 193 242 308 370 442
#     4  11  27  43  72 107 141 196 247 308 370 447
#     4  11  23  45  67 100 146 188 240 304 366 443
#     4  12  27  50  79 110 152 195 251 308 376 446
#     4  11  25  42  69 107 143 189 249 303 373 445
#
# _framework density 10.288066000000001
#
# number of rings (size 3 to 8) (size 9 to 14) (size 15 to 20)
#    0.000    0.800    4.000    1.800    8.400    3.200 
#    0.000    0.000    0.000    0.000    0.000    0.000 
#    0.000    0.000    0.000    0.000    0.000    0.000 
#
# Total GULP energy -111441.725321 kJ/mol
# GULP energy per Si atom -5572.086266 kJ/mol
# Density = 1.026465 g / cm^3
# Si number density = 10.288066 Si / 1000 Ang^3
#
#
#
# Elastic Constant Matrix: (Units=GPa)
#
#
# Indices 1 2 3 4 5 6 
#
# 1 143.3270 19.8135 12.4835 0.0896 -1.5547 -0.1846
# 2 19.8135 66.0038 4.1044 -0.0005 -11.3698 -0.0413
# 3 12.4835 4.1044 101.5847 0.0821 6.4657 0.1136
# 4 0.0896 -0.0005 0.0821 30.8563 -0.0278 22.5245
# 5 -1.5547 -11.3698 6.4657 -0.0278 38.4205 -0.0655
# 6 -0.1846 -0.0413 0.1136 22.5245 -0.0655 6.1819
#
#
#
# Elastic Compliance Matrix: (Units=1/GPa)
#
#
# Indices 1 2 3 4 5 6 
#
# 1 0.007347 -0.002193 -0.000800 0.000107 -0.000217 -0.000173
# 2 -0.002193 0.016712 -0.000723 0.000041 0.004978 -0.000039
# 3 -0.000800 -0.000723 0.010095 -0.000087 -0.001945 0.000084
# 4 0.000107 0.000041 -0.000087 -0.019523 0.000138 0.071141
# 5 -0.000217 0.004978 -0.001945 0.000138 0.027819 -0.000147
# 6 -0.000173 -0.000039 0.000084 0.071141 -0.000147 -0.097456
#
#
# Mechanical properties :
#
#
# Convention : Reuss Voigt Hill
#
# Bulk Modulus (GPa) = 37.42267 42.63535 40.02901
# Shear Modulus (GPa) = -129.31434 33.39269 -47.96082
#
# Velocity S-wave (km/s) = -7.93620 4.03287 -4.83317
# Velocity P-wave (km/s) = 8.10868 6.51546 3.41317
#
# Compressibility (1/GPa) = 0.02672177
#
# Stress axis : x y z
#
# Youngs Moduli (GPa) = 136.10407 59.83900 99.05579
#
# Poissons Ratio (x) = 0.13125 0.07928
# Poissons Ratio (y) = 0.29852 0.07157
# Poissons Ratio (z) = 0.10893 0.04323
#
# Static dielectric constant tensor:
#      x y z
#    x 1.736010 -0.000120 -0.058940 
#    y -0.000120 1.817480 0.000080 
#    z -0.058940 0.000080 1.743120 
# 
# From -- ./inp_files/175303.got.cif
#   From: 2010.05.17/outbox.ucp.g08.bks.cvg/sg15_88_cif.got.tgz:175303.got - 2010.06.11 12:40:34.
