data_PCOD9309560
_publ_section_title
;
Structure prediction by ZEFSAII (Michael W. Deem and Ramdas Pophale) SiO2 
 PCOD9309560
Probable space group: C 2/C
;
_chemical_formula_sum "Si O2"
_cell_formula_units_Z 20
_cell_length_a 15.000000
_cell_length_b 27.000000
_cell_length_c 15.000000
_cell_angle_alpha 90.000000
_cell_angle_beta 160.000000
_cell_angle_gamma 90.000000
_cell_volume 2077.772371
_symmetry_space_group_name_H-M "C 2/C"
_symmetry_group_IT_number 15
_symmetry_cell_setting 'monoclinic'
loop_
_space_group_symop_operation_xyz
x,y,z
-x,y,1/2-z
-x,-y,-z
x,-y,1/2+z
1/2+x,1/2+y,z
1/2-x,1/2+y,1/2-z
1/2-x,1/2-y,-z
1/2+x,1/2-y,1/2+z
loop_
_atom_site_type_symbol
_atom_site_label
_atom_site_fract_x
_atom_site_fract_y
_atom_site_fract_z
Si Si1 0.000000 0.285238 0.750000
Si Si2 0.500000 0.957999 0.750000
Si Si3 0.983055 0.627016 0.093818
Si Si4 0.034809 0.216351 0.176411
Si Si5 0.948195 0.877002 0.462241
Si Si6 0.225044 0.516031 0.786477
O O1 0.032197 0.323118 0.696990
O O2 0.750000 0.250000 0.500000
O O3 0.612917 0.917293 0.928565
O O4 0.654029 0.992592 0.819315
O O5 0.261913 0.612201 0.308820
O O6 0.753174 0.636988 0.806630
O O7 0.314764 0.244128 0.437343
O O8 0.000000 0.204758 0.250000
O O9 0.999618 0.167263 0.082009
O O10 0.791973 0.924772 0.356924
O O11 0.000000 0.500000 0.500000
O O12 0.500000 0.500000 0.000000
#
# Coordination Sequence:
#
# PCOD9309560 Si02
#       6
#     4   4   8   8   8   8
#     4  11  24  42  62 102 136 174 228 277 334 414
#     4  11  24  48  68  98 144 188 218 299 362 408
#     4  11  25  41  70  94 139 183 223 279 357 408
#     4  10  23  44  68  97 136 178 224 289 360 415
#     4  12  23  45  67 104 130 179 238 281 337 434
#     4  12  25  46  70 103 139 182 237 288 350 436
#
# _framework density 9.6256939999999993
#
# number of rings (size 3 to 8) (size 9 to 14) (size 15 to 20)
#    0.000    0.800    4.000    2.400    0.000    9.600 
#   12.600    0.000    0.000    0.000    0.000    0.000 
#    0.000    0.000    0.000    0.000    0.000    0.000 
#
# Total GULP energy -111450.108637 kJ/mol
# GULP energy per Si atom -5572.505432 kJ/mol
# Density = 0.960378 g / cm^3
# Si number density = 9.625694 Si / 1000 Ang^3
#
#
#
# Elastic Constant Matrix: (Units=GPa)
#
#
# Indices 1 2 3 4 5 6 
#
# 1 141.3898 63.1286 51.8471 -0.0001 -8.0229 -0.0004
# 2 63.1286 147.0385 40.8502 -0.0005 -12.9746 -0.0008
# 3 51.8471 40.8502 163.6593 -0.0027 -4.5092 -0.0040
# 4 -0.0001 -0.0005 -0.0027 40.8147 -0.0006 -3.3614
# 5 -8.0229 -12.9746 -4.5092 -0.0006 40.8229 -0.0012
# 6 -0.0004 -0.0008 -0.0040 -3.3614 -0.0012 54.7175
#
#
#
# Elastic Compliance Matrix: (Units=1/GPa)
#
#
# Indices 1 2 3 4 5 6 
#
# 1 0.009396 -0.003400 -0.002113 0.000000 0.000533 0.000000
# 2 -0.003400 0.008727 -0.001046 0.000000 0.001990 0.000000
# 3 -0.002113 -0.001046 0.007042 0.000001 0.000030 0.000001
# 4 0.000000 0.000000 0.000001 0.024626 0.000000 0.001513
# 5 0.000533 0.001990 0.000030 0.000000 0.025236 0.000001
# 6 0.000000 0.000000 0.000001 0.001513 0.000001 0.018369
#
#
# Mechanical properties :
#
#
# Convention : Reuss Voigt Hill
#
# Bulk Modulus (GPa) = 83.01907 84.85994 83.93951
# Shear Modulus (GPa) = 45.23689 47.02178 46.12933
#
# Velocity S-wave (km/s) = 4.85273 4.94754 4.90037
# Velocity P-wave (km/s) = 8.63805 8.76431 8.70141
#
# Compressibility (1/GPa) = 0.01204542
#
# Stress axis : x y z
#
# Youngs Moduli (GPa) = 106.43078 114.58827 142.01012
#
# Poissons Ratio (x) = 0.38958 0.30011
# Poissons Ratio (y) = 0.36185 0.14860
# Poissons Ratio (z) = 0.22492 0.11990
#
# Static dielectric constant tensor:
#      x y z
#    x 1.694960 0.000000 0.008440 
#    y 0.000000 1.734100 0.000000 
#    z 0.008440 0.000000 1.675390 
# 
# From -- ./inp_files/157295.got.cif
#   From: 2010.05.17/outbox.ucp.g08.bks.cvg/sg15_79_cif.got.tgz:157295.got - 2010.06.11 12:40:34.
