data_PCOD9309553
_publ_section_title
;
Structure prediction by ZEFSAII (Michael W. Deem and Ramdas Pophale) SiO2 
 PCOD9309553
Probable space group: C 2/C
;
_chemical_formula_sum "Si O2"
_cell_formula_units_Z 24
_cell_length_a 15.000000
_cell_length_b 15.000000
_cell_length_c 30.000000
_cell_angle_alpha 90.000000
_cell_angle_beta 160.000000
_cell_angle_gamma 90.000000
_cell_volume 2308.635967
_symmetry_space_group_name_H-M "C 2/C"
_symmetry_group_IT_number 15
_symmetry_cell_setting 'monoclinic'
loop_
_space_group_symop_operation_xyz
x,y,z
-x,y,1/2-z
-x,-y,-z
x,-y,1/2+z
1/2+x,1/2+y,z
1/2-x,1/2+y,1/2-z
1/2-x,1/2-y,-z
1/2+x,1/2-y,1/2+z
loop_
_atom_site_type_symbol
_atom_site_label
_atom_site_fract_x
_atom_site_fract_y
_atom_site_fract_z
Si Si1 0.549785 0.280098 0.142701
Si Si2 0.742132 0.411868 0.073383
Si Si3 0.930636 0.100173 0.770363
Si Si4 0.615554 0.967223 0.506714
Si Si5 0.681614 0.544864 0.649485
Si Si6 0.949544 0.785255 0.672704
O O1 0.601060 0.307251 0.218220
O O2 0.574146 0.372993 0.127280
O O3 0.775388 0.218787 0.225572
O O4 0.250000 0.250000 0.000000
O O5 0.684480 0.422665 0.099112
O O6 0.801259 0.307872 0.091276
O O7 0.014889 0.464910 0.194339
O O8 0.504202 0.458661 0.935867
O O9 0.654300 0.048906 0.646373
O O10 0.000000 0.110812 0.750000
O O11 0.169490 0.042510 0.903091
O O12 0.774328 0.873389 0.582461
O O13 0.500000 0.000000 0.500000
O O14 0.000000 0.782596 0.750000
#
# Coordination Sequence:
#
# PCOD9309553 Si02
#       6
#     8   8   8   8   8   8
#     4  11  25  41  67 102 136 181 232 285 351 416
#     4   9  17  36  63  92 126 169 215 264 330 404
#     4  10  24  43  66  99 137 178 237 287 354 422
#     4  10  23  43  73  97 130 186 229 293 357 410
#     4   9  18  36  59  91 126 169 215 259 327 403
#     4  11  21  41  70  97 137 179 226 283 350 415
#
# _framework density 10.395749
#
# number of rings (size 3 to 8) (size 9 to 14) (size 15 to 20)
#    0.000    2.000    3.333    1.500    7.000    3.333 
#    3.000    0.000    3.667    0.000    0.000    0.000 
#    0.000    0.000    0.000    0.000    0.000    0.000 
#
# Total GULP energy -133984.474817 kJ/mol
# GULP energy per Si atom -5582.686451 kJ/mol
# Density = 1.037209 g / cm^3
# Si number density = 10.395749 Si / 1000 Ang^3
#
#
#
# Elastic Constant Matrix: (Units=GPa)
#
#
# Indices 1 2 3 4 5 6 
#
# 1 94.0967 24.0214 44.0228 -0.0007 27.6739 -0.0005
# 2 24.0214 55.1024 21.8338 0.0038 26.0621 0.0002
# 3 44.0228 21.8338 98.4192 -0.0114 38.7794 -0.0147
# 4 -0.0007 0.0038 -0.0114 54.4935 -0.0088 7.3759
# 5 27.6739 26.0621 38.7794 -0.0088 34.9370 -0.0014
# 6 -0.0005 0.0002 -0.0147 7.3759 -0.0014 28.9634
#
#
#
# Elastic Compliance Matrix: (Units=1/GPa)
#
#
# Indices 1 2 3 4 5 6 
#
# 1 0.014655 -0.002143 -0.003796 -0.000001 -0.005796 -0.000002
# 2 -0.002143 0.029089 0.004242 -0.000005 -0.024710 0.000002
# 3 -0.003796 0.004242 0.019514 -0.000001 -0.021818 0.000009
# 4 -0.000001 -0.000005 -0.000001 0.019006 0.000011 -0.004840
# 5 -0.005796 -0.024710 -0.021818 0.000011 0.075865 -0.000010
# 6 -0.000002 0.000002 0.000009 -0.004840 -0.000010 0.035759
#
#
# Mechanical properties :
#
#
# Convention : Reuss Voigt Hill
#
# Bulk Modulus (GPa) = 16.70455 47.48603 32.09529
# Shear Modulus (GPa) = 23.01633 34.19480 28.60556
#
# Velocity S-wave (km/s) = 3.33078 4.05983 3.71324
# Velocity P-wave (km/s) = 4.77953 6.69814 5.81846
#
# Compressibility (1/GPa) = 0.05986392
#
# Stress axis : x y z
#
# Youngs Moduli (GPa) = 68.23579 34.37739 51.24461
#
# Poissons Ratio (x) = 0.07368 0.19452
# Poissons Ratio (y) = 0.14624 -0.21737
# Poissons Ratio (z) = 0.25901 -0.14582
#
# Static dielectric constant tensor:
#      x y z
#    x 1.779100 0.000000 -0.020310 
#    y 0.000000 1.733750 -0.000010 
#    z -0.020310 -0.000010 1.771220 
# 
# From -- ./inp_files/314154.got.cif
#   From: 2010.05.17/outbox.ucp.g08.bks.cvg/sg15_158_cif.got.tgz:314154.got - 2010.06.11 12:40:34.
