data_PCOD9309121
_publ_section_title
;
Structure prediction by ZEFSAII (Michael W. Deem and Ramdas Pophale) SiO2 
 PCOD9309121
Probable space group: C 2/C
;
_chemical_formula_sum "Si O2"
_cell_formula_units_Z 22
_cell_length_a 12.000000
_cell_length_b 12.000000
_cell_length_c 15.000000
_cell_angle_alpha 90.000000
_cell_angle_beta 100.000000
_cell_angle_gamma 90.000000
_cell_volume 2127.184747
_symmetry_space_group_name_H-M "C 2/C"
_symmetry_group_IT_number 15
_symmetry_cell_setting 'monoclinic'
loop_
_space_group_symop_operation_xyz
x,y,z
-x,y,1/2-z
-x,-y,-z
x,-y,1/2+z
1/2+x,1/2+y,z
1/2-x,1/2+y,1/2-z
1/2-x,1/2-y,-z
1/2+x,1/2-y,1/2+z
loop_
_atom_site_type_symbol
_atom_site_label
_atom_site_fract_x
_atom_site_fract_y
_atom_site_fract_z
Si Si1 0.721912 0.868877 0.392419
Si Si2 0.000000 0.874000 0.750000
Si Si3 0.597446 0.902024 0.837843
Si Si4 0.712297 0.767072 0.208758
Si Si5 0.874369 0.715572 0.981883
Si Si6 0.417401 0.348620 0.556733
O O1 0.763141 0.831877 0.299802
O O2 0.644249 0.767499 0.419985
O O3 0.825751 0.894918 0.473766
O O4 0.646373 0.976334 0.363938
O O5 0.896439 0.799815 0.770864
O O6 0.947746 0.921897 0.649563
O O7 0.500000 0.904543 0.750000
O O8 0.695963 0.820906 0.813924
O O9 0.567160 0.854825 0.931804
O O10 0.660359 0.837558 0.118809
O O11 0.963476 0.814089 0.972104
O O12 0.750000 0.750000 0.000000
#
# Coordination Sequence:
#
# PCOD9309121 Si02
#       6
#     8   4   8   8   8   8
#     4  10  21  36  58  89 116 155 194 246 295 349
#     4   8  16  34  62  76 104 162 196 222 286 350
#     4  11  23  36  60  93 118 149 204 246 292 355
#     4   9  19  39  58  80 124 157 188 240 297 345
#     4   9  19  37  58  83 118 163 187 238 298 348
#     4   9  18  36  59  81 119 155 193 238 298 345
#
# _framework density 10.342307999999999
#
# number of rings (size 3 to 8) (size 9 to 14) (size 15 to 20)
#    0.000    2.545    0.000    1.091    7.636    0.727 
#    9.818    8.182    6.000    0.000    0.000    0.000 
#    0.000    0.000    0.000    0.000    0.000    0.000 
#
# Total GULP energy -122536.814547 kJ/mol
# GULP energy per Si atom -5569.855207 kJ/mol
# Density = 1.031877 g / cm^3
# Si number density = 10.342308 Si / 1000 Ang^3
#
#
#
# Elastic Constant Matrix: (Units=GPa)
#
#
# Indices 1 2 3 4 5 6 
#
# 1 88.5473 -1.8131 47.5847 0.0000 21.0702 0.0000
# 2 -1.8131 28.6141 26.2082 0.0000 6.4053 0.0000
# 3 47.5847 26.2082 194.8746 0.0000 40.7953 0.0000
# 4 0.0000 0.0000 0.0000 21.8464 0.0000 17.6292
# 5 21.0702 6.4053 40.7953 0.0000 50.9036 0.0000
# 6 0.0000 0.0000 0.0000 17.6292 0.0000 27.2755
#
#
#
# Elastic Compliance Matrix: (Units=1/GPa)
#
#
# Indices 1 2 3 4 5 6 
#
# 1 0.014052 0.004738 -0.003276 0.000000 -0.003788 0.000000
# 2 0.004738 0.041487 -0.006288 0.000000 -0.002142 0.000000
# 3 -0.003276 -0.006288 0.007603 0.000000 -0.003946 0.000000
# 4 0.000000 0.000000 0.000000 0.095676 0.000000 -0.061839
# 5 -0.003788 -0.002142 -0.003946 0.000000 0.024645 0.000000
# 6 0.000000 0.000000 0.000000 -0.061839 0.000000 0.076632
#
#
# Mechanical properties :
#
#
# Convention : Reuss Voigt Hill
#
# Bulk Modulus (GPa) = 18.69447 50.66616 34.68032
# Shear Modulus (GPa) = 17.38675 36.00884 26.69780
#
# Velocity S-wave (km/s) = 2.90239 4.17688 3.59654
# Velocity P-wave (km/s) = 4.50437 6.91444 5.83519
#
# Compressibility (1/GPa) = 0.05349174
#
# Stress axis : x y z
#
# Youngs Moduli (GPa) = 71.16435 24.10394 131.52509
#
# Poissons Ratio (x) = -0.11422 0.43082
# Poissons Ratio (y) = -0.33721 0.82703
# Poissons Ratio (z) = 0.23311 0.15157
#
# Static dielectric constant tensor:
#      x y z
#    x 1.720100 0.000000 -0.018450 
#    y 0.000000 1.728270 0.000000 
#    z -0.018450 0.000000 1.835750 
# 
# From -- ./inp_files/142215.got.cif
#   From: 2010.05.17/outbox.ucp.g08.bks.cvg/sg15_72_cif.got.tgz:142215.got - 2010.06.11 12:40:34.
