data_PCOD9309626
_publ_section_title
;
Structure prediction by ZEFSAII (Michael W. Deem and Ramdas Pophale) SiO2 
 PCOD9309626
Probable space group: C 2/C
;
_chemical_formula_sum "Si O2"
_cell_formula_units_Z 18
_cell_length_a 9.000000
_cell_length_b 30.000000
_cell_length_c 9.000000
_cell_angle_alpha 90.000000
_cell_angle_beta 130.000000
_cell_angle_gamma 90.000000
_cell_volume 1861.487997
_symmetry_space_group_name_H-M "C 2/C"
_symmetry_group_IT_number 15
_symmetry_cell_setting 'monoclinic'
loop_
_space_group_symop_operation_xyz
x,y,z
-x,y,1/2-z
-x,-y,-z
x,-y,1/2+z
1/2+x,1/2+y,z
1/2-x,1/2+y,1/2-z
1/2-x,1/2-y,-z
1/2+x,1/2-y,1/2+z
loop_
_atom_site_type_symbol
_atom_site_label
_atom_site_fract_x
_atom_site_fract_y
_atom_site_fract_z
Si Si1 0.728649 0.953865 0.338290
Si Si2 0.106551 0.864483 0.170581
Si Si3 0.947737 0.704399 0.892973
Si Si4 0.859857 0.194487 0.302729
Si Si5 0.500000 0.497487 0.250000
O O1 0.500000 0.960298 0.250000
O O2 0.773633 0.901767 0.341673
O O3 0.833188 0.974068 0.252179
O O4 0.866142 0.973764 0.554045
O O5 0.262994 0.826121 0.307632
O O6 0.000000 0.882004 0.250000
O O7 0.936783 0.842807 0.962968
O O8 0.896194 0.755971 0.890121
O O9 0.000000 0.701363 0.750000
O O10 0.138548 0.690852 0.107245
O O11 0.000000 0.191624 0.250000
#
# Coordination Sequence:
#
# PCOD9309626 Si02
#       5
#     8   8   8   8   4
#     4  11  24  45  73 102 135 173 213 273 336 398
#     4  12  26  40  60  98 138 168 224 279 319 390
#     4  11  20  40  64  88 122 176 231 272 325 381
#     4  11  21  39  64  89 122 179 229 271 324 390
#     4  10  24  48  74 104 130 168 218 270 336 414
#
# _framework density 9.6696840000000002
#
# number of rings (size 3 to 8) (size 9 to 14) (size 15 to 20)
#    0.000    0.889    5.556    2.667    1.556    1.778 
#    0.000    0.000    0.000    0.000    0.000    0.000 
#    0.000    0.000    0.000    0.000    0.000    0.000 
#
# Total GULP energy -100353.966887 kJ/mol
# GULP energy per Si atom -5575.220383 kJ/mol
# Density = 0.964767 g / cm^3
# Si number density = 9.669684 Si / 1000 Ang^3
#
#
#
# Elastic Constant Matrix: (Units=GPa)
#
#
# Indices 1 2 3 4 5 6 
#
# 1 119.0560 32.2528 42.4105 0.0000 7.0826 0.0000
# 2 32.2528 70.4059 38.4121 0.0000 -8.7673 0.0000
# 3 42.4105 38.4121 135.9307 0.0000 22.4400 0.0000
# 4 0.0000 0.0000 0.0000 -41.9634 0.0000 -9.9571
# 5 7.0826 -8.7673 22.4400 0.0000 35.2508 0.0000
# 6 0.0000 0.0000 0.0000 -9.9571 0.0000 28.8996
#
#
#
# Elastic Compliance Matrix: (Units=1/GPa)
#
#
# Indices 1 2 3 4 5 6 
#
# 1 0.010210 -0.003963 -0.001748 0.000000 -0.001924 0.000000
# 2 -0.003963 0.020653 -0.006234 0.000000 0.009902 0.000000
# 3 -0.001748 -0.006234 0.011020 0.000000 -0.008214 0.000000
# 4 0.000000 0.000000 0.000000 -0.022029 0.000000 -0.007590
# 5 -0.001924 0.009902 -0.008214 0.000000 0.036447 0.000000
# 6 0.000000 0.000000 0.000000 -0.007590 0.000000 0.031987
#
#
# Mechanical properties :
#
#
# Convention : Reuss Voigt Hill
#
# Bulk Modulus (GPa) = 55.57975 61.28259 58.43117
# Shear Modulus (GPa) = 42.30947 18.59187 30.45067
#
# Velocity S-wave (km/s) = 4.68240 3.10393 3.97236
# Velocity P-wave (km/s) = 7.61805 6.67852 7.16370
#
# Compressibility (1/GPa) = 0.01799216
#
# Stress axis : x y z
#
# Youngs Moduli (GPa) = 97.94107 48.41836 90.74515
#
# Poissons Ratio (x) = 0.19190 0.15862
# Poissons Ratio (y) = 0.38817 0.56574
# Poissons Ratio (z) = 0.17119 0.30186
#
# Static dielectric constant tensor:
#      x y z
#    x 1.697490 0.000000 -0.045450 
#    y 0.000000 1.707130 0.000000 
#    z -0.045450 0.000000 1.673960 
# 
# From -- ./inp_files/25270.got.cif
#   From: 2010.05.17/outbox.ucp.g08.bks.cvg/sg15_13_cif.got.tgz:25270.got - 2010.06.11 12:40:34.
