data_PCOD9309918
_publ_section_title
;
Structure prediction by ZEFSAII (Michael W. Deem and Ramdas Pophale) SiO2 
 PCOD9309918
Probable space group: P 2 2 2
;
_chemical_formula_sum "Si O2"
_cell_formula_units_Z 25
_cell_length_a 16.608682
_cell_length_b 11.365362
_cell_length_c 5.608574
_cell_angle_alpha 90.000000
_cell_angle_beta 90.000000
_cell_angle_gamma 90.000000
_cell_volume 1058.695086
_symmetry_space_group_name_H-M "P 2 2 2"
_symmetry_group_IT_number 16
_symmetry_cell_setting 'orthorhombic'
loop_
_space_group_symop_operation_xyz
x,y,z
-x,-y,z
x,-y,-z
-x,y,-z
loop_
_atom_site_type_symbol
_atom_site_label
_atom_site_fract_x
_atom_site_fract_y
_atom_site_fract_z
Si Si1 0.692109 0.233597 0.760647
Si Si2 0.030584 0.640952 0.250064
Si Si3 0.635882 0.494864 0.751306
Si Si4 0.804068 0.434135 0.249867
Si Si5 0.500000 0.000000 0.500000
Si Si6 0.192238 0.963329 0.751792
Si Si7 0.644873 0.125114 0.258270
O O1 0.685656 0.373239 0.760452
O O2 0.779935 0.173016 0.764287
O O3 0.656765 0.196147 0.505193
O O4 0.646941 0.187585 0.999839
O O5 0.126668 0.661168 0.250702
O O6 0.000000 0.500000 0.250245
O O7 0.000000 0.689257 0.500000
O O8 0.000000 0.689012 0.000000
O O9 0.592181 0.500000 0.500000
O O10 0.708970 0.589300 0.749669
O O11 0.590452 0.500000 0.000000
O O12 0.820097 0.500000 0.500000
O O13 0.820839 0.500000 0.000000
O O14 0.560063 0.066082 0.318534
O O15 0.153967 0.000000 0.500000
O O16 0.278798 0.035360 0.750251
O O17 0.151876 0.000000 0.000000
#
# Coordination Sequence:
#
# PCOD9309918 Si02
#       7
#     4   4   4   4   1   4   4
#     4  10  18  34  45  66  96 129 148 179 232 266
#     4  10  14  20  34  52  74 109 133 185 241 300
#     4  10  21  32  47  64  86 125 177 216 212 241
#     4  10  16  25  36  56  80 104 154 203 232 253
#     4  12  20  34  52  90 110 114 124 186 230 318
#     4   8  14  27  42  65  88 115 130 161 208 292
#     4  10  20  30  51  74 104 114 133 169 232 309
#
# _framework density 23.613975
#
# number of rings (size 3 to 8) (size 9 to 14) (size 15 to 20)
#    0.000    2.240    5.600    0.960    0.000    1.280 
#    0.000    0.000    0.000    0.000    0.000    8.400 
#    0.000    0.000    0.000    0.000    0.000   43.200 
#
# Total GULP energy -139214.859443 kJ/mol
# GULP energy per Si atom -5568.594378 kJ/mol
# Density = 2.356023 g / cm^3
# Si number density = 23.613975 Si / 1000 Ang^3
#
#
#
# Elastic Constant Matrix: (Units=GPa)
#
#
# Indices 1 2 3 4 5 6 
#
# 1 57.5859 -6.8598 26.1033 0.0000 0.0000 0.0000
# 2 -6.8598 46.2837 24.8285 0.0000 0.0000 0.0000
# 3 26.1033 24.8285 300.1742 0.0000 0.0000 0.0000
# 4 0.0000 0.0000 0.0000 32.5702 0.0000 0.0000
# 5 0.0000 0.0000 0.0000 0.0000 9.3175 0.0000
# 6 0.0000 0.0000 0.0000 0.0000 0.0000 -1.1939
#
#
#
# Elastic Compliance Matrix: (Units=1/GPa)
#
#
# Indices 1 2 3 4 5 6 
#
# 1 0.018700 0.003813 -0.001942 0.000000 0.000000 0.000000
# 2 0.003813 0.023387 -0.002266 0.000000 0.000000 0.000000
# 3 -0.001942 -0.002266 0.003688 0.000000 0.000000 0.000000
# 4 0.000000 0.000000 0.000000 0.030703 0.000000 0.000000
# 5 0.000000 0.000000 0.000000 0.000000 0.107325 0.000000
# 6 0.000000 0.000000 0.000000 0.000000 0.000000 -0.837563
#
#
# Mechanical properties :
#
#
# Convention : Reuss Voigt Hill
#
# Bulk Modulus (GPa) = 22.22966 54.68754 38.45860
# Shear Modulus (GPa) = -7.83727 32.13686 12.14980
#
# Velocity S-wave (km/s) = -1.82376 3.69307 2.27076
# Velocity P-wave (km/s) = 2.23593 6.43384 4.81631
#
# Compressibility (1/GPa) = 0.04498494
#
# Stress axis : x y z
#
# Youngs Moduli (GPa) = 53.47692 42.75955 271.17455
#
# Poissons Ratio (x) = -0.16304 0.52649
# Poissons Ratio (y) = -0.20391 0.61447
# Poissons Ratio (z) = 0.10383 0.09689
#
# Static dielectric constant tensor:
#      x y z
#    x 1.861670 0.000000 0.000000 
#    y 0.000000 2.025900 0.000000 
#    z 0.000000 0.000000 1.912420 
# 
# From -- ./inp_files/2619.got.cif
#   From: 2010.05.17/outbox.cif.g08.bks.cpg/sg16_2_cif.got.tgz:2619.got - 2010.06.03 22:28:35.
