data_PCOD9309860
_publ_section_title
;
Structure prediction by ZEFSAII (Michael W. Deem and Ramdas Pophale) SiO2 
 PCOD9309860
Probable space group: C 2/C
;
_chemical_formula_sum "Si O2"
_cell_formula_units_Z 20
_cell_length_a 15.000000
_cell_length_b 12.000000
_cell_length_c 15.000000
_cell_angle_alpha 90.000000
_cell_angle_beta 130.000000
_cell_angle_gamma 90.000000
_cell_volume 2068.319996
_symmetry_space_group_name_H-M "C 2/C"
_symmetry_group_IT_number 15
_symmetry_cell_setting 'monoclinic'
loop_
_space_group_symop_operation_xyz
x,y,z
-x,y,1/2-z
-x,-y,-z
x,-y,1/2+z
1/2+x,1/2+y,z
1/2-x,1/2+y,1/2-z
1/2-x,1/2-y,-z
1/2+x,1/2-y,1/2+z
loop_
_atom_site_type_symbol
_atom_site_label
_atom_site_fract_x
_atom_site_fract_y
_atom_site_fract_z
Si Si1 0.284758 0.671727 0.325519
Si Si2 0.823472 0.097617 0.682672
Si Si3 0.985122 0.224855 0.131821
Si Si4 0.439646 0.463209 0.074315
Si Si5 0.883994 0.421642 0.934837
O O1 0.233137 0.781260 0.340264
O O2 0.383524 0.716260 0.321161
O O3 0.361134 0.590280 0.442582
O O4 0.174304 0.624566 0.196042
O O5 0.887279 0.090132 0.629526
O O6 0.920936 0.068390 0.822946
O O7 0.721457 0.005220 0.607686
O O8 0.000000 0.242229 0.250000
O O9 0.933271 0.099294 0.078883
O O10 0.917551 0.321736 0.028767
O O11 0.000000 0.500000 0.000000
#
# Coordination Sequence:
#
# PCOD9309860 Si02
#       5
#     8   8   8   8   8
#     4  12  25  44  75 101 147 192 236 300 362 428
#     4  11  24  46  69 107 140 188 244 298 350 439
#     4  12  25  46  73 104 140 196 241 294 357 436
#     4  11  24  48  73 104 143 192 247 284 368 432
#     4  12  27  44  69 108 146 180 247 300 364 421
#
# _framework density 9.6696840000000002
#
# number of rings (size 3 to 8) (size 9 to 14) (size 15 to 20)
#    0.000    0.400    6.000    2.400    2.800    4.800 
#    0.000    0.000    0.000    0.000    0.000    0.000 
#    0.000    0.000    0.000    0.000    0.000    0.000 
#
# Total GULP energy -111436.537149 kJ/mol
# GULP energy per Si atom -5571.826857 kJ/mol
# Density = 0.964767 g / cm^3
# Si number density = 9.669684 Si / 1000 Ang^3
#
#
#
# Elastic Constant Matrix: (Units=GPa)
#
#
# Indices 1 2 3 4 5 6 
#
# 1 114.3212 51.2131 52.8958 0.0000 2.7691 0.0000
# 2 51.2131 151.4791 91.0981 0.0000 0.4919 0.0000
# 3 52.8958 91.0981 214.3434 0.0000 6.6261 0.0000
# 4 0.0000 0.0000 0.0000 58.2059 0.0000 6.0857
# 5 2.7691 0.4919 6.6261 0.0000 43.7826 0.0000
# 6 0.0000 0.0000 0.0000 6.0857 0.0000 41.1582
#
#
#
# Elastic Compliance Matrix: (Units=1/GPa)
#
#
# Indices 1 2 3 4 5 6 
#
# 1 0.010652 -0.002723 -0.001458 0.000000 -0.000422 0.000000
# 2 -0.002723 0.009574 -0.003415 0.000000 0.000581 0.000000
# 3 -0.001458 -0.003415 0.006503 0.000000 -0.000854 0.000000
# 4 0.000000 0.000000 0.000000 0.017450 0.000000 -0.002580
# 5 -0.000422 0.000581 -0.000854 0.000000 0.022989 0.000000
# 6 0.000000 0.000000 0.000000 -0.002580 0.000000 0.024678
#
#
# Mechanical properties :
#
#
# Convention : Reuss Voigt Hill
#
# Bulk Modulus (GPa) = 86.68122 96.72863 91.70492
# Shear Modulus (GPa) = 45.09166 47.62513 46.35840
#
# Velocity S-wave (km/s) = 4.83390 4.96784 4.90133
# Velocity P-wave (km/s) = 8.72204 9.11213 8.91922
#
# Compressibility (1/GPa) = 0.01153652
#
# Stress axis : x y z
#
# Youngs Moduli (GPa) = 93.87814 104.44894 153.77155
#
# Poissons Ratio (x) = 0.28440 0.22426
# Poissons Ratio (y) = 0.25562 0.52514
# Poissons Ratio (z) = 0.13691 0.35670
#
# Static dielectric constant tensor:
#      x y z
#    x 1.727990 0.000000 -0.014140 
#    y 0.000000 1.707050 0.000000 
#    z -0.014140 0.000000 1.697000 
# 
# From -- ./inp_files/152295.got.cif
#   From: 2010.05.17/outbox.ucp.g08.bks.cvg/sg15_77_cif.got.tgz:152295.got - 2010.06.11 12:40:34.
