data_PCOD9309820
_publ_section_title
;
Structure prediction by ZEFSAII (Michael W. Deem and Ramdas Pophale) SiO2 
 PCOD9309820
Probable space group: C 2/C
;
_chemical_formula_sum "Si O2"
_cell_formula_units_Z 32
_cell_length_a 9.000000
_cell_length_b 18.000000
_cell_length_c 30.000000
_cell_angle_alpha 90.000000
_cell_angle_beta 40.000000
_cell_angle_gamma 90.000000
_cell_volume 3123.947783
_symmetry_space_group_name_H-M "C 2/C"
_symmetry_group_IT_number 15
_symmetry_cell_setting 'monoclinic'
loop_
_space_group_symop_operation_xyz
x,y,z
-x,y,1/2-z
-x,-y,-z
x,-y,1/2+z
1/2+x,1/2+y,z
1/2-x,1/2+y,1/2-z
1/2-x,1/2-y,-z
1/2+x,1/2-y,1/2+z
loop_
_atom_site_type_symbol
_atom_site_label
_atom_site_fract_x
_atom_site_fract_y
_atom_site_fract_z
Si Si1 0.917133 0.771005 0.816413
Si Si2 0.332366 0.526716 0.668930
Si Si3 0.107497 0.316653 0.556355
Si Si4 0.307898 0.978510 0.007875
Si Si5 0.114710 0.365966 0.060604
Si Si6 0.032811 0.396857 0.306731
Si Si7 0.227114 0.853989 0.813779
Si Si8 0.071630 0.217805 0.439905
O O1 0.661949 0.798673 0.886112
O O2 0.935659 0.682209 0.812813
O O3 0.000000 0.799657 0.750000
O O4 0.102458 0.802042 0.807569
O O5 0.577818 0.537084 0.589299
O O6 0.146432 0.543372 0.672444
O O7 0.313870 0.440658 0.686553
O O8 0.266074 0.579210 0.726499
O O9 0.250000 0.250000 0.500000
O O10 0.147734 0.401163 0.529382
O O11 0.201188 0.303249 0.584588
O O12 0.500000 0.000000 0.000000
O O13 0.305541 0.054865 0.978928
O O14 0.976892 0.388135 0.137504
O O15 0.973035 0.305456 0.062182
O O16 0.346548 0.316689 0.016654
O O17 0.500000 0.840294 0.750000
O O18 0.104074 0.829177 0.887593
#
# Coordination Sequence:
#
# PCOD9309820 Si02
#       8
#     8   8   8   8   8   8   8   8
#     4  12  25  47  71 103 147 191 240 303 369 439
#     4  11  23  44  73  99 146 185 245 292 369 446
#     4  12  27  43  71 105 146 194 246 296 379 445
#     4  12  26  45  70 103 148 194 238 307 368 443
#     4  11  24  43  73 103 145 186 249 302 368 436
#     4  11  23  44  73 103 134 192 235 302 359 444
#     4  12  24  44  73 108 141 189 249 309 370 431
#     4  11  24  44  71 105 145 190 244 304 367 446
#
# _framework density 10.243449
#
# number of rings (size 3 to 8) (size 9 to 14) (size 15 to 20)
#    0.000    0.500    5.000    4.500    3.500    2.000 
#    2.250    0.625    0.000    0.000    0.000    0.000 
#    0.000    0.000    0.000    0.000    0.000    0.000 
#
# Total GULP energy -178633.446437 kJ/mol
# GULP energy per Si atom -5582.295201 kJ/mol
# Density = 1.022013 g / cm^3
# Si number density = 10.243449 Si / 1000 Ang^3
#
#
#
# Elastic Constant Matrix: (Units=GPa)
#
#
# Indices 1 2 3 4 5 6 
#
# 1 7.0903 -34.0376 13.0206 -0.0023 6.7974 -0.0034
# 2 -34.0376 93.0949 34.8128 0.0019 1.9124 -0.0026
# 3 13.0206 34.8128 146.4202 0.0117 -2.0988 0.0039
# 4 -0.0023 0.0019 0.0117 38.3650 -0.0030 22.2913
# 5 6.7974 1.9124 -2.0988 -0.0030 40.5161 -0.0014
# 6 -0.0034 -0.0026 0.0039 22.2913 -0.0014 102.0072
#
#
#
# Elastic Compliance Matrix: (Units=1/GPa)
#
#
# Indices 1 2 3 4 5 6 
#
# 1 -0.083865 -0.037191 0.016539 -0.000005 0.016682 -0.000003
# 2 -0.037191 -0.004682 0.004516 -0.000002 0.006695 -0.000001
# 3 0.016539 0.004516 0.004245 -0.000001 -0.002768 0.000001
# 4 -0.000005 -0.000002 -0.000001 0.029856 0.000003 -0.006524
# 5 0.016682 0.006695 -0.002768 0.000003 0.021423 0.000000
# 6 -0.000003 -0.000001 0.000001 -0.006524 0.000000 0.011229
#
#
# Mechanical properties :
#
#
# Convention : Reuss Voigt Hill
#
# Bulk Modulus (GPa) = -8.57839 30.46634 10.94398
# Shear Modulus (GPa) = -176.17041 51.69829 -62.23606
#
# Velocity S-wave (km/s) = -9.28323 5.02888 -5.51765
# Velocity P-wave (km/s) = 10.91334 6.97301 5.93625
#
# Compressibility (1/GPa) = -0.11657199
#
# Stress axis : x y z
#
# Youngs Moduli (GPa) = -11.92388 -213.56149 235.55166
#
# Poissons Ratio (x) = -7.94250 -3.89588
# Poissons Ratio (y) = -0.44346 -1.06387
# Poissons Ratio (z) = 0.19721 0.96455
#
# Static dielectric constant tensor:
#      x y z
#    x 1.691550 0.000000 -0.023060 
#    y 0.000000 1.693610 0.000000 
#    z -0.023060 0.000000 1.732070 
# 
# From -- ./inp_files/308771.got.cif
#   From: 2010.05.17/outbox.ucp.g08.bks.cvg/sg15_155_cif.got.tgz:308771.got - 2010.06.11 12:40:34.
