data_PCOD9309898
_publ_section_title
;
Structure prediction by ZEFSAII (Michael W. Deem and Ramdas Pophale) SiO2 
 PCOD9309898
Probable space group: C 2/C
;
_chemical_formula_sum "Si O2"
_cell_formula_units_Z 32
_cell_length_a 30.000000
_cell_length_b 9.000000
_cell_length_c 15.000000
_cell_angle_alpha 90.000000
_cell_angle_beta 130.000000
_cell_angle_gamma 90.000000
_cell_volume 3102.479995
_symmetry_space_group_name_H-M "C 2/C"
_symmetry_group_IT_number 15
_symmetry_cell_setting 'monoclinic'
loop_
_space_group_symop_operation_xyz
x,y,z
-x,y,1/2-z
-x,-y,-z
x,-y,1/2+z
1/2+x,1/2+y,z
1/2-x,1/2+y,1/2-z
1/2-x,1/2-y,-z
1/2+x,1/2-y,1/2+z
loop_
_atom_site_type_symbol
_atom_site_label
_atom_site_fract_x
_atom_site_fract_y
_atom_site_fract_z
Si Si1 0.077959 0.876288 0.210678
Si Si2 0.433262 0.682985 0.013192
Si Si3 0.345569 0.761753 0.545762
Si Si4 0.309015 0.229978 0.402920
Si Si5 0.935091 0.226266 0.323191
Si Si6 0.171792 0.417802 0.394187
Si Si7 0.749405 0.455398 0.665809
Si Si8 0.946701 0.831870 0.048964
O O1 0.078868 0.829831 0.108384
O O2 0.132090 0.815244 0.334715
O O3 0.014826 0.814483 0.160311
O O4 0.077489 0.054804 0.219583
O O5 0.379143 0.768276 0.985316
O O6 0.496825 0.753121 0.113461
O O7 0.435816 0.509594 0.044910
O O8 0.291918 0.669673 0.433897
O O9 0.400047 0.748769 0.549353
O O10 0.336157 0.932295 0.558204
O O11 0.297103 0.187377 0.491237
O O12 0.288213 0.398889 0.355752
O O13 0.280243 0.120663 0.291800
O O14 0.886869 0.335130 0.218332
O O15 0.935622 0.218582 0.432332
O O16 0.206740 0.475792 0.351877
#
# Coordination Sequence:
#
# PCOD9309898 Si02
#       8
#     8   8   8   8   8   8   8   8
#     4   9  19  39  70 100 131 171 226 275 330 408
#     4   9  19  42  69 102 128 177 223 273 339 399
#     4  12  23  43  65  99 135 180 222 277 338 405
#     4  12  26  47  71  96 132 182 232 278 340 404
#     4   9  21  41  70  99 137 173 218 284 335 404
#     4  12  28  44  66 104 139 179 226 282 349 400
#     4  12  28  47  70  97 136 182 234 287 329 403
#     4   9  19  39  69  98 132 175 223 269 336 404
#
# _framework density 10.314329000000001
#
# number of rings (size 3 to 8) (size 9 to 14) (size 15 to 20)
#    0.000    1.500    1.250    4.875    3.500    1.500 
#    4.500    1.875    0.000    0.000    0.000    0.000 
#    0.000    0.000    0.000    0.000    0.000    0.000 
#
# Total GULP energy -178809.817846 kJ/mol
# GULP energy per Si atom -5587.806808 kJ/mol
# Density = 1.029085 g / cm^3
# Si number density = 10.314329 Si / 1000 Ang^3
#
#
#
# Elastic Constant Matrix: (Units=GPa)
#
#
# Indices 1 2 3 4 5 6 
#
# 1 82.8207 25.4650 11.7247 0.0000 5.0565 0.0000
# 2 25.4650 89.3358 47.2281 0.0000 9.4307 0.0000
# 3 11.7247 47.2281 125.7507 0.0000 9.4620 0.0000
# 4 0.0000 0.0000 0.0000 47.1583 0.0000 -4.6943
# 5 5.0565 9.4307 9.4620 0.0000 25.2083 0.0000
# 6 0.0000 0.0000 0.0000 -4.6943 0.0000 9.2468
#
#
#
# Elastic Compliance Matrix: (Units=1/GPa)
#
#
# Indices 1 2 3 4 5 6 
#
# 1 0.013283 -0.003796 0.000289 0.000000 -0.001353 0.000000
# 2 -0.003796 0.015332 -0.005176 0.000000 -0.003032 0.000000
# 3 0.000289 -0.005176 0.010011 0.000000 -0.001879 0.000000
# 4 0.000000 0.000000 0.000000 0.022334 0.000000 0.011338
# 5 -0.001353 -0.003032 -0.001879 0.000000 0.041780 0.000000
# 6 0.000000 0.000000 0.000000 0.011338 0.000000 0.113901
#
#
# Mechanical properties :
#
#
# Convention : Reuss Voigt Hill
#
# Bulk Modulus (GPa) = 47.03858 51.86031 49.44945
# Shear Modulus (GPa) = 20.73871 30.55530 25.64700
#
# Velocity S-wave (km/s) = 3.17414 3.85282 3.52983
# Velocity P-wave (km/s) = 6.02375 6.70722 6.37465
#
# Compressibility (1/GPa) = 0.02125914
#
# Stress axis : x y z
#
# Youngs Moduli (GPa) = 75.28296 65.22133 99.89271
#
# Poissons Ratio (x) = 0.24761 -0.02888
# Poissons Ratio (y) = 0.28580 0.51708
# Poissons Ratio (z) = -0.02176 0.33761
#
# Static dielectric constant tensor:
#      x y z
#    x 1.790570 0.000000 -0.020630 
#    y 0.000000 1.727050 0.000000 
#    z -0.020630 0.000000 1.722680 
# 
# From -- ./inp_files/181161.got.cif
#   From: 2010.05.17/outbox.ucp.g08.bks.cvg/sg15_91_cif.got.tgz:181161.got - 2010.06.11 12:40:34.
