data_PCOD9309306
_publ_section_title
;
Structure prediction by ZEFSAII (Michael W. Deem and Ramdas Pophale) SiO2 
 PCOD9309306
Probable space group: C 2/C
;
_chemical_formula_sum "Si O2"
_cell_formula_units_Z 28
_cell_length_a 24.000000
_cell_length_b 15.000000
_cell_length_c 15.000000
_cell_angle_alpha 90.000000
_cell_angle_beta 30.000000
_cell_angle_gamma 90.000000
_cell_volume 2700.000000
_symmetry_space_group_name_H-M "C 2/C"
_symmetry_group_IT_number 15
_symmetry_cell_setting 'monoclinic'
loop_
_space_group_symop_operation_xyz
x,y,z
-x,y,1/2-z
-x,-y,-z
x,-y,1/2+z
1/2+x,1/2+y,z
1/2-x,1/2+y,1/2-z
1/2-x,1/2-y,-z
1/2+x,1/2-y,1/2+z
loop_
_atom_site_type_symbol
_atom_site_label
_atom_site_fract_x
_atom_site_fract_y
_atom_site_fract_z
Si Si1 0.194846 0.557411 0.789321
Si Si2 0.718607 0.784387 0.396104
Si Si3 0.620026 0.513406 0.112822
Si Si4 0.588833 0.307180 0.224971
Si Si5 0.278505 0.337155 0.901728
Si Si6 0.152784 0.356894 0.899237
Si Si7 0.048052 0.280398 0.430012
O O1 0.215933 0.623119 0.844393
O O2 0.301022 0.525634 0.583558
O O3 0.143750 0.461405 0.885998
O O4 0.118358 0.627583 0.840632
O O5 0.618103 0.750125 0.597064
O O6 0.812406 0.800814 0.340173
O O7 0.753216 0.701071 0.284391
O O8 0.500000 0.551201 0.250000
O O9 0.593047 0.412289 0.187039
O O10 0.683567 0.575253 0.097138
O O11 0.495974 0.254744 0.413017
O O12 0.181299 0.352820 0.964196
O O13 0.383624 0.302780 0.700614
O O14 0.250000 0.250000 0.000000
O O15 0.045229 0.305015 0.012950
#
# Coordination Sequence:
#
# PCOD9309306 Si02
#       7
#     8   8   8   8   8   8   8
#     4  12  24  47  70 107 147 184 239 298 362 427
#     4  10  21  44  72 100 144 186 233 298 357 417
#     4  12  28  43  73 107 146 187 243 292 358 434
#     4  10  24  44  71 104 140 188 243 294 355 417
#     4  12  26  47  69 102 147 190 235 297 369 427
#     4  11  24  46  73 100 143 191 233 300 361 424
#     4  11  26  44  76 103 143 188 242 297 361 430
#
# _framework density 10.370369999999999
#
# number of rings (size 3 to 8) (size 9 to 14) (size 15 to 20)
#    0.000    0.857    4.286    1.286   10.000    0.571 
#    0.000    1.429    0.000    0.000    0.000    0.000 
#    0.000    0.000    0.000    0.000    0.000    0.000 
#
# Total GULP energy -156031.381675 kJ/mol
# GULP energy per Si atom -5572.549346 kJ/mol
# Density = 1.034677 g / cm^3
# Si number density = 10.370370 Si / 1000 Ang^3
#
#
#
# Elastic Constant Matrix: (Units=GPa)
#
#
# Indices 1 2 3 4 5 6 
#
# 1 135.9481 11.4284 18.7093 0.0000 -1.4224 0.0000
# 2 11.4284 121.0417 10.2689 0.0000 10.6703 0.0000
# 3 18.7093 10.2689 59.2537 0.0000 3.1592 0.0000
# 4 0.0000 0.0000 0.0000 26.0653 0.0000 16.6876
# 5 -1.4224 10.6703 3.1592 0.0000 29.5592 0.0000
# 6 0.0000 0.0000 0.0000 16.6876 0.0000 16.5605
#
#
#
# Elastic Compliance Matrix: (Units=1/GPa)
#
#
# Indices 1 2 3 4 5 6 
#
# 1 0.007744 -0.000603 -0.002386 0.000000 0.000845 0.000000
# 2 -0.000603 0.008684 -0.001152 0.000000 -0.003041 0.000000
# 3 -0.002386 -0.001152 0.017916 0.000000 -0.001614 0.000000
# 4 0.000000 0.000000 0.000000 0.108114 0.000000 -0.108944
# 5 0.000845 -0.003041 -0.001614 0.000000 0.035141 0.000000
# 6 0.000000 0.000000 0.000000 -0.108944 0.000000 0.170165
#
#
# Mechanical properties :
#
#
# Convention : Reuss Voigt Hill
#
# Bulk Modulus (GPa) = 38.37144 44.11741 41.24443
# Shear Modulus (GPa) = 13.70864 32.82612 23.26738
#
# Velocity S-wave (km/s) = 2.57369 3.98262 3.35299
# Velocity P-wave (km/s) = 5.23187 6.51655 5.90923
#
# Compressibility (1/GPa) = 0.02606105
#
# Stress axis : x y z
#
# Youngs Moduli (GPa) = 129.13873 115.14896 55.81736
#
# Poissons Ratio (x) = 0.06947 0.13316
# Poissons Ratio (y) = 0.07790 0.06433
# Poissons Ratio (z) = 0.30807 0.13270
#
# Static dielectric constant tensor:
#      x y z
#    x 1.806440 0.000000 -0.024630 
#    y 0.000000 1.671970 0.000000 
#    z -0.024630 0.000000 1.826810 
# 
# From -- ./inp_files/173805.got.cif
#   From: 2010.05.17/outbox.ucp.g08.bks.cvg/sg15_87_cif.got.tgz:173805.got - 2010.06.11 12:40:34.
