data_PCOD9309493
_publ_section_title
;
Structure prediction by ZEFSAII (Michael W. Deem and Ramdas Pophale) SiO2 
 PCOD9309493
Probable space group: C 2/C
;
_chemical_formula_sum "Si O2"
_cell_formula_units_Z 30
_cell_length_a 27.000000
_cell_length_b 21.000000
_cell_length_c 6.000000
_cell_angle_alpha 90.000000
_cell_angle_beta 60.000000
_cell_angle_gamma 90.000000
_cell_volume 2946.218424
_symmetry_space_group_name_H-M "C 2/C"
_symmetry_group_IT_number 15
_symmetry_cell_setting 'monoclinic'
loop_
_space_group_symop_operation_xyz
x,y,z
-x,y,1/2-z
-x,-y,-z
x,-y,1/2+z
1/2+x,1/2+y,z
1/2-x,1/2+y,1/2-z
1/2-x,1/2-y,-z
1/2+x,1/2-y,1/2+z
loop_
_atom_site_type_symbol
_atom_site_label
_atom_site_fract_x
_atom_site_fract_y
_atom_site_fract_z
Si Si1 0.809733 0.740655 0.728834
Si Si2 0.141149 0.032295 0.658255
Si Si3 0.894172 0.175703 0.759453
Si Si4 0.000000 0.755497 0.250000
Si Si5 0.413590 0.226430 0.832994
Si Si6 0.859252 0.363783 0.813408
Si Si7 0.432081 0.966602 0.886806
Si Si8 0.277575 0.968751 0.841646
O O1 0.836703 0.798188 0.516778
O O2 0.858065 0.724577 0.801652
O O3 0.814810 0.682652 0.541317
O O4 0.750000 0.750000 0.000000
O O5 0.109898 0.100170 0.739354
O O6 0.209737 0.043549 0.499800
O O7 0.129263 0.001542 0.432599
O O8 0.905916 0.207685 0.490706
O O9 0.947809 0.202122 0.778515
O O10 0.969040 0.722219 0.540293
O O11 0.403525 0.173814 0.051463
O O12 0.895054 0.403617 0.917496
O O13 0.820322 0.409473 0.751778
O O14 0.500000 0.954022 0.750000
O O15 0.421164 0.004763 0.667149
O O16 0.288038 0.000740 0.570825
#
# Coordination Sequence:
#
# PCOD9309493 Si02
#       8
#     8   8   8   4   8   8   8   8
#     4  10  25  40  65 102 139 179 227 283 347 415
#     4  10  24  42  69 106 140 180 231 273 344 421
#     4  10  23  44  70  95 139 185 218 294 344 413
#     4  10  22  48  68  96 134 182 230 284 362 400
#     4  10  24  43  67  99 133 181 229 287 350 409
#     4  11  24  40  67 102 133 183 235 283 340 421
#     4  10  23  45  68  96 136 183 233 296 349 394
#     4  10  23  40  66 101 142 186 223 285 343 408
#
# _framework density 10.182544
#
# number of rings (size 3 to 8) (size 9 to 14) (size 15 to 20)
#    0.000    1.867    0.000    1.200   11.200    2.133 
#   13.200    0.667    0.000    0.000    0.000    0.000 
#    0.000    0.000    0.000    0.000    0.000    0.000 
#
# Total GULP energy -167055.587064 kJ/mol
# GULP energy per Si atom -5568.519569 kJ/mol
# Density = 1.015937 g / cm^3
# Si number density = 10.182544 Si / 1000 Ang^3
#
#
#
# Elastic Constant Matrix: (Units=GPa)
#
#
# Indices 1 2 3 4 5 6 
#
# 1 69.8166 31.8950 45.2632 0.0000 3.1001 0.0000
# 2 31.8950 84.6793 43.8626 0.0000 0.7009 0.0000
# 3 45.2632 43.8626 170.9579 0.0000 -5.9535 0.0000
# 4 0.0000 0.0000 0.0000 24.7559 0.0000 2.0433
# 5 3.1001 0.7009 -5.9535 0.0000 45.9488 0.0000
# 6 0.0000 0.0000 0.0000 2.0433 0.0000 26.5402
#
#
#
# Elastic Compliance Matrix: (Units=1/GPa)
#
#
# Indices 1 2 3 4 5 6 
#
# 1 0.019279 -0.005273 -0.003811 0.000000 -0.001714 0.000000
# 2 -0.005273 0.015082 -0.002480 0.000000 -0.000196 0.000000
# 3 -0.003811 -0.002480 0.007539 0.000000 0.001272 0.000000
# 4 0.000000 0.000000 0.000000 0.040653 0.000000 -0.003130
# 5 -0.001714 -0.000196 0.001272 0.000000 0.022047 0.000000
# 6 0.000000 0.000000 0.000000 -0.003130 0.000000 0.037920
#
#
# Mechanical properties :
#
#
# Convention : Reuss Voigt Hill
#
# Bulk Modulus (GPa) = 53.27417 63.05505 58.16461
# Shear Modulus (GPa) = 29.08573 33.07783 31.08178
#
# Velocity S-wave (km/s) = 3.78327 4.03456 3.91094
# Velocity P-wave (km/s) = 6.73057 7.26176 7.00120
#
# Compressibility (1/GPa) = 0.01877082
#
# Stress axis : x y z
#
# Youngs Moduli (GPa) = 51.86926 66.30510 132.64262
#
# Poissons Ratio (x) = 0.34965 0.50552
# Poissons Ratio (y) = 0.27352 0.32897
# Poissons Ratio (z) = 0.19768 0.16445
#
# Static dielectric constant tensor:
#      x y z
#    x 1.737540 0.000000 0.032000 
#    y 0.000000 1.780720 0.000000 
#    z 0.032000 0.000000 1.766360 
# 
# From -- ./inp_files/17514.got.cif
#   From: 2010.05.17/outbox.ucp.g08.bks.cvg/sg15_9_cif.got.tgz:17514.got - 2010.06.11 12:40:34.
