data_PCOD9309627
_publ_section_title
;
Structure prediction by ZEFSAII (Michael W. Deem and Ramdas Pophale) SiO2 
 PCOD9309627
Probable space group: C 2/C
;
_chemical_formula_sum "Si O2"
_cell_formula_units_Z 22
_cell_length_a 27.000000
_cell_length_b 12.000000
_cell_length_c 9.000000
_cell_angle_alpha 90.000000
_cell_angle_beta 130.000000
_cell_angle_gamma 90.000000
_cell_volume 2233.785596
_symmetry_space_group_name_H-M "C 2/C"
_symmetry_group_IT_number 15
_symmetry_cell_setting 'monoclinic'
loop_
_space_group_symop_operation_xyz
x,y,z
-x,y,1/2-z
-x,-y,-z
x,-y,1/2+z
1/2+x,1/2+y,z
1/2-x,1/2+y,1/2-z
1/2-x,1/2-y,-z
1/2+x,1/2-y,1/2+z
loop_
_atom_site_type_symbol
_atom_site_label
_atom_site_fract_x
_atom_site_fract_y
_atom_site_fract_z
Si Si1 0.500000 0.347391 0.750000
Si Si2 0.831005 0.351859 0.872343
Si Si3 0.321293 0.587127 0.385669
Si Si4 0.128085 0.880012 0.184080
Si Si5 0.052759 0.468413 0.977758
Si Si6 0.890700 0.750633 0.773412
O O1 0.444291 0.396156 0.528650
O O2 0.450415 0.292041 0.779095
O O3 0.754822 0.387428 0.722043
O O4 0.848343 0.246863 0.799606
O O5 0.887489 0.445277 0.944460
O O6 0.842236 0.303944 0.059980
O O7 0.327783 0.463742 0.328171
O O8 0.361532 0.595530 0.619646
O O9 0.354860 0.663694 0.318840
O O10 0.083584 0.350634 0.078229
O O11 0.000000 0.456119 0.750000
O O12 0.000000 0.500000 0.000000
#
# Coordination Sequence:
#
# PCOD9309627 Si02
#       6
#     4   8   8   8   8   8
#     4  10  24  50  68 100 142 182 232 296 342 412
#     4  11  26  46  72  97 149 179 233 291 339 423
#     4  12  28  44  72 105 135 191 232 285 356 414
#     4  11  26  46  71  99 140 180 237 286 347 418
#     4  12  25  43  71 106 138 181 228 288 354 408
#     4  11  25  44  74 101 142 182 232 288 350 418
#
# _framework density 9.8487519999999993
#
# number of rings (size 3 to 8) (size 9 to 14) (size 15 to 20)
#    0.000    0.727    1.818    5.455   11.455    2.909 
#    0.000    0.000    0.000    0.000    0.000    0.000 
#    0.000    0.000    0.000    0.000    0.000    0.000 
#
# Total GULP energy -122497.054084 kJ/mol
# GULP energy per Si atom -5568.047913 kJ/mol
# Density = 0.982634 g / cm^3
# Si number density = 9.848752 Si / 1000 Ang^3
#
#
#
# Elastic Constant Matrix: (Units=GPa)
#
#
# Indices 1 2 3 4 5 6 
#
# 1 98.0354 19.6161 41.3719 0.0000 8.7420 0.0000
# 2 19.6161 72.7304 17.8150 0.0000 5.7300 0.0000
# 3 41.3719 17.8150 150.5225 0.0000 -9.8932 0.0000
# 4 0.0000 0.0000 0.0000 31.2739 0.0000 -1.5826
# 5 8.7420 5.7300 -9.8932 0.0000 52.7775 0.0000
# 6 0.0000 0.0000 0.0000 -1.5826 0.0000 40.0370
#
#
#
# Elastic Compliance Matrix: (Units=1/GPa)
#
#
# Indices 1 2 3 4 5 6 
#
# 1 0.012248 -0.002320 -0.003249 0.000000 -0.002386 0.000000
# 2 -0.002320 0.014785 -0.001207 0.000000 -0.001447 0.000000
# 3 -0.003249 -0.001207 0.007820 0.000000 0.002135 0.000000
# 4 0.000000 0.000000 0.000000 0.032040 0.000000 0.001267
# 5 -0.002386 -0.001447 0.002135 0.000000 0.019900 0.000000
# 6 0.000000 0.000000 0.000000 0.001267 0.000000 0.025027
#
#
# Mechanical properties :
#
#
# Convention : Reuss Voigt Hill
#
# Bulk Modulus (GPa) = 46.94606 53.21049 50.07828
# Shear Modulus (GPa) = 37.74392 40.98336 39.36364
#
# Velocity S-wave (km/s) = 4.38217 4.56635 4.47521
# Velocity P-wave (km/s) = 7.03490 7.40773 7.22372
#
# Compressibility (1/GPa) = 0.02130104
#
# Stress axis : x y z
#
# Youngs Moduli (GPa) = 81.64366 67.63689 127.88222
#
# Poissons Ratio (x) = 0.15690 0.41546
# Poissons Ratio (y) = 0.18939 0.15440
# Poissons Ratio (z) = 0.26524 0.08166
#
# Static dielectric constant tensor:
#      x y z
#    x 1.709000 0.000000 -0.048000 
#    y 0.000000 1.732340 0.000000 
#    z -0.048000 0.000000 1.784210 
# 
# From -- ./inp_files/65659.got.cif
#   From: 2010.05.17/outbox.ucp.g08.bks.cvg/sg15_33_cif.got.tgz:65659.got - 2010.06.11 12:40:34.
