data_PCOD9309522
_publ_section_title
;
Structure prediction by ZEFSAII (Michael W. Deem and Ramdas Pophale) SiO2 
 PCOD9309522
Probable space group: C 2/C
;
_chemical_formula_sum "Si O2"
_cell_formula_units_Z 32
_cell_length_a 18.000000
_cell_length_b 21.000000
_cell_length_c 18.000000
_cell_angle_alpha 90.000000
_cell_angle_beta 30.000000
_cell_angle_gamma 90.000000
_cell_volume 3402.000000
_symmetry_space_group_name_H-M "C 2/C"
_symmetry_group_IT_number 15
_symmetry_cell_setting 'monoclinic'
loop_
_space_group_symop_operation_xyz
x,y,z
-x,y,1/2-z
-x,-y,-z
x,-y,1/2+z
1/2+x,1/2+y,z
1/2-x,1/2+y,1/2-z
1/2-x,1/2-y,-z
1/2+x,1/2-y,1/2+z
loop_
_atom_site_type_symbol
_atom_site_label
_atom_site_fract_x
_atom_site_fract_y
_atom_site_fract_z
Si Si1 0.288913 0.990658 0.602042
Si Si2 0.350551 0.747976 0.841098
Si Si3 0.978465 0.078525 0.356324
Si Si4 0.829446 0.497050 0.396532
Si Si5 0.470997 0.092118 0.531349
Si Si6 0.317284 0.115523 0.293730
Si Si7 0.555211 0.668330 0.427284
Si Si8 0.752830 0.293407 0.227427
O O1 0.304560 0.016110 0.504430
O O2 0.409390 0.933654 0.512035
O O3 0.117070 0.968997 0.755966
O O4 0.347328 0.040048 0.613434
O O5 0.500000 0.722849 0.750000
O O6 0.362808 0.819371 0.796599
O O7 0.283113 0.709071 0.830167
O O8 0.250000 0.750000 0.000000
O O9 0.811761 0.047923 0.503658
O O10 0.000000 0.096789 0.250000
O O11 0.005313 0.133529 0.394503
O O12 0.825534 0.556866 0.343745
O O13 0.000000 0.470444 0.250000
O O14 0.569213 0.105427 0.372757
O O15 0.375510 0.152905 0.637266
O O16 0.153070 0.123895 0.398693
O O17 0.404960 0.693495 0.596746
O O18 0.670467 0.726800 0.315892
#
# Coordination Sequence:
#
# PCOD9309522 Si02
#       8
#     8   8   8   8   8   8   8   8
#     4  10  23  41  63  95 130 176 211 270 330 385
#     4  11  22  38  58  90 134 174 208 259 316 378
#     4  10  24  45  68  93 136 166 215 277 336 390
#     4  11  23  39  64  99 130 169 214 266 328 392
#     4  11  22  41  67  93 129 175 222 264 327 388
#     4  11  22  39  65  94 133 173 216 263 321 396
#     4  11  24  45  67  96 128 173 217 277 326 390
#     4  11  25  41  66  97 126 174 225 271 323 389
#
# _framework density 9.4062319999999993
#
# number of rings (size 3 to 8) (size 9 to 14) (size 15 to 20)
#    0.000    1.250    2.500    4.125    5.250    0.500 
#    0.000    0.625    0.000    0.000    0.000    0.000 
#    0.000    0.000    0.000    0.000    0.000    0.000 
#
# Total GULP energy -178567.659422 kJ/mol
# GULP energy per Si atom -5580.239357 kJ/mol
# Density = 0.938482 g / cm^3
# Si number density = 9.406232 Si / 1000 Ang^3
#
#
#
# Elastic Constant Matrix: (Units=GPa)
#
#
# Indices 1 2 3 4 5 6 
#
# 1 113.5149 33.8493 25.6732 -0.0011 -23.7262 -0.0008
# 2 33.8493 57.1437 23.7168 0.0031 -9.5505 -0.0019
# 3 25.6732 23.7168 116.2600 0.0048 -19.3743 -0.0027
# 4 -0.0011 0.0031 0.0048 27.5549 -0.0063 -1.1075
# 5 -23.7262 -9.5505 -19.3743 -0.0063 44.6439 0.0017
# 6 -0.0008 -0.0019 -0.0027 -1.1075 0.0017 33.0578
#
#
#
# Elastic Compliance Matrix: (Units=1/GPa)
#
#
# Indices 1 2 3 4 5 6 
#
# 1 0.011680 -0.005887 -0.000597 0.000002 0.004689 0.000000
# 2 -0.005887 0.022367 -0.003220 -0.000002 0.000259 0.000001
# 3 -0.000597 -0.003220 0.009941 -0.000001 0.003308 0.000000
# 4 0.000002 -0.000002 -0.000001 0.036340 0.000006 0.001217
# 5 0.004689 0.000259 0.003308 0.000006 0.026383 -0.000001
# 6 0.000000 0.000001 0.000000 0.001217 -0.000001 0.030291
#
#
# Mechanical properties :
#
#
# Convention : Reuss Voigt Hill
#
# Bulk Modulus (GPa) = 40.68270 50.37747 45.53009
# Shear Modulus (GPa) = 30.37625 34.62994 32.50309
#
# Velocity S-wave (km/s) = 4.02268 4.29511 4.16112
# Velocity P-wave (km/s) = 6.57634 7.17176 6.88049
#
# Compressibility (1/GPa) = 0.02458047
#
# Stress axis : x y z
#
# Youngs Moduli (GPa) = 85.61635 44.70957 100.59041
#
# Poissons Ratio (x) = 0.26322 0.06004
# Poissons Ratio (y) = 0.50405 0.32386
# Poissons Ratio (z) = 0.05110 0.14394
#
# Static dielectric constant tensor:
#      x y z
#    x 1.635620 0.000000 0.026910 
#    y 0.000000 1.740710 0.000010 
#    z 0.026910 0.000010 1.688630 
# 
# From -- ./inp_files/211957.got.cif
#   From: 2010.05.17/outbox.ucp.g08.bks.cvg/sg15_106_cif.got.tgz:211957.got - 2010.06.11 12:40:34.
