data_PCOD9309145
_publ_section_title
;
Structure prediction by ZEFSAII (Michael W. Deem and Ramdas Pophale) SiO2 
 PCOD9309145
Probable space group: C 2/C
;
_chemical_formula_sum "Si O2"
_cell_formula_units_Z 26
_cell_length_a 9.000000
_cell_length_b 15.000000
_cell_length_c 30.000000
_cell_angle_alpha 90.000000
_cell_angle_beta 40.000000
_cell_angle_gamma 90.000000
_cell_volume 2603.289819
_symmetry_space_group_name_H-M "C 2/C"
_symmetry_group_IT_number 15
_symmetry_cell_setting 'monoclinic'
loop_
_space_group_symop_operation_xyz
x,y,z
-x,y,1/2-z
-x,-y,-z
x,-y,1/2+z
1/2+x,1/2+y,z
1/2-x,1/2+y,1/2-z
1/2-x,1/2-y,-z
1/2+x,1/2-y,1/2+z
loop_
_atom_site_type_symbol
_atom_site_label
_atom_site_fract_x
_atom_site_fract_y
_atom_site_fract_z
Si Si1 0.291896 0.415618 0.001180
Si Si2 0.128333 0.098913 0.120576
Si Si3 0.297132 0.942734 0.133559
Si Si4 0.203018 0.030999 0.756255
Si Si5 0.668462 0.625610 0.484952
Si Si6 0.000000 0.648448 0.750000
Si Si7 0.896139 0.254963 0.612013
O O1 0.365779 0.399763 0.933591
O O2 0.481076 0.370154 0.988835
O O3 0.298067 0.521786 0.010685
O O4 0.027813 0.386295 0.073159
O O5 0.225875 0.190244 0.118081
O O6 0.306540 0.021983 0.095450
O O7 0.891925 0.059018 0.197457
O O8 0.278400 0.982620 0.187845
O O9 0.033189 0.908126 0.187859
O O10 0.409649 0.082404 0.732312
O O11 0.547376 0.678079 0.553492
O O12 0.908538 0.674388 0.417334
O O13 0.781386 0.708762 0.813495
#
# Coordination Sequence:
#
# PCOD9309145 Si02
#       7
#     8   8   8   8   8   4   8
#     4  11  20  38  67  90 119 164 216 243 297 375
#     4  10  21  37  62  91 116 162 200 256 305 365
#     4   9  19  36  63  87 113 156 208 255 289 361
#     4   9  21  39  60  87 116 160 213 249 296 374
#     4  10  23  39  60  94 126 158 202 260 304 369
#     4  12  24  40  64  90 118 168 206 258 308 378
#     4  11  24  39  59  91 130 160 196 258 333 350
#
# _framework density 9.9873630000000002
#
# number of rings (size 3 to 8) (size 9 to 14) (size 15 to 20)
#    0.923    0.923    1.538    2.308    2.154    3.077 
#    0.000    3.077    0.000    0.000    0.000    0.000 
#    0.000    0.000    0.000    0.000    0.000    0.000 
#
# Total GULP energy -144817.725867 kJ/mol
# GULP energy per Si atom -5569.912533 kJ/mol
# Density = 0.996463 g / cm^3
# Si number density = 9.987363 Si / 1000 Ang^3
#
#
#
# Elastic Constant Matrix: (Units=GPa)
#
#
# Indices 1 2 3 4 5 6 
#
# 1 51.2271 5.0470 -5.4798 -0.0005 4.3346 -0.0001
# 2 5.0470 25.3245 0.0331 -0.0004 -15.9438 0.0002
# 3 -5.4798 0.0331 66.9454 -0.0008 -2.9195 0.0012
# 4 -0.0005 -0.0004 -0.0008 15.0390 0.0012 -0.1113
# 5 4.3346 -15.9438 -2.9195 0.0012 21.8835 -0.0008
# 6 -0.0001 0.0002 0.0012 -0.1113 -0.0008 15.8057
#
#
#
# Elastic Compliance Matrix: (Units=1/GPa)
#
#
# Indices 1 2 3 4 5 6 
#
# 1 0.022096 -0.013040 0.001217 0.000001 -0.013715 -0.000001
# 2 -0.013040 0.080996 0.001588 -0.000003 0.061807 0.000002
# 3 0.001217 0.001588 0.015165 0.000001 0.002939 -0.000001
# 4 0.000001 -0.000003 0.000001 0.066497 -0.000006 0.000468
# 5 -0.013715 0.061807 0.002939 -0.000006 0.093836 0.000004
# 6 -0.000001 0.000002 -0.000001 0.000468 0.000004 0.063272
#
#
# Mechanical properties :
#
#
# Convention : Reuss Voigt Hill
#
# Bulk Modulus (GPa) = 10.22625 15.85529 13.04077
# Shear Modulus (GPa) = 12.66052 20.13874 16.39963
#
# Velocity S-wave (km/s) = 2.52032 3.17868 2.86845
# Velocity P-wave (km/s) = 3.68783 4.62892 4.18491
#
# Compressibility (1/GPa) = 0.09778755
#
# Stress axis : x y z
#
# Youngs Moduli (GPa) = 45.25637 12.34621 65.94325
#
# Poissons Ratio (x) = 0.16099 -0.08025
# Poissons Ratio (y) = 0.59014 -0.10472
# Poissons Ratio (z) = -0.05508 -0.01961
#
# Static dielectric constant tensor:
#      x y z
#    x 1.751190 0.000000 -0.012600 
#    y 0.000000 1.702670 0.000000 
#    z -0.012600 0.000000 1.687670 
# 
# From -- ./inp_files/308202.got.cif
#   From: 2010.05.17/outbox.ucp.g08.bks.cvg/sg15_155_cif.got.tgz:308202.got - 2010.06.11 12:40:34.
