data_PCOD9309108
_publ_section_title
;
Structure prediction by ZEFSAII (Michael W. Deem and Ramdas Pophale) SiO2 
 PCOD9309108
Probable space group: C 2/C
;
_chemical_formula_sum "Si O2"
_cell_formula_units_Z 32
_cell_length_a 12.000000
_cell_length_b 12.000000
_cell_length_c 24.000000
_cell_angle_alpha 90.000000
_cell_angle_beta 70.000000
_cell_angle_gamma 90.000000
_cell_volume 3247.577697
_symmetry_space_group_name_H-M "C 2/C"
_symmetry_group_IT_number 15
_symmetry_cell_setting 'monoclinic'
loop_
_space_group_symop_operation_xyz
x,y,z
-x,y,1/2-z
-x,-y,-z
x,-y,1/2+z
1/2+x,1/2+y,z
1/2-x,1/2+y,1/2-z
1/2-x,1/2-y,-z
1/2+x,1/2-y,1/2+z
loop_
_atom_site_type_symbol
_atom_site_label
_atom_site_fract_x
_atom_site_fract_y
_atom_site_fract_z
Si Si1 0.615419 0.485613 0.197733
Si Si2 0.622165 0.063757 0.664081
Si Si3 0.832067 0.773727 0.765704
Si Si4 0.874934 0.376936 0.159447
Si Si5 0.865332 0.666008 0.278857
Si Si6 0.341354 0.500890 0.554529
Si Si7 0.236550 0.253409 0.411337
Si Si8 0.909990 0.064643 0.928654
O O1 0.500000 0.438466 0.250000
O O2 0.623337 0.612847 0.215865
O O3 0.745679 0.434805 0.191395
O O4 0.593656 0.476080 0.134887
O O5 0.644714 0.175955 0.694715
O O6 0.492228 0.055495 0.657524
O O7 0.642250 0.964710 0.705106
O O8 0.722697 0.051093 0.600486
O O9 0.887393 0.730968 0.697784
O O10 0.699955 0.798519 0.766334
O O11 0.862997 0.337037 0.097253
O O12 0.813391 0.723735 0.343051
O O13 0.000000 0.694584 0.250000
O O14 0.325821 0.364794 0.563066
O O15 0.453996 0.555504 0.569160
O O16 0.349826 0.513239 0.486229
O O17 0.328870 0.320184 0.436362
#
# Coordination Sequence:
#
# PCOD9309108 Si02
#       8
#     8   8   8   8   8   8   8   8
#     4  11  24  38  64  90 126 159 206 260 308 377
#     4  11  22  38  59  84 123 162 204 248 317 371
#     4  11  22  34  58  87 123 166 194 246 316 374
#     4  10  22  39  57  92 123 160 200 252 315 379
#     4  10  21  35  56  90 126 157 202 252 306 376
#     4  10  23  42  67  85 124 167 210 264 314 370
#     4   9  21  38  66  87 120 164 208 255 320 374
#     4  10  23  42  64  93 119 160 221 258 307 386
#
# _framework density 9.8534980000000001
#
# number of rings (size 3 to 8) (size 9 to 14) (size 15 to 20)
#    0.000    1.750    0.000    3.750   10.500    3.500 
#    0.000    3.125    0.000    0.000    0.000    0.000 
#    0.000    0.000    0.000    0.000    0.000    0.000 
#
# Total GULP energy -178178.193742 kJ/mol
# GULP energy per Si atom -5568.068554 kJ/mol
# Density = 0.983107 g / cm^3
# Si number density = 9.853498 Si / 1000 Ang^3
#
#
#
# Elastic Constant Matrix: (Units=GPa)
#
#
# Indices 1 2 3 4 5 6 
#
# 1 148.9890 28.0097 38.2597 0.0000 6.0331 0.0000
# 2 28.0097 89.7994 -2.4964 0.0000 7.4930 0.0000
# 3 38.2597 -2.4964 84.3346 0.0000 10.4540 0.0000
# 4 0.0000 0.0000 0.0000 12.3297 0.0000 6.5894
# 5 6.0331 7.4930 10.4540 0.0000 28.5067 0.0000
# 6 0.0000 0.0000 0.0000 6.5894 0.0000 30.8498
#
#
#
# Elastic Compliance Matrix: (Units=1/GPa)
#
#
# Indices 1 2 3 4 5 6 
#
# 1 0.008189 -0.002693 -0.003843 0.000000 0.000384 0.000000
# 2 -0.002693 0.012316 0.002008 0.000000 -0.003404 0.000000
# 3 -0.003843 0.002008 0.014274 0.000000 -0.004949 0.000000
# 4 0.000000 0.000000 0.000000 0.091556 0.000000 -0.019556
# 5 0.000384 -0.003404 -0.004949 0.000000 0.037708 0.000000
# 6 0.000000 0.000000 0.000000 -0.019556 0.000000 0.036592
#
#
# Mechanical properties :
#
#
# Convention : Reuss Voigt Hill
#
# Bulk Modulus (GPa) = 38.87423 50.07434 44.47429
# Shear Modulus (GPa) = 22.90796 31.62724 27.26760
#
# Velocity S-wave (km/s) = 3.41314 4.01043 3.72378
# Velocity P-wave (km/s) = 5.94152 6.84904 6.41136
#
# Compressibility (1/GPa) = 0.02572398
#
# Stress axis : x y z
#
# Youngs Moduli (GPa) = 122.10834 81.19619 70.05879
#
# Poissons Ratio (x) = 0.21868 0.26921
# Poissons Ratio (y) = 0.32887 -0.14070
# Poissons Ratio (z) = 0.46921 -0.16307
#
# Static dielectric constant tensor:
#      x y z
#    x 1.744290 0.000000 -0.034860 
#    y 0.000000 1.788430 0.000000 
#    z -0.034860 0.000000 1.707070 
# 
# From -- ./inp_files/269257.got.cif
#   From: 2010.05.17/outbox.ucp.g08.bks.cvg/sg15_135_cif.got.tgz:269257.got - 2010.06.11 12:40:34.
