data_PCOD9309425
_publ_section_title
;
Structure prediction by ZEFSAII (Michael W. Deem and Ramdas Pophale) SiO2 
 PCOD9309425
Probable space group: C 2/C
;
_chemical_formula_sum "Si O2"
_cell_formula_units_Z 30
_cell_length_a 27.000000
_cell_length_b 9.000000
_cell_length_c 12.000000
_cell_angle_alpha 90.000000
_cell_angle_beta 90.000000
_cell_angle_gamma 90.000000
_cell_volume 2916.000000
_symmetry_space_group_name_H-M "C 2/C"
_symmetry_group_IT_number 15
_symmetry_cell_setting 'monoclinic'
loop_
_space_group_symop_operation_xyz
x,y,z
-x,y,1/2-z
-x,-y,-z
x,-y,1/2+z
1/2+x,1/2+y,z
1/2-x,1/2+y,1/2-z
1/2-x,1/2-y,-z
1/2+x,1/2-y,1/2+z
loop_
_atom_site_type_symbol
_atom_site_label
_atom_site_fract_x
_atom_site_fract_y
_atom_site_fract_z
Si Si1 0.451614 0.439198 0.435289
Si Si2 0.622949 0.715865 0.121066
Si Si3 0.119403 0.692640 0.020897
Si Si4 0.000000 0.716817 0.250000
Si Si5 0.839117 0.597495 0.088753
Si Si6 0.590112 0.978504 0.725894
Si Si7 0.222348 0.232291 0.616643
Si Si8 0.234163 0.100883 0.180926
O O1 0.500000 0.500000 0.500000
O O2 0.415599 0.576537 0.394300
O O3 0.416844 0.328524 0.510619
O O4 0.473815 0.331502 0.337443
O O5 0.600340 0.844964 0.204061
O O6 0.678820 0.666125 0.159675
O O7 0.634318 0.796310 0.001652
O O8 0.087878 0.586163 0.101448
O O9 0.164445 0.761808 0.089910
O O10 0.147648 0.574337 0.942589
O O11 0.042700 0.597102 0.287179
O O12 0.864052 0.598297 0.210079
O O13 0.780746 0.636341 0.097544
O O14 0.250000 0.250000 0.500000
O O15 0.245367 0.352582 0.699064
O O16 0.231418 0.075346 0.673632
#
# Coordination Sequence:
#
# PCOD9309425 Si02
#       8
#     8   8   8   4   8   8   8   8
#     4  11  24  46  66  97 131 171 226 288 348 394
#     4  11  25  40  66 102 133 173 235 282 333 420
#     4  10  22  42  63  94 136 170 223 279 337 406
#     4  10  24  44  70  88 130 174 220 290 344 400
#     4  11  22  40  67  93 136 180 221 270 344 414
#     4  10  22  44  64  95 127 176 225 277 340 410
#     4  12  25  44  67 102 142 184 230 281 337 416
#     4  12  25  42  67 100 142 187 225 275 344 408
#
# _framework density 10.288066000000001
#
# number of rings (size 3 to 8) (size 9 to 14) (size 15 to 20)
#    0.000    1.067    4.000    2.000    1.867    3.733 
#    0.000    4.000    0.000    0.000    0.000    0.000 
#    0.000    0.000    0.000    0.000    0.000    0.000 
#
# Total GULP energy -167069.683412 kJ/mol
# GULP energy per Si atom -5568.989447 kJ/mol
# Density = 1.026465 g / cm^3
# Si number density = 10.288066 Si / 1000 Ang^3
#
#
#
# Elastic Constant Matrix: (Units=GPa)
#
#
# Indices 1 2 3 4 5 6 
#
# 1 162.1555 64.7030 28.8477 0.0000 5.2995 0.0000
# 2 64.7030 115.1061 36.3888 0.0000 -7.3666 0.0000
# 3 28.8477 36.3888 64.1235 0.0000 -5.8529 0.0000
# 4 0.0000 0.0000 0.0000 35.0658 0.0000 -2.2070
# 5 5.2995 -7.3666 -5.8529 0.0000 28.2840 0.0000
# 6 0.0000 0.0000 0.0000 -2.2070 0.0000 53.1248
#
#
#
# Elastic Compliance Matrix: (Units=1/GPa)
#
#
# Indices 1 2 3 4 5 6 
#
# 1 0.008277 -0.004364 -0.001521 0.000000 -0.003002 0.000000
# 2 -0.004364 0.012954 -0.005102 0.000000 0.003136 0.000000
# 3 -0.001521 -0.005102 0.019446 0.000000 0.002980 0.000000
# 4 0.000000 0.000000 0.000000 0.028593 0.000000 0.001188
# 5 -0.003002 0.003136 0.002980 0.000000 0.037352 0.000000
# 6 0.000000 0.000000 0.000000 0.001188 0.000000 0.018873
#
#
# Mechanical properties :
#
#
# Convention : Reuss Voigt Hill
#
# Bulk Modulus (GPa) = 53.46503 66.80712 60.13607
# Shear Modulus (GPa) = 32.53027 37.39131 34.96079
#
# Velocity S-wave (km/s) = 3.98046 4.26751 4.12648
# Velocity P-wave (km/s) = 6.86774 7.53796 7.21064
#
# Compressibility (1/GPa) = 0.01870381
#
# Stress axis : x y z
#
# Youngs Moduli (GPa) = 120.81814 77.19535 51.42314
#
# Poissons Ratio (x) = 0.33687 0.07823
# Poissons Ratio (y) = 0.52723 0.26235
# Poissons Ratio (z) = 0.18379 0.39384
#
# Static dielectric constant tensor:
#      x y z
#    x 1.765900 0.000000 0.001600 
#    y 0.000000 1.766900 0.000000 
#    z 0.001600 0.000000 1.840500 
# 
# From -- ./inp_files/121950.got.cif
#   From: 2010.05.17/outbox.ucp.g08.bks.cvg/sg15_61_cif.got.tgz:121950.got - 2010.06.11 12:40:34.
