data_PCOD9309018
_publ_section_title
;
Structure prediction by ZEFSAII (Michael W. Deem and Ramdas Pophale) SiO2 
 PCOD9309018
Probable space group: C 2/C
;
_chemical_formula_sum "Si O2"
_cell_formula_units_Z 32
_cell_length_a 12.000000
_cell_length_b 9.000000
_cell_length_c 30.000000
_cell_angle_alpha 90.000000
_cell_angle_beta 90.000000
_cell_angle_gamma 90.000000
_cell_volume 3240.000000
_symmetry_space_group_name_H-M "C 2/C"
_symmetry_group_IT_number 15
_symmetry_cell_setting 'monoclinic'
loop_
_space_group_symop_operation_xyz
x,y,z
-x,y,1/2-z
-x,-y,-z
x,-y,1/2+z
1/2+x,1/2+y,z
1/2-x,1/2+y,1/2-z
1/2-x,1/2-y,-z
1/2+x,1/2-y,1/2+z
loop_
_atom_site_type_symbol
_atom_site_label
_atom_site_fract_x
_atom_site_fract_y
_atom_site_fract_z
Si Si1 0.498788 0.463208 0.803970
Si Si2 0.434655 0.087116 0.552553
Si Si3 0.527511 0.180286 0.302087
Si Si4 0.380909 0.030392 0.380660
Si Si5 0.749440 0.050262 0.338457
Si Si6 0.752494 0.256779 0.419987
Si Si7 0.829398 0.234618 0.135075
Si Si8 0.393444 0.206803 0.009246
O O1 0.500000 0.434877 0.750000
O O2 0.514605 0.642036 0.810686
O O3 0.374304 0.427447 0.821081
O O4 0.588890 0.367970 0.833671
O O5 0.529773 0.989282 0.579051
O O6 0.388619 0.193832 0.591423
O O7 0.485315 0.186526 0.512480
O O8 0.364117 0.961210 0.526482
O O9 0.500000 0.152504 0.250000
O O10 0.655562 0.137994 0.311171
O O11 0.452413 0.079622 0.336503
O O12 0.311132 0.876162 0.387156
O O13 0.280470 0.148292 0.381652
O O14 0.741373 0.112793 0.388981
O O15 0.714311 0.877570 0.337453
O O16 0.636125 0.298312 0.445650
O O17 0.827071 0.242678 0.464820
#
# Coordination Sequence:
#
# PCOD9309018 Si02
#       8
#     8   8   8   8   8   8   8   8
#     4  11  27  44  65  98 131 173 222 275 333 400
#     4  10  20  40  63  95 129 178 216 277 331 390
#     4  11  25  45  67  97 132 175 220 276 334 400
#     4  11  22  41  66  95 133 172 221 271 337 396
#     4  12  24  44  69  96 136 172 221 272 333 401
#     4  10  20  38  66  97 126 183 215 273 337 387
#     4  12  24  42  68  99 133 174 221 275 333 402
#     4   9  18  36  67  89 132 173 227 265 328 401
#
# _framework density 9.8765429999999999
#
# number of rings (size 3 to 8) (size 9 to 14) (size 15 to 20)
#    0.000    1.250    3.750    2.250    1.750    0.500 
#    0.000    6.250    0.000    0.000    0.000    0.000 
#    0.000    0.000    0.000    0.000    0.000    0.000 
#
# Total GULP energy -178217.731738 kJ/mol
# GULP energy per Si atom -5569.304117 kJ/mol
# Density = 0.985406 g / cm^3
# Si number density = 9.876543 Si / 1000 Ang^3
#
#
#
# Elastic Constant Matrix: (Units=GPa)
#
#
# Indices 1 2 3 4 5 6 
#
# 1 119.6618 41.7192 45.0897 0.0000 -1.8492 0.0000
# 2 41.7192 84.7507 38.1960 0.0000 6.5812 0.0000
# 3 45.0897 38.1960 118.2566 0.0000 -17.2434 0.0000
# 4 0.0000 0.0000 0.0000 32.4025 0.0000 0.6059
# 5 -1.8492 6.5812 -17.2434 0.0000 30.0089 0.0000
# 6 0.0000 0.0000 0.0000 0.6059 0.0000 42.3838
#
#
#
# Elastic Compliance Matrix: (Units=1/GPa)
#
#
# Indices 1 2 3 4 5 6 
#
# 1 0.010836 -0.004051 -0.002834 0.000000 -0.000072 0.000000
# 2 -0.004051 0.016430 -0.004719 0.000000 -0.006565 0.000000
# 3 -0.002834 -0.004719 0.012209 0.000000 0.007876 0.000000
# 4 0.000000 0.000000 0.000000 0.030870 0.000000 -0.000441
# 5 -0.000072 -0.006565 0.007876 0.000000 0.039284 0.000000
# 6 0.000000 0.000000 0.000000 -0.000441 0.000000 0.023600
#
#
# Mechanical properties :
#
#
# Convention : Reuss Voigt Hill
#
# Bulk Modulus (GPa) = 61.47410 63.63098 62.55254
# Shear Modulus (GPa) = 30.89066 34.13668 32.51367
#
# Velocity S-wave (km/s) = 3.95883 4.16164 4.06150
# Velocity P-wave (km/s) = 7.21701 7.44146 7.33010
#
# Compressibility (1/GPa) = 0.01626701
#
# Stress axis : x y z
#
# Youngs Moduli (GPa) = 92.28504 60.86282 81.90480
#
# Poissons Ratio (x) = 0.24658 0.23208
# Poissons Ratio (y) = 0.37389 0.38654
# Poissons Ratio (z) = 0.26149 0.28723
#
# Static dielectric constant tensor:
#      x y z
#    x 1.790610 0.000000 -0.042240 
#    y 0.000000 1.730810 0.000000 
#    z -0.042240 0.000000 1.685740 
# 
# From -- ./inp_files/310314.got.cif
#   From: 2010.05.17/outbox.ucp.g08.bks.cvg/sg15_156_cif.got.tgz:310314.got - 2010.06.11 12:40:34.
