data_PCOD9309959
_publ_section_title
;
Structure prediction by ZEFSAII (Michael W. Deem and Ramdas Pophale) SiO2 
 PCOD9309959
Probable space group: P 2 2 2
;
_chemical_formula_sum "Si O2"
_cell_formula_units_Z 21
_cell_length_a 13.751961
_cell_length_b 8.046821
_cell_length_c 9.224496
_cell_angle_alpha 90.000000
_cell_angle_beta 90.000000
_cell_angle_gamma 90.000000
_cell_volume 1020.778748
_symmetry_space_group_name_H-M "P 2 2 2"
_symmetry_group_IT_number 16
_symmetry_cell_setting 'orthorhombic'
loop_
_space_group_symop_operation_xyz
x,y,z
-x,-y,z
x,-y,-z
-x,y,-z
loop_
_atom_site_type_symbol
_atom_site_label
_atom_site_fract_x
_atom_site_fract_y
_atom_site_fract_z
Si Si1 0.661417 0.073344 0.215869
Si Si2 0.698004 0.664537 0.580909
Si Si3 0.825584 0.156022 0.665405
Si Si4 0.773199 0.540600 0.161749
Si Si5 0.000000 0.000000 0.500000
Si Si6 0.397109 0.246219 0.069648
O O1 0.628627 0.203011 0.339156
O O2 0.764278 0.995868 0.266325
O O3 0.597762 0.909948 0.179277
O O4 0.665557 0.175818 0.065902
O O5 0.657905 0.500000 0.500000
O O6 0.759427 0.765752 0.462576
O O7 0.766912 0.596051 0.711742
O O8 0.832541 0.302076 0.781522
O O9 0.927693 0.104710 0.600282
O O10 0.661313 0.605979 0.143366
O O11 0.805766 0.500000 0.000000
O O12 0.500000 0.288181 0.000000
#
# Coordination Sequence:
#
# PCOD9309959 Si02
#       6
#     4   4   4   4   1   4
#     4  10  17  35  58  85 119 162 205 251 297 365
#     4  10  19  35  57  86 119 166 201 240 307 380
#     4  10  22  36  65  89 119 159 211 242 308 371
#     4  10  20  38  62  90 120 162 202 247 311 371
#     4  12  20  40  66  98 110 156 210 262 284 380
#     4  10  21  35  61  93 118 161 219 260 297 351
#
# _framework density 20.572527999999998
#
# number of rings (size 3 to 8) (size 9 to 14) (size 15 to 20)
#    0.000    1.905    3.810    1.143    0.000    0.381 
#    0.000    4.286    0.000   64.000    0.000    0.000 
#    0.000    0.000    0.000    0.000    0.000    0.000 
#
# Total GULP energy -117126.417749 kJ/mol
# GULP energy per Si atom -5577.448464 kJ/mol
# Density = 2.052570 g / cm^3
# Si number density = 20.572528 Si / 1000 Ang^3
#
#
#
# Elastic Constant Matrix: (Units=GPa)
#
#
# Indices 1 2 3 4 5 6 
#
# 1 80.2423 23.8277 28.0002 0.0000 0.0000 0.0000
# 2 23.8277 84.8877 54.8594 0.0000 0.0000 0.0000
# 3 28.0002 54.8594 133.7842 0.0000 0.0000 0.0000
# 4 0.0000 0.0000 0.0000 61.7298 0.0000 0.0000
# 5 0.0000 0.0000 0.0000 0.0000 28.0121 0.0000
# 6 0.0000 0.0000 0.0000 0.0000 0.0000 8.0142
#
#
#
# Elastic Compliance Matrix: (Units=1/GPa)
#
#
# Indices 1 2 3 4 5 6 
#
# 1 0.013901 -0.002751 -0.001781 0.000000 0.000000 0.000000
# 2 -0.002751 0.016572 -0.006220 0.000000 0.000000 0.000000
# 3 -0.001781 -0.006220 0.010398 0.000000 0.000000 0.000000
# 4 0.000000 0.000000 0.000000 0.016200 0.000000 0.000000
# 5 0.000000 0.000000 0.000000 0.000000 0.035699 0.000000
# 6 0.000000 0.000000 0.000000 0.000000 0.000000 0.124778
#
#
# Mechanical properties :
#
#
# Convention : Reuss Voigt Hill
#
# Bulk Modulus (GPa) = 51.63419 56.92100 54.27760
# Shear Modulus (GPa) = 20.36603 32.36633 26.36618
#
# Velocity S-wave (km/s) = 3.14978 3.97076 3.58386
# Velocity P-wave (km/s) = 6.19526 6.98220 6.60047
#
# Compressibility (1/GPa) = 0.01936701
#
# Stress axis : x y z
#
# Youngs Moduli (GPa) = 71.93904 60.34290 96.17193
#
# Poissons Ratio (x) = 0.16598 0.17132
# Poissons Ratio (y) = 0.19788 0.59817
# Poissons Ratio (z) = 0.12815 0.37532
#
# Static dielectric constant tensor:
#      x y z
#    x 1.689110 0.000000 0.000000 
#    y 0.000000 1.817880 0.000000 
#    z 0.000000 0.000000 1.777010 
# 
# From -- ./inp_files/5055.got.cif
#   From: 2010.05.17/outbox.cif.g08.bks.cpg/sg16_3_cif.got.tgz:5055.got - 2010.06.03 22:28:35.
