data_PCOD9309315
_publ_section_title
;
Structure prediction by ZEFSAII (Michael W. Deem and Ramdas Pophale) SiO2 
 PCOD9309315
Probable space group: C 2/C
;
_chemical_formula_sum "Si O2"
_cell_formula_units_Z 22
_cell_length_a 12.000000
_cell_length_b 21.000000
_cell_length_c 9.000000
_cell_angle_alpha 90.000000
_cell_angle_beta 100.000000
_cell_angle_gamma 90.000000
_cell_volume 2233.543984
_symmetry_space_group_name_H-M "C 2/C"
_symmetry_group_IT_number 15
_symmetry_cell_setting 'monoclinic'
loop_
_space_group_symop_operation_xyz
x,y,z
-x,y,1/2-z
-x,-y,-z
x,-y,1/2+z
1/2+x,1/2+y,z
1/2-x,1/2+y,1/2-z
1/2-x,1/2-y,-z
1/2+x,1/2-y,1/2+z
loop_
_atom_site_type_symbol
_atom_site_label
_atom_site_fract_x
_atom_site_fract_y
_atom_site_fract_z
Si Si1 0.201185 0.802238 0.102191
Si Si2 0.800320 0.709201 0.148949
Si Si3 0.168887 0.470324 0.593433
Si Si4 0.500000 0.115181 0.250000
Si Si5 0.631026 0.911565 0.269059
Si Si6 0.631238 0.622591 0.309213
O O1 0.150026 0.760701 0.222109
O O2 0.295112 0.848340 0.196322
O O3 0.250000 0.750000 0.000000
O O4 0.132152 0.846899 0.975003
O O5 0.903835 0.659468 0.148501
O O6 0.697529 0.670820 0.210152
O O7 0.750000 0.750000 0.000000
O O8 0.070437 0.429352 0.652897
O O9 0.156646 0.456857 0.416519
O O10 0.157151 0.543762 0.634850
O O11 0.288352 0.439460 0.669692
O O12 0.500000 0.894282 0.250000
O O13 0.500000 0.610311 0.250000
#
# Coordination Sequence:
#
# PCOD9309315 Si02
#       6
#     8   8   8   4   8   8
#     4   9  21  39  54  87 120 158 206 238 302 379
#     4  10  22  35  60  89 119 161 207 256 304 361
#     4  10  22  39  58  93 117 154 203 254 313 363
#     4  10  22  38  58  86 136 150 200 270 304 354
#     4  11  22  36  65  89 122 157 201 257 309 363
#     4   9  20  40  61  78 119 165 197 247 308 364
#
# _framework density 9.8498169999999998
#
# number of rings (size 3 to 8) (size 9 to 14) (size 15 to 20)
#    0.000    2.182    0.909    1.636    5.091    4.364 
#    0.000    3.636    2.000    0.000    0.000    0.000 
#    0.000    0.000    0.000    0.000    0.000    0.000 
#
# Total GULP energy -122772.896687 kJ/mol
# GULP energy per Si atom -5580.586213 kJ/mol
# Density = 0.982740 g / cm^3
# Si number density = 9.849817 Si / 1000 Ang^3
#
#
#
# Elastic Constant Matrix: (Units=GPa)
#
#
# Indices 1 2 3 4 5 6 
#
# 1 116.3504 22.0648 8.8935 0.0000 22.5430 0.0000
# 2 22.0648 85.5058 7.1697 0.0000 6.9497 0.0000
# 3 8.8935 7.1697 42.5447 0.0000 3.4839 0.0000
# 4 0.0000 0.0000 0.0000 26.3525 0.0000 7.1486
# 5 22.5430 6.9497 3.4839 0.0000 27.1737 0.0000
# 6 0.0000 0.0000 0.0000 7.1486 0.0000 16.7285
#
#
#
# Elastic Compliance Matrix: (Units=1/GPa)
#
#
# Indices 1 2 3 4 5 6 
#
# 1 0.010647 -0.001981 -0.001223 0.000000 -0.008169 0.000000
# 2 -0.001981 0.012447 -0.001574 0.000000 -0.001338 0.000000
# 3 -0.001223 -0.001574 0.024163 0.000000 -0.001681 0.000000
# 4 0.000000 0.000000 0.000000 0.042923 0.000000 -0.018342
# 5 -0.008169 -0.001338 -0.001681 0.000000 0.044135 0.000000
# 6 0.000000 0.000000 0.000000 -0.018342 0.000000 0.067616
#
#
# Mechanical properties :
#
#
# Convention : Reuss Voigt Hill
#
# Bulk Modulus (GPa) = 26.52404 35.62854 31.07629
# Shear Modulus (GPa) = 22.31612 27.80247 25.05929
#
# Velocity S-wave (km/s) = 3.36939 3.76083 3.57048
# Velocity P-wave (km/s) = 5.35075 6.08141 5.72774
#
# Compressibility (1/GPa) = 0.03770164
#
# Stress axis : x y z
#
# Youngs Moduli (GPa) = 93.92680 80.34047 41.38527
#
# Poissons Ratio (x) = 0.15914 0.05061
# Poissons Ratio (y) = 0.18606 0.06514
# Poissons Ratio (z) = 0.11485 0.12645
#
# Static dielectric constant tensor:
#      x y z
#    x 1.674450 0.000000 0.010860 
#    y 0.000000 1.712430 0.000000 
#    z 0.010860 0.000000 1.737620 
# 
# From -- ./inp_files/30945.got.cif
#   From: 2010.05.17/outbox.ucp.g08.bks.cvg/sg15_16_cif.got.tgz:30945.got - 2010.06.11 12:40:34.
