data_PCOD9309372
_publ_section_title
;
Structure prediction by ZEFSAII (Michael W. Deem and Ramdas Pophale) SiO2 
 PCOD9309372
Probable space group: C 2/C
;
_chemical_formula_sum "Si O2"
_cell_formula_units_Z 22
_cell_length_a 21.000000
_cell_length_b 12.000000
_cell_length_c 9.000000
_cell_angle_alpha 90.000000
_cell_angle_beta 80.000000
_cell_angle_gamma 90.000000
_cell_volume 2233.543984
_symmetry_space_group_name_H-M "C 2/C"
_symmetry_group_IT_number 15
_symmetry_cell_setting 'monoclinic'
loop_
_space_group_symop_operation_xyz
x,y,z
-x,y,1/2-z
-x,-y,-z
x,-y,1/2+z
1/2+x,1/2+y,z
1/2-x,1/2+y,1/2-z
1/2-x,1/2-y,-z
1/2+x,1/2-y,1/2+z
loop_
_atom_site_type_symbol
_atom_site_label
_atom_site_fract_x
_atom_site_fract_y
_atom_site_fract_z
Si Si1 0.929307 0.776180 0.575979
Si Si2 0.657748 0.178837 0.624856
Si Si3 0.500000 0.457436 0.750000
Si Si4 0.471836 0.103911 0.928586
Si Si5 0.698358 0.604009 0.920505
Si Si6 0.130005 0.085550 0.631477
O O1 0.882423 0.715619 0.713520
O O2 0.884233 0.804521 0.456307
O O3 0.961893 0.880517 0.647756
O O4 0.993000 0.707394 0.507727
O O5 0.605109 0.111476 0.549431
O O6 0.675859 0.290476 0.527491
O O7 0.724382 0.115262 0.630901
O O8 0.558840 0.529722 0.664091
O O9 0.500000 0.105078 0.750000
O O10 0.500000 0.000000 0.000000
O O11 0.660295 0.603164 0.780410
O O12 0.677104 0.494722 0.019119
#
# Coordination Sequence:
#
# PCOD9309372 Si02
#       6
#     8   8   4   8   8   8
#     4  11  21  41  65  92 125 158 206 265 311 369
#     4  10  22  42  61  82 125 168 201 249 315 363
#     4  12  20  38  68  92 128 154 196 268 320 366
#     4  10  22  40  63  86 118 160 208 256 299 359
#     4  11  23  39  60  90 125 163 199 251 311 386
#     4  12  24  37  64  98 123 158 209 255 321 374
#
# _framework density 9.8498169999999998
#
# number of rings (size 3 to 8) (size 9 to 14) (size 15 to 20)
#    0.000    1.091    6.364    0.545    2.545    5.091 
#    0.000    1.818    0.000    0.000    0.000    0.000 
#    0.000    0.000    0.000    0.000    0.000    0.000 
#
# Total GULP energy -122735.593756 kJ/mol
# GULP energy per Si atom -5578.890625 kJ/mol
# Density = 0.982740 g / cm^3
# Si number density = 9.849817 Si / 1000 Ang^3
#
#
#
# Elastic Constant Matrix: (Units=GPa)
#
#
# Indices 1 2 3 4 5 6 
#
# 1 117.9794 10.5976 -3.0966 0.0000 -26.1191 0.0000
# 2 10.5976 24.7553 1.5003 0.0000 -0.5002 0.0000
# 3 -3.0966 1.5003 12.3467 0.0000 -0.0345 0.0000
# 4 0.0000 0.0000 0.0000 23.4409 0.0000 2.2930
# 5 -26.1191 -0.5002 -0.0345 0.0000 19.8517 0.0000
# 6 0.0000 0.0000 0.0000 2.2930 0.0000 88.8920
#
#
#
# Elastic Compliance Matrix: (Units=1/GPa)
#
#
# Indices 1 2 3 4 5 6 
#
# 1 0.012742 -0.005355 0.003893 0.000000 0.016637 0.000000
# 2 -0.005355 0.042966 -0.006581 0.000000 -0.005974 0.000000
# 3 0.003893 -0.006581 0.082783 0.000000 0.005100 0.000000
# 4 0.000000 0.000000 0.000000 0.042768 0.000000 -0.001103
# 5 0.016637 -0.005974 0.005100 0.000000 0.072122 0.000000
# 6 0.000000 0.000000 0.000000 -0.001103 0.000000 0.011278
#
#
# Mechanical properties :
#
#
# Convention : Reuss Voigt Hill
#
# Bulk Modulus (GPa) = 8.16948 19.23156 13.70052
# Shear Modulus (GPa) = 15.54983 36.17561 25.86272
#
# Velocity S-wave (km/s) = 2.81258 4.28993 3.62726
# Velocity P-wave (km/s) = 3.83451 5.85846 4.95101
#
# Compressibility (1/GPa) = 0.12240680
#
# Stress axis : x y z
#
# Youngs Moduli (GPa) = 78.47758 23.27431 12.07971
#
# Poissons Ratio (x) = 0.12463 -0.04703
# Poissons Ratio (y) = 0.42023 0.07949
# Poissons Ratio (z) = -0.30552 0.15316
#
# Static dielectric constant tensor:
#      x y z
#    x 1.672960 0.000000 -0.173060 
#    y 0.000000 1.808600 0.000000 
#    z -0.173060 0.000000 3.578150 
# 
# From -- ./inp_files/54341.got.cif
#   From: 2010.05.17/outbox.ucp.g08.bks.cvg/sg15_28_cif.got.tgz:54341.got - 2010.06.11 12:40:34.
