data_PCOD9309930
_publ_section_title
;
Structure prediction by ZEFSAII (Michael W. Deem and Ramdas Pophale) SiO2 
 PCOD9309930
Probable space group: P 2 2 2
;
_chemical_formula_sum "Si O2"
_cell_formula_units_Z 32
_cell_length_a 12.119687
_cell_length_b 5.230941
_cell_length_c 30.995374
_cell_angle_alpha 90.000000
_cell_angle_beta 90.000000
_cell_angle_gamma 90.000000
_cell_volume 1965.025120
_symmetry_space_group_name_H-M "P 2 2 2"
_symmetry_group_IT_number 16
_symmetry_cell_setting 'orthorhombic'
loop_
_space_group_symop_operation_xyz
x,y,z
-x,-y,z
x,-y,-z
-x,y,-z
loop_
_atom_site_type_symbol
_atom_site_label
_atom_site_fract_x
_atom_site_fract_y
_atom_site_fract_z
Si Si1 0.629494 0.468133 0.714043
Si Si2 0.762334 0.030090 0.308897
Si Si3 0.128122 0.955561 0.218216
Si Si4 0.075206 0.249335 0.619038
Si Si5 0.874221 0.255065 0.480599
Si Si6 0.258679 0.443874 0.195337
Si Si7 0.634189 0.996761 0.049557
Si Si8 0.633285 0.503998 0.897224
O O1 0.500000 0.500000 0.705784
O O2 0.680050 0.744357 0.704154
O O3 0.655879 0.420485 0.764701
O O4 0.694137 0.238084 0.688649
O O5 0.847159 0.997020 0.269039
O O6 0.829781 0.154381 0.348506
O O7 0.174109 0.674409 0.206771
O O8 0.196648 0.173263 0.193529
O O9 0.000000 0.000000 0.209770
O O10 0.119485 0.285785 0.570509
O O11 0.000000 0.500000 0.631136
O O12 0.000000 0.000000 0.616053
O O13 0.816171 0.500000 0.500000
O O14 0.000000 0.253539 0.500000
O O15 0.823163 0.000000 0.500000
O O16 0.317469 0.501388 0.150458
O O17 0.667234 0.744196 0.075404
O O18 0.500000 0.000000 0.048170
O O19 0.667586 0.245987 0.076197
O O20 0.672332 0.000000 0.000000
O O21 0.500000 0.500000 0.894034
#
# Coordination Sequence:
#
# PCOD9309930 Si02
#       8
#     4   4   4   4   4   4   4   4
#     4  10  20  37  53  68  99 132 165 216 255 282
#     4  10  22  33  49  77  95 129 179 197 240 307
#     4  10  20  35  49  66 100 130 158 201 244 283
#     4  12  20  30  49  71 106 140 161 201 236 297
#     4  10  16  29  43  66  97 137 163 183 240 293
#     4  10  20  32  51  74  93 125 170 202 238 293
#     4   9  17  28  43  65  98 134 155 181 238 301
#     4  10  18  29  46  70  99 125 159 200 233 281
#
# _framework density 16.284779
#
# number of rings (size 3 to 8) (size 9 to 14) (size 15 to 20)
#    0.000    1.875    2.500    3.375    0.000    3.500 
#    0.000    3.750    0.000    0.000    0.000    0.000 
#    0.000   42.500    0.000    0.000    0.000    0.000 
#
# Total GULP energy -178250.406996 kJ/mol
# GULP energy per Si atom -5570.325219 kJ/mol
# Density = 1.624771 g / cm^3
# Si number density = 16.284779 Si / 1000 Ang^3
#
#
#
# Elastic Constant Matrix: (Units=GPa)
#
#
# Indices 1 2 3 4 5 6 
#
# 1 39.4516 11.8599 22.2602 0.0000 0.0000 0.0000
# 2 11.8599 114.9241 17.2527 0.0000 0.0000 0.0000
# 3 22.2602 17.2527 97.1693 0.0000 0.0000 0.0000
# 4 0.0000 0.0000 0.0000 17.4832 0.0000 0.0000
# 5 0.0000 0.0000 0.0000 0.0000 4.1731 0.0000
# 6 0.0000 0.0000 0.0000 0.0000 0.0000 2.8356
#
#
#
# Elastic Compliance Matrix: (Units=1/GPa)
#
#
# Indices 1 2 3 4 5 6 
#
# 1 0.029592 -0.002092 -0.006408 0.000000 0.000000 0.000000
# 2 -0.002092 0.009088 -0.001134 0.000000 0.000000 0.000000
# 3 -0.006408 -0.001134 0.011961 0.000000 0.000000 0.000000
# 4 0.000000 0.000000 0.000000 0.057198 0.000000 0.000000
# 5 0.000000 0.000000 0.000000 0.000000 0.239630 0.000000
# 6 0.000000 0.000000 0.000000 0.000000 0.000000 0.352653
#
#
# Mechanical properties :
#
#
# Convention : Reuss Voigt Hill
#
# Bulk Modulus (GPa) = 31.87526 39.36563 35.62044
# Shear Modulus (GPa) = 6.85076 18.24320 12.54698
#
# Velocity S-wave (km/s) = 2.05329 3.35066 2.77875
# Velocity P-wave (km/s) = 5.02369 6.26059 5.67593
#
# Compressibility (1/GPa) = 0.03137229
#
# Stress axis : x y z
#
# Youngs Moduli (GPa) = 33.79312 110.04053 83.60759
#
# Poissons Ratio (x) = 0.23019 0.53573
# Poissons Ratio (y) = 0.07069 0.09484
# Poissons Ratio (z) = 0.21654 0.12482
#
# Static dielectric constant tensor:
#      x y z
#    x 1.545290 0.000000 0.000000 
#    y 0.000000 1.566340 0.000000 
#    z 0.000000 0.000000 1.824700 
# 
# From -- ./inp_files/9671.got.cif
#   From: 2010.05.17/outbox.cif.g08.bks.cpg/sg16_5_cif.got.tgz:9671.got - 2010.06.03 22:28:35.
