data_PCOD9309510
_publ_section_title
;
Structure prediction by ZEFSAII (Michael W. Deem and Ramdas Pophale) SiO2 
 PCOD9309510
Probable space group: C 2/C
;
_chemical_formula_sum "Si O2"
_cell_formula_units_Z 30
_cell_length_a 15.000000
_cell_length_b 27.000000
_cell_length_c 21.000000
_cell_angle_alpha 90.000000
_cell_angle_beta 160.000000
_cell_angle_gamma 90.000000
_cell_volume 2908.881319
_symmetry_space_group_name_H-M "C 2/C"
_symmetry_group_IT_number 15
_symmetry_cell_setting 'monoclinic'
loop_
_space_group_symop_operation_xyz
x,y,z
-x,y,1/2-z
-x,-y,-z
x,-y,1/2+z
1/2+x,1/2+y,z
1/2-x,1/2+y,1/2-z
1/2-x,1/2-y,-z
1/2+x,1/2-y,1/2+z
loop_
_atom_site_type_symbol
_atom_site_label
_atom_site_fract_x
_atom_site_fract_y
_atom_site_fract_z
Si Si1 0.500000 0.017233 0.750000
Si Si2 0.064345 0.090546 0.508793
Si Si3 0.284417 0.300845 0.414591
Si Si4 0.464266 0.070447 0.126669
Si Si5 0.303455 0.311520 0.177248
Si Si6 0.481255 0.404605 0.371217
Si Si7 0.724616 0.484411 0.352820
Si Si8 0.313407 0.245766 0.304712
O O1 0.241854 0.049675 0.592375
O O2 0.508055 0.980739 0.815895
O O3 0.163625 0.141275 0.545364
O O4 0.750506 0.086717 0.296316
O O5 0.096113 0.092410 0.607036
O O6 0.323232 0.286418 0.366784
O O7 0.518356 0.273162 0.606662
O O8 0.000000 0.287769 0.250000
O O9 0.284011 0.104314 0.052309
O O10 0.311776 0.058232 0.960170
O O11 0.500000 0.312851 0.250000
O O12 0.317782 0.362454 0.225932
O O13 0.376011 0.269550 0.278238
O O14 0.019149 0.296840 0.960278
O O15 0.429793 0.458654 0.307691
O O16 0.500000 0.511818 0.250000
O O17 0.000000 0.500000 0.500000
#
# Coordination Sequence:
#
# PCOD9309510 Si02
#       8
#     4   8   8   8   8   8   8   8
#     4  12  24  40  68  94 126 168 222 274 322 378
#     4  12  24  41  65  95 132 162 225 269 317 392
#     4  11  23  45  67  97 128 169 218 265 326 383
#     4  11  24  41  65  92 123 178 208 264 331 381
#     4  11  22  41  64  97 131 165 214 260 325 390
#     4  11  23  43  62  91 132 170 211 266 322 394
#     4  10  23  40  63  90 126 168 214 265 328 387
#     4  10  24  42  68  93 130 172 208 268 322 390
#
# _framework density 10.313243
#
# number of rings (size 3 to 8) (size 9 to 14) (size 15 to 20)
#    0.000    1.067    3.333    3.200    7.467    0.000 
#    0.000    0.000    0.000    0.000    0.000    0.000 
#    0.000    0.000    0.000    0.000    0.000    0.000 
#
# Total GULP energy -167121.799106 kJ/mol
# GULP energy per Si atom -5570.726637 kJ/mol
# Density = 1.028977 g / cm^3
# Si number density = 10.313243 Si / 1000 Ang^3
#
#
#
# Elastic Constant Matrix: (Units=GPa)
#
#
# Indices 1 2 3 4 5 6 
#
# 1 76.7805 -6.0122 10.5889 0.0056 19.3768 -0.0558
# 2 -6.0122 48.4064 13.0258 -0.0315 -5.4114 -0.0379
# 3 10.5889 13.0258 88.4997 -0.1248 14.3364 -0.1405
# 4 0.0056 -0.0315 -0.1248 27.0019 0.0106 3.8091
# 5 19.3768 -5.4114 14.3364 0.0106 42.6880 0.0111
# 6 -0.0558 -0.0379 -0.1405 3.8091 0.0111 25.5237
#
#
#
# Elastic Compliance Matrix: (Units=1/GPa)
#
#
# Indices 1 2 3 4 5 6 
#
# 1 0.014841 0.001409 -0.000974 -0.000008 -0.006231 0.000033
# 2 0.001409 0.022313 -0.004026 0.000004 0.003541 0.000012
# 3 -0.000974 -0.004026 0.012711 0.000048 -0.004337 0.000057
# 4 -0.000008 0.000004 0.000048 0.037831 -0.000020 -0.005646
# 5 -0.006231 0.003541 -0.004337 -0.000020 0.028160 -0.000042
# 6 0.000033 0.000012 0.000057 -0.005646 -0.000042 0.040022
#
#
# Mechanical properties :
#
#
# Convention : Reuss Voigt Hill
#
# Bulk Modulus (GPa) = 23.42852 27.65463 25.54157
# Shear Modulus (GPa) = 28.20261 32.11500 30.15881
#
# Velocity S-wave (km/s) = 3.70171 3.95014 3.82794
# Velocity P-wave (km/s) = 5.44549 5.85160 5.65219
#
# Compressibility (1/GPa) = 0.04268302
#
# Stress axis : x y z
#
# Youngs Moduli (GPa) = 67.37972 44.81750 78.66970
#
# Poissons Ratio (x) = -0.06314 0.07660
# Poissons Ratio (y) = -0.09492 0.31675
# Poissons Ratio (z) = 0.06560 0.18045
#
# Static dielectric constant tensor:
#      x y z
#    x 1.724310 -0.000040 -0.015270 
#    y -0.000040 1.759180 -0.000050 
#    z -0.015270 -0.000050 1.834960 
# 
# From -- ./inp_files/245832.got.cif
#   From: 2010.05.17/outbox.ucp.g08.bks.cvg/sg15_123_cif.got.tgz:245832.got - 2010.06.11 12:40:34.
