data_PCOD9309037
_publ_section_title
;
Structure prediction by ZEFSAII (Michael W. Deem and Ramdas Pophale) SiO2 
 PCOD9309037
Probable space group: C 2/C
;
_chemical_formula_sum "Si O2"
_cell_formula_units_Z 30
_cell_length_a 12.000000
_cell_length_b 27.000000
_cell_length_c 9.000000
_cell_angle_alpha 90.000000
_cell_angle_beta 90.000000
_cell_angle_gamma 90.000000
_cell_volume 2916.000000
_symmetry_space_group_name_H-M "C 2/C"
_symmetry_group_IT_number 15
_symmetry_cell_setting 'monoclinic'
loop_
_space_group_symop_operation_xyz
x,y,z
-x,y,1/2-z
-x,-y,-z
x,-y,1/2+z
1/2+x,1/2+y,z
1/2-x,1/2+y,1/2-z
1/2-x,1/2-y,-z
1/2+x,1/2-y,1/2+z
loop_
_atom_site_type_symbol
_atom_site_label
_atom_site_fract_x
_atom_site_fract_y
_atom_site_fract_z
Si Si1 0.205350 0.472406 0.162033
Si Si2 0.396086 0.648191 0.050509
Si Si3 0.114363 0.193029 0.992753
Si Si4 0.000000 0.265326 0.750000
Si Si5 0.425249 0.467527 0.604208
Si Si6 0.208643 0.330421 0.779981
Si Si7 0.127726 0.111168 0.754334
Si Si8 0.610049 0.061807 0.352202
O O1 0.305680 0.506234 0.099119
O O2 0.274194 0.428805 0.245241
O O3 0.149284 0.510391 0.276051
O O4 0.124760 0.451424 0.030057
O O5 0.411162 0.589461 0.065176
O O6 0.296146 0.665180 0.149197
O O7 0.508336 0.676625 0.089270
O O8 0.367577 0.651591 0.876372
O O9 0.057869 0.232438 0.879966
O O10 0.138867 0.142719 0.902473
O O11 0.225189 0.200072 0.090702
O O12 0.101793 0.302265 0.715138
O O13 0.500000 0.467409 0.750000
O O14 0.500000 0.500000 0.500000
O O15 0.179466 0.386837 0.831641
O O16 0.000000 0.090253 0.750000
O O17 0.500000 0.072356 0.250000
#
# Coordination Sequence:
#
# PCOD9309037 Si02
#       8
#     8   8   8   4   8   8   8   8
#     4  12  23  39  65  92 136 186 217 260 324 393
#     4  11  22  39  65 101 140 166 216 282 333 403
#     4  11  22  46  69  99 128 172 214 284 357 402
#     4  12  26  48  76  90 130 180 230 280 356 402
#     4  12  22  33  56  98 135 169 205 253 321 398
#     4  12  25  44  71  98 135 174 231 283 335 400
#     4  10  20  39  66 100 140 168 208 270 342 407
#     4  12  26  45  62  93 134 185 235 270 310 390
#
# _framework density 10.288066000000001
#
# number of rings (size 3 to 8) (size 9 to 14) (size 15 to 20)
#    0.000    0.533    5.333    6.400    0.000    0.533 
#    0.000    0.000    0.000    0.000    0.000    0.000 
#    0.000    0.000    0.000    0.000    0.000    0.000 
#
# Total GULP energy -167095.721376 kJ/mol
# GULP energy per Si atom -5569.857379 kJ/mol
# Density = 1.026465 g / cm^3
# Si number density = 10.288066 Si / 1000 Ang^3
#
#
#
# Elastic Constant Matrix: (Units=GPa)
#
#
# Indices 1 2 3 4 5 6 
#
# 1 101.6026 29.5108 41.2223 0.0000 27.4392 0.0000
# 2 29.5108 57.9727 7.1618 0.0000 -4.1390 0.0000
# 3 41.2223 7.1618 76.5394 0.0000 17.7306 0.0000
# 4 0.0000 0.0000 0.0000 5.5023 0.0000 22.3332
# 5 27.4392 -4.1390 17.7306 0.0000 32.4057 0.0000
# 6 0.0000 0.0000 0.0000 22.3332 0.0000 41.9866
#
#
#
# Elastic Compliance Matrix: (Units=1/GPa)
#
#
# Indices 1 2 3 4 5 6 
#
# 1 0.018949 -0.009901 -0.006034 0.000000 -0.014008 0.000000
# 2 -0.009901 0.022994 0.000639 0.000000 0.010970 0.000000
# 3 -0.006034 0.000639 0.017237 0.000000 -0.004240 0.000000
# 4 0.000000 0.000000 0.000000 -0.156815 0.000000 0.083412
# 5 -0.014008 0.010970 -0.004240 0.000000 0.046441 0.000000
# 6 0.000000 0.000000 0.000000 0.083412 0.000000 -0.020550
#
#
# Mechanical properties :
#
#
# Convention : Reuss Voigt Hill
#
# Bulk Modulus (GPa) = 34.97787 43.54494 39.26140
# Shear Modulus (GPa) = -158.11317 26.52692 -65.79313
#
# Velocity S-wave (km/s) = -8.77552 3.59445 -5.66082
# Velocity P-wave (km/s) = 9.25438 6.19964 4.85840
#
# Compressibility (1/GPa) = 0.02858951
#
# Stress axis : x y z
#
# Youngs Moduli (GPa) = 52.77257 43.49027 58.01317
#
# Poissons Ratio (x) = 0.43058 0.35006
# Poissons Ratio (y) = 0.52249 -0.03710
# Poissons Ratio (z) = 0.31844 -0.02781
#
# Static dielectric constant tensor:
#      x y z
#    x 1.750970 0.000000 -0.051710 
#    y 0.000000 1.709320 0.000000 
#    z -0.051710 0.000000 1.845650 
# 
# From -- ./inp_files/34263.got.cif
#   From: 2010.05.17/outbox.ucp.g08.bks.cvg/sg15_18_cif.got.tgz:34263.got - 2010.06.11 12:40:34.
