data_PCOD9309488
_publ_section_title
;
Structure prediction by ZEFSAII (Michael W. Deem and Ramdas Pophale) SiO2 
 PCOD9309488
Probable space group: C 2/C
;
_chemical_formula_sum "Si O2"
_cell_formula_units_Z 32
_cell_length_a 30.000000
_cell_length_b 9.000000
_cell_length_c 18.000000
_cell_angle_alpha 90.000000
_cell_angle_beta 140.000000
_cell_angle_gamma 90.000000
_cell_volume 3123.947783
_symmetry_space_group_name_H-M "C 2/C"
_symmetry_group_IT_number 15
_symmetry_cell_setting 'monoclinic'
loop_
_space_group_symop_operation_xyz
x,y,z
-x,y,1/2-z
-x,-y,-z
x,-y,1/2+z
1/2+x,1/2+y,z
1/2-x,1/2+y,1/2-z
1/2-x,1/2-y,-z
1/2+x,1/2-y,1/2+z
loop_
_atom_site_type_symbol
_atom_site_label
_atom_site_fract_x
_atom_site_fract_y
_atom_site_fract_z
Si Si1 0.215870 0.660189 0.628961
Si Si2 0.084530 0.826093 0.678088
Si Si3 0.863187 0.620754 0.475209
Si Si4 0.772815 0.670605 0.685295
Si Si5 0.455999 0.154604 0.447656
Si Si6 0.689340 0.434530 0.501467
Si Si7 0.926856 0.176242 0.167736
Si Si8 0.139838 0.155119 0.774777
O O1 0.159150 0.542885 0.529811
O O2 0.223984 0.618046 0.725551
O O3 0.188723 0.821251 0.569405
O O4 0.291152 0.651219 0.687513
O O5 0.154595 0.752702 0.735879
O O6 0.080146 0.771759 0.757309
O O7 0.015101 0.775728 0.546508
O O8 0.098041 0.002486 0.704399
O O9 0.791812 0.714397 0.395019
O O10 0.898016 0.636037 0.438605
O O11 0.918933 0.687774 0.602329
O O12 0.756916 0.539662 0.604943
O O13 0.411818 0.212982 0.319358
O O14 0.500000 0.000000 0.500000
O O15 0.629701 0.556339 0.426629
O O16 0.672593 0.352222 0.401013
O O17 0.000000 0.100221 0.250000
#
# Coordination Sequence:
#
# PCOD9309488 Si02
#       8
#     8   8   8   8   8   8   8   8
#     4  12  23  42  67 101 139 173 231 288 350 407
#     4  11  24  43  72  99 133 186 231 290 346 426
#     4  11  23  42  67  99 129 185 230 284 347 413
#     4  11  23  43  73 103 134 179 239 280 347 418
#     4  12  26  45  67 100 144 182 238 286 353 419
#     4  10  26  42  69 102 138 179 230 290 345 419
#     4  10  22  45  67  93 137 181 233 283 351 424
#     4  11  25  45  68 101 138 186 228 289 351 417
#
# _framework density 10.243449
#
# number of rings (size 3 to 8) (size 9 to 14) (size 15 to 20)
#    0.000    1.000    3.750    2.250    3.500    2.500 
#    9.000    0.000    0.000    0.000    0.000    0.000 
#    0.000    0.000    0.000    0.000    0.000    0.000 
#
# Total GULP energy -178429.846815 kJ/mol
# GULP energy per Si atom -5575.932713 kJ/mol
# Density = 1.022013 g / cm^3
# Si number density = 10.243449 Si / 1000 Ang^3
#
#
#
# Elastic Constant Matrix: (Units=GPa)
#
#
# Indices 1 2 3 4 5 6 
#
# 1 69.9499 14.7789 17.1691 0.0000 10.9914 0.0000
# 2 14.7789 50.9294 40.1624 0.0000 -11.3830 0.0000
# 3 17.1691 40.1624 87.1913 0.0000 5.8654 0.0000
# 4 0.0000 0.0000 0.0000 -1.7254 0.0000 6.3296
# 5 10.9914 -11.3830 5.8654 0.0000 29.6235 0.0000
# 6 0.0000 0.0000 0.0000 6.3296 0.0000 16.3629
#
#
#
# Elastic Compliance Matrix: (Units=1/GPa)
#
#
# Indices 1 2 3 4 5 6 
#
# 1 0.017241 -0.007806 0.000844 0.000000 -0.009564 0.000000
# 2 -0.007806 0.042532 -0.019610 0.000000 0.023122 0.000000
# 3 0.000844 -0.019610 0.021145 0.000000 -0.012035 0.000000
# 4 0.000000 0.000000 0.000000 -0.239585 0.000000 0.092678
# 5 -0.009564 0.023122 -0.012035 0.000000 0.048573 0.000000
# 6 0.000000 0.000000 0.000000 0.092678 0.000000 0.025263
#
#
# Mechanical properties :
#
#
# Convention : Reuss Voigt Hill
#
# Bulk Modulus (GPa) = 36.00407 39.14348 37.57378
# Shear Modulus (GPa) = -222.93640 17.91621 -102.51009
#
# Velocity S-wave (km/s) = -10.44295 2.96044 -7.08135
# Velocity P-wave (km/s) = 11.30463 5.55281 6.96279
#
# Compressibility (1/GPa) = 0.02777464
#
# Stress axis : x y z
#
# Youngs Moduli (GPa) = 58.00187 23.51154 47.29226
#
# Poissons Ratio (x) = 0.18354 -0.03992
# Poissons Ratio (y) = 0.45278 0.92739
# Poissons Ratio (z) = -0.04896 0.46105
#
# Static dielectric constant tensor:
#      x y z
#    x 1.760310 0.000000 -0.024450 
#    y 0.000000 1.775300 0.000000 
#    z -0.024450 0.000000 1.734600 
# 
# From -- ./inp_files/224671.got.cif
#   From: 2010.05.17/outbox.ucp.g08.bks.cvg/sg15_113_cif.got.tgz:224671.got - 2010.06.11 12:40:34.
