data_PCOD9309020
_publ_section_title
;
Structure prediction by ZEFSAII (Michael W. Deem and Ramdas Pophale) SiO2 
 PCOD9309020
Probable space group: C 2/C
;
_chemical_formula_sum "Si O2"
_cell_formula_units_Z 22
_cell_length_a 9.000000
_cell_length_b 24.000000
_cell_length_c 12.000000
_cell_angle_alpha 90.000000
_cell_angle_beta 60.000000
_cell_angle_gamma 90.000000
_cell_volume 2244.737847
_symmetry_space_group_name_H-M "C 2/C"
_symmetry_group_IT_number 15
_symmetry_cell_setting 'monoclinic'
loop_
_space_group_symop_operation_xyz
x,y,z
-x,y,1/2-z
-x,-y,-z
x,-y,1/2+z
1/2+x,1/2+y,z
1/2-x,1/2+y,1/2-z
1/2-x,1/2-y,-z
1/2+x,1/2-y,1/2+z
loop_
_atom_site_type_symbol
_atom_site_label
_atom_site_fract_x
_atom_site_fract_y
_atom_site_fract_z
Si Si1 0.696714 0.268085 0.393245
Si Si2 0.349313 0.849706 0.714826
Si Si3 0.522956 0.369582 0.987924
Si Si4 0.684336 0.080439 0.493353
Si Si5 0.082415 0.020820 0.591671
Si Si6 0.500000 0.854001 0.250000
O O1 0.750000 0.250000 0.500000
O O2 0.672303 0.211591 0.332608
O O3 0.528552 0.307182 0.456141
O O4 0.842231 0.310864 0.293328
O O5 0.500000 0.850515 0.750000
O O6 0.178901 0.865831 0.844945
O O7 0.363298 0.894201 0.608720
O O8 0.358852 0.391402 0.977917
O O9 0.571934 0.412934 0.068495
O O10 0.541815 0.104383 0.631993
O O11 0.739588 0.015032 0.470016
O O12 0.000000 0.011664 0.750000
O O13 0.000000 0.000000 0.500000
#
# Coordination Sequence:
#
# PCOD9309020 Si02
#       6
#     8   8   8   8   8   4
#     4  11  21  40  70  99 139 196 229 285 348 438
#     4  12  25  41  63 105 144 180 230 292 359 416
#     4  10  22  42  70  97 132 187 239 280 349 425
#     4  10  21  42  70  97 133 187 233 288 343 426
#     4  10  21  43  74 102 129 182 243 292 340 421
#     4  10  20  38  68 104 128 172 252 272 350 410
#
# _framework density 9.8006989999999998
#
# number of rings (size 3 to 8) (size 9 to 14) (size 15 to 20)
#    0.000    1.455    3.636    3.818    0.000    1.455 
#   11.455    0.909    0.000    0.000    0.000    0.000 
#    0.000    0.000    0.000    0.000    0.000    0.000 
#
# Total GULP energy -122585.449408 kJ/mol
# GULP energy per Si atom -5572.065882 kJ/mol
# Density = 0.977839 g / cm^3
# Si number density = 9.800699 Si / 1000 Ang^3
#
#
#
# Elastic Constant Matrix: (Units=GPa)
#
#
# Indices 1 2 3 4 5 6 
#
# 1 69.7546 31.8644 47.5034 0.0000 20.1166 0.0000
# 2 31.8644 118.9990 44.0512 0.0000 17.8141 0.0000
# 3 47.5034 44.0512 154.7827 0.0000 10.0566 0.0000
# 4 0.0000 0.0000 0.0000 42.4973 0.0000 5.2581
# 5 20.1166 17.8141 10.0566 0.0000 30.4068 0.0000
# 6 0.0000 0.0000 0.0000 5.2581 0.0000 37.3578
#
#
#
# Elastic Compliance Matrix: (Units=1/GPa)
#
#
# Indices 1 2 3 4 5 6 
#
# 1 0.022492 -0.002225 -0.005506 0.000000 -0.011756 0.000000
# 2 -0.002225 0.010326 -0.002002 0.000000 -0.003916 0.000000
# 3 -0.005506 -0.002002 0.008592 0.000000 0.001974 0.000000
# 4 0.000000 0.000000 0.000000 0.023948 0.000000 -0.003371
# 5 -0.011756 -0.003916 0.001974 0.000000 0.042306 0.000000
# 6 0.000000 0.000000 0.000000 -0.003371 0.000000 0.027243
#
#
# Mechanical properties :
#
#
# Convention : Reuss Voigt Hill
#
# Bulk Modulus (GPa) = 45.56683 65.59715 55.58199
# Shear Modulus (GPa) = 30.92388 36.72686 33.82537
#
# Velocity S-wave (km/s) = 3.97626 4.33331 4.15861
# Velocity P-wave (km/s) = 6.66168 7.65342 7.17471
#
# Compressibility (1/GPa) = 0.02194579
#
# Stress axis : x y z
#
# Youngs Moduli (GPa) = 44.45995 96.83974 116.38831
#
# Poissons Ratio (x) = 0.21543 0.64083
# Poissons Ratio (y) = 0.09891 0.23297
# Poissons Ratio (z) = 0.24480 0.19384
#
# Static dielectric constant tensor:
#      x y z
#    x 1.696460 0.000000 -0.025070 
#    y 0.000000 1.739440 0.000000 
#    z -0.025070 0.000000 1.723810 
# 
# From -- ./inp_files/79701.got.cif
#   From: 2010.05.17/outbox.ucp.g08.bks.cvg/sg15_40_cif.got.tgz:79701.got - 2010.06.11 12:40:34.
