data_PCOD9309492
_publ_section_title
;
Structure prediction by ZEFSAII (Michael W. Deem and Ramdas Pophale) SiO2 
 PCOD9309492
Probable space group: C 2/C
;
_chemical_formula_sum "Si O2"
_cell_formula_units_Z 26
_cell_length_a 9.000000
_cell_length_b 21.000000
_cell_length_c 18.000000
_cell_angle_alpha 90.000000
_cell_angle_beta 50.000000
_cell_angle_gamma 90.000000
_cell_volume 2606.083195
_symmetry_space_group_name_H-M "C 2/C"
_symmetry_group_IT_number 15
_symmetry_cell_setting 'monoclinic'
loop_
_space_group_symop_operation_xyz
x,y,z
-x,y,1/2-z
-x,-y,-z
x,-y,1/2+z
1/2+x,1/2+y,z
1/2-x,1/2+y,1/2-z
1/2-x,1/2-y,-z
1/2+x,1/2-y,1/2+z
loop_
_atom_site_type_symbol
_atom_site_label
_atom_site_fract_x
_atom_site_fract_y
_atom_site_fract_z
Si Si1 0.795186 0.185356 0.528965
Si Si2 0.019168 0.739581 0.082764
Si Si3 0.375396 0.884163 0.148298
Si Si4 0.862029 0.482871 0.723980
Si Si5 0.500000 0.706983 0.750000
Si Si6 0.448095 0.092698 0.058533
Si Si7 0.979165 0.104928 0.340935
O O1 0.750000 0.250000 0.500000
O O2 0.585115 0.148761 0.602870
O O3 0.943468 0.148306 0.425437
O O4 0.899367 0.208635 0.571598
O O5 0.988551 0.750538 0.179803
O O6 0.958076 0.668202 0.076993
O O7 0.250000 0.750000 0.000000
O O8 0.195854 0.835879 0.194276
O O9 0.325592 0.942671 0.218463
O O10 0.410848 0.914348 0.055740
O O11 0.982553 0.450553 0.618215
O O12 0.660940 0.442407 0.793325
O O13 0.000000 0.477161 0.750000
O O14 0.232662 0.073781 0.100098
O O15 0.000000 0.135718 0.250000
#
# Coordination Sequence:
#
# PCOD9309492 Si02
#       7
#     8   8   8   8   4   8   8
#     4  11  22  46  72 101 145 179 234 292 366 423
#     4  12  25  45  70 107 141 178 233 294 364 430
#     4  11  25  47  67 103 137 188 233 293 353 414
#     4  11  26  42  67 101 136 180 244 287 340 423
#     4  12  28  42  74 100 148 188 224 302 354 430
#     4  10  22  47  68  95 137 183 226 287 355 419
#     4   9  21  41  68 101 129 189 230 283 350 421
#
# _framework density 9.9766580000000005
#
# number of rings (size 3 to 8) (size 9 to 14) (size 15 to 20)
#    0.000    1.231    4.615    0.462    8.615    3.692 
#    0.000    3.077    0.000    0.000    0.000    0.000 
#    0.000    0.000    0.000    0.000    0.000    0.000 
#
# Total GULP energy -145060.324726 kJ/mol
# GULP energy per Si atom -5579.243259 kJ/mol
# Density = 0.995395 g / cm^3
# Si number density = 9.976658 Si / 1000 Ang^3
#
#
#
# Elastic Constant Matrix: (Units=GPa)
#
#
# Indices 1 2 3 4 5 6 
#
# 1 142.6197 43.8408 40.8553 0.0000 12.2295 0.0000
# 2 43.8408 93.0525 19.5046 0.0000 -0.4745 0.0000
# 3 40.8553 19.5046 77.6432 0.0000 1.4491 0.0000
# 4 0.0000 0.0000 0.0000 34.1218 0.0000 3.4675
# 5 12.2295 -0.4745 1.4491 0.0000 48.4262 0.0000
# 6 0.0000 0.0000 0.0000 3.4675 0.0000 32.6378
#
#
#
# Elastic Compliance Matrix: (Units=1/GPa)
#
#
# Indices 1 2 3 4 5 6 
#
# 1 0.009482 -0.003634 -0.004034 0.000000 -0.002310 0.000000
# 2 -0.003634 0.012738 -0.001308 0.000000 0.001082 0.000000
# 3 -0.004034 -0.001308 0.015320 0.000000 0.000547 0.000000
# 4 0.000000 0.000000 0.000000 0.029627 0.000000 -0.003148
# 5 -0.002310 0.001082 0.000547 0.000000 0.021227 0.000000
# 6 0.000000 0.000000 0.000000 -0.003148 0.000000 0.030974
#
#
# Mechanical properties :
#
#
# Convention : Reuss Voigt Hill
#
# Bulk Modulus (GPa) = 51.04647 57.96851 54.50749
# Shear Modulus (GPa) = 34.75860 36.97813 35.86837
#
# Velocity S-wave (km/s) = 4.17825 4.30959 4.24443
# Velocity P-wave (km/s) = 6.99396 7.34020 7.16917
#
# Compressibility (1/GPa) = 0.01958999
#
# Stress axis : x y z
#
# Youngs Moduli (GPa) = 105.46134 78.50323 65.27318
#
# Poissons Ratio (x) = 0.28526 0.26328
# Poissons Ratio (y) = 0.38322 0.08538
# Poissons Ratio (z) = 0.42538 0.10269
#
# Static dielectric constant tensor:
#      x y z
#    x 1.685200 0.000000 0.018030 
#    y 0.000000 1.716620 0.000000 
#    z 0.018030 0.000000 1.758430 
# 
# From -- ./inp_files/192470.got.cif
#   From: 2010.05.17/outbox.ucp.g08.bks.cvg/sg15_97_cif.got.tgz:192470.got - 2010.06.11 12:40:34.
