data_PCOD9309357
_publ_section_title
;
Structure prediction by ZEFSAII (Michael W. Deem and Ramdas Pophale) SiO2 
 PCOD9309357
Probable space group: C 2/C
;
_chemical_formula_sum "Si O2"
_cell_formula_units_Z 28
_cell_length_a 15.000000
_cell_length_b 18.000000
_cell_length_c 21.000000
_cell_angle_alpha 90.000000
_cell_angle_beta 150.000000
_cell_angle_gamma 90.000000
_cell_volume 2835.000000
_symmetry_space_group_name_H-M "C 2/C"
_symmetry_group_IT_number 15
_symmetry_cell_setting 'monoclinic'
loop_
_space_group_symop_operation_xyz
x,y,z
-x,y,1/2-z
-x,-y,-z
x,-y,1/2+z
1/2+x,1/2+y,z
1/2-x,1/2+y,1/2-z
1/2-x,1/2-y,-z
1/2+x,1/2-y,1/2+z
loop_
_atom_site_type_symbol
_atom_site_label
_atom_site_fract_x
_atom_site_fract_y
_atom_site_fract_z
Si Si1 0.068036 0.990678 0.195226
Si Si2 0.913592 0.120791 0.382409
Si Si3 0.583680 0.026195 0.234270
Si Si4 0.171245 0.726180 0.520825
Si Si5 0.702923 0.391695 0.166618
Si Si6 0.714917 0.949654 0.052589
Si Si7 0.774481 0.236655 0.732628
O O1 0.035837 0.071516 0.146898
O O2 0.091016 0.943148 0.145717
O O3 0.237276 0.982008 0.347764
O O4 0.896922 0.961819 0.126369
O O5 0.746396 0.079860 0.314242
O O6 0.842679 0.197631 0.313714
O O7 0.067164 0.135395 0.528746
O O8 0.500000 0.050527 0.250000
O O9 0.662619 0.944101 0.288164
O O10 0.444958 0.021187 0.090020
O O11 0.250000 0.750000 0.500000
O O12 0.177514 0.637720 0.531222
O O13 0.261219 0.745641 0.646332
O O14 0.970999 0.754589 0.384695
O O15 0.792107 0.337312 0.273426
#
# Coordination Sequence:
#
# PCOD9309357 Si02
#       7
#     8   8   8   8   8   8   8
#     4  10  22  39  61  88 124 162 198 259 313 368
#     4  11  23  40  61  89 123 161 204 256 313 373
#     4  11  23  38  63  90 116 159 210 260 300 366
#     4  12  25  38  59  93 132 163 198 254 312 384
#     4  11  22  41  61  86 124 165 204 254 310 373
#     4  11  22  38  62  91 122 156 209 254 311 369
#     4  12  24  40  61  88 126 167 206 245 314 372
#
# _framework density 9.8765429999999999
#
# number of rings (size 3 to 8) (size 9 to 14) (size 15 to 20)
#    0.000    0.857    4.286    4.714    4.000    3.429 
#    0.000    0.000    3.143    1.714    0.000    0.000 
#    0.000    0.000    0.000    0.000    0.000    0.000 
#
# Total GULP energy -155888.085341 kJ/mol
# GULP energy per Si atom -5567.431619 kJ/mol
# Density = 0.985406 g / cm^3
# Si number density = 9.876543 Si / 1000 Ang^3
#
#
#
# Elastic Constant Matrix: (Units=GPa)
#
#
# Indices 1 2 3 4 5 6 
#
# 1 20.8039 -15.9663 -15.9363 0.0017 -11.9852 0.0002
# 2 -15.9663 48.3079 -7.5595 0.0037 1.7682 0.0004
# 3 -15.9363 -7.5595 118.0650 0.0071 -13.9708 0.0013
# 4 0.0017 0.0037 0.0071 11.8883 -0.0001 -8.9448
# 5 -11.9852 1.7682 -13.9708 -0.0001 31.2178 -0.0006
# 6 0.0002 0.0004 0.0013 -8.9448 -0.0006 21.8084
#
#
#
# Elastic Compliance Matrix: (Units=1/GPa)
#
#
# Indices 1 2 3 4 5 6 
#
# 1 0.156348 0.054223 0.033066 -0.000086 0.071752 -0.000037
# 2 0.054223 0.039726 0.012734 -0.000041 0.024266 -0.000018
# 3 0.033066 0.012734 0.016013 -0.000027 0.019140 -0.000012
# 4 -0.000086 -0.000041 -0.000027 0.121661 -0.000041 0.049900
# 5 0.071752 0.024266 0.019140 -0.000041 0.066772 -0.000017
# 6 -0.000037 -0.000018 -0.000012 0.049900 -0.000017 0.066321
#
#
# Mechanical properties :
#
#
# Convention : Reuss Voigt Hill
#
# Bulk Modulus (GPa) = 2.42639 12.02807 7.22723
# Shear Modulus (GPa) = 12.37092 28.09215 20.23153
#
# Velocity S-wave (km/s) = 2.50527 3.77525 3.20382
# Velocity P-wave (km/s) = 3.09831 5.01057 4.16565
#
# Compressibility (1/GPa) = 0.41213414
#
# Stress axis : x y z
#
# Youngs Moduli (GPa) = 6.39597 25.17222 62.44796
#
# Poissons Ratio (x) = -1.36491 -2.06491
# Poissons Ratio (y) = -0.34681 -0.79521
# Poissons Ratio (z) = -0.21149 -0.32054
#
# Static dielectric constant tensor:
#      x y z
#    x 1.691410 0.000000 0.020740 
#    y 0.000000 1.963820 -0.000010 
#    z 0.020740 -0.000010 1.720740 
# 
# From -- ./inp_files/245189.got.cif
#   From: 2010.05.17/outbox.ucp.g08.bks.cvg/sg15_123_cif.got.tgz:245189.got - 2010.06.11 12:40:34.
