data_PCOD9309905
_publ_section_title
;
Structure prediction by ZEFSAII (Michael W. Deem and Ramdas Pophale) SiO2 
 PCOD9309905
Probable space group: C 2/C
;
_chemical_formula_sum "Si O2"
_cell_formula_units_Z 24
_cell_length_a 18.000000
_cell_length_b 9.000000
_cell_length_c 15.000000
_cell_angle_alpha 90.000000
_cell_angle_beta 90.000000
_cell_angle_gamma 90.000000
_cell_volume 2430.000000
_symmetry_space_group_name_H-M "C 2/C"
_symmetry_group_IT_number 15
_symmetry_cell_setting 'monoclinic'
loop_
_space_group_symop_operation_xyz
x,y,z
-x,y,1/2-z
-x,-y,-z
x,-y,1/2+z
1/2+x,1/2+y,z
1/2-x,1/2+y,1/2-z
1/2-x,1/2-y,-z
1/2+x,1/2-y,1/2+z
loop_
_atom_site_type_symbol
_atom_site_label
_atom_site_fract_x
_atom_site_fract_y
_atom_site_fract_z
Si Si1 0.804289 0.805785 0.728621
Si Si2 0.056557 0.148848 0.991509
Si Si3 0.315210 0.401004 0.348605
Si Si4 0.041849 0.700159 0.155002
Si Si5 0.289783 0.490556 0.551202
Si Si6 0.871654 0.611716 0.873899
O O1 0.728160 0.718061 0.711860
O O2 0.856214 0.681971 0.775636
O O3 0.805267 0.941450 0.798957
O O4 0.814616 0.877032 0.630189
O O5 0.137770 0.095307 0.958013
O O6 0.017058 0.256176 0.920727
O O7 0.080769 0.259687 0.073848
O O8 0.000000 0.000000 0.000000
O O9 0.398242 0.335456 0.348712
O O10 0.285482 0.417760 0.451109
O O11 0.083852 0.544137 0.134193
O O12 0.000000 0.693275 0.250000
O O13 0.210541 0.568913 0.580979
#
# Coordination Sequence:
#
# PCOD9309905 Si02
#       6
#     8   8   8   8   8   8
#     4  12  24  44  74 107 148 185 251 298 365 427
#     4  12  26  47  73 105 147 192 238 299 373 435
#     4  12  24  46  72 111 145 192 243 305 367 433
#     4  12  27  48  71 106 151 191 239 303 374 436
#     4  12  25  45  80 106 148 192 253 304 363 436
#     4  12  27  47  74 109 144 196 250 302 364 439
#
# _framework density 9.8765429999999999
#
# number of rings (size 3 to 8) (size 9 to 14) (size 15 to 20)
#    0.000    0.000    6.667    2.500    0.000    2.667 
#    0.000    0.833    0.000    0.000    0.000    0.000 
#    0.000    0.000    0.000    0.000    0.000    0.000 
#
# Total GULP energy -133865.746855 kJ/mol
# GULP energy per Si atom -5577.739452 kJ/mol
# Density = 0.985406 g / cm^3
# Si number density = 9.876543 Si / 1000 Ang^3
#
#
#
# Elastic Constant Matrix: (Units=GPa)
#
#
# Indices 1 2 3 4 5 6 
#
# 1 109.1187 51.0885 50.5008 0.0000 17.1871 0.0000
# 2 51.0885 120.4656 49.3672 0.0000 1.6733 0.0000
# 3 50.5008 49.3672 138.7292 0.0000 16.5701 0.0000
# 4 0.0000 0.0000 0.0000 55.0451 0.0000 10.8280
# 5 17.1871 1.6733 16.5701 0.0000 44.2148 0.0000
# 6 0.0000 0.0000 0.0000 10.8280 0.0000 51.6549
#
#
#
# Elastic Compliance Matrix: (Units=1/GPa)
#
#
# Indices 1 2 3 4 5 6 
#
# 1 0.013097 -0.004375 -0.002745 0.000000 -0.003897 0.000000
# 2 -0.004375 0.011220 -0.002672 0.000000 0.002277 0.000000
# 3 -0.002745 -0.002672 0.009442 0.000000 -0.002370 0.000000
# 4 0.000000 0.000000 0.000000 0.018948 0.000000 -0.003972
# 5 -0.003897 0.002277 -0.002370 0.000000 0.024934 0.000000
# 6 0.000000 0.000000 0.000000 -0.003972 0.000000 0.020192
#
#
# Mechanical properties :
#
#
# Convention : Reuss Voigt Hill
#
# Bulk Modulus (GPa) = 70.55373 74.46962 72.51167
# Shear Modulus (GPa) = 40.93600 44.67340 42.80470
#
# Velocity S-wave (km/s) = 4.55728 4.76078 4.66014
# Velocity P-wave (km/s) = 7.96788 8.24634 8.10831
#
# Compressibility (1/GPa) = 0.01417359
#
# Stress axis : x y z
#
# Youngs Moduli (GPa) = 76.35308 89.12681 105.91448
#
# Poissons Ratio (x) = 0.38995 0.29077
# Poissons Ratio (y) = 0.33406 0.28300
# Poissons Ratio (z) = 0.20961 0.23815
#
# Static dielectric constant tensor:
#      x y z
#    x 1.699110 0.000000 0.005660 
#    y 0.000000 1.734770 0.000000 
#    z 0.005660 0.000000 1.707870 
# 
# From -- ./inp_files/159722.got.cif
#   From: 2010.05.17/outbox.ucp.g08.bks.cvg/sg15_80_cif.got.tgz:159722.got - 2010.06.11 12:40:34.
