data_PCOD9309233
_publ_section_title
;
Structure prediction by ZEFSAII (Michael W. Deem and Ramdas Pophale) SiO2 
 PCOD9309233
Probable space group: C 2/C
;
_chemical_formula_sum "Si O2"
_cell_formula_units_Z 30
_cell_length_a 27.000000
_cell_length_b 6.000000
_cell_length_c 21.000000
_cell_angle_alpha 90.000000
_cell_angle_beta 60.000000
_cell_angle_gamma 90.000000
_cell_volume 2946.218424
_symmetry_space_group_name_H-M "C 2/C"
_symmetry_group_IT_number 15
_symmetry_cell_setting 'monoclinic'
loop_
_space_group_symop_operation_xyz
x,y,z
-x,y,1/2-z
-x,-y,-z
x,-y,1/2+z
1/2+x,1/2+y,z
1/2-x,1/2+y,1/2-z
1/2-x,1/2-y,-z
1/2+x,1/2-y,1/2+z
loop_
_atom_site_type_symbol
_atom_site_label
_atom_site_fract_x
_atom_site_fract_y
_atom_site_fract_z
Si Si1 0.628451 0.493305 0.400295
Si Si2 0.228994 0.223399 0.907855
Si Si3 0.934469 0.499131 0.066332
Si Si4 0.326868 0.422298 0.770936
Si Si5 0.202036 0.558993 0.035149
Si Si6 0.105917 0.789107 0.169832
Si Si7 0.000000 0.911571 0.750000
Si Si8 0.072181 0.411096 0.283491
O O1 0.682086 0.453330 0.413382
O O2 0.596846 0.745653 0.428313
O O3 0.655770 0.495958 0.310975
O O4 0.594074 0.249588 0.430498
O O5 0.262143 0.349466 0.828890
O O6 0.276777 0.100749 0.920734
O O7 0.201161 0.408373 0.972378
O O8 0.938243 0.500076 0.140072
O O9 0.000000 0.500000 0.000000
O O10 0.348868 0.594037 0.810908
O O11 0.366225 0.205775 0.755292
O O12 0.142254 0.676721 0.090544
O O13 0.250000 0.750000 0.000000
O O14 0.054693 0.956960 0.186812
O O15 0.073997 0.601195 0.230363
O O16 0.973974 0.767949 0.709430
#
# Coordination Sequence:
#
# PCOD9309233 Si02
#       8
#     8   8   8   8   8   8   4   8
#     4  11  26  46  74 108 137 185 248 296 349 436
#     4  11  25  43  66 108 137 183 235 290 360 432
#     4  11  25  50  72  99 143 190 231 300 371 416
#     4  10  21  40  70  95 137 178 230 292 355 418
#     4  11  24  43  68  96 150 189 219 292 373 428
#     4  11  20  42  68  94 134 183 231 279 355 414
#     4  10  24  38  66 104 126 176 248 286 328 418
#     4  10  21  43  65  96 134 177 231 287 347 412
#
# _framework density 10.182544
#
# number of rings (size 3 to 8) (size 9 to 14) (size 15 to 20)
#    0.000    1.333    4.000    0.800    1.867    3.200 
#    7.200    0.000    0.000    0.000    0.000    0.000 
#    0.000    0.000    0.000    0.000    0.000    0.000 
#
# Total GULP energy -167268.612318 kJ/mol
# GULP energy per Si atom -5575.620411 kJ/mol
# Density = 1.015937 g / cm^3
# Si number density = 10.182544 Si / 1000 Ang^3
#
#
#
# Elastic Constant Matrix: (Units=GPa)
#
#
# Indices 1 2 3 4 5 6 
#
# 1 75.0887 23.2763 27.0837 0.0043 -15.7392 0.0157
# 2 23.2763 101.8535 31.0170 0.0345 -14.8780 0.0207
# 3 27.0837 31.0170 85.2914 0.0031 -17.2075 0.0211
# 4 0.0043 0.0345 0.0031 29.7799 0.0025 7.4559
# 5 -15.7392 -14.8780 -17.2075 0.0025 22.3324 -0.0103
# 6 0.0157 0.0207 0.0211 7.4559 -0.0103 28.7776
#
#
#
# Elastic Compliance Matrix: (Units=1/GPa)
#
#
# Indices 1 2 3 4 5 6 
#
# 1 0.016664 -0.001679 -0.003004 0.000000 0.008311 -0.000003
# 2 -0.001679 0.011712 -0.002831 -0.000013 0.004438 0.000000
# 3 -0.003004 -0.002831 0.015275 0.000003 0.007767 -0.000006
# 4 0.000000 -0.000013 0.000003 0.035909 -0.000015 -0.009304
# 5 0.008311 0.004438 0.007767 -0.000015 0.059576 0.000012
# 6 -0.000003 0.000000 -0.000006 -0.009304 0.000012 0.037160
#
#
# Mechanical properties :
#
#
# Convention : Reuss Voigt Hill
#
# Bulk Modulus (GPa) = 34.93753 47.22083 41.07918
# Shear Modulus (GPa) = 24.89248 28.23508 26.56378
#
# Velocity S-wave (km/s) = 3.49995 3.72754 3.61554
# Velocity P-wave (km/s) = 5.79014 6.46247 6.13552
#
# Compressibility (1/GPa) = 0.02862252
#
# Stress axis : x y z
#
# Youngs Moduli (GPa) = 60.01083 85.38210 65.46787
#
# Poissons Ratio (x) = 0.14338 0.19667
# Poissons Ratio (y) = 0.10078 0.18531
# Poissons Ratio (z) = 0.18028 0.24168
#
# Static dielectric constant tensor:
#      x y z
#    x 1.764020 0.000200 -0.025300 
#    y 0.000200 1.642200 -0.000200 
#    z -0.025300 -0.000200 1.753740 
# 
# From -- ./inp_files/256746.got.cif
#   From: 2010.05.17/outbox.ucp.g08.bks.cvg/sg15_129_cif.got.tgz:256746.got - 2010.06.11 12:40:34.
