data_PCOD9309295
_publ_section_title
;
Structure prediction by ZEFSAII (Michael W. Deem and Ramdas Pophale) SiO2 
 PCOD9309295
Probable space group: C 2/C
;
_chemical_formula_sum "Si O2"
_cell_formula_units_Z 22
_cell_length_a 24.000000
_cell_length_b 9.000000
_cell_length_c 30.000000
_cell_angle_alpha 90.000000
_cell_angle_beta 20.000000
_cell_angle_gamma 90.000000
_cell_volume 2216.290529
_symmetry_space_group_name_H-M "C 2/C"
_symmetry_group_IT_number 15
_symmetry_cell_setting 'monoclinic'
loop_
_space_group_symop_operation_xyz
x,y,z
-x,y,1/2-z
-x,-y,-z
x,-y,1/2+z
1/2+x,1/2+y,z
1/2-x,1/2+y,1/2-z
1/2-x,1/2-y,-z
1/2+x,1/2-y,1/2+z
loop_
_atom_site_type_symbol
_atom_site_label
_atom_site_fract_x
_atom_site_fract_y
_atom_site_fract_z
Si Si1 0.592454 0.680331 0.095282
Si Si2 0.275562 0.883256 0.087364
Si Si3 0.545621 0.872039 0.383145
Si Si4 0.623778 0.551968 0.367560
Si Si5 0.498891 0.377648 0.127106
Si Si6 0.000000 0.048571 0.250000
O O1 0.520386 0.786430 0.111386
O O2 0.610873 0.510473 0.063711
O O3 0.477014 0.653256 0.224478
O O4 0.750000 0.750000 0.000000
O O5 0.145064 0.843329 0.226617
O O6 0.158467 0.944277 0.135670
O O7 0.390779 0.754286 0.978202
O O8 0.398823 0.017654 0.009779
O O9 0.601330 0.730770 0.373333
O O10 0.695168 0.984947 0.259099
O O11 0.500000 0.500000 0.500000
O O12 0.581457 0.463278 0.354111
#
# Coordination Sequence:
#
# PCOD9309295 Si02
#       6
#     8   8   8   8   8   4
#     4  10  21  43  68 102 136 188 229 291 358 431
#     4  11  24  46  70 102 143 187 233 302 354 430
#     4  11  25  45  72 101 143 185 238 296 354 429
#     4  11  27  44  71 105 139 189 239 289 360 427
#     4  10  26  44  70 104 142 185 243 292 366 425
#     4  10  22  42  70  98 150 174 234 288 368 412
#
# _framework density 9.9264960000000002
#
# number of rings (size 3 to 8) (size 9 to 14) (size 15 to 20)
#    0.000    1.455    1.818    1.091   12.727    3.636 
#    0.000    0.000    0.000    0.000    0.000    0.000 
#    0.000    0.000    0.000    0.000    0.000    0.000 
#
# Total GULP energy -122524.017682 kJ/mol
# GULP energy per Si atom -5569.273531 kJ/mol
# Density = 0.990390 g / cm^3
# Si number density = 9.926496 Si / 1000 Ang^3
#
#
#
# Elastic Constant Matrix: (Units=GPa)
#
#
# Indices 1 2 3 4 5 6 
#
# 1 89.5721 36.8944 32.9299 -0.0011 5.8915 -0.0007
# 2 36.8944 151.5652 70.7860 0.0074 -4.5830 0.0017
# 3 32.9299 70.7860 144.3200 0.0049 0.9280 0.0013
# 4 -0.0011 0.0074 0.0049 50.9721 0.0006 -4.1702
# 5 5.8915 -4.5830 0.9280 0.0006 45.0361 0.0014
# 6 -0.0007 0.0017 0.0013 -4.1702 0.0014 32.8428
#
#
#
# Elastic Compliance Matrix: (Units=1/GPa)
#
#
# Indices 1 2 3 4 5 6 
#
# 1 0.012918 -0.002375 -0.001770 0.000001 -0.001895 0.000001
# 2 -0.002375 0.009036 -0.003899 -0.000001 0.001311 -0.000001
# 3 -0.001770 -0.003899 0.009248 0.000000 -0.000356 0.000000
# 4 0.000001 -0.000001 0.000000 0.019825 -0.000001 0.002517
# 5 -0.001895 0.001311 -0.000356 -0.000001 0.022593 -0.000001
# 6 0.000001 -0.000001 0.000000 0.002517 -0.000001 0.030768
#
#
# Mechanical properties :
#
#
# Convention : Reuss Voigt Hill
#
# Bulk Modulus (GPa) = 66.16540 74.07533 70.12037
# Shear Modulus (GPa) = 39.83644 42.09334 40.96489
#
# Velocity S-wave (km/s) = 4.48434 4.60961 4.54741
# Velocity P-wave (km/s) = 7.75966 8.10705 7.93526
#
# Compressibility (1/GPa) = 0.01511364
#
# Stress axis : x y z
#
# Youngs Moduli (GPa) = 77.41160 110.66365 108.13696
#
# Poissons Ratio (x) = 0.26282 0.19145
# Poissons Ratio (y) = 0.18385 0.42159
# Poissons Ratio (z) = 0.13705 0.43144
#
# Static dielectric constant tensor:
#      x y z
#    x 1.750410 0.000000 0.005980 
#    y 0.000000 1.749460 0.000000 
#    z 0.005980 0.000000 1.778690 
# 
# From -- ./inp_files/318548.got.cif
#   From: 2010.05.17/outbox.ucp.g08.bks.cvg/sg15_160_cif.got.tgz:318548.got - 2010.06.11 12:40:34.
