data_PCOD9309561
_publ_section_title
;
Structure prediction by ZEFSAII (Michael W. Deem and Ramdas Pophale) SiO2 
 PCOD9309561
Probable space group: C 2/C
;
_chemical_formula_sum "Si O2"
_cell_formula_units_Z 28
_cell_length_a 6.000000
_cell_length_b 30.000000
_cell_length_c 15.000000
_cell_angle_alpha 90.000000
_cell_angle_beta 90.000000
_cell_angle_gamma 90.000000
_cell_volume 2700.000000
_symmetry_space_group_name_H-M "C 2/C"
_symmetry_group_IT_number 15
_symmetry_cell_setting 'monoclinic'
loop_
_space_group_symop_operation_xyz
x,y,z
-x,y,1/2-z
-x,-y,-z
x,-y,1/2+z
1/2+x,1/2+y,z
1/2-x,1/2+y,1/2-z
1/2-x,1/2-y,-z
1/2+x,1/2-y,1/2+z
loop_
_atom_site_type_symbol
_atom_site_label
_atom_site_fract_x
_atom_site_fract_y
_atom_site_fract_z
Si Si1 0.883791 0.252918 0.337966
Si Si2 0.310623 0.010444 0.929635
Si Si3 0.000000 0.549633 0.750000
Si Si4 0.500000 0.697766 0.750000
Si Si5 0.499755 0.332342 0.927238
Si Si6 0.262938 0.878539 0.143457
Si Si7 0.977964 0.926362 0.522167
Si Si8 0.004444 0.320444 0.019572
O O1 0.633429 0.269494 0.317960
O O2 0.952104 0.201661 0.347586
O O3 0.000000 0.271836 0.250000
O O4 0.978458 0.273946 0.428434
O O5 0.408020 0.021443 0.832811
O O6 0.147805 0.967772 0.932417
O O7 0.190649 0.052784 0.973894
O O8 0.500000 0.000000 0.000000
O O9 0.811828 0.583468 0.714769
O O10 0.364144 0.663166 0.812732
O O11 0.496102 0.385262 0.910557
O O12 0.758255 0.322726 0.967391
O O13 0.255336 0.326067 0.978631
O O14 0.482138 0.857510 0.097584
O O15 0.146216 0.903322 0.061288
#
# Coordination Sequence:
#
# PCOD9309561 Si02
#       8
#     8   8   4   4   8   8   8   8
#     4  12  25  42  63  99 143 186 232 294 349 412
#     4  11  23  44  68 103 139 178 228 294 361 432
#     4  12  22  38  72 107 140 180 225 298 368 434
#     4  12  24  40  64 105 150 180 239 310 354 418
#     4  11  26  43  73  96 136 192 237 281 352 429
#     4  11  21  40  69 104 135 177 232 293 363 405
#     4  10  23  44  69  96 139 178 237 292 351 430
#     4  11  23  44  67 102 134 181 235 291 349 421
#
# _framework density 10.370369999999999
#
# number of rings (size 3 to 8) (size 9 to 14) (size 15 to 20)
#    0.000    0.857    2.857    5.143    4.000    0.000 
#    0.000    1.429    0.000    0.000    0.000    0.000 
#    0.000    0.000    0.000    0.000    0.000    0.000 
#
# Total GULP energy -155874.749118 kJ/mol
# GULP energy per Si atom -5566.955326 kJ/mol
# Density = 1.034677 g / cm^3
# Si number density = 10.370370 Si / 1000 Ang^3
#
#
#
# Elastic Constant Matrix: (Units=GPa)
#
#
# Indices 1 2 3 4 5 6 
#
# 1 94.8250 28.8679 38.1474 0.0000 -2.4830 0.0000
# 2 28.8679 117.2324 35.8158 0.0000 18.1037 0.0000
# 3 38.1474 35.8158 72.1173 0.0000 3.8240 0.0000
# 4 0.0000 0.0000 0.0000 35.9624 0.0000 2.6802
# 5 -2.4830 18.1037 3.8240 0.0000 16.4247 0.0000
# 6 0.0000 0.0000 0.0000 2.6802 0.0000 37.7982
#
#
#
# Elastic Compliance Matrix: (Units=1/GPa)
#
#
# Indices 1 2 3 4 5 6 
#
# 1 0.014105 -0.002444 -0.006585 0.000000 0.006359 0.000000
# 2 -0.002444 0.012434 -0.004188 0.000000 -0.013100 0.000000
# 3 -0.006585 -0.004188 0.019478 0.000000 -0.000914 0.000000
# 4 0.000000 0.000000 0.000000 0.027955 0.000000 -0.001982
# 5 0.006359 -0.013100 -0.000914 0.000000 0.076497 0.000000
# 6 0.000000 0.000000 0.000000 -0.001982 0.000000 0.026597
#
#
# Mechanical properties :
#
#
# Convention : Reuss Voigt Hill
#
# Bulk Modulus (GPa) = 51.06100 54.42631 52.74365
# Shear Modulus (GPa) = 23.80653 30.12661 26.96657
#
# Velocity S-wave (km/s) = 3.39162 3.81535 3.60970
# Velocity P-wave (km/s) = 6.32531 6.76072 6.54664
#
# Compressibility (1/GPa) = 0.01958442
#
# Stress axis : x y z
#
# Youngs Moduli (GPa) = 70.89611 80.42323 51.34059
#
# Poissons Ratio (x) = 0.19652 0.33806
# Poissons Ratio (y) = 0.17324 0.21502
# Poissons Ratio (z) = 0.46683 0.33682
#
# Static dielectric constant tensor:
#      x y z
#    x 1.833250 0.000000 -0.007120 
#    y 0.000000 2.382150 0.000000 
#    z -0.007120 0.000000 1.757710 
# 
# From -- ./inp_files/130803.got.cif
#   From: 2010.05.17/outbox.ucp.g08.bks.cvg/sg15_66_cif.got.tgz:130803.got - 2010.06.11 12:40:34.
