data_PCOD9309464
_publ_section_title
;
Structure prediction by ZEFSAII (Michael W. Deem and Ramdas Pophale) SiO2 
 PCOD9309464
Probable space group: C 2/C
;
_chemical_formula_sum "Si O2"
_cell_formula_units_Z 32
_cell_length_a 15.000000
_cell_length_b 27.000000
_cell_length_c 12.000000
_cell_angle_alpha 90.000000
_cell_angle_beta 40.000000
_cell_angle_gamma 90.000000
_cell_volume 3123.947783
_symmetry_space_group_name_H-M "C 2/C"
_symmetry_group_IT_number 15
_symmetry_cell_setting 'monoclinic'
loop_
_space_group_symop_operation_xyz
x,y,z
-x,y,1/2-z
-x,-y,-z
x,-y,1/2+z
1/2+x,1/2+y,z
1/2-x,1/2+y,1/2-z
1/2-x,1/2-y,-z
1/2+x,1/2-y,1/2+z
loop_
_atom_site_type_symbol
_atom_site_label
_atom_site_fract_x
_atom_site_fract_y
_atom_site_fract_z
Si Si1 0.731351 0.621775 0.127029
Si Si2 0.745620 0.929372 0.120039
Si Si3 0.728257 0.203715 0.239596
Si Si4 0.037172 0.443251 0.989002
Si Si5 0.492091 0.395721 0.022051
Si Si6 0.646368 0.462637 0.047754
Si Si7 0.365485 0.885854 0.819613
Si Si8 0.481604 0.288588 0.133582
O O1 0.789569 0.672999 0.126958
O O2 0.580496 0.618403 0.327824
O O3 0.727868 0.612507 0.998961
O O4 0.825927 0.575116 0.076951
O O5 0.591542 0.924438 0.314893
O O6 0.852461 0.921743 0.118159
O O7 0.778826 0.984854 0.042731
O O8 0.712233 0.159579 0.163683
O O9 0.628979 0.249154 0.305962
O O10 0.881275 0.223287 0.069109
O O11 0.064143 0.419065 0.843618
O O12 0.000000 0.500000 0.000000
O O13 0.592507 0.434017 0.989420
O O14 0.456822 0.346694 0.127508
O O15 0.500000 0.470631 0.250000
O O16 0.758752 0.422394 0.986078
O O17 0.500000 0.864197 0.750000
O O18 0.500000 0.283645 0.250000
#
# Coordination Sequence:
#
# PCOD9309464 Si02
#       8
#     8   8   8   8   8   8   8   8
#     4  10  22  44  60  89 135 169 222 276 319 387
#     4  12  25  38  68  93 126 188 225 266 326 390
#     4  10  23  43  65  93 133 164 214 279 333 405
#     4  11  22  39  59  89 128 167 217 270 322 385
#     4  11  23  43  61  94 133 168 222 281 326 397
#     4  12  24  41  62  94 136 174 219 274 326 402
#     4  11  24  41  63  93 130 170 210 270 331 394
#     4  11  22  40  69  96 130 167 216 276 352 396
#
# _framework density 10.243449
#
# number of rings (size 3 to 8) (size 9 to 14) (size 15 to 20)
#    0.000    1.000    5.000    3.000    3.500    2.000 
#    0.000    0.625    0.000    4.500    0.000    0.000 
#    0.000    0.000    0.000    0.000    0.000    0.000 
#
# Total GULP energy -178503.948449 kJ/mol
# GULP energy per Si atom -5578.248389 kJ/mol
# Density = 1.022013 g / cm^3
# Si number density = 10.243449 Si / 1000 Ang^3
#
#
#
# Elastic Constant Matrix: (Units=GPa)
#
#
# Indices 1 2 3 4 5 6 
#
# 1 48.7991 6.4871 6.6384 0.0000 -10.5971 0.0000
# 2 6.4871 60.5562 39.2748 0.0000 -8.9474 0.0000
# 3 6.6384 39.2748 89.5737 0.0000 -7.5951 0.0000
# 4 0.0000 0.0000 0.0000 28.6105 0.0000 -7.7273
# 5 -10.5971 -8.9474 -7.5951 0.0000 26.8862 0.0000
# 6 0.0000 0.0000 0.0000 -7.7273 0.0000 23.9536
#
#
#
# Elastic Compliance Matrix: (Units=1/GPa)
#
#
# Indices 1 2 3 4 5 6 
#
# 1 0.022511 -0.000763 -0.000618 0.000000 0.008444 0.000000
# 2 -0.000763 0.023760 -0.009955 0.000000 0.004794 0.000000
# 3 -0.000618 -0.009955 0.015648 0.000000 0.000864 0.000000
# 4 0.000000 0.000000 0.000000 0.038288 0.000000 0.012352
# 5 0.008444 0.004794 0.000864 0.000000 0.042362 0.000000
# 6 0.000000 0.000000 0.000000 0.012352 0.000000 0.045732
#
#
# Mechanical properties :
#
#
# Convention : Reuss Voigt Hill
#
# Bulk Modulus (GPa) = 25.47916 33.74773 29.61345
# Shear Modulus (GPa) = 22.31594 25.65866 23.98730
#
# Velocity S-wave (km/s) = 3.30400 3.54283 3.42550
# Velocity P-wave (km/s) = 5.19799 5.76577 5.48922
#
# Compressibility (1/GPa) = 0.03924776
#
# Stress axis : x y z
#
# Youngs Moduli (GPa) = 44.42196 42.08741 63.90642
#
# Poissons Ratio (x) = 0.03212 0.03947
# Poissons Ratio (y) = 0.03390 0.63618
# Poissons Ratio (z) = 0.02744 0.41897
#
# Static dielectric constant tensor:
#      x y z
#    x 1.826780 0.000000 0.008570 
#    y 0.000000 1.710880 0.000000 
#    z 0.008570 0.000000 1.749830 
# 
# From -- ./inp_files/101330.got.cif
#   From: 2010.05.17/outbox.ucp.g08.bks.cvg/sg15_51_cif.got.tgz:101330.got - 2010.06.11 12:40:34.
