data_PCOD9309899
_publ_section_title
;
Structure prediction by ZEFSAII (Michael W. Deem and Ramdas Pophale) SiO2 
 PCOD9309899
Probable space group: C 2/C
;
_chemical_formula_sum "Si O2"
_cell_formula_units_Z 20
_cell_length_a 24.000000
_cell_length_b 9.000000
_cell_length_c 9.000000
_cell_angle_alpha 90.000000
_cell_angle_beta 80.000000
_cell_angle_gamma 90.000000
_cell_volume 1914.466272
_symmetry_space_group_name_H-M "C 2/C"
_symmetry_group_IT_number 15
_symmetry_cell_setting 'monoclinic'
loop_
_space_group_symop_operation_xyz
x,y,z
-x,y,1/2-z
-x,-y,-z
x,-y,1/2+z
1/2+x,1/2+y,z
1/2-x,1/2+y,1/2-z
1/2-x,1/2-y,-z
1/2+x,1/2-y,1/2+z
loop_
_atom_site_type_symbol
_atom_site_label
_atom_site_fract_x
_atom_site_fract_y
_atom_site_fract_z
Si Si1 0.175331 0.550228 0.847807
Si Si2 0.542536 0.426204 0.096354
Si Si3 0.618589 0.827121 0.673595
Si Si4 0.716584 0.655048 0.174009
Si Si5 0.847857 0.080568 0.592059
O O1 0.123321 0.475015 0.777969
O O2 0.221785 0.420494 0.846535
O O3 0.206261 0.679628 0.739916
O O4 0.157255 0.621681 0.014822
O O5 0.500000 0.451269 0.250000
O O6 0.565463 0.255843 0.115006
O O7 0.500000 0.500000 0.000000
O O8 0.599464 0.517159 0.028624
O O9 0.635950 0.699381 0.786517
O O10 0.679377 0.554299 0.303870
O O11 0.693546 0.640584 0.017136
#
# Coordination Sequence:
#
# PCOD9309899 Si02
#       5
#     8   8   8   8   8
#     4  12  27  46  72 112 162 200 247 296 379 453
#     4  12  24  47  81 108 136 192 260 318 376 431
#     4  12  26  48  73 112 151 194 250 313 366 451
#     4  12  24  43  72 109 155 208 240 300 367 461
#     4  12  23  44  76 108 149 194 259 304 370 449
#
# _framework density 10.446776
#
# number of rings (size 3 to 8) (size 9 to 14) (size 15 to 20)
#    0.000    0.000    6.000    3.600    0.000    4.800 
#    0.000    3.000    0.000    0.000    0.000    0.000 
#    0.000    0.000    0.000    0.000    0.000    0.000 
#
# Total GULP energy -111344.493839 kJ/mol
# GULP energy per Si atom -5567.224692 kJ/mol
# Density = 1.042300 g / cm^3
# Si number density = 10.446776 Si / 1000 Ang^3
#
#
#
# Elastic Constant Matrix: (Units=GPa)
#
#
# Indices 1 2 3 4 5 6 
#
# 1 83.8495 34.4206 48.6761 0.0000 -1.9076 0.0000
# 2 34.4206 131.9846 65.9504 0.0000 3.4061 0.0000
# 3 48.6761 65.9504 158.7993 0.0000 -24.2735 0.0000
# 4 0.0000 0.0000 0.0000 52.7670 0.0000 4.0809
# 5 -1.9076 3.4061 -24.2735 0.0000 36.8014 0.0000
# 6 0.0000 0.0000 0.0000 4.0809 0.0000 48.2589
#
#
#
# Elastic Compliance Matrix: (Units=1/GPa)
#
#
# Indices 1 2 3 4 5 6 
#
# 1 0.015023 -0.001812 -0.004124 0.000000 -0.001774 0.000000
# 2 -0.001812 0.010309 -0.004322 0.000000 -0.003899 0.000000
# 3 -0.004124 -0.004322 0.010437 0.000000 0.007070 0.000000
# 4 0.000000 0.000000 0.000000 0.019076 0.000000 -0.001613
# 5 -0.001774 -0.003899 0.007070 0.000000 0.032105 0.000000
# 6 0.000000 0.000000 0.000000 -0.001613 0.000000 0.020858
#
#
# Mechanical properties :
#
#
# Convention : Reuss Voigt Hill
#
# Bulk Modulus (GPa) = 65.55381 74.74751 70.15066
# Shear Modulus (GPa) = 37.47858 42.60455 40.04156
#
# Velocity S-wave (km/s) = 4.23991 4.52057 4.38248
# Velocity P-wave (km/s) = 7.44395 7.94358 7.69782
#
# Compressibility (1/GPa) = 0.01525464
#
# Stress axis : x y z
#
# Youngs Moduli (GPa) = 66.56285 96.99805 95.81184
#
# Poissons Ratio (x) = 0.17573 0.39511
# Poissons Ratio (y) = 0.12059 0.41412
# Poissons Ratio (z) = 0.27449 0.41925
#
# Static dielectric constant tensor:
#      x y z
#    x 1.687300 0.000000 0.013970 
#    y 0.000000 1.765590 0.000000 
#    z 0.013970 0.000000 1.723420 
# 
# From -- ./inp_files/59938.got.cif
#   From: 2010.05.17/outbox.ucp.g08.bks.cvg/sg15_30_cif.got.tgz:59938.got - 2010.06.11 12:40:34.
