data_PCOD9309988
_publ_section_title
;
Structure prediction by ZEFSAII (Michael W. Deem and Ramdas Pophale) SiO2 
 PCOD9309988
Probable space group: P 2 2 2
;
_chemical_formula_sum "Si O2"
_cell_formula_units_Z 24
_cell_length_a 7.709857
_cell_length_b 12.424546
_cell_length_c 11.632693
_cell_angle_alpha 90.000000
_cell_angle_beta 90.000000
_cell_angle_gamma 90.000000
_cell_volume 1114.312797
_symmetry_space_group_name_H-M "P 2 2 2"
_symmetry_group_IT_number 16
_symmetry_cell_setting 'orthorhombic'
loop_
_space_group_symop_operation_xyz
x,y,z
-x,-y,z
x,-y,-z
-x,y,-z
loop_
_atom_site_type_symbol
_atom_site_label
_atom_site_fract_x
_atom_site_fract_y
_atom_site_fract_z
Si Si1 0.555898 0.385480 0.260876
Si Si2 0.271734 0.317629 0.083154
Si Si3 0.480861 0.841152 0.367398
Si Si4 0.124360 0.083826 0.746698
Si Si5 0.091387 0.322490 0.834076
Si Si6 0.340671 0.075518 0.147002
O O1 0.500000 0.500000 0.306867
O O2 0.444791 0.368611 0.140553
O O3 0.505115 0.285507 0.340641
O O4 0.763569 0.376137 0.245883
O O5 0.311423 0.189098 0.087164
O O6 0.107135 0.360542 0.157821
O O7 0.192067 0.333200 0.956190
O O8 0.500000 0.865977 0.500000
O O9 0.293769 0.881422 0.324223
O O10 0.619314 0.892819 0.280237
O O11 0.062792 0.197572 0.796976
O O12 0.184099 0.006882 0.851128
O O13 0.000000 0.000000 0.680507
O O14 0.500000 0.000000 0.112942
#
# Coordination Sequence:
#
# PCOD9309988 Si02
#       6
#     4   4   4   4   4   4
#     4  10  22  39  60  82 110 149 191 246 302 343
#     4  10  20  36  54  81 121 151 192 238 275 334
#     4   9  20  38  58  80 109 142 188 242 290 343
#     4  10  18  33  55  81 115 149 187 225 274 334
#     4  10  21  35  56  84 116 157 192 231 278 339
#     4   9  18  32  52  77 115 152 185 230 274 331
#
# _framework density 21.537939000000001
#
# number of rings (size 3 to 8) (size 9 to 14) (size 15 to 20)
#    0.000    2.333    1.667    1.500    0.000    6.000 
#    0.000    7.500    0.000    0.000    0.000    4.667 
#    0.000    0.000    0.000    0.000    0.000    0.000 
#
# Total GULP energy -133676.540575 kJ/mol
# GULP energy per Si atom -5569.855857 kJ/mol
# Density = 2.148892 g / cm^3
# Si number density = 21.537939 Si / 1000 Ang^3
#
#
#
# Elastic Constant Matrix: (Units=GPa)
#
#
# Indices 1 2 3 4 5 6 
#
# 1 117.0463 23.6479 -9.4116 0.0000 0.0000 0.0000
# 2 23.6479 107.9257 -7.6853 0.0000 0.0000 0.0000
# 3 -9.4116 -7.6853 49.5065 0.0000 0.0000 0.0000
# 4 0.0000 0.0000 0.0000 -3.2724 0.0000 0.0000
# 5 0.0000 0.0000 0.0000 0.0000 15.5823 0.0000
# 6 0.0000 0.0000 0.0000 0.0000 0.0000 24.6852
#
#
#
# Elastic Compliance Matrix: (Units=1/GPa)
#
#
# Indices 1 2 3 4 5 6 
#
# 1 0.009038 -0.001879 0.001427 0.000000 0.000000 0.000000
# 2 -0.001879 0.009760 0.001158 0.000000 0.000000 0.000000
# 3 0.001427 0.001158 0.020650 0.000000 0.000000 0.000000
# 4 0.000000 0.000000 0.000000 -0.305582 0.000000 0.000000
# 5 0.000000 0.000000 0.000000 0.000000 0.064175 0.000000
# 6 0.000000 0.000000 0.000000 0.000000 0.000000 0.040510
#
#
# Mechanical properties :
#
#
# Convention : Reuss Voigt Hill
#
# Bulk Modulus (GPa) = 24.47416 31.95337 28.21377
# Shear Modulus (GPa) = -33.50301 25.26085 -4.12108
#
# Velocity S-wave (km/s) = -3.94831 3.42841 -1.38476
# Velocity P-wave (km/s) = 3.06554 5.52631 3.25135
#
# Compressibility (1/GPa) = 0.04085942
#
# Stress axis : x y z
#
# Youngs Moduli (GPa) = 110.64502 102.46168 48.42542
#
# Poissons Ratio (x) = 0.19250 -0.06908
# Poissons Ratio (y) = 0.20787 -0.05607
# Poissons Ratio (z) = -0.15784 -0.11864
#
# Static dielectric constant tensor:
#      x y z
#    x 1.979100 0.000000 0.000000 
#    y 0.000000 1.729100 0.000000 
#    z 0.000000 0.000000 1.825360 
# 
# From -- ./inp_files/4694.got.cif
#   From: 2010.05.17/outbox.cif.g08.bks.cpg/sg16_3_cif.got.tgz:4694.got - 2010.06.03 22:28:35.
