data_PCOD9309808
_publ_section_title
;
Structure prediction by ZEFSAII (Michael W. Deem and Ramdas Pophale) SiO2 
 PCOD9309808
Probable space group: C 2/C
;
_chemical_formula_sum "Si O2"
_cell_formula_units_Z 24
_cell_length_a 21.000000
_cell_length_b 18.000000
_cell_length_c 18.000000
_cell_angle_alpha 90.000000
_cell_angle_beta 20.000000
_cell_angle_gamma 90.000000
_cell_volume 2327.105055
_symmetry_space_group_name_H-M "C 2/C"
_symmetry_group_IT_number 15
_symmetry_cell_setting 'monoclinic'
loop_
_space_group_symop_operation_xyz
x,y,z
-x,y,1/2-z
-x,-y,-z
x,-y,1/2+z
1/2+x,1/2+y,z
1/2-x,1/2+y,1/2-z
1/2-x,1/2-y,-z
1/2+x,1/2-y,1/2+z
loop_
_atom_site_type_symbol
_atom_site_label
_atom_site_fract_x
_atom_site_fract_y
_atom_site_fract_z
Si Si1 0.106787 0.315824 0.054878
Si Si2 0.715837 0.166953 0.703183
Si Si3 0.748281 0.341246 0.925188
Si Si4 0.452084 0.418337 0.715935
Si Si5 0.406445 0.410703 0.252829
Si Si6 0.160105 0.687099 0.935543
O O1 0.000000 0.310577 0.250000
O O2 0.966417 0.347193 0.146643
O O3 0.174336 0.235248 0.954828
O O4 0.288338 0.365383 0.867733
O O5 0.657481 0.194125 0.849529
O O6 0.862076 0.099181 0.535595
O O7 0.694321 0.262051 0.946377
O O8 0.967055 0.346033 0.676875
O O9 0.627479 0.399684 0.011871
O O10 0.681676 0.361261 0.082144
O O11 0.500000 0.403941 0.750000
O O12 0.376245 0.502555 0.794773
O O13 0.321044 0.371705 0.275673
#
# Coordination Sequence:
#
# PCOD9309808 Si02
#       6
#     8   8   8   8   8   8
#     4  12  24  42  73 100 132 179 238 288 338 405
#     4  12  26  43  68 107 137 182 227 288 353 412
#     4  11  23  42  72 102 138 178 234 282 337 411
#     4  12  25  47  72 100 141 178 234 293 347 411
#     4  11  26  44  71 104 138 184 229 291 346 405
#     4  12  25  42  71 104 143 178 230 284 347 417
#
# _framework density 10.313243
#
# number of rings (size 3 to 8) (size 9 to 14) (size 15 to 20)
#    0.000    0.333    6.667    3.000    2.333    4.667 
#    0.000    1.667    0.000    0.000    0.000    0.000 
#    0.000    0.000    0.000    0.000    0.000    0.000 
#
# Total GULP energy -134070.767086 kJ/mol
# GULP energy per Si atom -5586.281962 kJ/mol
# Density = 1.028977 g / cm^3
# Si number density = 10.313243 Si / 1000 Ang^3
#
#
#
# Elastic Constant Matrix: (Units=GPa)
#
#
# Indices 1 2 3 4 5 6 
#
# 1 82.5856 40.2902 -11.9490 0.1579 -7.8985 -0.1069
# 2 40.2902 75.9397 7.3505 -0.0897 12.9912 0.0629
# 3 -11.9490 7.3505 -11.3842 0.2190 -4.8175 -0.1440
# 4 0.1579 -0.0897 0.2190 -57.2639 0.1198 51.7561
# 5 -7.8985 12.9912 -4.8175 0.1198 26.5240 -0.0806
# 6 -0.1069 0.0629 -0.1440 51.7561 -0.0806 -26.4770
#
#
#
# Elastic Compliance Matrix: (Units=1/GPa)
#
#
# Indices 1 2 3 4 5 6 
#
# 1 0.012458 -0.005411 -0.017886 -0.000004 0.003111 0.000017
# 2 -0.005411 0.015292 0.018019 0.000003 -0.005828 -0.000017
# 3 -0.017886 0.018019 -0.047777 -0.000122 -0.022828 0.000206
# 4 -0.000004 0.000003 -0.000122 0.022775 0.000008 0.044521
# 5 0.003111 -0.005828 -0.022828 0.000008 0.037336 -0.000001
# 6 0.000017 -0.000017 0.000206 0.044521 -0.000001 0.049258
#
#
# Mechanical properties :
#
#
# Convention : Reuss Voigt Hill
#
# Bulk Modulus (GPa) = -32.69813 24.28049 -4.20882
# Shear Modulus (GPa) = 55.73894 -4.01343 25.86276
#
# Velocity S-wave (km/s) = 5.20400 -1.39642 3.54483
# Velocity P-wave (km/s) = 4.49688 3.03267 3.83530
#
# Compressibility (1/GPa) = -0.03058279
#
# Stress axis : x y z
#
# Youngs Moduli (GPa) = 80.27007 65.39410 -20.93053
#
# Poissons Ratio (x) = 0.35382 -0.37437
# Poissons Ratio (y) = 0.43431 0.37715
# Poissons Ratio (z) = 1.43574 -1.17835
#
# Static dielectric constant tensor:
#      x y z
#    x 1.776400 0.000000 -0.014080 
#    y 0.000000 1.727860 0.000020 
#    z -0.014080 0.000020 1.726550 
# 
# From -- ./inp_files/216262.got.cif
#   From: 2010.05.17/outbox.ucp.g08.bks.cvg/sg15_109_cif.got.tgz:216262.got - 2010.06.11 12:40:34.
