data_PCOD9309323
_publ_section_title
;
Structure prediction by ZEFSAII (Michael W. Deem and Ramdas Pophale) SiO2 
 PCOD9309323
Probable space group: C 2/C
;
_chemical_formula_sum "Si O2"
_cell_formula_units_Z 32
_cell_length_a 15.000000
_cell_length_b 30.000000
_cell_length_c 9.000000
_cell_angle_alpha 90.000000
_cell_angle_beta 130.000000
_cell_angle_gamma 90.000000
_cell_volume 3102.479995
_symmetry_space_group_name_H-M "C 2/C"
_symmetry_group_IT_number 15
_symmetry_cell_setting 'monoclinic'
loop_
_space_group_symop_operation_xyz
x,y,z
-x,y,1/2-z
-x,-y,-z
x,-y,1/2+z
1/2+x,1/2+y,z
1/2-x,1/2+y,1/2-z
1/2-x,1/2-y,-z
1/2+x,1/2-y,1/2+z
loop_
_atom_site_type_symbol
_atom_site_label
_atom_site_fract_x
_atom_site_fract_y
_atom_site_fract_z
Si Si1 0.712097 0.055625 0.715106
Si Si2 0.867046 0.473884 0.676973
Si Si3 0.485458 0.892609 0.910460
Si Si4 0.817779 0.852886 0.282953
Si Si5 0.558847 0.801215 0.495335
Si Si6 0.254354 0.197303 0.521508
Si Si7 0.269637 0.702066 0.453088
Si Si8 0.456104 0.701493 0.414776
O O1 0.711981 0.037632 0.547669
O O2 0.589960 0.080927 0.595757
O O3 0.803232 0.096196 0.818051
O O4 0.694790 0.014350 0.805804
O O5 0.882225 0.429847 0.798067
O O6 0.000000 0.483078 0.750000
O O7 0.500000 0.885407 0.750000
O O8 0.496421 0.844607 0.993859
O O9 0.748108 0.819981 0.316562
O O10 0.945721 0.834494 0.449839
O O11 0.773683 0.839190 0.071673
O O12 0.621434 0.815336 0.410580
O O13 0.670961 0.799321 0.724171
O O14 0.503944 0.751592 0.430908
O O15 0.250000 0.250000 0.500000
O O16 0.136916 0.184252 0.307119
O O17 0.250000 0.750000 0.500000
O O18 0.390284 0.705036 0.498420
#
# Coordination Sequence:
#
# PCOD9309323 Si02
#       8
#     8   8   8   8   8   8   8   8
#     4  10  22  36  63  89 123 155 202 262 310 395
#     4   9  18  39  59  87 128 158 198 258 338 366
#     4   9  19  33  57  92 123 157 204 260 305 373
#     4  12  23  39  59  92 122 162 215 247 309 357
#     4  11  23  36  60  87 126 171 212 240 302 363
#     4  11  24  42  53  82 126 172 206 250 294 360
#     4  11  22  38  58  87 120 167 216 251 294 353
#     4  11  24  40  60  82 125 175 206 255 299 352
#
# _framework density 10.314329000000001
#
# number of rings (size 3 to 8) (size 9 to 14) (size 15 to 20)
#    0.000    1.750    2.500    4.500    5.250    2.000 
#    0.000    0.000    0.000    0.000    0.000   28.000 
#    0.000    0.000    0.000    0.000    0.000    0.000 
#
# Total GULP energy -178135.644587 kJ/mol
# GULP energy per Si atom -5566.738893 kJ/mol
# Density = 1.029085 g / cm^3
# Si number density = 10.314329 Si / 1000 Ang^3
#
#
#
# Elastic Constant Matrix: (Units=GPa)
#
#
# Indices 1 2 3 4 5 6 
#
# 1 71.4208 43.9278 40.2701 0.0000 -1.3316 0.0000
# 2 43.9278 122.6211 42.6250 0.0000 9.0963 0.0000
# 3 40.2701 42.6250 21.1201 0.0000 5.4666 0.0000
# 4 0.0000 0.0000 0.0000 -87.4737 0.0000 10.4346
# 5 -1.3316 9.0963 5.4666 0.0000 11.9089 0.0000
# 6 0.0000 0.0000 0.0000 10.4346 0.0000 34.8309
#
#
#
# Elastic Compliance Matrix: (Units=1/GPa)
#
#
# Indices 1 2 3 4 5 6 
#
# 1 -0.016228 -0.017696 0.072208 0.000000 -0.021444 0.000000
# 2 -0.017696 0.008299 0.021728 0.000000 -0.018291 0.000000
# 3 0.072208 0.021728 -0.149774 0.000000 0.060229 0.000000
# 4 0.000000 0.000000 0.000000 -0.011038 0.000000 0.003307
# 5 -0.021444 -0.018291 0.060229 0.000000 0.067897 0.000000
# 6 0.000000 0.000000 0.000000 0.003307 0.000000 0.027720
#
#
# Mechanical properties :
#
#
# Convention : Reuss Voigt Hill
#
# Bulk Modulus (GPa) = -191.42751 52.08975 -69.66888
# Shear Modulus (GPa) = -21.99307 -2.25749 -12.12528
#
# Velocity S-wave (km/s) = -3.26872 -1.04725 -2.42706
# Velocity P-wave (km/s) = 10.35589 4.88300 6.45758
#
# Compressibility (1/GPa) = -0.00522391
#
# Stress axis : x y z
#
# Youngs Moduli (GPa) = -61.62221 120.50188 -6.67674
#
# Poissons Ratio (x) = 2.13244 0.48211
# Poissons Ratio (y) = -1.09049 0.14507
# Poissons Ratio (z) = 4.44960 -2.61827
#
# Static dielectric constant tensor:
#      x y z
#    x 1.954520 0.000000 -0.058590 
#    y 0.000000 1.572720 0.000000 
#    z -0.058590 0.000000 1.805990 
# 
# From -- ./inp_files/44869.got.cif
#   From: 2010.05.17/outbox.ucp.g08.bks.cvg/sg15_23_cif.got.tgz:44869.got - 2010.06.11 12:40:34.
