data_PCOD9309277
_publ_section_title
;
Structure prediction by ZEFSAII (Michael W. Deem and Ramdas Pophale) SiO2 
 PCOD9309277
Probable space group: C 2/C
;
_chemical_formula_sum "Si O2"
_cell_formula_units_Z 28
_cell_length_a 24.000000
_cell_length_b 9.000000
_cell_length_c 15.000000
_cell_angle_alpha 90.000000
_cell_angle_beta 60.000000
_cell_angle_gamma 90.000000
_cell_volume 2805.922308
_symmetry_space_group_name_H-M "C 2/C"
_symmetry_group_IT_number 15
_symmetry_cell_setting 'monoclinic'
loop_
_space_group_symop_operation_xyz
x,y,z
-x,y,1/2-z
-x,-y,-z
x,-y,1/2+z
1/2+x,1/2+y,z
1/2-x,1/2+y,1/2-z
1/2-x,1/2-y,-z
1/2+x,1/2-y,1/2+z
loop_
_atom_site_type_symbol
_atom_site_label
_atom_site_fract_x
_atom_site_fract_y
_atom_site_fract_z
Si Si1 0.188484 0.471954 0.704490
Si Si2 0.280703 0.629895 0.758012
Si Si3 0.999787 0.131070 0.143643
Si Si4 0.044080 0.526972 0.850965
Si Si5 0.581023 0.141827 0.013528
Si Si6 0.778936 0.406461 0.011450
Si Si7 0.593870 0.482642 0.931908
O O1 0.217482 0.595270 0.748595
O O2 0.205092 0.305594 0.731668
O O3 0.111568 0.484878 0.750884
O O4 0.220378 0.496494 0.581562
O O5 0.338679 0.549786 0.657526
O O6 0.264762 0.555813 0.867412
O O7 0.000000 0.092815 0.250000
O O8 0.982669 0.307740 0.151582
O O9 0.947955 0.037949 0.125840
O O10 0.063196 0.090469 0.033014
O O11 0.986694 0.405619 0.884271
O O12 0.069450 0.544918 0.932968
O O13 0.647147 0.103354 0.012030
O O14 0.590164 0.315617 0.977795
O O15 0.750000 0.250000 0.000000
#
# Coordination Sequence:
#
# PCOD9309277 Si02
#       7
#     8   8   8   8   8   8   8
#     4  11  25  42  69  98 127 178 222 272 343 394
#     4  11  24  44  68  93 134 173 222 275 325 406
#     4  10  24  41  64  99 140 163 222 277 330 392
#     4  10  23  41  67  95 130 176 217 278 337 388
#     4  10  21  42  68  91 136 170 224 271 328 399
#     4  10  22  41  65  97 130 172 222 268 323 404
#     4  10  23  42  68  95 133 182 211 269 343 392
#
# _framework density 9.9788940000000004
#
# number of rings (size 3 to 8) (size 9 to 14) (size 15 to 20)
#    0.000    1.714    1.429    1.714   12.000    3.429 
#    0.000    0.714    0.000    0.000    0.000    0.000 
#    0.000    0.000    0.000    0.000    0.000    0.000 
#
# Total GULP energy -156096.551206 kJ/mol
# GULP energy per Si atom -5574.876829 kJ/mol
# Density = 0.995618 g / cm^3
# Si number density = 9.978894 Si / 1000 Ang^3
#
#
#
# Elastic Constant Matrix: (Units=GPa)
#
#
# Indices 1 2 3 4 5 6 
#
# 1 101.1233 24.1252 40.4388 0.0000 -5.8149 0.0000
# 2 24.1252 77.9205 28.9514 0.0000 -5.7713 0.0000
# 3 40.4388 28.9514 153.7549 0.0000 -1.9321 0.0000
# 4 0.0000 0.0000 0.0000 26.8541 0.0000 -1.8368
# 5 -5.8149 -5.7713 -1.9321 0.0000 51.5723 0.0000
# 6 0.0000 0.0000 0.0000 -1.8368 0.0000 31.4362
#
#
#
# Elastic Compliance Matrix: (Units=1/GPa)
#
#
# Indices 1 2 3 4 5 6 
#
# 1 0.011574 -0.002568 -0.002549 0.000000 0.000922 0.000000
# 2 -0.002568 0.014478 -0.002035 0.000000 0.001254 0.000000
# 3 -0.002549 -0.002035 0.007554 0.000000 -0.000232 0.000000
# 4 0.000000 0.000000 0.000000 0.037388 0.000000 0.002185
# 5 0.000922 0.001254 -0.000232 0.000000 0.019626 0.000000
# 6 0.000000 0.000000 0.000000 0.002185 0.000000 0.031938
#
#
# Mechanical properties :
#
#
# Convention : Reuss Voigt Hill
#
# Bulk Modulus (GPa) = 51.80725 57.75884 54.78304
# Shear Modulus (GPa) = 34.89291 37.92474 36.40882
#
# Velocity S-wave (km/s) = 4.18585 4.36391 4.27581
# Velocity P-wave (km/s) = 7.02684 7.37529 7.20318
#
# Compressibility (1/GPa) = 0.01930232
#
# Stress axis : x y z
#
# Youngs Moduli (GPa) = 86.40122 69.07186 132.37174
#
# Poissons Ratio (x) = 0.17738 0.33740
# Poissons Ratio (y) = 0.22189 0.26936
# Poissons Ratio (z) = 0.22023 0.14055
#
# Static dielectric constant tensor:
#      x y z
#    x 1.726020 0.000000 -0.024810 
#    y 0.000000 1.692030 0.000000 
#    z -0.024810 0.000000 1.779260 
# 
# From -- ./inp_files/172264.got.cif
#   From: 2010.05.17/outbox.ucp.g08.bks.cvg/sg15_87_cif.got.tgz:172264.got - 2010.06.11 12:40:34.
