data_PCOD9309698
_publ_section_title
;
Structure prediction by ZEFSAII (Michael W. Deem and Ramdas Pophale) SiO2 
 PCOD9309698
Probable space group: C 2/C
;
_chemical_formula_sum "Si O2"
_cell_formula_units_Z 30
_cell_length_a 21.000000
_cell_length_b 9.000000
_cell_length_c 21.000000
_cell_angle_alpha 90.000000
_cell_angle_beta 130.000000
_cell_angle_gamma 90.000000
_cell_volume 3040.430395
_symmetry_space_group_name_H-M "C 2/C"
_symmetry_group_IT_number 15
_symmetry_cell_setting 'monoclinic'
loop_
_space_group_symop_operation_xyz
x,y,z
-x,y,1/2-z
-x,-y,-z
x,-y,1/2+z
1/2+x,1/2+y,z
1/2-x,1/2+y,1/2-z
1/2-x,1/2-y,-z
1/2+x,1/2-y,1/2+z
loop_
_atom_site_type_symbol
_atom_site_label
_atom_site_fract_x
_atom_site_fract_y
_atom_site_fract_z
Si Si1 0.971090 0.395173 0.629963
Si Si2 0.712728 0.515973 0.982893
Si Si3 0.178193 0.285923 0.040317
Si Si4 0.346012 0.892018 0.766180
Si Si5 0.365711 0.398754 0.686565
Si Si6 0.631087 0.927942 0.341818
Si Si7 0.741675 0.589767 0.790573
Si Si8 0.000000 0.862091 0.250000
O O1 0.902979 0.370876 0.533335
O O2 0.942883 0.527345 0.658404
O O3 0.970068 0.248958 0.675081
O O4 0.059077 0.418177 0.654407
O O5 0.748981 0.634033 0.954173
O O6 0.655396 0.415530 0.902185
O O7 0.673491 0.616968 0.013039
O O8 0.786645 0.423402 0.061876
O O9 0.195827 0.315629 0.124793
O O10 0.323187 0.721465 0.766282
O O11 0.351001 0.933123 0.694218
O O12 0.284594 0.008010 0.759659
O O13 0.383346 0.224433 0.705334
O O14 0.294733 0.457264 0.688613
O O15 0.435378 0.524156 0.739735
#
# Coordination Sequence:
#
# PCOD9309698 Si02
#       8
#     8   8   8   8   8   8   8   4
#     4  11  21  38  61  87 118 152 193 247 296 341
#     4   9  17  33  59  85 118 148 191 242 290 342
#     4   9  18  35  60  85 112 157 195 234 293 351
#     4  12  23  39  59  83 117 159 196 245 285 348
#     4  11  22  35  58  93 118 150 189 245 294 349
#     4  11  21  36  60  92 119 147 196 246 292 342
#     4  11  23  41  59  84 117 158 202 230 293 358
#     4  12  20  34  60  88 120 148 190 242 300 338
#
# _framework density 9.8670240000000007
#
# number of rings (size 3 to 8) (size 9 to 14) (size 15 to 20)
#    0.000    1.333    5.333    1.200    1.867    0.533 
#    0.000    0.000    0.000    0.800    0.000    0.000 
#    0.000    0.000    0.000    0.000    0.000    0.000 
#
# Total GULP energy -167153.533975 kJ/mol
# GULP energy per Si atom -5571.784466 kJ/mol
# Density = 0.984457 g / cm^3
# Si number density = 9.867024 Si / 1000 Ang^3
#
#
#
# Elastic Constant Matrix: (Units=GPa)
#
#
# Indices 1 2 3 4 5 6 
#
# 1 66.9266 32.1496 2.3834 0.0000 9.9720 0.0000
# 2 32.1496 95.5697 -15.6978 0.0000 6.9562 0.0000
# 3 2.3834 -15.6978 31.6619 0.0000 9.0786 0.0000
# 4 0.0000 0.0000 0.0000 6.6339 0.0000 -12.7330
# 5 9.9720 6.9562 9.0786 0.0000 10.2811 0.0000
# 6 0.0000 0.0000 0.0000 -12.7330 0.0000 19.9692
#
#
#
# Elastic Compliance Matrix: (Units=1/GPa)
#
#
# Indices 1 2 3 4 5 6 
#
# 1 0.019941 -0.005493 0.000343 0.000000 -0.015928 0.000000
# 2 -0.005493 0.015659 0.012972 0.000000 -0.016723 0.000000
# 3 0.000343 0.012972 0.054367 0.000000 -0.057118 0.000000
# 4 0.000000 0.000000 0.000000 -0.673351 0.000000 -0.429350
# 5 -0.015928 -0.016723 -0.057118 0.000000 0.174467 0.000000
# 6 0.000000 0.000000 0.000000 -0.429350 0.000000 -0.223690
#
#
# Mechanical properties :
#
#
# Convention : Reuss Voigt Hill
#
# Bulk Modulus (GPa) = 9.46858 25.75872 17.61365
# Shear Modulus (GPa) = -8.15598 19.06504 5.45453
#
# Velocity S-wave (km/s) = -2.03517 3.11158 1.66434
# Velocity P-wave (km/s) = 0.84502 5.09809 3.55503
#
# Compressibility (1/GPa) = 0.10561246
#
# Stress axis : x y z
#
# Youngs Moduli (GPa) = 50.14729 63.86031 18.39349
#
# Poissons Ratio (x) = 0.35076 -0.00631
# Poissons Ratio (y) = 0.27544 -0.23860
# Poissons Ratio (z) = -0.01719 -0.82841
#
# Static dielectric constant tensor:
#      x y z
#    x 1.712720 0.000000 0.048040 
#    y 0.000000 1.737300 0.000000 
#    z 0.048040 0.000000 1.767890 
# 
# From -- ./inp_files/247410.got.cif
#   From: 2010.05.17/outbox.ucp.g08.bks.cvg/sg15_124_cif.got.tgz:247410.got - 2010.06.11 12:40:34.
