data_PCOD9309190
_publ_section_title
;
Structure prediction by ZEFSAII (Michael W. Deem and Ramdas Pophale) SiO2 
 PCOD9309190
Probable space group: C 2/C
;
_chemical_formula_sum "Si O2"
_cell_formula_units_Z 24
_cell_length_a 21.000000
_cell_length_b 27.000000
_cell_length_c 12.000000
_cell_angle_alpha 90.000000
_cell_angle_beta 20.000000
_cell_angle_gamma 90.000000
_cell_volume 2327.105055
_symmetry_space_group_name_H-M "C 2/C"
_symmetry_group_IT_number 15
_symmetry_cell_setting 'monoclinic'
loop_
_space_group_symop_operation_xyz
x,y,z
-x,y,1/2-z
-x,-y,-z
x,-y,1/2+z
1/2+x,1/2+y,z
1/2-x,1/2+y,1/2-z
1/2-x,1/2-y,-z
1/2+x,1/2-y,1/2+z
loop_
_atom_site_type_symbol
_atom_site_label
_atom_site_fract_x
_atom_site_fract_y
_atom_site_fract_z
Si Si1 0.292051 0.051031 0.553976
Si Si2 0.211532 0.101853 0.901681
Si Si3 0.077230 0.774863 0.348611
Si Si4 0.316677 0.935187 0.474327
Si Si5 0.838449 0.294874 0.109753
Si Si6 0.468676 0.385492 0.168559
O O1 0.192244 0.059976 0.836924
O O2 0.206315 0.085065 0.597861
O O3 0.288758 0.994399 0.521224
O O4 0.500000 0.063965 0.250000
O O5 0.299272 0.083024 0.874039
O O6 0.327277 0.148961 0.669266
O O7 0.000000 0.121182 0.250000
O O8 0.148201 0.779826 0.358775
O O9 0.048168 0.829055 0.344378
O O10 0.900349 0.741172 0.608123
O O11 0.250000 0.750000 0.000000
O O12 0.500000 0.925213 0.250000
O O13 0.146329 0.909822 0.817802
O O14 0.000000 0.291769 0.750000
O O15 0.500000 0.388360 0.250000
#
# Coordination Sequence:
#
# PCOD9309190 Si02
#       6
#     8   8   8   8   8   8
#     4  11  26  44  70  98 127 183 230 273 339 399
#     4  12  24  44  69  93 140 177 220 276 339 409
#     4  10  21  39  64 102 128 170 229 276 325 391
#     4  11  28  44  65 103 138 177 225 277 343 403
#     4  10  21  40  67  96 129 173 225 272 329 392
#     4  12  25  43  69 101 135 175 228 284 334 393
#
# _framework density 10.313243
#
# number of rings (size 3 to 8) (size 9 to 14) (size 15 to 20)
#    0.000    1.000    3.333    2.500    7.000    2.667 
#    0.000    4.167    0.000    0.000    0.000    0.000 
#    0.000    0.000    0.000    0.000    0.000    0.000 
#
# Total GULP energy -133992.886587 kJ/mol
# GULP energy per Si atom -5583.036941 kJ/mol
# Density = 1.028977 g / cm^3
# Si number density = 10.313243 Si / 1000 Ang^3
#
#
#
# Elastic Constant Matrix: (Units=GPa)
#
#
# Indices 1 2 3 4 5 6 
#
# 1 212.7371 81.2000 22.2670 -0.0628 -28.1779 0.0850
# 2 81.2000 136.6507 32.9667 -0.0181 -29.3360 0.0324
# 3 22.2670 32.9667 40.2702 0.0029 -20.7555 -0.0104
# 4 -0.0628 -0.0181 0.0029 7.2199 0.0504 16.8781
# 5 -28.1779 -29.3360 -20.7555 0.0504 26.1980 -0.0894
# 6 0.0850 0.0324 -0.0104 16.8781 -0.0894 1.5966
#
#
#
# Elastic Compliance Matrix: (Units=1/GPa)
#
#
# Indices 1 2 3 4 5 6 
#
# 1 0.006340 -0.003155 0.001303 -0.000003 0.004319 0.000008
# 2 -0.003155 0.011586 -0.004737 0.000024 0.005828 -0.000026
# 3 0.001303 -0.004737 0.043905 0.000211 0.030880 -0.000190
# 4 -0.000003 0.000024 0.000211 -0.005839 0.000413 0.061745
# 5 0.004319 0.005828 0.030880 0.000413 0.073806 -0.000380
# 6 0.000008 -0.000026 -0.000190 0.061745 -0.000380 -0.026411
#
#
# Mechanical properties :
#
#
# Convention : Reuss Voigt Hill
#
# Bulk Modulus (GPa) = 20.55283 73.61394 47.08338
# Shear Modulus (GPa) = 37.65500 23.88453 30.76977
#
# Velocity S-wave (km/s) = 4.27730 3.40656 3.86652
# Velocity P-wave (km/s) = 5.86342 7.15817 6.54290
#
# Compressibility (1/GPa) = 0.04865511
#
# Stress axis : x y z
#
# Youngs Moduli (GPa) = 157.71667 86.30774 22.77619
#
# Poissons Ratio (x) = 0.27227 -0.02967
# Poissons Ratio (y) = 0.49754 0.10789
# Poissons Ratio (z) = -0.20548 0.40883
#
# Static dielectric constant tensor:
#      x y z
#    x 1.729560 -0.000010 -0.013700 
#    y -0.000010 1.672870 0.000050 
#    z -0.013700 0.000050 1.772280 
# 
# From -- ./inp_files/115051.got.cif
#   From: 2010.05.17/outbox.ucp.g08.bks.cvg/sg15_58_cif.got.tgz:115051.got - 2010.06.11 12:40:34.
