data_PCOD9309083
_publ_section_title
;
Structure prediction by ZEFSAII (Michael W. Deem and Ramdas Pophale) SiO2 
 PCOD9309083
Probable space group: C 2/C
;
_chemical_formula_sum "Si O2"
_cell_formula_units_Z 32
_cell_length_a 21.000000
_cell_length_b 12.000000
_cell_length_c 21.000000
_cell_angle_alpha 90.000000
_cell_angle_beta 140.000000
_cell_angle_gamma 90.000000
_cell_volume 3401.632030
_symmetry_space_group_name_H-M "C 2/C"
_symmetry_group_IT_number 15
_symmetry_cell_setting 'monoclinic'
loop_
_space_group_symop_operation_xyz
x,y,z
-x,y,1/2-z
-x,-y,-z
x,-y,1/2+z
1/2+x,1/2+y,z
1/2-x,1/2+y,1/2-z
1/2-x,1/2-y,-z
1/2+x,1/2-y,1/2+z
loop_
_atom_site_type_symbol
_atom_site_label
_atom_site_fract_x
_atom_site_fract_y
_atom_site_fract_z
Si Si1 0.927821 0.474472 0.133713
Si Si2 0.194621 0.990760 0.994695
Si Si3 0.067958 0.371890 0.660290
Si Si4 0.267756 0.523750 0.827026
Si Si5 0.689598 0.221523 0.134967
Si Si6 0.423642 0.277084 0.581864
Si Si7 0.117199 0.073294 0.203233
Si Si8 0.500425 0.636266 0.674714
O O1 0.936614 0.340558 0.128392
O O2 0.000000 0.501182 0.250000
O O3 0.976053 0.546146 0.111604
O O4 0.809126 0.500441 0.055971
O O5 0.141367 0.873916 0.932265
O O6 0.201207 0.980775 0.075916
O O7 0.112999 0.090073 0.923616
O O8 0.164900 0.452124 0.747962
O O9 0.105940 0.326546 0.619822
O O10 0.037909 0.254159 0.672656
O O11 0.266114 0.656951 0.808777
O O12 0.348539 0.467380 0.841366
O O13 0.781230 0.134918 0.196451
O O14 0.635911 0.243400 0.027182
O O15 0.527209 0.337481 0.641264
O O16 0.074954 0.963275 0.207747
O O17 0.500000 0.650344 0.750000
#
# Coordination Sequence:
#
# PCOD9309083 Si02
#       8
#     8   8   8   8   8   8   8   8
#     4  12  24  43  65  93 132 165 212 259 316 380
#     4  10  24  42  67  92 123 176 210 259 312 385
#     4  11  23  42  66  93 128 173 208 260 313 379
#     4  10  20  42  67  91 123 166 219 252 319 374
#     4  10  22  41  68  94 127 159 216 266 316 374
#     4  10  24  39  67  96 121 164 214 264 323 367
#     4  10  22  40  64  93 126 168 204 269 315 368
#     4  11  25  42  62  94 134 169 213 254 314 378
#
# _framework density 9.4072490000000002
#
# number of rings (size 3 to 8) (size 9 to 14) (size 15 to 20)
#    0.000    1.500    2.500    1.500    5.250    4.500 
#    0.000    0.000    0.000    0.000    0.000    0.000 
#    0.000    0.000    0.000    0.000    0.000    0.000 
#
# Total GULP energy -178183.147250 kJ/mol
# GULP energy per Si atom -5568.223352 kJ/mol
# Density = 0.938584 g / cm^3
# Si number density = 9.407249 Si / 1000 Ang^3
#
#
#
# Elastic Constant Matrix: (Units=GPa)
#
#
# Indices 1 2 3 4 5 6 
#
# 1 138.0008 30.7170 30.9278 0.0000 38.0486 0.0000
# 2 30.7170 106.9377 13.9972 0.0000 14.1885 0.0000
# 3 30.9278 13.9972 48.2796 0.0000 19.1381 0.0000
# 4 0.0000 0.0000 0.0000 26.3066 0.0000 8.5252
# 5 38.0486 14.1885 19.1381 0.0000 36.1839 0.0000
# 6 0.0000 0.0000 0.0000 8.5252 0.0000 48.7571
#
#
#
# Elastic Compliance Matrix: (Units=1/GPa)
#
#
# Indices 1 2 3 4 5 6 
#
# 1 0.010754 -0.001497 -0.002790 0.000000 -0.009245 0.000000
# 2 -0.001497 0.010182 -0.001309 0.000000 -0.001726 0.000000
# 3 -0.002790 -0.001309 0.027220 0.000000 -0.010950 0.000000
# 4 0.000000 0.000000 0.000000 0.040297 0.000000 -0.007046
# 5 -0.009245 -0.001726 -0.010950 0.000000 0.043827 0.000000
# 6 0.000000 0.000000 0.000000 -0.007046 0.000000 0.021742
#
#
# Mechanical properties :
#
#
# Convention : Reuss Voigt Hill
#
# Bulk Modulus (GPa) = 27.05332 49.38912 38.22122
# Shear Modulus (GPa) = 28.16368 36.75458 32.45913
#
# Velocity S-wave (km/s) = 3.87319 4.42466 4.15808
# Velocity P-wave (km/s) = 5.86621 7.23955 6.58876
#
# Compressibility (1/GPa) = 0.03696404
#
# Stress axis : x y z
#
# Youngs Moduli (GPa) = 92.98933 98.21667 36.73772
#
# Poissons Ratio (x) = 0.14704 0.10250
# Poissons Ratio (y) = 0.13922 0.04807
# Poissons Ratio (z) = 0.25944 0.12853
#
# Static dielectric constant tensor:
#      x y z
#    x 1.648810 0.000000 -0.007460 
#    y 0.000000 1.684620 0.000000 
#    z -0.007460 0.000000 1.683430 
# 
# From -- ./inp_files/252576.got.cif
#   From: 2010.05.17/outbox.ucp.g08.bks.cvg/sg15_127_cif.got.tgz:252576.got - 2010.06.11 12:40:34.
