data_PCOD9309915
_publ_section_title
;
Structure prediction by ZEFSAII (Michael W. Deem and Ramdas Pophale) SiO2 
 PCOD9309915
Probable space group: C 2/C
;
_chemical_formula_sum "Si O2"
_cell_formula_units_Z 26
_cell_length_a 12.000000
_cell_length_b 15.000000
_cell_length_c 15.000000
_cell_angle_alpha 90.000000
_cell_angle_beta 110.000000
_cell_angle_gamma 90.000000
_cell_volume 2537.170076
_symmetry_space_group_name_H-M "C 2/C"
_symmetry_group_IT_number 15
_symmetry_cell_setting 'monoclinic'
loop_
_space_group_symop_operation_xyz
x,y,z
-x,y,1/2-z
-x,-y,-z
x,-y,1/2+z
1/2+x,1/2+y,z
1/2-x,1/2+y,1/2-z
1/2-x,1/2-y,-z
1/2+x,1/2-y,1/2+z
loop_
_atom_site_type_symbol
_atom_site_label
_atom_site_fract_x
_atom_site_fract_y
_atom_site_fract_z
Si Si1 0.258332 0.556646 0.684862
Si Si2 0.500000 0.331001 0.250000
Si Si3 0.513049 0.857864 0.069237
Si Si4 0.709351 0.563638 0.142728
Si Si5 0.135104 0.702901 0.422502
Si Si6 0.025543 0.162796 0.363224
Si Si7 0.250729 0.056711 0.490225
O O1 0.380549 0.611059 0.739337
O O2 0.129365 0.603961 0.652868
O O3 0.256136 0.473469 0.751183
O O4 0.265220 0.522978 0.585210
O O5 0.549506 0.270002 0.344601
O O6 0.485317 0.764265 0.108523
O O7 0.558780 0.841500 0.980618
O O8 0.388995 0.912910 0.032453
O O9 0.805259 0.633353 0.130064
O O10 0.579559 0.607976 0.115991
O O11 0.711427 0.480848 0.075097
O O12 0.250000 0.750000 0.500000
O O13 0.155463 0.128565 0.428359
O O14 0.000000 0.153697 0.250000
#
# Coordination Sequence:
#
# PCOD9309915 Si02
#       7
#     8   4   8   8   8   8   8
#     4  12  26  47  70 109 143 191 245 304 363 435
#     4  12  26  44  78 104 146 194 250 294 366 444
#     4  12  28  48  73 102 155 185 248 305 372 444
#     4  12  26  46  77 104 149 190 246 309 365 441
#     4  12  25  49  75 109 146 198 247 307 374 448
#     4  12  26  48  73 105 145 189 245 300 367 447
#     4  12  27  48  72 106 145 194 239 306 373 432
#
# _framework density 10.247638
#
# number of rings (size 3 to 8) (size 9 to 14) (size 15 to 20)
#    0.000    0.000    6.154    2.308    6.462    1.231 
#    0.000    0.000    0.000    0.000    0.000    0.000 
#    0.000    0.000    0.000    0.000    0.000    0.000 
#
# Total GULP energy -145421.867801 kJ/mol
# GULP energy per Si atom -5593.148762 kJ/mol
# Density = 1.022431 g / cm^3
# Si number density = 10.247638 Si / 1000 Ang^3
#
#
#
# Elastic Constant Matrix: (Units=GPa)
#
#
# Indices 1 2 3 4 5 6 
#
# 1 151.6012 48.2482 46.3942 0.0000 28.8397 0.0000
# 2 48.2482 72.8293 23.2496 0.0000 21.2409 0.0000
# 3 46.3942 23.2496 82.2189 0.0000 15.6426 0.0000
# 4 0.0000 0.0000 0.0000 51.8774 0.0000 3.6504
# 5 28.8397 21.2409 15.6426 0.0000 54.2693 0.0000
# 6 0.0000 0.0000 0.0000 3.6504 0.0000 63.1606
#
#
#
# Elastic Compliance Matrix: (Units=1/GPa)
#
#
# Indices 1 2 3 4 5 6 
#
# 1 0.009599 -0.004515 -0.003709 0.000000 -0.002265 0.000000
# 2 -0.004515 0.018587 -0.001884 0.000000 -0.004333 0.000000
# 3 -0.003709 -0.001884 0.015101 0.000000 -0.001644 0.000000
# 4 0.000000 0.000000 0.000000 0.019355 0.000000 -0.001119
# 5 -0.002265 -0.004333 -0.001644 0.000000 0.021800 0.000000
# 6 0.000000 0.000000 0.000000 -0.001119 0.000000 0.015897
#
#
# Mechanical properties :
#
#
# Convention : Reuss Voigt Hill
#
# Bulk Modulus (GPa) = 43.34342 60.27038 51.80690
# Shear Modulus (GPa) = 38.98799 46.44530 42.71665
#
# Velocity S-wave (km/s) = 4.36626 4.76557 4.57028
# Velocity P-wave (km/s) = 6.82736 7.72992 7.29262
#
# Compressibility (1/GPa) = 0.02307155
#
# Stress axis : x y z
#
# Youngs Moduli (GPa) = 104.17809 53.80214 66.22019
#
# Poissons Ratio (x) = 0.24289 0.24561
# Poissons Ratio (y) = 0.47031 0.12477
# Poissons Ratio (z) = 0.38639 0.10137
#
# Static dielectric constant tensor:
#      x y z
#    x 1.709440 0.000000 -0.006870 
#    y 0.000000 1.779810 0.000000 
#    z -0.006870 0.000000 1.694450 
# 
# From -- ./inp_files/144145.got.cif
#   From: 2010.05.17/outbox.ucp.g08.bks.cvg/sg15_73_cif.got.tgz:144145.got - 2010.06.11 12:40:34.
