data_PCOD9309961
_publ_section_title
;
Structure prediction by ZEFSAII (Michael W. Deem and Ramdas Pophale) SiO2 
 PCOD9309961
Probable space group: P 2 2 2
;
_chemical_formula_sum "Si O2"
_cell_formula_units_Z 27
_cell_length_a 7.100399
_cell_length_b 17.620731
_cell_length_c 8.613545
_cell_angle_alpha 90.000000
_cell_angle_beta 90.000000
_cell_angle_gamma 90.000000
_cell_volume 1077.676971
_symmetry_space_group_name_H-M "P 2 2 2"
_symmetry_group_IT_number 16
_symmetry_cell_setting 'orthorhombic'
loop_
_space_group_symop_operation_xyz
x,y,z
-x,-y,z
x,-y,-z
-x,y,-z
loop_
_atom_site_type_symbol
_atom_site_label
_atom_site_fract_x
_atom_site_fract_y
_atom_site_fract_z
Si Si1 0.227475 0.418418 0.191470
Si Si2 0.220421 0.254712 0.704743
Si Si3 0.197887 0.876936 0.066818
Si Si4 0.767927 0.737834 0.347606
Si Si5 0.000000 0.000000 0.278847
Si Si6 0.228125 0.583993 0.171179
Si Si7 0.337881 0.899673 0.736821
Si Si8 0.500000 0.000000 0.500000
O O1 0.287320 0.345987 0.290894
O O2 0.287705 0.503002 0.241435
O O3 0.999291 0.416930 0.187570
O O4 0.279663 0.412476 0.010308
O O5 0.277874 0.190448 0.827858
O O6 0.275107 0.246618 0.526832
O O7 0.288704 0.337432 0.755686
O O8 0.991152 0.255135 0.691438
O O9 0.125669 0.944315 0.175853
O O10 0.312139 0.910971 0.921404
O O11 0.000000 0.844653 0.000000
O O12 0.675656 0.809666 0.267959
O O13 0.157894 0.057023 0.351144
O O14 0.506724 0.934590 0.638801
#
# Coordination Sequence:
#
# PCOD9309961 Si02
#       8
#     4   4   4   4   2   4   4   1
#     4   8  14  25  40  64  98 159 186 227 285 362
#     4  10  18  26  47  85 107 144 190 254 299 354
#     4  10  18  35  58  84 106 142 207 256 298 359
#     4  10  19  29  48  74 111 146 198 244 300 350
#     4  10  21  39  70  93 104 147 214 265 300 357
#     4   8  14  23  39  64 109 144 192 223 290 368
#     4  11  23  42  60  83 117 155 199 258 306 383
#     4  12  32  42  58  88 128 168 198 252 352 378
#
# _framework density 25.053887
#
# number of rings (size 3 to 8) (size 9 to 14) (size 15 to 20)
#    0.000    2.370    2.963    3.778    4.148    0.889 
#    0.000    4.444    0.000    0.000    0.000    0.000 
#    0.000    2.370    0.000    3.852    0.000   19.407 
#
# Total GULP energy -150597.534959 kJ/mol
# GULP energy per Si atom -5577.686480 kJ/mol
# Density = 2.499686 g / cm^3
# Si number density = 25.053887 Si / 1000 Ang^3
#
#
#
# Elastic Constant Matrix: (Units=GPa)
#
#
# Indices 1 2 3 4 5 6 
#
# 1 100.1755 17.6702 24.9721 0.0000 0.0000 0.0000
# 2 17.6702 181.6866 43.1204 0.0000 0.0000 0.0000
# 3 24.9721 43.1204 75.4007 0.0000 0.0000 0.0000
# 4 0.0000 0.0000 0.0000 44.4215 0.0000 0.0000
# 5 0.0000 0.0000 0.0000 0.0000 -0.5370 0.0000
# 6 0.0000 0.0000 0.0000 0.0000 0.0000 -20.9887
#
#
#
# Elastic Compliance Matrix: (Units=1/GPa)
#
#
# Indices 1 2 3 4 5 6 
#
# 1 0.010889 -0.000235 -0.003472 0.000000 0.000000 0.000000
# 2 -0.000235 0.006373 -0.003567 0.000000 0.000000 0.000000
# 3 -0.003472 -0.003567 0.016452 0.000000 0.000000 0.000000
# 4 0.000000 0.000000 0.000000 0.022512 0.000000 0.000000
# 5 0.000000 0.000000 0.000000 0.000000 -1.862120 0.000000
# 6 0.000000 0.000000 0.000000 0.000000 0.000000 -0.047645
#
#
# Mechanical properties :
#
#
# Convention : Reuss Voigt Hill
#
# Bulk Modulus (GPa) = 52.17315 58.75422 55.46369
# Shear Modulus (GPa) = -2.72836 22.67915 9.97539
#
# Velocity S-wave (km/s) = -1.04468 3.01194 1.99755
# Velocity P-wave (km/s) = 4.40618 5.96639 5.24463
#
# Compressibility (1/GPa) = 0.01916695
#
# Stress axis : x y z
#
# Youngs Moduli (GPa) = 91.83186 156.90180 60.78171
#
# Poissons Ratio (x) = 0.03688 0.21104
# Poissons Ratio (y) = 0.02158 0.21681
# Poissons Ratio (z) = 0.31885 0.55967
#
# Static dielectric constant tensor:
#      x y z
#    x 2.208420 0.000000 0.000000 
#    y 0.000000 1.932020 0.000000 
#    z 0.000000 0.000000 1.954340 
# 
# From -- ./inp_files/4199.got.cif
#   From: 2010.05.17/outbox.cif.g08.bks.cpg/sg16_3_cif.got.tgz:4199.got - 2010.06.03 22:28:35.
