data_PCOD9309097
_publ_section_title
;
Structure prediction by ZEFSAII (Michael W. Deem and Ramdas Pophale) SiO2 
 PCOD9309097
Probable space group: C 2/C
;
_chemical_formula_sum "Si O2"
_cell_formula_units_Z 32
_cell_length_a 12.000000
_cell_length_b 15.000000
_cell_length_c 21.000000
_cell_angle_alpha 90.000000
_cell_angle_beta 110.000000
_cell_angle_gamma 90.000000
_cell_volume 3552.038107
_symmetry_space_group_name_H-M "C 2/C"
_symmetry_group_IT_number 15
_symmetry_cell_setting 'monoclinic'
loop_
_space_group_symop_operation_xyz
x,y,z
-x,y,1/2-z
-x,-y,-z
x,-y,1/2+z
1/2+x,1/2+y,z
1/2-x,1/2+y,1/2-z
1/2-x,1/2-y,-z
1/2+x,1/2-y,1/2+z
loop_
_atom_site_type_symbol
_atom_site_label
_atom_site_fract_x
_atom_site_fract_y
_atom_site_fract_z
Si Si1 0.301263 0.059697 0.773235
Si Si2 0.521552 0.397882 0.593984
Si Si3 0.300494 0.193532 0.346926
Si Si4 0.997639 0.405231 0.821092
Si Si5 0.311602 0.323912 0.466628
Si Si6 0.899052 0.249509 0.286089
Si Si7 0.611963 0.537740 0.319684
Si Si8 0.758217 0.506808 0.619015
O O1 0.366949 0.151519 0.802179
O O2 0.262468 0.050823 0.691255
O O3 0.402912 0.985555 0.799758
O O4 0.190575 0.036051 0.797873
O O5 0.433922 0.356218 0.523947
O O6 0.559267 0.318481 0.650849
O O7 0.450563 0.470094 0.623982
O O8 0.639323 0.446899 0.591864
O O9 0.431954 0.161207 0.355630
O O10 0.315715 0.271216 0.400696
O O11 0.225849 0.219616 0.269462
O O12 0.210173 0.115350 0.352244
O O13 0.000000 0.366583 0.750000
O O14 0.125660 0.444372 0.863420
O O15 0.250000 0.250000 0.500000
O O16 0.243016 0.415050 0.434029
O O17 0.000000 0.254836 0.250000
O O18 0.500000 0.558492 0.250000
#
# Coordination Sequence:
#
# PCOD9309097 Si02
#       8
#     8   8   8   8   8   8   8   8
#     4  10  21  32  62  98 120 148 209 268 305 352
#     4  12  23  39  64  89 128 165 205 251 312 374
#     4  11  20  38  62  94 120 158 207 263 300 362
#     4   9  20  37  62  90 125 155 202 259 322 363
#     4  12  25  40  63  93 122 163 218 254 301 365
#     4  12  19  35  64  92 121 157 210 262 301 358
#     4  11  18  37  60  91 123 156 201 254 313 361
#     4  11  22  42  59  88 125 169 202 248 313 375
#
# _framework density 9.0089120000000005
#
# number of rings (size 3 to 8) (size 9 to 14) (size 15 to 20)
#    0.000    1.000    6.250    3.000    1.750    0.000 
#    0.000    6.875    0.000    0.000    0.000    0.000 
#    0.000    0.000    0.000    0.000    0.000    0.000 
#
# Total GULP energy -178333.110585 kJ/mol
# GULP energy per Si atom -5572.909706 kJ/mol
# Density = 0.898841 g / cm^3
# Si number density = 9.008912 Si / 1000 Ang^3
#
#
#
# Elastic Constant Matrix: (Units=GPa)
#
#
# Indices 1 2 3 4 5 6 
#
# 1 124.5039 29.5205 25.2190 0.0000 10.4183 0.0000
# 2 29.5205 55.0121 18.3220 0.0000 0.9625 0.0000
# 3 25.2190 18.3220 72.8182 0.0000 22.5567 0.0000
# 4 0.0000 0.0000 0.0000 28.0722 0.0000 -0.9327
# 5 10.4183 0.9625 22.5567 0.0000 16.8432 0.0000
# 6 0.0000 0.0000 0.0000 -0.9327 0.0000 26.1898
#
#
#
# Elastic Compliance Matrix: (Units=1/GPa)
#
#
# Indices 1 2 3 4 5 6 
#
# 1 0.009738 -0.004939 -0.000600 0.000000 -0.004937 0.000000
# 2 -0.004939 0.023274 -0.007998 0.000000 0.012436 0.000000
# 3 -0.000600 -0.007998 0.026824 0.000000 -0.035095 0.000000
# 4 0.000000 0.000000 0.000000 0.035665 0.000000 0.001270
# 5 -0.004937 0.012436 -0.035095 0.000000 0.108714 0.000000
# 6 0.000000 0.000000 0.000000 0.001270 0.000000 0.038228
#
#
# Mechanical properties :
#
#
# Convention : Reuss Voigt Hill
#
# Bulk Modulus (GPa) = 30.52322 44.27302 37.39812
# Shear Modulus (GPa) = 17.82921 26.17254 22.00087
#
# Velocity S-wave (km/s) = 3.14909 3.81542 3.49816
# Velocity P-wave (km/s) = 5.49543 6.63589 6.09241
#
# Compressibility (1/GPa) = 0.03276194
#
# Stress axis : x y z
#
# Youngs Moduli (GPa) = 102.69385 42.96575 37.27936
#
# Poissons Ratio (x) = 0.21221 0.02238
# Poissons Ratio (y) = 0.50721 0.29815
# Poissons Ratio (z) = 0.06166 0.34363
#
# Static dielectric constant tensor:
#      x y z
#    x 1.623100 0.000000 -0.026680 
#    y 0.000000 1.674070 0.000000 
#    z -0.026680 0.000000 1.628270 
# 
# From -- ./inp_files/238769.got.cif
#   From: 2010.05.17/outbox.ucp.g08.bks.cvg/sg15_120_cif.got.tgz:238769.got - 2010.06.11 12:40:34.
