data_PCOD9309264
_publ_section_title
;
Structure prediction by ZEFSAII (Michael W. Deem and Ramdas Pophale) SiO2 
 PCOD9309264
Probable space group: C 2/C
;
_chemical_formula_sum "Si O2"
_cell_formula_units_Z 26
_cell_length_a 18.000000
_cell_length_b 27.000000
_cell_length_c 6.000000
_cell_angle_alpha 90.000000
_cell_angle_beta 60.000000
_cell_angle_gamma 90.000000
_cell_volume 2525.330077
_symmetry_space_group_name_H-M "C 2/C"
_symmetry_group_IT_number 15
_symmetry_cell_setting 'monoclinic'
loop_
_space_group_symop_operation_xyz
x,y,z
-x,y,1/2-z
-x,-y,-z
x,-y,1/2+z
1/2+x,1/2+y,z
1/2-x,1/2+y,1/2-z
1/2-x,1/2-y,-z
1/2+x,1/2-y,1/2+z
loop_
_atom_site_type_symbol
_atom_site_label
_atom_site_fract_x
_atom_site_fract_y
_atom_site_fract_z
Si Si1 0.601118 0.482857 0.115629
Si Si2 0.103601 0.829171 0.633133
Si Si3 0.407375 0.783114 0.271334
Si Si4 0.160357 0.871372 0.051578
Si Si5 0.500000 0.165063 0.250000
Si Si6 0.643286 0.873362 0.868248
Si Si7 0.396927 0.020006 0.904509
O O1 0.500000 0.496266 0.250000
O O2 0.634404 0.505010 0.308531
O O3 0.615782 0.424772 0.127403
O O4 0.127746 0.771503 0.636311
O O5 0.130257 0.851690 0.842732
O O6 0.000000 0.834315 0.750000
O O7 0.139560 0.846157 0.330085
O O8 0.500000 0.782885 0.250000
O O9 0.354825 0.825696 0.473537
O O10 0.432631 0.800363 0.985269
O O11 0.263909 0.876369 0.886122
O O12 0.438631 0.133442 0.176502
O O13 0.626109 0.922256 0.038611
O O14 0.500000 0.012745 0.750000
O O15 0.367432 0.001562 0.697518
#
# Coordination Sequence:
#
# PCOD9309264 Si02
#       7
#     8   8   8   8   4   8   8
#     4  10  21  41  69  94 127 174 221 266 331 404
#     4  11  25  45  70  98 137 175 222 281 342 404
#     4   9  22  41  69  95 128 185 229 268 332 409
#     4  12  27  42  68 106 139 172 222 286 339 394
#     4  10  22  44  70  90 132 188 228 268 330 406
#     4  11  26  42  66  98 139 179 228 276 336 405
#     4  10  23  40  65  95 127 173 227 277 329 385
#
# _framework density 10.295684
#
# number of rings (size 3 to 8) (size 9 to 14) (size 15 to 20)
#    0.000    1.538    0.000    3.692   14.000    3.692 
#    0.000    0.000    0.000    0.000    0.000    0.000 
#    0.000    0.000    0.000    0.000    0.000    0.000 
#
# Total GULP energy -144756.872065 kJ/mol
# GULP energy per Si atom -5567.572003 kJ/mol
# Density = 1.027225 g / cm^3
# Si number density = 10.295684 Si / 1000 Ang^3
#
#
#
# Elastic Constant Matrix: (Units=GPa)
#
#
# Indices 1 2 3 4 5 6 
#
# 1 62.8454 11.3445 26.6535 0.0000 17.5750 0.0000
# 2 11.3445 110.6556 36.0117 0.0000 29.0761 0.0000
# 3 26.6535 36.0117 140.8844 0.0000 35.0943 0.0000
# 4 0.0000 0.0000 0.0000 37.4293 0.0000 10.3316
# 5 17.5750 29.0761 35.0943 0.0000 37.8246 0.0000
# 6 0.0000 0.0000 0.0000 10.3316 0.0000 0.5105
#
#
#
# Elastic Compliance Matrix: (Units=1/GPa)
#
#
# Indices 1 2 3 4 5 6 
#
# 1 0.018662 0.000646 -0.001836 0.000000 -0.007463 0.000000
# 2 0.000646 0.011444 -0.001016 0.000000 -0.008154 0.000000
# 3 -0.001836 -0.001016 0.009492 0.000000 -0.007172 0.000000
# 4 0.000000 0.000000 0.000000 -0.005826 0.000000 0.117896
# 5 -0.007463 -0.008154 -0.007172 0.000000 0.042829 0.000000
# 6 0.000000 0.000000 0.000000 0.117896 0.000000 -0.427116
#
#
# Mechanical properties :
#
#
# Convention : Reuss Voigt Hill
#
# Bulk Modulus (GPa) = 28.42239 51.37830 39.90035
# Shear Modulus (GPa) = -14.95334 31.17795 8.11231
#
# Velocity S-wave (km/s) = -2.69772 3.89540 1.98701
# Velocity P-wave (km/s) = 2.03210 6.72590 4.96826
#
# Compressibility (1/GPa) = 0.03518353
#
# Stress axis : x y z
#
# Youngs Moduli (GPa) = 53.58618 87.38022 105.35426
#
# Poissons Ratio (x) = -0.05641 0.19347
# Poissons Ratio (y) = -0.03459 0.10705
# Poissons Ratio (z) = 0.09841 0.08879
#
# Static dielectric constant tensor:
#      x y z
#    x 1.739470 0.000000 0.019720 
#    y 0.000000 1.754370 0.000000 
#    z 0.019720 0.000000 1.813150 
# 
# From -- ./inp_files/11461.got.cif
#   From: 2010.05.17/outbox.ucp.g08.bks.cvg/sg15_6_cif.got.tgz:11461.got - 2010.06.11 12:40:34.
