data_PCOD9309422
_publ_section_title
;
Structure prediction by ZEFSAII (Michael W. Deem and Ramdas Pophale) SiO2 
 PCOD9309422
Probable space group: C 2/C
;
_chemical_formula_sum "Si O2"
_cell_formula_units_Z 24
_cell_length_a 21.000000
_cell_length_b 27.000000
_cell_length_c 12.000000
_cell_angle_alpha 90.000000
_cell_angle_beta 160.000000
_cell_angle_gamma 90.000000
_cell_volume 2327.105055
_symmetry_space_group_name_H-M "C 2/C"
_symmetry_group_IT_number 15
_symmetry_cell_setting 'monoclinic'
loop_
_space_group_symop_operation_xyz
x,y,z
-x,y,1/2-z
-x,-y,-z
x,-y,1/2+z
1/2+x,1/2+y,z
1/2-x,1/2+y,1/2-z
1/2-x,1/2-y,-z
1/2+x,1/2-y,1/2+z
loop_
_atom_site_type_symbol
_atom_site_label
_atom_site_fract_x
_atom_site_fract_y
_atom_site_fract_z
Si Si1 0.908086 0.217791 0.324623
Si Si2 0.230769 0.160211 0.765247
Si Si3 0.402402 0.443988 0.464412
Si Si4 0.100485 0.943941 0.540211
Si Si5 0.065478 0.688295 0.171057
Si Si6 0.680871 0.153861 0.119991
O O1 0.831426 0.189575 0.308026
O O2 0.018790 0.180173 0.425347
O O3 0.061814 0.255869 0.622029
O O4 0.750000 0.250000 0.000000
O O5 0.237343 0.101362 0.766011
O O6 0.352880 0.180357 0.864078
O O7 0.320422 0.174591 0.031536
O O8 0.500000 0.439229 0.750000
O O9 0.500766 0.438876 0.500730
O O10 0.329052 0.499825 0.344404
O O11 0.253340 0.901682 0.791705
O O12 0.000000 0.937744 0.250000
O O13 0.136936 0.660155 0.178420
O O14 0.500000 0.165066 0.750000
#
# Coordination Sequence:
#
# PCOD9309422 Si02
#       6
#     8   8   8   8   8   8
#     4  12  25  44  68  97 135 185 230 281 333 411
#     4  11  25  45  68  96 137 177 222 285 335 413
#     4  10  22  41  75 100 127 178 228 280 346 409
#     4  10  22  45  71  99 130 175 231 279 342 418
#     4  11  26  43  64  99 139 175 229 270 347 397
#     4  12  25  43  67 100 133 177 224 284 335 402
#
# _framework density 10.313243
#
# number of rings (size 3 to 8) (size 9 to 14) (size 15 to 20)
#    0.000    1.000    3.333    2.500    4.667    1.333 
#    3.000    0.833    0.000    0.000    0.000    0.000 
#    0.000    0.000    0.000    0.000    0.000    0.000 
#
# Total GULP energy -133666.230851 kJ/mol
# GULP energy per Si atom -5569.426285 kJ/mol
# Density = 1.028977 g / cm^3
# Si number density = 10.313243 Si / 1000 Ang^3
#
#
#
# Elastic Constant Matrix: (Units=GPa)
#
#
# Indices 1 2 3 4 5 6 
#
# 1 168.5668 32.2478 11.3881 0.0000 -1.1428 0.0001
# 2 32.2478 90.5077 15.3743 0.0000 0.7615 0.0000
# 3 11.3881 15.3743 45.7613 0.0000 -8.6585 0.0001
# 4 0.0000 0.0000 0.0000 27.7363 0.0000 -4.7577
# 5 -1.1428 0.7615 -8.6585 0.0000 28.7141 0.0001
# 6 0.0001 0.0000 0.0001 -4.7577 0.0001 275.6734
#
#
#
# Elastic Compliance Matrix: (Units=1/GPa)
#
#
# Indices 1 2 3 4 5 6 
#
# 1 0.006399 -0.002133 -0.000866 0.000000 0.000050 0.000000
# 2 -0.002133 0.012497 -0.003973 0.000000 -0.001614 0.000000
# 3 -0.000866 -0.003973 0.024833 0.000000 0.007559 0.000000
# 4 0.000000 0.000000 0.000000 0.036161 0.000000 0.000624
# 5 0.000050 -0.001614 0.007559 0.000000 0.037150 0.000000
# 6 0.000000 0.000000 0.000000 0.000624 0.000000 0.003638
#
#
# Mechanical properties :
#
#
# Convention : Reuss Voigt Hill
#
# Bulk Modulus (GPa) = 33.57491 46.98399 40.27945
# Shear Modulus (GPa) = 34.58927 82.81314 58.70121
#
# Velocity S-wave (km/s) = 4.09948 6.34319 5.34050
# Velocity P-wave (km/s) = 6.22259 8.74506 7.58936
#
# Compressibility (1/GPa) = 0.02978415
#
# Stress axis : x y z
#
# Youngs Moduli (GPa) = 156.26574 80.01665 40.26849
#
# Poissons Ratio (x) = 0.17070 0.03489
# Poissons Ratio (y) = 0.33337 0.16000
# Poissons Ratio (z) = 0.13538 0.31793
#
# Static dielectric constant tensor:
#      x y z
#    x 1.824600 0.000000 0.039270 
#    y 0.000000 1.731500 0.000000 
#    z 0.039270 0.000000 1.823000 
# 
# From -- ./inp_files/80932.got.cif
#   From: 2010.05.17/outbox.ucp.g08.bks.cvg/sg15_41_cif.got.tgz:80932.got - 2010.06.11 12:40:34.
