data_PCOD9309466
_publ_section_title
;
Structure prediction by ZEFSAII (Michael W. Deem and Ramdas Pophale) SiO2 
 PCOD9309466
Probable space group: C 2/C
;
_chemical_formula_sum "Si O2"
_cell_formula_units_Z 26
_cell_length_a 12.000000
_cell_length_b 15.000000
_cell_length_c 15.000000
_cell_angle_alpha 90.000000
_cell_angle_beta 110.000000
_cell_angle_gamma 90.000000
_cell_volume 2537.170076
_symmetry_space_group_name_H-M "C 2/C"
_symmetry_group_IT_number 15
_symmetry_cell_setting 'monoclinic'
loop_
_space_group_symop_operation_xyz
x,y,z
-x,y,1/2-z
-x,-y,-z
x,-y,1/2+z
1/2+x,1/2+y,z
1/2-x,1/2+y,1/2-z
1/2-x,1/2-y,-z
1/2+x,1/2-y,1/2+z
loop_
_atom_site_type_symbol
_atom_site_label
_atom_site_fract_x
_atom_site_fract_y
_atom_site_fract_z
Si Si1 0.187818 0.049579 0.793151
Si Si2 0.500000 0.843795 0.250000
Si Si3 0.377670 0.278655 0.996247
Si Si4 0.983271 0.961775 0.094820
Si Si5 0.463589 0.011424 0.886318
Si Si6 0.784157 0.744296 0.780103
Si Si7 0.457505 0.177875 0.332806
O O1 0.111380 0.009426 0.854419
O O2 0.320864 0.013121 0.836968
O O3 0.215379 0.156284 0.798518
O O4 0.108662 0.036173 0.682174
O O5 0.488687 0.904970 0.157764
O O6 0.618004 0.786936 0.264341
O O7 0.355095 0.284200 0.884292
O O8 0.250000 0.250000 0.000000
O O9 0.425525 0.367360 0.054365
O O10 0.479774 0.213085 0.060318
O O11 0.000000 0.000000 0.000000
O O12 0.502312 0.922923 0.846279
O O13 0.500000 0.000000 0.000000
O O14 0.683411 0.806487 0.709783
O O15 0.500000 0.219324 0.250000
#
# Coordination Sequence:
#
# PCOD9309466 Si02
#       7
#     8   4   8   8   8   8   8
#     4  10  22  44  64  93 138 176 216 287 338 401
#     4  10  24  48  66  96 144 184 210 284 350 394
#     4  12  23  40  69  99 130 173 230 281 336 407
#     4  11  24  41  66  98 133 179 224 273 349 407
#     4  11  25  43  69  96 134 180 230 275 339 410
#     4  11  23  43  68  94 139 171 224 279 342 398
#     4  12  22  40  67 102 125 170 230 280 329 401
#
# _framework density 10.247638
#
# number of rings (size 3 to 8) (size 9 to 14) (size 15 to 20)
#    0.000    0.923    5.385    1.846    2.154    2.462 
#    2.769    1.538    0.000    0.000    0.000    0.000 
#    0.000    0.000    0.000    0.000    0.000    0.000 
#
# Total GULP energy -144817.877652 kJ/mol
# GULP energy per Si atom -5569.918371 kJ/mol
# Density = 1.022431 g / cm^3
# Si number density = 10.247638 Si / 1000 Ang^3
#
#
#
# Elastic Constant Matrix: (Units=GPa)
#
#
# Indices 1 2 3 4 5 6 
#
# 1 108.1064 8.4255 58.1379 0.0000 0.1385 0.0000
# 2 8.4255 27.4061 11.9624 0.0000 0.2662 0.0000
# 3 58.1379 11.9624 177.4973 0.0000 15.3650 0.0000
# 4 0.0000 0.0000 0.0000 25.4659 0.0000 -2.8946
# 5 0.1385 0.2662 15.3650 0.0000 41.6086 0.0000
# 6 0.0000 0.0000 0.0000 -2.8946 0.0000 16.3596
#
#
#
# Elastic Compliance Matrix: (Units=1/GPa)
#
#
# Indices 1 2 3 4 5 6 
#
# 1 0.011398 -0.001892 -0.003722 0.000000 0.001349 0.000000
# 2 -0.001892 0.037929 -0.001979 0.000000 0.000495 0.000000
# 3 -0.003722 -0.001979 0.007215 0.000000 -0.002639 0.000000
# 4 0.000000 0.000000 0.000000 0.040074 0.000000 0.007091
# 5 0.001349 0.000495 -0.002639 0.000000 0.025000 0.000000
# 6 0.000000 0.000000 0.000000 0.007091 0.000000 0.062381
#
#
# Mechanical properties :
#
#
# Convention : Reuss Voigt Hill
#
# Bulk Modulus (GPa) = 24.18153 52.22904 38.20528
# Shear Modulus (GPa) = 23.47746 32.31907 27.89827
#
# Velocity S-wave (km/s) = 3.38820 3.97533 3.69345
# Velocity P-wave (km/s) = 5.20872 6.82714 6.07209
#
# Compressibility (1/GPa) = 0.04135388
#
# Stress axis : x y z
#
# Youngs Moduli (GPa) = 87.73623 26.36497 138.59974
#
# Poissons Ratio (x) = 0.04989 0.51594
# Poissons Ratio (y) = 0.16602 0.27432
# Poissons Ratio (z) = 0.32660 0.05218
#
# Static dielectric constant tensor:
#      x y z
#    x 1.728580 0.000000 -0.041540 
#    y 0.000000 1.791040 0.000000 
#    z -0.041540 0.000000 1.810250 
# 
# From -- ./inp_files/144306.got.cif
#   From: 2010.05.17/outbox.ucp.g08.bks.cvg/sg15_73_cif.got.tgz:144306.got - 2010.06.11 12:40:34.
