data_PCOD9309085
_publ_section_title
;
Structure prediction by ZEFSAII (Michael W. Deem and Ramdas Pophale) SiO2 
 PCOD9309085
Probable space group: C 2/C
;
_chemical_formula_sum "Si O2"
_cell_formula_units_Z 30
_cell_length_a 12.000000
_cell_length_b 27.000000
_cell_length_c 9.000000
_cell_angle_alpha 90.000000
_cell_angle_beta 90.000000
_cell_angle_gamma 90.000000
_cell_volume 2916.000000
_symmetry_space_group_name_H-M "C 2/C"
_symmetry_group_IT_number 15
_symmetry_cell_setting 'monoclinic'
loop_
_space_group_symop_operation_xyz
x,y,z
-x,y,1/2-z
-x,-y,-z
x,-y,1/2+z
1/2+x,1/2+y,z
1/2-x,1/2+y,1/2-z
1/2-x,1/2-y,-z
1/2+x,1/2-y,1/2+z
loop_
_atom_site_type_symbol
_atom_site_label
_atom_site_fract_x
_atom_site_fract_y
_atom_site_fract_z
Si Si1 0.822479 0.877437 0.582907
Si Si2 0.393426 0.025873 0.929875
Si Si3 0.125403 0.821074 0.323802
Si Si4 0.750169 0.533483 0.217903
Si Si5 0.000000 0.384157 0.250000
Si Si6 0.980926 0.215023 0.079506
Si Si7 0.671986 0.191161 0.908600
Si Si8 0.630391 0.571701 0.731140
O O1 0.803028 0.915991 0.717037
O O2 0.926688 0.839913 0.587055
O O3 0.722633 0.839020 0.548403
O O4 0.835590 0.909774 0.433133
O O5 0.429032 0.077206 0.851017
O O6 0.354046 0.983142 0.817564
O O7 0.296577 0.036121 0.050777
O O8 0.500000 0.000000 0.000000
O O9 0.225043 0.801412 0.213211
O O10 0.156654 0.879943 0.335326
O O11 0.000000 0.820035 0.250000
O O12 0.091914 0.791587 0.475768
O O13 0.677401 0.483691 0.243214
O O14 0.916008 0.347427 0.164043
O O15 0.891905 0.258739 0.038215
O O16 0.000000 0.228995 0.250000
O O17 0.500000 0.566067 0.750000
#
# Coordination Sequence:
#
# PCOD9309085 Si02
#       8
#     8   8   8   8   4   8   8   8
#     4  11  23  43  68  98 136 183 224 282 342 410
#     4  12  23  41  66  96 136 177 221 277 337 402
#     4  10  21  43  75  95 131 192 224 272 355 417
#     4  12  24  41  67 103 136 178 226 277 336 415
#     4  12  24  44  70  98 140 186 226 288 342 412
#     4  12  25  45  70 106 135 171 240 302 339 400
#     4  11  24  47  72  96 138 187 230 281 359 411
#     4  10  20  42  68  95 132 183 221 260 342 413
#
# _framework density 10.288066000000001
#
# number of rings (size 3 to 8) (size 9 to 14) (size 15 to 20)
#    0.000    0.800    7.333    2.800    0.000    3.733 
#    2.400    0.000    0.000    0.000    0.000    0.000 
#    0.000    0.000    0.000    0.000    0.000    0.000 
#
# Total GULP energy -167232.835420 kJ/mol
# GULP energy per Si atom -5574.427847 kJ/mol
# Density = 1.026465 g / cm^3
# Si number density = 10.288066 Si / 1000 Ang^3
#
#
#
# Elastic Constant Matrix: (Units=GPa)
#
#
# Indices 1 2 3 4 5 6 
#
# 1 41.8824 18.1296 -1.5599 0.0000 -23.9781 0.0000
# 2 18.1296 133.1044 24.7594 0.0000 -25.7341 0.0000
# 3 -1.5599 24.7594 68.6990 0.0000 -32.0483 0.0000
# 4 0.0000 0.0000 0.0000 21.1131 0.0000 -4.0389
# 5 -23.9781 -25.7341 -32.0483 0.0000 42.8697 0.0000
# 6 0.0000 0.0000 0.0000 -4.0389 0.0000 43.5655
#
#
#
# Elastic Compliance Matrix: (Units=1/GPa)
#
#
# Indices 1 2 3 4 5 6 
#
# 1 0.050859 -0.002670 0.022479 0.000000 0.043649 0.000000
# 2 -0.002670 0.008689 -0.002235 0.000000 0.002052 0.000000
# 3 0.022479 -0.002235 0.032417 0.000000 0.035466 0.000000
# 4 0.000000 0.000000 0.000000 0.048219 0.000000 0.004470
# 5 0.043649 0.002052 0.035466 0.000000 0.075485 0.000000
# 6 0.000000 0.000000 0.000000 0.004470 0.000000 0.023368
#
#
# Mechanical properties :
#
#
# Convention : Reuss Voigt Hill
#
# Bulk Modulus (GPa) = 7.86697 36.26047 22.06372
# Shear Modulus (GPa) = 20.30375 35.00009 27.65192
#
# Velocity S-wave (km/s) = 3.14469 4.12880 3.66988
# Velocity P-wave (km/s) = 4.12517 6.35532 5.35757
#
# Compressibility (1/GPa) = 0.12711377
#
# Stress axis : x y z
#
# Youngs Moduli (GPa) = 19.66229 115.08844 30.84801
#
# Poissons Ratio (x) = 0.30726 -0.69344
# Poissons Ratio (y) = 0.05249 0.06895
# Poissons Ratio (z) = -0.44199 0.25722
#
# Static dielectric constant tensor:
#      x y z
#    x 1.826640 0.000000 0.088270 
#    y 0.000000 1.716900 0.000000 
#    z 0.088270 0.000000 1.801650 
# 
# From -- ./inp_files/34267.got.cif
#   From: 2010.05.17/outbox.ucp.g08.bks.cvg/sg15_18_cif.got.tgz:34267.got - 2010.06.11 12:40:34.
