data_PCOD9309026
_publ_section_title
;
Structure prediction by ZEFSAII (Michael W. Deem and Ramdas Pophale) SiO2 
 PCOD9309026
Probable space group: C 2/C
;
_chemical_formula_sum "Si O2"
_cell_formula_units_Z 16
_cell_length_a 9.000000
_cell_length_b 12.000000
_cell_length_c 30.000000
_cell_angle_alpha 90.000000
_cell_angle_beta 30.000000
_cell_angle_gamma 90.000000
_cell_volume 1620.000000
_symmetry_space_group_name_H-M "C 2/C"
_symmetry_group_IT_number 15
_symmetry_cell_setting 'monoclinic'
loop_
_space_group_symop_operation_xyz
x,y,z
-x,y,1/2-z
-x,-y,-z
x,-y,1/2+z
1/2+x,1/2+y,z
1/2-x,1/2+y,1/2-z
1/2-x,1/2-y,-z
1/2+x,1/2-y,1/2+z
loop_
_atom_site_type_symbol
_atom_site_label
_atom_site_fract_x
_atom_site_fract_y
_atom_site_fract_z
Si Si1 0.935092 0.018761 0.315065
Si Si2 0.301068 0.291881 0.916807
Si Si3 0.132344 0.346507 0.264432
Si Si4 0.231815 0.278806 0.378184
O O1 0.793469 0.101376 0.387014
O O2 0.000000 0.070012 0.250000
O O3 0.738737 0.907057 0.358440
O O4 0.232887 0.967043 0.259217
O O5 0.382362 0.189574 0.863893
O O6 0.573642 0.295855 0.881737
O O7 0.992830 0.276148 0.022267
O O8 0.422716 0.265641 0.197637
O O9 0.000000 0.340945 0.250000
#
# Coordination Sequence:
#
# PCOD9309026 Si02
#       4
#     8   8   8   8
#     4  10  20  39  60  90 125 159 212 248 311 367
#     4  11  19  37  68  83 122 174 193 266 313 347
#     4  10  21  37  54  89 125 160 210 255 296 377
#     4   9  21  38  60  91 124 159 216 247 309 373
#
# _framework density 9.8765429999999999
#
# number of rings (size 3 to 8) (size 9 to 14) (size 15 to 20)
#    1.500    0.500    2.500    2.250    0.000    3.000 
#    0.000    0.000    0.000    6.000    0.000    0.000 
#    0.000    0.000    0.000    0.000    0.000    0.000 
#
# Total GULP energy -89091.235671 kJ/mol
# GULP energy per Si atom -5568.202229 kJ/mol
# Density = 0.985406 g / cm^3
# Si number density = 9.876543 Si / 1000 Ang^3
#
#
#
# Elastic Constant Matrix: (Units=GPa)
#
#
# Indices 1 2 3 4 5 6 
#
# 1 96.2706 -0.5080 43.4241 -0.0200 17.3189 0.0253
# 2 -0.5080 26.2422 10.8187 0.3918 7.4107 -0.0602
# 3 43.4241 10.8187 95.2526 -1.1001 31.1896 0.1571
# 4 -0.0200 0.3918 -1.1001 64.3450 0.3375 6.9213
# 5 17.3189 7.4107 31.1896 0.3375 28.9767 -0.0715
# 6 0.0253 -0.0602 0.1571 6.9213 -0.0715 15.8791
#
#
#
# Elastic Compliance Matrix: (Units=1/GPa)
#
#
# Indices 1 2 3 4 5 6 
#
# 1 0.013435 0.003374 -0.005556 -0.000105 -0.002911 0.000079
# 2 0.003374 0.042147 -0.003306 -0.000293 -0.009234 0.000273
# 3 -0.005556 -0.003306 0.018610 0.000470 -0.015872 -0.000464
# 4 -0.000105 -0.000293 0.000470 0.016320 -0.000576 -0.007122
# 5 -0.002911 -0.009234 -0.015872 -0.000576 0.055704 0.000629
# 6 0.000079 0.000273 -0.000464 -0.007122 0.000629 0.066088
#
#
# Mechanical properties :
#
#
# Convention : Reuss Voigt Hill
#
# Bulk Modulus (GPa) = 15.81848 36.13720 25.97784
# Shear Modulus (GPa) = 20.46230 32.77555 26.61892
#
# Velocity S-wave (km/s) = 3.22204 4.07782 3.67493
# Velocity P-wave (km/s) = 4.67627 6.36441 5.58450
#
# Compressibility (1/GPa) = 0.06321720
#
# Stress axis : x y z
#
# Youngs Moduli (GPa) = 74.43222 23.72636 53.73434
#
# Poissons Ratio (x) = -0.08006 0.29856
# Poissons Ratio (y) = -0.25117 0.17763
# Poissons Ratio (z) = 0.41357 0.07843
#
# Static dielectric constant tensor:
#      x y z
#    x 1.703070 -0.000010 0.012860 
#    y -0.000010 1.725540 0.000010 
#    z 0.012860 0.000010 1.669270 
# 
# From -- ./inp_files/75323.got.cif
#   From: 2010.05.17/outbox.ucp.g08.bks.cvg/sg15_38_cif.got.tgz:75323.got - 2010.06.11 12:40:34.
