data_PCOD9309187
_publ_section_title
;
Structure prediction by ZEFSAII (Michael W. Deem and Ramdas Pophale) SiO2 
 PCOD9309187
Probable space group: C 2/C
;
_chemical_formula_sum "Si O2"
_cell_formula_units_Z 24
_cell_length_a 18.000000
_cell_length_b 9.000000
_cell_length_c 15.000000
_cell_angle_alpha 90.000000
_cell_angle_beta 90.000000
_cell_angle_gamma 90.000000
_cell_volume 2430.000000
_symmetry_space_group_name_H-M "C 2/C"
_symmetry_group_IT_number 15
_symmetry_cell_setting 'monoclinic'
loop_
_space_group_symop_operation_xyz
x,y,z
-x,y,1/2-z
-x,-y,-z
x,-y,1/2+z
1/2+x,1/2+y,z
1/2-x,1/2+y,1/2-z
1/2-x,1/2-y,-z
1/2+x,1/2-y,1/2+z
loop_
_atom_site_type_symbol
_atom_site_label
_atom_site_fract_x
_atom_site_fract_y
_atom_site_fract_z
Si Si1 0.920332 0.821121 0.800650
Si Si2 0.909756 0.577053 0.071353
Si Si3 0.327772 0.844641 0.746156
Si Si4 0.815078 0.007433 0.672868
Si Si5 0.425436 0.995603 0.875052
Si Si6 0.920116 0.084584 0.504823
O O1 0.906679 0.647305 0.822221
O O2 0.000000 0.833117 0.750000
O O3 0.867569 0.902782 0.731554
O O4 0.905377 0.895847 0.898429
O O5 0.849429 0.577045 0.151136
O O6 0.928075 0.748229 0.044471
O O7 0.986046 0.507840 0.108637
O O8 0.891189 0.500927 0.975699
O O9 0.311763 0.674698 0.715332
O O10 0.398471 0.860970 0.812581
O O11 0.264488 0.928262 0.805488
O O12 0.855537 0.018388 0.573148
O O13 0.000000 0.000000 0.500000
#
# Coordination Sequence:
#
# PCOD9309187 Si02
#       6
#     8   8   8   8   8   8
#     4  11  21  37  64  93 120 159 205 255 305 358
#     4   9  21  39  64  90 124 160 202 252 310 361
#     4  11  23  41  60  86 127 167 205 247 309 367
#     4  11  25  41  61  91 126 167 202 254 304 367
#     4  10  21  39  64  94 121 163 203 255 303 366
#     4  10  21  39  63  92 124 153 202 260 301 358
#
# _framework density 9.8765429999999999
#
# number of rings (size 3 to 8) (size 9 to 14) (size 15 to 20)
#    0.000    1.667    1.667    2.500    2.333    1.333 
#    3.000    6.667    0.000    0.000    0.000    0.000 
#    0.000    0.000    0.000    0.000    0.000    0.000 
#
# Total GULP energy -133711.688029 kJ/mol
# GULP energy per Si atom -5571.320335 kJ/mol
# Density = 0.985406 g / cm^3
# Si number density = 9.876543 Si / 1000 Ang^3
#
#
#
# Elastic Constant Matrix: (Units=GPa)
#
#
# Indices 1 2 3 4 5 6 
#
# 1 65.8741 13.4589 34.8496 0.0000 -26.6824 0.0000
# 2 13.4589 42.0832 18.0777 0.0000 -1.5059 0.0000
# 3 34.8496 18.0777 137.4140 0.0000 -30.6921 0.0000
# 4 0.0000 0.0000 0.0000 39.3881 0.0000 -1.9080
# 5 -26.6824 -1.5059 -30.6921 0.0000 41.3761 0.0000
# 6 0.0000 0.0000 0.0000 -1.9080 0.0000 33.6654
#
#
#
# Elastic Compliance Matrix: (Units=1/GPa)
#
#
# Indices 1 2 3 4 5 6 
#
# 1 0.022714 -0.005897 -0.002111 0.000000 0.012867 0.000000
# 2 -0.005897 0.026835 -0.003195 0.000000 -0.005197 0.000000
# 3 -0.002111 -0.003195 0.009472 0.000000 0.005549 0.000000
# 4 0.000000 0.000000 0.000000 0.025458 0.000000 0.001443
# 5 0.012867 -0.005197 0.005549 0.000000 0.036393 0.000000
# 6 0.000000 0.000000 0.000000 0.001443 0.000000 0.029786
#
#
# Mechanical properties :
#
#
# Convention : Reuss Voigt Hill
#
# Bulk Modulus (GPa) = 27.31133 42.01596 34.66365
# Shear Modulus (GPa) = 26.98758 34.81827 30.90293
#
# Velocity S-wave (km/s) = 3.70029 4.20298 3.95962
# Velocity P-wave (km/s) = 5.66679 6.69852 6.20414
#
# Compressibility (1/GPa) = 0.03661484
#
# Stress axis : x y z
#
# Youngs Moduli (GPa) = 44.02599 37.26453 105.57042
#
# Poissons Ratio (x) = 0.21975 0.22282
# Poissons Ratio (y) = 0.25963 0.33735
# Poissons Ratio (z) = 0.09292 0.11908
#
# Static dielectric constant tensor:
#      x y z
#    x 1.788920 0.000000 0.005730 
#    y 0.000000 1.708730 0.000000 
#    z 0.005730 0.000000 1.710960 
# 
# From -- ./inp_files/159720.got.cif
#   From: 2010.05.17/outbox.ucp.g08.bks.cvg/sg15_80_cif.got.tgz:159720.got - 2010.06.11 12:40:34.
