data_PCOD9309935
_publ_section_title
;
Structure prediction by ZEFSAII (Michael W. Deem and Ramdas Pophale) SiO2 
 PCOD9309935
Probable space group: P 2 2 2
;
_chemical_formula_sum "Si O2"
_cell_formula_units_Z 32
_cell_length_a 36.972243
_cell_length_b 5.324564
_cell_length_c 7.217472
_cell_angle_alpha 90.000000
_cell_angle_beta 90.000000
_cell_angle_gamma 90.000000
_cell_volume 1420.839290
_symmetry_space_group_name_H-M "P 2 2 2"
_symmetry_group_IT_number 16
_symmetry_cell_setting 'orthorhombic'
loop_
_space_group_symop_operation_xyz
x,y,z
-x,-y,z
x,-y,-z
-x,y,-z
loop_
_atom_site_type_symbol
_atom_site_label
_atom_site_fract_x
_atom_site_fract_y
_atom_site_fract_z
Si Si1 0.916268 0.998012 0.225625
Si Si2 0.515932 0.746325 0.285438
Si Si3 0.041726 0.499919 0.225675
Si Si4 0.832964 0.995504 0.225769
Si Si5 0.208341 0.492613 0.774519
Si Si6 0.404218 0.243937 0.382962
Si Si7 0.291081 0.484317 0.774316
Si Si8 0.669653 0.021778 0.778138
O O1 0.936043 0.253932 0.283189
O O2 0.874615 0.976433 0.283442
O O3 0.938537 0.754239 0.284356
O O4 0.916132 0.000000 0.000000
O O5 0.500000 0.500000 0.199011
O O6 0.500000 0.746280 0.500000
O O7 0.559000 0.714204 0.271726
O O8 0.500000 0.000000 0.206385
O O9 0.000000 0.500000 0.283885
O O10 0.041675 0.500000 0.000000
O O11 0.816119 0.259565 0.284842
O O12 0.808695 0.758123 0.283447
O O13 0.832694 0.000000 0.000000
O O14 0.249692 0.442755 0.719073
O O15 0.208460 0.500000 0.000000
O O16 0.396933 0.500000 0.500000
O O17 0.415375 0.000000 0.500000
O O18 0.368879 0.137251 0.280330
O O19 0.317594 0.255986 0.714580
O O20 0.302842 0.761996 0.714089
O O21 0.292439 0.500000 0.000000
O O22 0.670018 0.000000 0.000000
#
# Coordination Sequence:
#
# PCOD9309935 Si02
#       8
#     4   4   4   4   4   4   4   4
#     4   9  15  21  27  36  53  71  93 138 195 242
#     4  10  16  30  49  76 103 125 159 203 248 281
#     4   9  15  21  27  33  43  67 101 133 176 247
#     4   9  15  21  30  47  65  82 110 156 207 249
#     4   9  15  23  37  53  69  94 130 163 196 255
#     4  12  21  33  55  82 104 131 172 215 249 295
#     4   9  17  31  47  63  88 124 157 184 223 284
#     4  10  21  35  50  72 103 135 163 199 249 296
#
# _framework density 22.521901
#
# number of rings (size 3 to 8) (size 9 to 14) (size 15 to 20)
#    0.000    2.375    2.500    2.625    0.000    7.500 
#    0.000    0.000    0.000    0.375    0.000    1.750 
#    0.000    0.000    0.000    0.000    0.000    0.000 
#
# Total GULP energy -178679.944506 kJ/mol
# GULP energy per Si atom -5583.748266 kJ/mol
# Density = 2.247064 g / cm^3
# Si number density = 22.521901 Si / 1000 Ang^3
#
#
#
# Elastic Constant Matrix: (Units=GPa)
#
#
# Indices 1 2 3 4 5 6 
#
# 1 188.4934 88.8790 0.8666 0.0000 0.0000 0.0000
# 2 88.8790 222.5501 7.6897 0.0000 0.0000 0.0000
# 3 0.8666 7.6897 86.8355 0.0000 0.0000 0.0000
# 4 0.0000 0.0000 0.0000 -16.8163 0.0000 0.0000
# 5 0.0000 0.0000 0.0000 0.0000 -6.7317 0.0000
# 6 0.0000 0.0000 0.0000 0.0000 0.0000 48.5744
#
#
#
# Elastic Compliance Matrix: (Units=1/GPa)
#
#
# Indices 1 2 3 4 5 6 
#
# 1 0.006538 -0.002617 0.000166 0.000000 0.000000 0.000000
# 2 -0.002617 0.005555 -0.000466 0.000000 0.000000 0.000000
# 3 0.000166 -0.000466 0.011556 0.000000 0.000000 0.000000
# 4 0.000000 0.000000 0.000000 -0.059466 0.000000 0.000000
# 5 0.000000 0.000000 0.000000 0.000000 -0.148552 0.000000
# 6 0.000000 0.000000 0.000000 0.000000 0.000000 0.020587
#
#
# Mechanical properties :
#
#
# Convention : Reuss Voigt Hill
#
# Bulk Modulus (GPa) = 56.12892 76.97217 66.55054
# Shear Modulus (GPa) = -32.89236 31.70153 -0.59542
#
# Velocity S-wave (km/s) = -3.82574 3.75585 -0.51473
# Velocity P-wave (km/s) = 2.33687 7.28418 5.40926
#
# Compressibility (1/GPa) = 0.01781613
#
# Stress axis : x y z
#
# Youngs Moduli (GPa) = 152.94195 180.03102 86.53806
#
# Poissons Ratio (x) = 0.47114 -0.01441
# Poissons Ratio (y) = 0.40025 0.04031
# Poissons Ratio (z) = -0.02546 0.08385
#
# Static dielectric constant tensor:
#      x y z
#    x 1.881600 0.000000 0.000000 
#    y 0.000000 1.678570 0.000000 
#    z 0.000000 0.000000 1.738300 
# 
# From -- ./inp_files/5661.got.cif
#   From: 2010.05.17/outbox.cif.g08.bks.cpg/sg16_3_cif.got.tgz:5661.got - 2010.06.03 22:28:35.
