data_PCOD9309337
_publ_section_title
;
Structure prediction by ZEFSAII (Michael W. Deem and Ramdas Pophale) SiO2 
 PCOD9309337
Probable space group: C 2/C
;
_chemical_formula_sum "Si O2"
_cell_formula_units_Z 30
_cell_length_a 21.000000
_cell_length_b 15.000000
_cell_length_c 27.000000
_cell_angle_alpha 90.000000
_cell_angle_beta 160.000000
_cell_angle_gamma 90.000000
_cell_volume 2908.881319
_symmetry_space_group_name_H-M "C 2/C"
_symmetry_group_IT_number 15
_symmetry_cell_setting 'monoclinic'
loop_
_space_group_symop_operation_xyz
x,y,z
-x,y,1/2-z
-x,-y,-z
x,-y,1/2+z
1/2+x,1/2+y,z
1/2-x,1/2+y,1/2-z
1/2-x,1/2-y,-z
1/2+x,1/2-y,1/2+z
loop_
_atom_site_type_symbol
_atom_site_label
_atom_site_fract_x
_atom_site_fract_y
_atom_site_fract_z
Si Si1 0.500000 0.043366 0.250000
Si Si2 0.047658 0.656705 0.678501
Si Si3 0.322982 0.357102 0.827507
Si Si4 0.599813 0.684240 0.617997
Si Si5 0.804077 0.205912 0.135099
Si Si6 0.054992 0.987225 0.436621
Si Si7 0.980590 0.545567 0.128003
Si Si8 0.154782 0.006387 0.320334
O O1 0.462634 0.091315 0.169272
O O2 0.715888 0.002000 0.399140
O O3 0.205331 0.637061 0.753505
O O4 0.157108 0.714030 0.799147
O O5 0.875033 0.714876 0.531419
O O6 0.973944 0.559523 0.639330
O O7 0.188393 0.279859 0.703048
O O8 0.454369 0.426833 0.891098
O O9 0.174385 0.420479 0.747029
O O10 0.461705 0.308928 0.968945
O O11 0.492677 0.609321 0.572928
O O12 0.000000 0.200561 0.250000
O O13 0.774155 0.108050 0.136953
O O14 0.952789 0.980233 0.308356
O O15 0.823482 0.549528 0.969562
O O16 0.000000 0.008857 0.250000
#
# Coordination Sequence:
#
# PCOD9309337 Si02
#       8
#     4   8   8   8   8   8   8   8
#     4  12  24  44  80 108 142 202 246 304 374 440
#     4  11  22  41  62  97 140 186 236 294 363 434
#     4  12  27  50  74 112 148 191 252 310 363 449
#     4  12  26  46  74 106 144 195 247 304 372 434
#     4  10  22  38  59  97 141 184 240 294 361 441
#     4  12  25  48  80 108 149 199 245 308 371 440
#     4  11  24  44  73 103 145 190 245 303 369 437
#     4  10  22  42  68 103 142 191 242 302 370 440
#
# _framework density 10.313243
#
# number of rings (size 3 to 8) (size 9 to 14) (size 15 to 20)
#    0.000    0.800    4.000    3.200    2.800    2.667 
#    0.000    0.667    2.933    0.000    0.000    0.000 
#    0.000    0.000    0.000    0.000    0.000    0.000 
#
# Total GULP energy -167063.658334 kJ/mol
# GULP energy per Si atom -5568.788611 kJ/mol
# Density = 1.028977 g / cm^3
# Si number density = 10.313243 Si / 1000 Ang^3
#
#
#
# Elastic Constant Matrix: (Units=GPa)
#
#
# Indices 1 2 3 4 5 6 
#
# 1 98.0054 26.8192 58.3502 -0.0149 -4.0786 0.0019
# 2 26.8192 73.7796 36.9367 -0.0285 -3.2779 0.0255
# 3 58.3502 36.9367 190.9999 -0.0219 -13.5555 0.0000
# 4 -0.0149 -0.0285 -0.0219 36.7849 0.0163 -1.1587
# 5 -4.0786 -3.2779 -13.5555 0.0163 51.0491 0.0000
# 6 0.0019 0.0255 0.0000 -1.1587 0.0000 12.7740
#
#
#
# Elastic Compliance Matrix: (Units=1/GPa)
#
#
# Indices 1 2 3 4 5 6 
#
# 1 0.013062 -0.003046 -0.003405 0.000001 -0.000056 0.000004
# 2 -0.003046 0.015719 -0.002094 0.000009 0.000210 -0.000030
# 3 -0.003405 -0.002094 0.006780 0.000001 0.001394 0.000005
# 4 0.000001 0.000009 0.000001 0.027263 -0.000008 0.002473
# 5 -0.000056 0.000210 0.001394 -0.000008 0.019968 -0.000001
# 6 0.000004 -0.000030 0.000005 0.002473 -0.000001 0.078509
#
#
# Mechanical properties :
#
#
# Convention : Reuss Voigt Hill
#
# Bulk Modulus (GPa) = 54.14280 67.44413 60.79347
# Shear Modulus (GPa) = 27.09315 36.16686 31.63001
#
# Velocity S-wave (km/s) = 3.62817 4.19193 3.92020
# Velocity P-wave (km/s) = 6.62251 7.49656 7.07305
#
# Compressibility (1/GPa) = 0.01846968
#
# Stress axis : x y z
#
# Youngs Moduli (GPa) = 76.55685 63.61763 147.49432
#
# Poissons Ratio (x) = 0.19376 0.50229
# Poissons Ratio (y) = 0.23317 0.30892
# Poissons Ratio (z) = 0.26071 0.13324
#
# Static dielectric constant tensor:
#      x y z
#    x 1.845800 -0.000010 -0.014020 
#    y -0.000010 1.782980 -0.000020 
#    z -0.014020 -0.000020 1.755450 
# 
# From -- ./inp_files/301207.got.cif
#   From: 2010.05.17/outbox.ucp.g08.bks.cvg/sg15_151_cif.got.tgz:301207.got - 2010.06.11 12:40:34.
