data_PCOD9309278
_publ_section_title
;
Structure prediction by ZEFSAII (Michael W. Deem and Ramdas Pophale) SiO2 
 PCOD9309278
Probable space group: C 2/C
;
_chemical_formula_sum "Si O2"
_cell_formula_units_Z 28
_cell_length_a 18.000000
_cell_length_b 21.000000
_cell_length_c 9.000000
_cell_angle_alpha 90.000000
_cell_angle_beta 60.000000
_cell_angle_gamma 90.000000
_cell_volume 2946.218424
_symmetry_space_group_name_H-M "C 2/C"
_symmetry_group_IT_number 15
_symmetry_cell_setting 'monoclinic'
loop_
_space_group_symop_operation_xyz
x,y,z
-x,y,1/2-z
-x,-y,-z
x,-y,1/2+z
1/2+x,1/2+y,z
1/2-x,1/2+y,1/2-z
1/2-x,1/2-y,-z
1/2+x,1/2-y,1/2+z
loop_
_atom_site_type_symbol
_atom_site_label
_atom_site_fract_x
_atom_site_fract_y
_atom_site_fract_z
Si Si1 0.169568 0.852841 0.846366
Si Si2 0.346562 0.131809 0.001191
Si Si3 0.508702 0.888314 0.554780
Si Si4 0.563305 0.531055 0.314254
Si Si5 0.326348 0.958957 0.237567
Si Si6 0.218706 0.057812 0.542683
Si Si7 0.928564 0.266452 0.200528
O O1 0.261680 0.851296 0.675429
O O2 0.115843 0.912099 0.835614
O O3 0.188978 0.875085 0.997790
O O4 0.118647 0.789242 0.845199
O O5 0.327525 0.080707 0.890710
O O6 0.373738 0.192464 0.874340
O O7 0.419779 0.107142 0.045697
O O8 0.500000 0.889646 0.750000
O O9 0.577308 0.942531 0.427538
O O10 0.541524 0.819795 0.453254
O O11 0.500000 0.555413 0.250000
O O12 0.500000 0.500000 0.500000
O O13 0.633412 0.483490 0.168468
O O14 0.280003 0.022995 0.354843
O O15 0.268662 0.938698 0.151615
O O16 0.000000 0.241402 0.250000
#
# Coordination Sequence:
#
# PCOD9309278 Si02
#       7
#     8   8   8   8   8   8   8
#     4  12  22  40  65  94 132 171 217 265 323 381
#     4  10  21  42  68  94 127 170 216 272 321 382
#     4  10  22  44  69  95 131 165 211 275 332 378
#     4  12  23  40  60  86 129 174 209 261 316 372
#     4  11  21  42  65  90 129 176 208 267 320 381
#     4  12  23  40  62  94 132 169 221 262 315 385
#     4   9  21  42  66  94 125 169 222 266 327 384
#
# _framework density 9.5037079999999996
#
# number of rings (size 3 to 8) (size 9 to 14) (size 15 to 20)
#    0.000    1.143    4.286    3.000    0.000    0.000 
#    2.571   17.857    0.000    0.000    0.000    0.000 
#    0.000    0.000    0.000    0.000    0.000    0.000 
#
# Total GULP energy -155878.354695 kJ/mol
# GULP energy per Si atom -5567.084096 kJ/mol
# Density = 0.948208 g / cm^3
# Si number density = 9.503708 Si / 1000 Ang^3
#
#
#
# Elastic Constant Matrix: (Units=GPa)
#
#
# Indices 1 2 3 4 5 6 
#
# 1 138.4092 31.9647 30.0231 0.0000 14.2851 0.0000
# 2 31.9647 76.8528 25.3573 0.0000 -5.1488 0.0000
# 3 30.0231 25.3573 116.6803 0.0000 5.7533 0.0000
# 4 0.0000 0.0000 0.0000 26.2312 0.0000 5.0317
# 5 14.2851 -5.1488 5.7533 0.0000 51.9908 0.0000
# 6 0.0000 0.0000 0.0000 5.0317 0.0000 38.9287
#
#
#
# Elastic Compliance Matrix: (Units=1/GPa)
#
#
# Indices 1 2 3 4 5 6 
#
# 1 0.008535 -0.003269 -0.001362 0.000000 -0.002518 0.000000
# 2 -0.003269 0.015427 -0.002645 0.000000 0.002719 0.000000
# 3 -0.001362 -0.002645 0.009542 0.000000 -0.000944 0.000000
# 4 0.000000 0.000000 0.000000 0.039092 0.000000 -0.005053
# 5 -0.002518 0.002719 -0.000944 0.000000 0.020300 0.000000
# 6 0.000000 0.000000 0.000000 -0.005053 0.000000 0.026341
#
#
# Mechanical properties :
#
#
# Convention : Reuss Voigt Hill
#
# Bulk Modulus (GPa) = 52.76640 56.29250 54.52945
# Shear Modulus (GPa) = 35.68711 39.73663 37.71187
#
# Velocity S-wave (km/s) = 4.33776 4.57725 4.45911
# Velocity P-wave (km/s) = 7.27388 7.59048 7.43387
#
# Compressibility (1/GPa) = 0.01895145
#
# Stress axis : x y z
#
# Youngs Moduli (GPa) = 117.16106 64.82264 104.79771
#
# Poissons Ratio (x) = 0.21194 0.14268
# Poissons Ratio (y) = 0.38306 0.27723
# Poissons Ratio (z) = 0.15952 0.17148
#
# Static dielectric constant tensor:
#      x y z
#    x 1.709180 0.000000 -0.020790 
#    y 0.000000 1.698720 0.000000 
#    z -0.020790 0.000000 1.660290 
# 
# From -- ./inp_files/50093.got.cif
#   From: 2010.05.17/outbox.ucp.g08.bks.cvg/sg15_26_cif.got.tgz:50093.got - 2010.06.11 12:40:34.
