data_PCOD9309741
_publ_section_title
;
Structure prediction by ZEFSAII (Michael W. Deem and Ramdas Pophale) SiO2 
 PCOD9309741
Probable space group: C 2/C
;
_chemical_formula_sum "Si O2"
_cell_formula_units_Z 32
_cell_length_a 18.000000
_cell_length_b 9.000000
_cell_length_c 30.000000
_cell_angle_alpha 90.000000
_cell_angle_beta 40.000000
_cell_angle_gamma 90.000000
_cell_volume 3123.947783
_symmetry_space_group_name_H-M "C 2/C"
_symmetry_group_IT_number 15
_symmetry_cell_setting 'monoclinic'
loop_
_space_group_symop_operation_xyz
x,y,z
-x,y,1/2-z
-x,-y,-z
x,-y,1/2+z
1/2+x,1/2+y,z
1/2-x,1/2+y,1/2-z
1/2-x,1/2-y,-z
1/2+x,1/2-y,1/2+z
loop_
_atom_site_type_symbol
_atom_site_label
_atom_site_fract_x
_atom_site_fract_y
_atom_site_fract_z
Si Si1 0.773734 0.291758 0.641621
Si Si2 0.161939 0.501169 0.149933
Si Si3 0.313108 0.705026 0.016803
Si Si4 0.397945 0.980708 0.510521
Si Si5 0.951700 0.831074 0.130783
Si Si6 0.647461 0.630136 0.288819
Si Si7 0.512822 0.890543 0.131401
Si Si8 0.628187 0.126586 0.263155
O O1 0.719936 0.139172 0.647810
O O2 0.808722 0.381537 0.580852
O O3 0.884103 0.256253 0.622618
O O4 0.688897 0.363779 0.718082
O O5 0.246959 0.605650 0.082873
O O6 0.084095 0.436292 0.143980
O O7 0.119258 0.593294 0.214412
O O8 0.345860 0.858482 0.025236
O O9 0.250000 0.750000 0.000000
O O10 0.428246 0.624471 0.946392
O O11 0.436363 0.926370 0.441963
O O12 0.500000 0.000000 0.500000
O O13 0.966369 0.732573 0.169120
O O14 0.878532 0.968825 0.180503
O O15 0.529095 0.722085 0.347780
O O16 0.748496 0.687534 0.276103
O O17 0.394039 0.978705 0.197133
#
# Coordination Sequence:
#
# PCOD9309741 Si02
#       8
#     8   8   8   8   8   8   8   8
#     4  11  25  43  69 108 139 182 238 289 362 426
#     4  12  26  44  72 100 146 188 232 292 366 425
#     4  12  26  47  66 101 138 186 236 292 351 424
#     4  12  25  44  71  98 139 184 235 290 349 421
#     4  11  23  44  69 104 139 179 243 293 341 424
#     4  11  24  42  70 104 136 176 236 295 341 422
#     4  12  25  46  70  99 143 188 227 290 361 418
#     4  11  21  44  71  99 136 184 231 284 352 423
#
# _framework density 10.243449
#
# number of rings (size 3 to 8) (size 9 to 14) (size 15 to 20)
#    0.000    0.500    6.250    1.875    5.250    2.000 
#    0.000    0.000    2.750    0.000    0.000    0.000 
#    0.000    0.000    0.000    0.000    0.000    0.000 
#
# Total GULP energy -178265.860473 kJ/mol
# GULP energy per Si atom -5570.808140 kJ/mol
# Density = 1.022013 g / cm^3
# Si number density = 10.243449 Si / 1000 Ang^3
#
#
#
# Elastic Constant Matrix: (Units=GPa)
#
#
# Indices 1 2 3 4 5 6 
#
# 1 129.4908 30.5715 57.7938 0.0000 32.2164 -0.0001
# 2 30.5715 70.7365 54.1440 0.0000 6.4027 0.0002
# 3 57.7938 54.1440 165.8423 0.0000 44.4089 0.0000
# 4 0.0000 0.0000 0.0000 53.9146 0.0000 8.1487
# 5 32.2164 6.4027 44.4089 0.0000 41.7454 0.0000
# 6 -0.0001 0.0002 0.0000 8.1487 0.0000 38.8332
#
#
#
# Elastic Compliance Matrix: (Units=1/GPa)
#
#
# Indices 1 2 3 4 5 6 
#
# 1 0.010551 -0.003369 -0.000748 0.000000 -0.006830 0.000000
# 2 -0.003369 0.020736 -0.007607 0.000000 0.007513 0.000000
# 3 -0.000748 -0.007607 0.011616 0.000000 -0.010613 0.000000
# 4 0.000000 0.000000 0.000000 0.019155 0.000000 -0.004020
# 5 -0.006830 0.007513 -0.010613 0.000000 0.039364 0.000000
# 6 0.000000 0.000000 0.000000 -0.004020 0.000000 0.026595
#
#
# Mechanical properties :
#
#
# Convention : Reuss Voigt Hill
#
# Bulk Modulus (GPa) = 51.40337 72.34314 61.87326
# Shear Modulus (GPa) = 31.65528 41.80268 36.72898
#
# Velocity S-wave (km/s) = 3.93510 4.52204 4.23874
# Velocity P-wave (km/s) = 6.76698 7.91541 7.36362
#
# Compressibility (1/GPa) = 0.01945398
#
# Stress axis : x y z
#
# Youngs Moduli (GPa) = 94.77634 48.22500 86.08714
#
# Poissons Ratio (x) = 0.16249 0.06439
# Poissons Ratio (y) = 0.31934 0.65490
# Poissons Ratio (z) = 0.07088 0.36687
#
# Static dielectric constant tensor:
#      x y z
#    x 1.686910 0.000000 -0.087560 
#    y 0.000000 1.795070 0.000000 
#    z -0.087560 0.000000 1.762850 
# 
# From -- ./inp_files/315688.got.cif
#   From: 2010.05.17/outbox.ucp.g08.bks.cvg/sg15_158_cif.got.tgz:315688.got - 2010.06.11 12:40:34.
