data_PCOD9309188
_publ_section_title
;
Structure prediction by ZEFSAII (Michael W. Deem and Ramdas Pophale) SiO2 
 PCOD9309188
Probable space group: C 2/C
;
_chemical_formula_sum "Si O2"
_cell_formula_units_Z 28
_cell_length_a 18.000000
_cell_length_b 18.000000
_cell_length_c 9.000000
_cell_angle_alpha 90.000000
_cell_angle_beta 110.000000
_cell_angle_gamma 90.000000
_cell_volume 2740.143682
_symmetry_space_group_name_H-M "C 2/C"
_symmetry_group_IT_number 15
_symmetry_cell_setting 'monoclinic'
loop_
_space_group_symop_operation_xyz
x,y,z
-x,y,1/2-z
-x,-y,-z
x,-y,1/2+z
1/2+x,1/2+y,z
1/2-x,1/2+y,1/2-z
1/2-x,1/2-y,-z
1/2+x,1/2-y,1/2+z
loop_
_atom_site_type_symbol
_atom_site_label
_atom_site_fract_x
_atom_site_fract_y
_atom_site_fract_z
Si Si1 0.905768 0.133447 0.669288
Si Si2 0.332409 0.193456 0.625538
Si Si3 0.440051 0.525413 0.089134
Si Si4 0.916595 0.455597 0.275954
Si Si5 0.916358 0.406992 0.616656
Si Si6 0.829519 0.258472 0.461069
Si Si7 0.844582 0.170888 0.947977
O O1 0.879703 0.184398 0.517022
O O2 0.858241 0.165947 0.779107
O O3 0.000000 0.141447 0.750000
O O4 0.894931 0.046460 0.624655
O O5 0.378512 0.117415 0.680426
O O6 0.241903 0.170389 0.535654
O O7 0.372630 0.250020 0.536113
O O8 0.323048 0.230041 0.781459
O O9 0.500000 0.556006 0.250000
O O10 0.500000 0.500000 0.000000
O O11 0.384882 0.593442 0.014886
O O12 0.923743 0.443885 0.457309
O O13 0.875521 0.532722 0.198178
O O14 0.000000 0.462311 0.250000
O O15 0.870992 0.330977 0.557813
O O16 0.000000 0.387836 0.750000
O O17 0.750000 0.250000 0.500000
#
# Coordination Sequence:
#
# PCOD9309188 Si02
#       7
#     8   8   8   8   8   8   8
#     4  11  23  40  67  94 128 170 215 267 321 389
#     4  10  25  42  61  95 129 174 208 267 320 386
#     4  11  23  42  65  98 129 168 220 272 325 385
#     4  10  21  40  63  92 124 158 214 256 313 377
#     4  10  21  39  63  93 121 159 208 260 312 365
#     4  11  23  41  62  90 128 166 212 255 318 383
#     4  11  23  44  62  91 137 166 218 261 324 392
#
# _framework density 10.218442
#
# number of rings (size 3 to 8) (size 9 to 14) (size 15 to 20)
#    0.000    1.429    4.286    2.143    2.000    6.286 
#    0.000    0.000    0.000    0.000    0.000    0.000 
#    0.000    0.000    0.000    0.000    0.000    0.000 
#
# Total GULP energy -155963.448444 kJ/mol
# GULP energy per Si atom -5570.123159 kJ/mol
# Density = 1.019518 g / cm^3
# Si number density = 10.218442 Si / 1000 Ang^3
#
#
#
# Elastic Constant Matrix: (Units=GPa)
#
#
# Indices 1 2 3 4 5 6 
#
# 1 45.8946 42.2173 21.9301 0.0000 -7.9370 0.0000
# 2 42.2173 115.0035 51.2565 0.0000 12.4467 0.0000
# 3 21.9301 51.2565 76.6220 0.0000 1.1611 0.0000
# 4 0.0000 0.0000 0.0000 45.7801 0.0000 4.7730
# 5 -7.9370 12.4467 1.1611 0.0000 21.4981 0.0000
# 6 0.0000 0.0000 0.0000 4.7730 0.0000 34.3556
#
#
#
# Elastic Compliance Matrix: (Units=1/GPa)
#
#
# Indices 1 2 3 4 5 6 
#
# 1 0.044185 -0.019034 -0.000328 0.000000 0.027351 0.000000
# 2 -0.019034 0.021645 -0.008742 0.000000 -0.019087 0.000000
# 3 -0.000328 -0.008742 0.018934 0.000000 0.003918 0.000000
# 4 0.000000 0.000000 0.000000 0.022165 0.000000 -0.003079
# 5 0.027351 -0.019087 0.003918 0.000000 0.067452 0.000000
# 6 0.000000 0.000000 0.000000 -0.003079 0.000000 0.029535
#
#
# Mechanical properties :
#
#
# Convention : Reuss Voigt Hill
#
# Bulk Modulus (GPa) = 35.02027 52.03646 43.52836
# Shear Modulus (GPa) = 18.54309 28.46784 23.50547
#
# Velocity S-wave (km/s) = 3.01547 3.73629 3.39506
# Velocity P-wave (km/s) = 5.41268 6.64308 6.05919
#
# Compressibility (1/GPa) = 0.02855489
#
# Stress axis : x y z
#
# Youngs Moduli (GPa) = 22.63231 46.20024 52.81559
#
# Poissons Ratio (x) = 0.87938 0.01731
# Poissons Ratio (y) = 0.43078 0.46174
# Poissons Ratio (z) = 0.00742 0.40390
#
# Static dielectric constant tensor:
#      x y z
#    x 1.859990 0.000000 0.127560 
#    y 0.000000 1.806640 0.000000 
#    z 0.127560 0.000000 1.865500 
# 
# From -- ./inp_files/49151.got.cif
#   From: 2010.05.17/outbox.ucp.g08.bks.cvg/sg15_25_cif.got.tgz:49151.got - 2010.06.11 12:40:34.
