data_PCOD9309742
_publ_section_title
;
Structure prediction by ZEFSAII (Michael W. Deem and Ramdas Pophale) SiO2 
 PCOD9309742
Probable space group: C 2/C
;
_chemical_formula_sum "Si O2"
_cell_formula_units_Z 30
_cell_length_a 9.000000
_cell_length_b 24.000000
_cell_length_c 15.000000
_cell_angle_alpha 90.000000
_cell_angle_beta 70.000000
_cell_angle_gamma 90.000000
_cell_volume 3044.604091
_symmetry_space_group_name_H-M "C 2/C"
_symmetry_group_IT_number 15
_symmetry_cell_setting 'monoclinic'
loop_
_space_group_symop_operation_xyz
x,y,z
-x,y,1/2-z
-x,-y,-z
x,-y,1/2+z
1/2+x,1/2+y,z
1/2-x,1/2+y,1/2-z
1/2-x,1/2-y,-z
1/2+x,1/2-y,1/2+z
loop_
_atom_site_type_symbol
_atom_site_label
_atom_site_fract_x
_atom_site_fract_y
_atom_site_fract_z
Si Si1 0.501906 0.118513 0.638233
Si Si2 0.213874 0.543531 0.273687
Si Si3 0.114432 0.506692 0.095569
Si Si4 0.287875 0.409061 0.429110
Si Si5 0.000000 0.039221 0.750000
Si Si6 0.323190 0.701000 0.045757
Si Si7 0.109263 0.719779 0.480597
Si Si8 0.331760 0.830016 0.734512
O O1 0.500000 0.127544 0.750000
O O2 0.328900 0.106057 0.630035
O O3 0.559075 0.168924 0.559585
O O4 0.600359 0.060801 0.600404
O O5 0.173862 0.526991 0.180122
O O6 0.353818 0.502512 0.269588
O O7 0.243810 0.609572 0.270168
O O8 0.064597 0.530456 0.367970
O O9 0.216381 0.538384 0.999367
O O10 0.453508 0.424306 0.346609
O O11 0.297980 0.357459 0.497754
O O12 0.264839 0.697854 0.161807
O O13 0.250000 0.750000 0.000000
O O14 0.495352 0.726444 0.006388
O O15 0.250000 0.750000 0.500000
O O16 0.138653 0.699074 0.370104
O O17 0.500000 0.839730 0.750000
#
# Coordination Sequence:
#
# PCOD9309742 Si02
#       8
#     8   8   8   8   4   8   8   8
#     4  12  24  44  74 104 144 189 237 294 362 436
#     4  11  22  43  70 108 140 187 236 288 359 434
#     4  11  21  44  76 102 138 190 246 282 354 451
#     4  12  25  46  73 106 143 194 242 294 365 437
#     4  12  28  38  66 114 154 178 228 310 366 412
#     4  12  25  47  77 103 136 192 247 292 351 429
#     4  12  31  47  74 111 141 188 245 307 365 417
#     4  12  23  48  78 101 140 196 245 288 351 449
#
# _framework density 9.8534980000000001
#
# number of rings (size 3 to 8) (size 9 to 14) (size 15 to 20)
#    0.000    0.267    8.000    1.200    3.733    4.800 
#    0.000    0.000    0.000    0.000    0.000    0.000 
#    0.000    0.000    0.000    0.000    0.000    0.000 
#
# Total GULP energy -167093.637142 kJ/mol
# GULP energy per Si atom -5569.787905 kJ/mol
# Density = 0.983107 g / cm^3
# Si number density = 9.853498 Si / 1000 Ang^3
#
#
#
# Elastic Constant Matrix: (Units=GPa)
#
#
# Indices 1 2 3 4 5 6 
#
# 1 72.7303 15.9909 18.2386 0.0000 1.8686 0.0000
# 2 15.9909 115.3133 55.9724 0.0000 2.1995 0.0000
# 3 18.2386 55.9724 176.5232 0.0000 4.8385 0.0000
# 4 0.0000 0.0000 0.0000 43.3245 0.0000 -1.1625
# 5 1.8686 2.1995 4.8385 0.0000 31.4180 0.0000
# 6 0.0000 0.0000 0.0000 -1.1625 0.0000 35.3024
#
#
#
# Elastic Compliance Matrix: (Units=1/GPa)
#
#
# Indices 1 2 3 4 5 6 
#
# 1 0.014342 -0.001496 -0.000991 0.000000 -0.000596 0.000000
# 2 -0.001496 0.010407 -0.003141 0.000000 -0.000156 0.000000
# 3 -0.000991 -0.003141 0.006784 0.000000 -0.000766 0.000000
# 4 0.000000 0.000000 0.000000 0.023102 0.000000 0.000761
# 5 -0.000596 -0.000156 -0.000766 0.000000 0.031993 0.000000
# 6 0.000000 0.000000 0.000000 0.000761 0.000000 0.028352
#
#
# Mechanical properties :
#
#
# Convention : Reuss Voigt Hill
#
# Bulk Modulus (GPa) = 49.31777 60.55228 54.93503
# Shear Modulus (GPa) = 37.59491 40.29998 38.94744
#
# Velocity S-wave (km/s) = 4.37245 4.52703 4.45041
# Velocity P-wave (km/s) = 7.11133 7.62354 7.37188
#
# Compressibility (1/GPa) = 0.02027667
#
# Stress axis : x y z
#
# Youngs Moduli (GPa) = 69.72396 96.08768 147.39844
#
# Poissons Ratio (x) = 0.14379 0.14608
# Poissons Ratio (y) = 0.10434 0.46298
# Poissons Ratio (z) = 0.06910 0.30181
#
# Static dielectric constant tensor:
#      x y z
#    x 1.678980 0.000000 -0.025260 
#    y 0.000000 1.849730 0.000000 
#    z -0.025260 0.000000 1.705550 
# 
# From -- ./inp_files/137777.got.cif
#   From: 2010.05.17/outbox.ucp.g08.bks.cvg/sg15_69_cif.got.tgz:137777.got - 2010.06.11 12:40:34.
