data_PCOD9309644
_publ_section_title
;
Structure prediction by ZEFSAII (Michael W. Deem and Ramdas Pophale) SiO2 
 PCOD9309644
Probable space group: C 2/C
;
_chemical_formula_sum "Si O2"
_cell_formula_units_Z 24
_cell_length_a 15.000000
_cell_length_b 12.000000
_cell_length_c 15.000000
_cell_angle_alpha 90.000000
_cell_angle_beta 120.000000
_cell_angle_gamma 90.000000
_cell_volume 2338.268590
_symmetry_space_group_name_H-M "C 2/C"
_symmetry_group_IT_number 15
_symmetry_cell_setting 'monoclinic'
loop_
_space_group_symop_operation_xyz
x,y,z
-x,y,1/2-z
-x,-y,-z
x,-y,1/2+z
1/2+x,1/2+y,z
1/2-x,1/2+y,1/2-z
1/2-x,1/2-y,-z
1/2+x,1/2-y,1/2+z
loop_
_atom_site_type_symbol
_atom_site_label
_atom_site_fract_x
_atom_site_fract_y
_atom_site_fract_z
Si Si1 0.219641 0.475446 0.489708
Si Si2 0.112653 0.593731 0.271953
Si Si3 0.468836 0.527931 0.087416
Si Si4 0.441047 0.777106 0.036461
Si Si5 0.346353 0.920018 0.357423
Si Si6 0.625089 0.328271 0.190929
O O1 0.186029 0.540475 0.383468
O O2 0.345510 0.479191 0.547211
O O3 0.152038 0.357229 0.468394
O O4 0.185927 0.545688 0.559270
O O5 0.132088 0.530861 0.188965
O O6 0.116398 0.726050 0.256507
O O7 0.000000 0.564564 0.250000
O O8 0.479323 0.662748 0.106150
O O9 0.546924 0.434336 0.170453
O O10 0.500000 0.500000 0.000000
O O11 0.546420 0.850365 0.084140
O O12 0.402416 0.726885 0.920583
O O13 0.245304 0.865211 0.259483
#
# Coordination Sequence:
#
# PCOD9309644 Si02
#       6
#     8   8   8   8   8   8
#     4  12  25  47  76 109 145 203 244 316 370 447
#     4  12  25  46  73 106 149 190 259 301 377 448
#     4  10  25  46  72 106 150 189 251 304 378 437
#     4  11  23  50  76 107 150 197 255 312 368 450
#     4  12  27  47  75 112 149 198 251 314 376 442
#     4  11  27  45  73 109 157 196 251 312 375 452
#
# _framework density 10.264004999999999
#
# number of rings (size 3 to 8) (size 9 to 14) (size 15 to 20)
#    0.000    0.667    3.333    4.000    9.333    0.667 
#    0.000    1.667    0.000    0.000    0.000    0.000 
#    0.000    0.000    0.000    0.000    0.000    0.000 
#
# Total GULP energy -133849.069166 kJ/mol
# GULP energy per Si atom -5577.044549 kJ/mol
# Density = 1.024064 g / cm^3
# Si number density = 10.264005 Si / 1000 Ang^3
#
#
#
# Elastic Constant Matrix: (Units=GPa)
#
#
# Indices 1 2 3 4 5 6 
#
# 1 135.6976 46.9198 6.5521 0.0000 24.2109 0.0000
# 2 46.9198 153.6729 37.4003 0.0000 14.1312 0.0000
# 3 6.5521 37.4003 61.2662 0.0000 10.1643 0.0000
# 4 0.0000 0.0000 0.0000 19.6225 0.0000 4.0234
# 5 24.2109 14.1312 10.1643 0.0000 47.9346 0.0000
# 6 0.0000 0.0000 0.0000 4.0234 0.0000 46.5392
#
#
#
# Elastic Compliance Matrix: (Units=1/GPa)
#
#
# Indices 1 2 3 4 5 6 
#
# 1 0.008951 -0.002693 0.001353 0.000000 -0.004014 0.000000
# 2 -0.002693 0.008533 -0.004902 0.000000 -0.000116 0.000000
# 3 0.001353 -0.004902 0.019738 0.000000 -0.003423 0.000000
# 4 0.000000 0.000000 0.000000 0.051882 0.000000 -0.004485
# 5 -0.004014 -0.000116 -0.003423 0.000000 0.023649 0.000000
# 6 0.000000 0.000000 0.000000 -0.004485 0.000000 0.021875
#
#
# Mechanical properties :
#
#
# Convention : Reuss Voigt Hill
#
# Bulk Modulus (GPa) = 40.42391 59.15344 49.78868
# Shear Modulus (GPa) = 32.18346 40.13690 36.16018
#
# Velocity S-wave (km/s) = 3.96382 4.42659 4.20158
# Velocity P-wave (km/s) = 6.37840 7.41652 6.91696
#
# Compressibility (1/GPa) = 0.02473783
#
# Stress axis : x y z
#
# Youngs Moduli (GPa) = 111.71438 117.18815 50.66387
#
# Poissons Ratio (x) = 0.31561 -0.06853
# Poissons Ratio (y) = 0.30086 0.24835
# Poissons Ratio (z) = -0.15112 0.57445
#
# Static dielectric constant tensor:
#      x y z
#    x 1.738850 0.000000 -0.014670 
#    y 0.000000 1.773170 0.000000 
#    z -0.014670 0.000000 1.791580 
# 
# From -- ./inp_files/152751.got.cif
#   From: 2010.05.17/outbox.ucp.g08.bks.cvg/sg15_77_cif.got.tgz:152751.got - 2010.06.11 12:40:34.
