data_PCOD9309806
_publ_section_title
;
Structure prediction by ZEFSAII (Michael W. Deem and Ramdas Pophale) SiO2 
 PCOD9309806
Probable space group: C 2/C
;
_chemical_formula_sum "Si O2"
_cell_formula_units_Z 20
_cell_length_a 15.000000
_cell_length_b 15.000000
_cell_length_c 9.000000
_cell_angle_alpha 90.000000
_cell_angle_beta 70.000000
_cell_angle_gamma 90.000000
_cell_volume 1902.877557
_symmetry_space_group_name_H-M "C 2/C"
_symmetry_group_IT_number 15
_symmetry_cell_setting 'monoclinic'
loop_
_space_group_symop_operation_xyz
x,y,z
-x,y,1/2-z
-x,-y,-z
x,-y,1/2+z
1/2+x,1/2+y,z
1/2-x,1/2+y,1/2-z
1/2-x,1/2-y,-z
1/2+x,1/2-y,1/2+z
loop_
_atom_site_type_symbol
_atom_site_label
_atom_site_fract_x
_atom_site_fract_y
_atom_site_fract_z
Si Si1 0.775709 0.556860 0.015445
Si Si2 0.575689 0.464784 0.075351
Si Si3 0.727483 0.342625 0.832299
Si Si4 0.896747 0.689876 0.736646
Si Si5 0.597853 0.878956 0.597614
O O1 0.662959 0.535995 0.049664
O O2 0.771931 0.586773 0.189242
O O3 0.830988 0.627641 0.879872
O O4 0.840872 0.469726 0.954422
O O5 0.500000 0.443549 0.250000
O O6 0.500000 0.500000 0.000000
O O7 0.641635 0.383739 0.979726
O O8 0.673990 0.270508 0.762396
O O9 0.821020 0.315276 0.873604
O O10 0.922124 0.648492 0.560673
O O11 0.000000 0.711398 0.750000
O O12 0.500000 0.884823 0.750000
#
# Coordination Sequence:
#
# PCOD9309806 Si02
#       5
#     8   8   8   8   8
#     4  11  24  44  70  98 133 178 231 277 332 410
#     4  11  23  42  70 100 135 183 227 277 332 401
#     4  11  25  44  67 102 139 173 227 278 337 406
#     4  12  27  44  69 101 138 179 221 286 345 397
#     4  11  24  46  71  97 134 177 228 276 338 407
#
# _framework density 10.510398
#
# number of rings (size 3 to 8) (size 9 to 14) (size 15 to 20)
#    0.000    0.800    2.000    5.400    5.600    3.200 
#    0.000    0.000    0.000    0.000    0.000    0.000 
#    0.000    0.000    0.000    0.000    0.000    0.000 
#
# Total GULP energy -111547.160014 kJ/mol
# GULP energy per Si atom -5577.358001 kJ/mol
# Density = 1.048648 g / cm^3
# Si number density = 10.510398 Si / 1000 Ang^3
#
#
#
# Elastic Constant Matrix: (Units=GPa)
#
#
# Indices 1 2 3 4 5 6 
#
# 1 184.8095 30.7479 73.5929 0.0000 -18.7938 0.0000
# 2 30.7479 55.1710 32.2323 0.0000 -5.6353 0.0000
# 3 73.5929 32.2323 160.1853 0.0000 -23.3065 0.0000
# 4 0.0000 0.0000 0.0000 32.1467 0.0000 -0.9899
# 5 -18.7938 -5.6353 -23.3065 0.0000 57.3170 0.0000
# 6 0.0000 0.0000 0.0000 -0.9899 0.0000 22.3466
#
#
#
# Elastic Compliance Matrix: (Units=1/GPa)
#
#
# Indices 1 2 3 4 5 6 
#
# 1 0.006913 -0.002244 -0.002579 0.000000 0.000997 0.000000
# 2 -0.002244 0.021275 -0.003245 0.000000 0.000037 0.000000
# 3 -0.002579 -0.003245 0.008409 0.000000 0.002254 0.000000
# 4 0.000000 0.000000 0.000000 0.031150 0.000000 0.001380
# 5 0.000997 0.000037 0.002254 0.000000 0.018694 0.000000
# 6 0.000000 0.000000 0.000000 0.001380 0.000000 0.044811
#
#
# Mechanical properties :
#
#
# Convention : Reuss Voigt Hill
#
# Bulk Modulus (GPa) = 48.87355 74.81244 61.84299
# Shear Modulus (GPa) = 32.42376 39.93491 36.17934
#
# Velocity S-wave (km/s) = 3.93168 4.36338 4.15314
# Velocity P-wave (km/s) = 6.62657 7.81360 7.24444
#
# Compressibility (1/GPa) = 0.02046097
#
# Stress axis : x y z
#
# Youngs Moduli (GPa) = 144.65865 47.00253 118.92455
#
# Poissons Ratio (x) = 0.10547 0.30674
# Poissons Ratio (y) = 0.32460 0.38589
# Poissons Ratio (z) = 0.37312 0.15251
#
# Static dielectric constant tensor:
#      x y z
#    x 1.733580 0.000000 0.082330 
#    y 0.000000 3.319550 0.000000 
#    z 0.082330 0.000000 1.799380 
# 
# From -- ./inp_files/37868.got.cif
#   From: 2010.05.17/outbox.ucp.g08.bks.cvg/sg15_19_cif.got.tgz:37868.got - 2010.06.11 12:40:34.
