data_PCOD9309657
_publ_section_title
;
Structure prediction by ZEFSAII (Michael W. Deem and Ramdas Pophale) SiO2 
 PCOD9309657
Probable space group: C 2/C
;
_chemical_formula_sum "Si O2"
_cell_formula_units_Z 32
_cell_length_a 21.000000
_cell_length_b 15.000000
_cell_length_c 12.000000
_cell_angle_alpha 90.000000
_cell_angle_beta 110.000000
_cell_angle_gamma 90.000000
_cell_volume 3552.038107
_symmetry_space_group_name_H-M "C 2/C"
_symmetry_group_IT_number 15
_symmetry_cell_setting 'monoclinic'
loop_
_space_group_symop_operation_xyz
x,y,z
-x,y,1/2-z
-x,-y,-z
x,-y,1/2+z
1/2+x,1/2+y,z
1/2-x,1/2+y,1/2-z
1/2-x,1/2-y,-z
1/2+x,1/2-y,1/2+z
loop_
_atom_site_type_symbol
_atom_site_label
_atom_site_fract_x
_atom_site_fract_y
_atom_site_fract_z
Si Si1 0.956012 0.694757 0.616484
Si Si2 0.786809 0.152810 0.518477
Si Si3 0.079559 0.646591 0.528316
Si Si4 0.301558 0.938270 0.716349
Si Si5 0.345656 0.767311 0.863065
Si Si6 0.773116 0.633041 0.785709
Si Si7 0.928844 0.505805 0.146625
Si Si8 0.423635 0.280634 0.179427
O O1 0.894817 0.739048 0.503101
O O2 0.925089 0.601447 0.642425
O O3 0.000000 0.734691 0.750000
O O4 0.015603 0.669951 0.565498
O O5 0.750000 0.250000 0.500000
O O6 0.757930 0.106709 0.391974
O O7 0.759057 0.109409 0.613967
O O8 0.867419 0.158199 0.583827
O O9 0.150283 0.666072 0.635744
O O10 0.076080 0.545029 0.481621
O O11 0.072543 0.700877 0.408288
O O12 0.320066 0.869179 0.826757
O O13 0.368051 0.951094 0.679902
O O14 0.280666 0.038471 0.731574
O O15 0.278903 0.701717 0.808546
O O16 0.390256 0.745690 0.778314
O O17 0.000000 0.527888 0.250000
O O18 0.500000 0.313219 0.250000
#
# Coordination Sequence:
#
# PCOD9309657 Si02
#       8
#     8   8   8   8   8   8   8   8
#     4  11  24  35  50  79 124 164 189 231 295 368
#     4  11  19  39  59  88 122 150 202 255 285 345
#     4  12  18  35  55  85 119 152 194 233 299 358
#     4  12  21  37  61  86 122 156 194 246 302 343
#     4  11  21  39  59  86 119 151 200 244 291 354
#     4  11  22  35  61  90 118 156 194 244 298 353
#     4  11  20  33  51  85 120 154 185 231 288 368
#     4  11  19  34  64  92 106 151 205 254 294 334
#
# _framework density 9.0089120000000005
#
# number of rings (size 3 to 8) (size 9 to 14) (size 15 to 20)
#    0.000    0.750    7.500    3.750    0.000    0.000 
#    0.000    2.500    2.750    3.750    0.000    0.000 
#    0.000    0.000    0.000    0.000    0.000    0.000 
#
# Total GULP energy -178358.476929 kJ/mol
# GULP energy per Si atom -5573.702404 kJ/mol
# Density = 0.898841 g / cm^3
# Si number density = 9.008912 Si / 1000 Ang^3
#
#
#
# Elastic Constant Matrix: (Units=GPa)
#
#
# Indices 1 2 3 4 5 6 
#
# 1 86.2302 33.1668 31.1507 0.0000 33.3296 0.0000
# 2 33.1668 48.5251 30.3844 0.0000 6.8009 0.0000
# 3 31.1507 30.3844 126.0210 0.0000 37.0477 0.0000
# 4 0.0000 0.0000 0.0000 30.5220 0.0000 6.3579
# 5 33.3296 6.8009 37.0477 0.0000 46.5878 0.0000
# 6 0.0000 0.0000 0.0000 6.3579 0.0000 20.9669
#
#
#
# Elastic Compliance Matrix: (Units=1/GPa)
#
#
# Indices 1 2 3 4 5 6 
#
# 1 0.022583 -0.014900 0.002767 0.000000 -0.016182 0.000000
# 2 -0.014900 0.034179 -0.008124 0.000000 0.012131 0.000000
# 3 0.002767 -0.008124 0.012324 0.000000 -0.010595 0.000000
# 4 0.000000 0.000000 0.000000 0.034972 0.000000 -0.010605
# 5 -0.016182 0.012131 -0.010595 0.000000 0.039696 0.000000
# 6 0.000000 0.000000 0.000000 -0.010605 0.000000 0.050910
#
#
# Mechanical properties :
#
#
# Convention : Reuss Voigt Hill
#
# Bulk Modulus (GPa) = 34.99815 50.02001 42.50908
# Shear Modulus (GPa) = 20.43310 30.68695 25.56002
#
# Velocity S-wave (km/s) = 3.37122 4.13139 3.77051
# Velocity P-wave (km/s) = 5.88386 7.11193 6.52684
#
# Compressibility (1/GPa) = 0.02857294
#
# Stress axis : x y z
#
# Youngs Moduli (GPa) = 44.28178 29.25795 81.13983
#
# Poissons Ratio (x) = 0.43595 -0.22455
# Poissons Ratio (y) = 0.65981 0.65916
# Poissons Ratio (z) = -0.12255 0.23768
#
# Static dielectric constant tensor:
#      x y z
#    x 1.646440 0.000000 -0.006960 
#    y 0.000000 1.667910 0.000000 
#    z -0.006960 0.000000 1.665950 
# 
# From -- ./inp_files/112738.got.cif
#   From: 2010.05.17/outbox.ucp.g08.bks.cvg/sg15_57_cif.got.tgz:112738.got - 2010.06.11 12:40:34.
