data_PCOD9309799
_publ_section_title
;
Structure prediction by ZEFSAII (Michael W. Deem and Ramdas Pophale) SiO2 
 PCOD9309799
Probable space group: C 2/C
;
_chemical_formula_sum "Si O2"
_cell_formula_units_Z 24
_cell_length_a 21.000000
_cell_length_b 12.000000
_cell_length_c 27.000000
_cell_angle_alpha 90.000000
_cell_angle_beta 20.000000
_cell_angle_gamma 90.000000
_cell_volume 2327.105055
_symmetry_space_group_name_H-M "C 2/C"
_symmetry_group_IT_number 15
_symmetry_cell_setting 'monoclinic'
loop_
_space_group_symop_operation_xyz
x,y,z
-x,y,1/2-z
-x,-y,-z
x,-y,1/2+z
1/2+x,1/2+y,z
1/2-x,1/2+y,1/2-z
1/2-x,1/2-y,-z
1/2+x,1/2-y,1/2+z
loop_
_atom_site_type_symbol
_atom_site_label
_atom_site_fract_x
_atom_site_fract_y
_atom_site_fract_z
Si Si1 0.006444 0.588365 0.686496
Si Si2 0.518993 0.864537 0.999518
Si Si3 0.087251 0.017089 0.990483
Si Si4 0.325419 0.729818 0.057109
Si Si5 0.928598 0.232752 0.165438
Si Si6 0.585736 0.837657 0.607536
O O1 0.034196 0.701030 0.633475
O O2 0.000000 0.612374 0.750000
O O3 0.118240 0.470216 0.595487
O O4 0.798768 0.550088 0.824766
O O5 0.725368 0.811070 0.834800
O O6 0.382120 0.790860 0.065900
O O7 0.454168 0.826288 0.102536
O O8 0.500000 0.000000 0.000000
O O9 0.008998 0.117891 0.081787
O O10 0.085148 0.893264 0.015999
O O11 0.000000 0.000000 0.000000
O O12 0.103665 0.702117 0.225849
O O13 0.411461 0.814219 0.953358
O O14 0.750000 0.750000 0.500000
#
# Coordination Sequence:
#
# PCOD9309799 Si02
#       6
#     8   8   8   8   8   8
#     4  11  25  48  73 104 150 197 244 304 384 457
#     4  12  27  42  71 110 147 190 251 312 384 455
#     4  11  23  44  72 105 148 198 237 307 385 444
#     4  11  23  40  70  99 144 187 236 306 374 433
#     4  12  25  46  72 107 150 192 252 308 381 452
#     4  11  23  43  69 103 139 193 250 300 367 448
#
# _framework density 10.313243
#
# number of rings (size 3 to 8) (size 9 to 14) (size 15 to 20)
#    0.000    0.667    3.333    4.500    9.333    0.667 
#    0.000    0.000    0.000    0.000    0.000    0.000 
#    0.000    0.000    0.000    0.000    0.000    0.000 
#
# Total GULP energy -133739.141293 kJ/mol
# GULP energy per Si atom -5572.464221 kJ/mol
# Density = 1.028977 g / cm^3
# Si number density = 10.313243 Si / 1000 Ang^3
#
#
#
# Elastic Constant Matrix: (Units=GPa)
#
#
# Indices 1 2 3 4 5 6 
#
# 1 133.1603 50.5193 19.9508 0.0010 20.7867 0.0000
# 2 50.5193 191.0820 31.9199 0.0058 11.1190 -0.0017
# 3 19.9508 31.9199 86.7440 0.0153 7.9258 -0.0019
# 4 0.0010 0.0058 0.0153 47.9258 -0.0059 9.3383
# 5 20.7867 11.1190 7.9258 -0.0059 40.7499 0.0024
# 6 0.0000 -0.0017 -0.0019 9.3383 0.0024 45.6282
#
#
#
# Elastic Compliance Matrix: (Units=1/GPa)
#
#
# Indices 1 2 3 4 5 6 
#
# 1 0.009017 -0.001994 -0.000987 0.000000 -0.003864 0.000000
# 2 -0.001994 0.006070 -0.001748 0.000000 -0.000299 0.000000
# 3 -0.000987 -0.001748 0.012531 -0.000004 -0.001457 0.000001
# 4 0.000000 0.000000 -0.000004 0.021732 0.000004 -0.004448
# 5 -0.003864 -0.000299 -0.001457 0.000004 0.026876 -0.000002
# 6 0.000000 0.000000 0.000001 -0.004448 -0.000002 0.022827
#
#
# Mechanical properties :
#
#
# Convention : Reuss Voigt Hill
#
# Bulk Modulus (GPa) = 55.06389 68.41847 61.74118
# Shear Modulus (GPa) = 43.64339 47.43388 45.53863
#
# Velocity S-wave (km/s) = 4.60487 4.80068 4.70379
# Velocity P-wave (km/s) = 7.41800 7.99818 7.71355
#
# Compressibility (1/GPa) = 0.01816072
#
# Stress axis : x y z
#
# Youngs Moduli (GPa) = 110.89680 164.74560 79.79952
#
# Poissons Ratio (x) = 0.32856 0.07877
# Poissons Ratio (y) = 0.22117 0.13946
# Poissons Ratio (z) = 0.10946 0.28791
#
# Static dielectric constant tensor:
#      x y z
#    x 1.971750 0.000000 -0.002560 
#    y 0.000000 1.761300 0.000010 
#    z -0.002560 0.000010 1.764340 
# 
# From -- ./inp_files/300929.got.cif
#   From: 2010.05.17/outbox.ucp.g08.bks.cvg/sg15_151_cif.got.tgz:300929.got - 2010.06.11 12:40:34.
