data_PCOD9309973
_publ_section_title
;
Structure prediction by ZEFSAII (Michael W. Deem and Ramdas Pophale) SiO2 
 PCOD9309973
Probable space group: P 2 2 2
;
_chemical_formula_sum "Si O2"
_cell_formula_units_Z 24
_cell_length_a 14.387189
_cell_length_b 10.822733
_cell_length_c 7.474278
_cell_angle_alpha 90.000000
_cell_angle_beta 90.000000
_cell_angle_gamma 90.000000
_cell_volume 1163.810149
_symmetry_space_group_name_H-M "P 2 2 2"
_symmetry_group_IT_number 16
_symmetry_cell_setting 'orthorhombic'
loop_
_space_group_symop_operation_xyz
x,y,z
-x,-y,z
x,-y,-z
-x,y,-z
loop_
_atom_site_type_symbol
_atom_site_label
_atom_site_fract_x
_atom_site_fract_y
_atom_site_fract_z
Si Si1 0.895223 0.858952 0.715527
Si Si2 0.296386 0.750237 0.210475
Si Si3 0.104777 0.858952 0.715526
Si Si4 0.703614 0.249763 0.789524
Si Si5 0.392005 0.000000 0.781276
Si Si6 0.391731 0.500000 0.219246
O O1 0.813954 0.767151 0.770814
O O2 0.896143 0.861655 0.500000
O O3 1.000000 0.828154 0.775099
O O4 0.874175 1.000000 0.776759
O O5 0.339533 0.623795 0.282028
O O6 0.342481 0.875451 0.284273
O O7 0.318354 0.749669 1.000000
O O8 0.186046 0.767152 0.770813
O O9 0.657519 0.124549 0.715727
O O10 0.660467 0.376205 0.717972
O O11 0.500000 0.000000 0.733724
O O12 0.386349 0.000000 0.000000
O O13 0.500000 0.500000 0.270484
O O14 0.389331 0.500000 0.000000
#
# Coordination Sequence:
#
# PCOD9309973 Si02
#       6
#     4   4   4   4   4   4
#     4   9  18  33  52  73  99 131 163 200 252 304
#     4  10  18  30  50  76 100 127 165 206 244 284
#     4   9  18  33  52  73  99 131 163 200 252 304
#     4  10  18  30  50  76 100 127 165 206 244 284
#     4   9  16  26  44  71  98 122 157 203 242 281
#     4   9  18  32  50  73 104 138 165 195 244 299
#
# _framework density 20.621918999999998
#
# number of rings (size 3 to 8) (size 9 to 14) (size 15 to 20)
#    0.000    2.667    1.667    2.000    0.000    4.667 
#    0.000    3.333    0.000   11.000    0.000    0.000 
#    0.000    0.000    0.000    0.000    0.000    0.000 
#
# Total GULP energy -133966.136810 kJ/mol
# GULP energy per Si atom -5581.922367 kJ/mol
# Density = 2.057498 g / cm^3
# Si number density = 20.621919 Si / 1000 Ang^3
#
#
#
# Elastic Constant Matrix: (Units=GPa)
#
#
# Indices 1 2 3 4 5 6 
#
# 1 169.0876 123.9456 -9.7794 0.0000 0.0000 0.0000
# 2 123.9456 195.0134 11.5027 0.0000 0.0000 0.0000
# 3 -9.7794 11.5027 56.6891 0.0000 0.0000 0.0000
# 4 0.0000 0.0000 0.0000 1.0265 0.0000 0.0000
# 5 0.0000 0.0000 0.0000 0.0000 36.5523 0.0000
# 6 0.0000 0.0000 0.0000 0.0000 0.0000 36.9453
#
#
#
# Elastic Compliance Matrix: (Units=1/GPa)
#
#
# Indices 1 2 3 4 5 6 
#
# 1 0.011751 -0.007680 0.003586 0.000000 0.000000 0.000000
# 2 -0.007680 0.010210 -0.003397 0.000000 0.000000 0.000000
# 3 0.003586 -0.003397 0.018948 0.000000 0.000000 0.000000
# 4 0.000000 0.000000 0.000000 0.974172 0.000000 0.000000
# 5 0.000000 0.000000 0.000000 0.000000 0.027358 0.000000
# 6 0.000000 0.000000 0.000000 0.000000 0.000000 0.027067
#
#
# Mechanical properties :
#
#
# Convention : Reuss Voigt Hill
#
# Bulk Modulus (GPa) = 38.57094 74.68088 56.62591
# Shear Modulus (GPa) = 4.57402 34.57959 19.57680
#
# Velocity S-wave (km/s) = 1.49092 4.09936 3.08445
# Velocity P-wave (km/s) = 4.65921 7.66155 6.34065
#
# Compressibility (1/GPa) = 0.02592625
#
# Stress axis : x y z
#
# Youngs Moduli (GPa) = 85.09626 97.94645 52.77652
#
# Poissons Ratio (x) = 0.75227 -0.18924
# Poissons Ratio (y) = 0.65357 0.17926
# Poissons Ratio (z) = -0.30513 0.33268
#
# Static dielectric constant tensor:
#      x y z
#    x 1.719830 0.000000 0.000000 
#    y 0.000000 1.716620 0.000000 
#    z 0.000000 0.000000 1.784730 
# 
# From -- ./inp_files/4066.got.cif
#   From: 2010.05.17/outbox.cif.g08.bks.cpg/sg16_3_cif.got.tgz:4066.got - 2010.06.03 22:28:35.
