data_PCOD9309632
_publ_section_title
;
Structure prediction by ZEFSAII (Michael W. Deem and Ramdas Pophale) SiO2 
 PCOD9309632
Probable space group: C 2/C
;
_chemical_formula_sum "Si O2"
_cell_formula_units_Z 28
_cell_length_a 27.000000
_cell_length_b 18.000000
_cell_length_c 9.000000
_cell_angle_alpha 90.000000
_cell_angle_beta 140.000000
_cell_angle_gamma 90.000000
_cell_volume 2811.553005
_symmetry_space_group_name_H-M "C 2/C"
_symmetry_group_IT_number 15
_symmetry_cell_setting 'monoclinic'
loop_
_space_group_symop_operation_xyz
x,y,z
-x,y,1/2-z
-x,-y,-z
x,-y,1/2+z
1/2+x,1/2+y,z
1/2-x,1/2+y,1/2-z
1/2-x,1/2-y,-z
1/2+x,1/2-y,1/2+z
loop_
_atom_site_type_symbol
_atom_site_label
_atom_site_fract_x
_atom_site_fract_y
_atom_site_fract_z
Si Si1 0.500000 0.420723 0.750000
Si Si2 0.735039 0.514944 0.134405
Si Si3 0.626245 0.459491 0.641961
Si Si4 0.289838 0.736071 0.933715
Si Si5 0.658845 0.878057 0.030532
Si Si6 0.000000 0.301166 0.750000
Si Si7 0.451535 0.322801 0.914290
Si Si8 0.787529 0.670838 0.143330
O O1 0.429466 0.475161 0.543193
O O2 0.493089 0.368438 0.879234
O O3 0.700582 0.542956 0.209408
O O4 0.807863 0.459586 0.339359
O O5 0.744930 0.590772 0.061206
O O6 0.664951 0.472120 0.891526
O O7 0.577856 0.383810 0.534121
O O8 0.232422 0.674147 0.735659
O O9 0.300936 0.804514 0.845117
O O10 0.250000 0.750000 0.000000
O O11 0.374548 0.707383 0.160905
O O12 0.578812 0.850352 0.921643
O O13 0.649064 0.856449 0.832051
O O14 0.993967 0.244713 0.595090
O O15 0.750000 0.750000 0.000000
#
# Coordination Sequence:
#
# PCOD9309632 Si02
#       8
#     4   8   8   8   8   4   8   8
#     4  12  27  40  60 107 152 178 234 286 373 438
#     4  12  24  44  75 100 137 185 239 295 353 426
#     4  12  24  43  67 104 140 185 229 290 361 436
#     4  11  21  43  69 101 131 182 245 289 343 420
#     4  11  24  47  65 105 137 187 239 290 355 424
#     4  12  29  44  72  99 150 192 234 296 359 424
#     4  12  26  43  68 101 145 190 229 290 361 428
#     4  10  25  41  73 105 138 177 245 309 348 411
#
# _framework density 9.9589090000000002
#
# number of rings (size 3 to 8) (size 9 to 14) (size 15 to 20)
#    0.000    0.571    5.714    1.714    8.000    0.000 
#    0.000    0.714    0.000    0.000    0.000    0.000 
#    0.000    0.000    0.000    0.000    0.000    0.000 
#
# Total GULP energy -155884.016105 kJ/mol
# GULP energy per Si atom -5567.286289 kJ/mol
# Density = 0.993624 g / cm^3
# Si number density = 9.958909 Si / 1000 Ang^3
#
#
#
# Elastic Constant Matrix: (Units=GPa)
#
#
# Indices 1 2 3 4 5 6 
#
# 1 67.2256 38.7532 21.2894 0.0000 -1.9026 0.0000
# 2 38.7532 112.0800 29.6094 0.0000 12.2065 0.0000
# 3 21.2894 29.6094 76.6898 0.0000 9.4956 0.0000
# 4 0.0000 0.0000 0.0000 36.1087 0.0000 -7.0513
# 5 -1.9026 12.2065 9.4956 0.0000 29.1455 0.0000
# 6 0.0000 0.0000 0.0000 -7.0513 0.0000 20.8052
#
#
#
# Elastic Compliance Matrix: (Units=1/GPa)
#
#
# Indices 1 2 3 4 5 6 
#
# 1 0.019925 -0.006487 -0.003672 0.000000 0.005214 0.000000
# 2 -0.006487 0.012312 -0.002357 0.000000 -0.004812 0.000000
# 3 -0.003672 -0.002357 0.015502 0.000000 -0.004303 0.000000
# 4 0.000000 0.000000 0.000000 0.029657 0.000000 0.010051
# 5 0.005214 -0.004812 -0.004303 0.000000 0.038068 0.000000
# 6 0.000000 0.000000 0.000000 0.010051 0.000000 0.051472
#
#
# Mechanical properties :
#
#
# Convention : Reuss Voigt Hill
#
# Bulk Modulus (GPa) = 44.04047 48.36661 46.20354
# Shear Modulus (GPa) = 25.05793 28.30144 26.67969
#
# Velocity S-wave (km/s) = 3.55077 3.77359 3.66387
# Velocity P-wave (km/s) = 6.24257 6.58198 6.41452
#
# Compressibility (1/GPa) = 0.02270639
#
# Stress axis : x y z
#
# Youngs Moduli (GPa) = 50.18695 81.22178 64.50868
#
# Poissons Ratio (x) = 0.52690 0.23690
# Poissons Ratio (y) = 0.32557 0.15204
# Poissons Ratio (z) = 0.18430 0.19143
#
# Static dielectric constant tensor:
#      x y z
#    x 1.855910 0.000000 -0.117680 
#    y 0.000000 1.738470 0.000000 
#    z -0.117680 0.000000 1.706100 
# 
# From -- ./inp_files/67226.got.cif
#   From: 2010.05.17/outbox.ucp.g08.bks.cvg/sg15_34_cif.got.tgz:67226.got - 2010.06.11 12:40:34.
