data_PCOD9309595
_publ_section_title
;
Structure prediction by ZEFSAII (Michael W. Deem and Ramdas Pophale) SiO2 
 PCOD9309595
Probable space group: C 2/C
;
_chemical_formula_sum "Si O2"
_cell_formula_units_Z 22
_cell_length_a 9.000000
_cell_length_b 12.000000
_cell_length_c 27.000000
_cell_angle_alpha 90.000000
_cell_angle_beta 130.000000
_cell_angle_gamma 90.000000
_cell_volume 2233.785596
_symmetry_space_group_name_H-M "C 2/C"
_symmetry_group_IT_number 15
_symmetry_cell_setting 'monoclinic'
loop_
_space_group_symop_operation_xyz
x,y,z
-x,y,1/2-z
-x,-y,-z
x,-y,1/2+z
1/2+x,1/2+y,z
1/2-x,1/2+y,1/2-z
1/2-x,1/2-y,-z
1/2+x,1/2-y,1/2+z
loop_
_atom_site_type_symbol
_atom_site_label
_atom_site_fract_x
_atom_site_fract_y
_atom_site_fract_z
Si Si1 0.658894 0.142566 0.508750
Si Si2 0.346857 0.431669 0.499558
Si Si3 0.482521 0.362766 0.349622
Si Si4 0.771264 0.753732 0.401092
Si Si5 0.082366 0.878778 0.647812
Si Si6 0.000000 0.735129 0.250000
O O1 0.750000 0.250000 0.500000
O O2 0.431056 0.167993 0.458301
O O3 0.788134 0.140373 0.586137
O O4 0.705217 0.025573 0.491853
O O5 0.500000 0.500000 0.500000
O O6 0.252760 0.347028 0.440236
O O7 0.475024 0.376108 0.570807
O O8 0.362983 0.303489 0.369597
O O9 0.421443 0.491967 0.337038
O O10 0.458235 0.306170 0.291038
O O11 0.565136 0.693912 0.350242
O O12 0.302470 0.834398 0.696373
#
# Coordination Sequence:
#
# PCOD9309595 Si02
#       6
#     8   8   8   8   8   4
#     4   9  18  35  65  94 127 158 195 265 327 376
#     4  11  19  38  68 102 129 158 208 263 335 394
#     4  10  24  43  63  91 127 166 217 261 314 383
#     4  11  22  39  68  98 129 162 206 267 333 377
#     4  11  26  43  66  95 129 172 216 264 321 381
#     4  12  28  44  64  86 128 182 226 256 310 382
#
# _framework density 9.8487519999999993
#
# number of rings (size 3 to 8) (size 9 to 14) (size 15 to 20)
#    0.000    1.455    5.455    1.636    2.545    8.000 
#    0.000    0.000    0.000    0.000    0.000    0.000 
#    0.000    0.000    0.000    0.000    0.000    0.000 
#
# Total GULP energy -122846.846582 kJ/mol
# GULP energy per Si atom -5583.947572 kJ/mol
# Density = 0.982634 g / cm^3
# Si number density = 9.848752 Si / 1000 Ang^3
#
#
#
# Elastic Constant Matrix: (Units=GPa)
#
#
# Indices 1 2 3 4 5 6 
#
# 1 87.5279 62.1945 51.1603 0.0000 10.5485 0.0000
# 2 62.1945 130.7689 59.7924 0.0000 -1.7089 0.0000
# 3 51.1603 59.7924 94.9111 0.0000 -8.1730 0.0000
# 4 0.0000 0.0000 0.0000 25.9650 0.0000 0.2277
# 5 10.5485 -1.7089 -8.1730 0.0000 46.3899 0.0000
# 6 0.0000 0.0000 0.0000 0.2277 0.0000 30.6307
#
#
#
# Elastic Compliance Matrix: (Units=1/GPa)
#
#
# Indices 1 2 3 4 5 6 
#
# 1 0.021693 -0.006738 -0.008016 0.000000 -0.006593 0.000000
# 2 -0.006738 0.012864 -0.004365 0.000000 0.001237 0.000000
# 3 -0.008016 -0.004365 0.018024 0.000000 0.004837 0.000000
# 4 0.000000 0.000000 0.000000 0.038516 0.000000 -0.000286
# 5 -0.006593 0.001237 0.004837 0.000000 0.023953 0.000000
# 6 0.000000 0.000000 0.000000 -0.000286 0.000000 0.032649
#
#
# Mechanical properties :
#
#
# Convention : Reuss Voigt Hill
#
# Bulk Modulus (GPa) = 69.72851 73.27802 71.50326
# Shear Modulus (GPa) = 26.21661 29.93449 28.07555
#
# Velocity S-wave (km/s) = 3.65219 3.90257 3.77946
# Velocity P-wave (km/s) = 7.29803 7.58876 7.44481
#
# Compressibility (1/GPa) = 0.01434134
#
# Stress axis : x y z
#
# Youngs Moduli (GPa) = 46.09827 77.73610 55.48230
#
# Poissons Ratio (x) = 0.52380 0.44474
# Poissons Ratio (y) = 0.31062 0.24221
# Poissons Ratio (z) = 0.36952 0.33936
#
# Static dielectric constant tensor:
#      x y z
#    x 1.743270 0.000000 -0.014640 
#    y 0.000000 1.732640 0.000000 
#    z -0.014640 0.000000 1.686580 
# 
# From -- ./inp_files/230307.got.cif
#   From: 2010.05.17/outbox.ucp.g08.bks.cvg/sg15_116_cif.got.tgz:230307.got - 2010.06.11 12:40:34.
