data_PCOD9309219
_publ_section_title
;
Structure prediction by ZEFSAII (Michael W. Deem and Ramdas Pophale) SiO2 
 PCOD9309219
Probable space group: C 2/C
;
_chemical_formula_sum "Si O2"
_cell_formula_units_Z 24
_cell_length_a 9.000000
_cell_length_b 15.000000
_cell_length_c 27.000000
_cell_angle_alpha 90.000000
_cell_angle_beta 40.000000
_cell_angle_gamma 90.000000
_cell_volume 2342.960837
_symmetry_space_group_name_H-M "C 2/C"
_symmetry_group_IT_number 15
_symmetry_cell_setting 'monoclinic'
loop_
_space_group_symop_operation_xyz
x,y,z
-x,y,1/2-z
-x,-y,-z
x,-y,1/2+z
1/2+x,1/2+y,z
1/2-x,1/2+y,1/2-z
1/2-x,1/2-y,-z
1/2+x,1/2-y,1/2+z
loop_
_atom_site_type_symbol
_atom_site_label
_atom_site_fract_x
_atom_site_fract_y
_atom_site_fract_z
Si Si1 0.597021 0.119733 0.430981
Si Si2 0.351482 0.130556 0.197242
Si Si3 0.978491 0.245898 0.347829
Si Si4 0.346333 0.069257 0.741419
Si Si5 0.689965 0.431592 0.095010
Si Si6 0.809020 0.769609 0.341161
O O1 0.638017 0.115311 0.362920
O O2 0.328116 0.106008 0.512560
O O3 0.715346 0.213359 0.415965
O O4 0.734060 0.034207 0.418563
O O5 0.121413 0.182944 0.273327
O O6 0.558249 0.198318 0.158922
O O7 0.363159 0.031322 0.216672
O O8 0.053320 0.348024 0.316824
O O9 0.093368 0.222995 0.370785
O O10 0.500000 0.073670 0.750000
O O11 0.082626 0.081237 0.827454
O O12 0.777886 0.362233 0.114155
O O13 0.000000 0.790429 0.250000
#
# Coordination Sequence:
#
# PCOD9309219 Si02
#       6
#     8   8   8   8   8   8
#     4  11  25  41  64  96 127 168 202 264 314 379
#     4  11  22  39  66  92 126 165 212 257 311 368
#     4  11  22  39  67  95 123 164 218 248 312 372
#     4  12  23  40  67  97 122 166 217 262 301 375
#     4  11  24  42  65  91 132 162 211 256 323 362
#     4  10  21  40  64  95 121 167 204 261 307 367
#
# _framework density 10.243449
#
# number of rings (size 3 to 8) (size 9 to 14) (size 15 to 20)
#    0.000    1.000    5.000    4.000    0.000    1.333 
#    0.000    0.833    0.000    0.000    0.000    0.000 
#    0.000    0.000    0.000    0.000    0.000    0.000 
#
# Total GULP energy -133712.980663 kJ/mol
# GULP energy per Si atom -5571.374194 kJ/mol
# Density = 1.022013 g / cm^3
# Si number density = 10.243449 Si / 1000 Ang^3
#
#
#
# Elastic Constant Matrix: (Units=GPa)
#
#
# Indices 1 2 3 4 5 6 
#
# 1 53.2487 -15.0065 -1.9485 -0.0005 -3.4472 -0.0008
# 2 -15.0065 89.6061 -10.0460 0.0006 -10.4910 0.0003
# 3 -1.9485 -10.0460 -19.4679 -0.0054 -19.1572 0.0119
# 4 -0.0005 0.0006 -0.0054 23.8995 0.0019 13.4797
# 5 -3.4472 -10.4910 -19.1572 0.0019 8.1806 -0.0013
# 6 -0.0008 0.0003 0.0119 13.4797 -0.0013 3.7816
#
#
#
# Elastic Compliance Matrix: (Units=1/GPa)
#
#
# Indices 1 2 3 4 5 6 
#
# 1 0.019501 0.002888 -0.004592 0.000011 0.001168 -0.000022
# 2 0.002888 0.010979 -0.006357 0.000013 0.000409 -0.000026
# 3 -0.004592 -0.006357 -0.011409 0.000012 -0.036805 -0.000021
# 4 0.000011 0.000013 0.000012 -0.041409 0.000083 0.147604
# 5 0.001168 0.000409 -0.036805 0.000083 0.037068 -0.000167
# 6 -0.000022 -0.000026 -0.000021 0.147604 -0.000167 -0.261702
#
#
# Mechanical properties :
#
#
# Convention : Reuss Voigt Hill
#
# Bulk Modulus (GPa) = 339.06953 7.70943 173.38948
# Shear Modulus (GPa) = -21.75179 17.19820 -2.27679
#
# Velocity S-wave (km/s) = -3.26197 2.90051 -1.05535
# Velocity P-wave (km/s) = 12.31574 3.87150 9.12869
#
# Compressibility (1/GPa) = 0.00294925
#
# Stress axis : x y z
#
# Youngs Moduli (GPa) = 51.27864 91.08470 -87.65057
#
# Poissons Ratio (x) = -0.26305 -0.40247
# Poissons Ratio (y) = -0.14809 -0.55721
# Poissons Ratio (z) = 0.23546 0.57904
#
# Static dielectric constant tensor:
#      x y z
#    x 1.826120 -0.000080 0.015970 
#    y -0.000080 2.894310 0.000020 
#    z 0.015970 0.000020 1.810410 
# 
# From -- ./inp_files/182537.got.cif
#   From: 2010.05.17/outbox.ucp.g08.bks.cvg/sg15_92_cif.got.tgz:182537.got - 2010.06.11 12:40:34.
