data_PCOD9309408
_publ_section_title
;
Structure prediction by ZEFSAII (Michael W. Deem and Ramdas Pophale) SiO2 
 PCOD9309408
Probable space group: C 2/C
;
_chemical_formula_sum "Si O2"
_cell_formula_units_Z 22
_cell_length_a 6.000000
_cell_length_b 18.000000
_cell_length_c 21.000000
_cell_angle_alpha 90.000000
_cell_angle_beta 100.000000
_cell_angle_gamma 90.000000
_cell_volume 2233.543984
_symmetry_space_group_name_H-M "C 2/C"
_symmetry_group_IT_number 15
_symmetry_cell_setting 'monoclinic'
loop_
_space_group_symop_operation_xyz
x,y,z
-x,y,1/2-z
-x,-y,-z
x,-y,1/2+z
1/2+x,1/2+y,z
1/2-x,1/2+y,1/2-z
1/2-x,1/2-y,-z
1/2+x,1/2-y,1/2+z
loop_
_atom_site_type_symbol
_atom_site_label
_atom_site_fract_x
_atom_site_fract_y
_atom_site_fract_z
Si Si1 0.108321 0.162177 0.825433
Si Si2 0.617692 0.307861 0.689709
Si Si3 0.582165 0.575662 0.422863
Si Si4 0.500000 0.077652 0.250000
Si Si5 0.856614 0.086468 0.926918
Si Si6 0.408850 0.977278 0.366431
O O1 0.263628 0.236523 0.838012
O O2 0.231918 0.082416 0.830377
O O3 0.000000 0.171434 0.750000
O O4 0.947435 0.146350 0.879474
O O5 0.500000 0.279996 0.750000
O O6 0.483731 0.358752 0.630365
O O7 0.791931 0.367580 0.727676
O O8 0.577413 0.601625 0.496309
O O9 0.434309 0.498900 0.413958
O O10 0.817874 0.538497 0.411851
O O11 0.486136 0.025095 0.310287
O O12 0.589670 0.076636 0.907912
#
# Coordination Sequence:
#
# PCOD9309408 Si02
#       6
#     8   8   8   4   8   8
#     4  11  26  40  63  95 130 166 215 263 326 382
#     4  12  25  42  62  95 130 170 212 272 322 384
#     4  10  22  41  66  95 129 164 221 260 320 384
#     4  12  22  38  66  92 124 170 214 260 324 374
#     4  10  22  42  65  94 128 171 209 268 318 388
#     4  11  22  39  67  95 124 169 214 266 316 384
#
# _framework density 9.8498169999999998
#
# number of rings (size 3 to 8) (size 9 to 14) (size 15 to 20)
#    0.000    1.091    4.545    1.636    6.364    0.727 
#    0.000    0.909    0.000    0.000    0.000    0.000 
#    0.000    0.000    0.000    0.000    0.000    0.000 
#
# Total GULP energy -122514.780409 kJ/mol
# GULP energy per Si atom -5568.853655 kJ/mol
# Density = 0.982740 g / cm^3
# Si number density = 9.849817 Si / 1000 Ang^3
#
#
#
# Elastic Constant Matrix: (Units=GPa)
#
#
# Indices 1 2 3 4 5 6 
#
# 1 46.8869 21.5547 43.2214 0.0000 -5.4016 0.0000
# 2 21.5547 94.4077 49.7433 0.0000 -5.5038 0.0000
# 3 43.2214 49.7433 138.8027 0.0000 -18.0647 0.0000
# 4 0.0000 0.0000 0.0000 24.1657 0.0000 -6.2801
# 5 -5.4016 -5.5038 -18.0647 0.0000 20.3332 0.0000
# 6 0.0000 0.0000 0.0000 -6.2801 0.0000 42.0628
#
#
#
# Elastic Compliance Matrix: (Units=1/GPa)
#
#
# Indices 1 2 3 4 5 6 
#
# 1 0.030352 -0.002401 -0.008623 0.000000 -0.000248 0.000000
# 2 -0.002401 0.013257 -0.004093 0.000000 -0.000685 0.000000
# 3 -0.008623 -0.004093 0.012341 0.000000 0.007566 0.000000
# 4 0.000000 0.000000 0.000000 0.043051 0.000000 0.006428
# 5 -0.000248 -0.000685 0.007566 0.000000 0.055651 0.000000
# 6 0.000000 0.000000 0.000000 0.006428 0.000000 0.024734
#
#
# Mechanical properties :
#
#
# Convention : Reuss Voigt Hill
#
# Bulk Modulus (GPa) = 38.88488 56.57069 47.72778
# Shear Modulus (GPa) = 22.91571 28.35085 25.63328
#
# Velocity S-wave (km/s) = 3.41435 3.79774 3.61114
# Velocity P-wave (km/s) = 5.94352 6.92888 6.45503
#
# Compressibility (1/GPa) = 0.02571694
#
# Stress axis : x y z
#
# Youngs Moduli (GPa) = 32.94668 75.43240 81.03132
#
# Poissons Ratio (x) = 0.18110 0.69874
# Poissons Ratio (y) = 0.07910 0.33163
# Poissons Ratio (z) = 0.28410 0.30871
#
# Static dielectric constant tensor:
#      x y z
#    x 1.885840 0.000000 0.000500 
#    y 0.000000 1.625220 0.000000 
#    z 0.000500 0.000000 1.679050 
# 
# From -- ./inp_files/226905.got.cif
#   From: 2010.05.17/outbox.ucp.g08.bks.cvg/sg15_114_cif.got.tgz:226905.got - 2010.06.11 12:40:34.
