data_PCOD9310958
_publ_section_title
;
Structure prediction by ZEFSAII (Michael W. Deem and Ramdas Pophale) SiO2 
 PCOD9310958
Probable space group: P 2 2 21
;
_chemical_formula_sum "Si O2"
_cell_formula_units_Z 16
_cell_length_a 12.015856
_cell_length_b 5.030120
_cell_length_c 10.615575
_cell_angle_alpha 90.000000
_cell_angle_beta 90.000000
_cell_angle_gamma 90.000000
_cell_volume 641.618066
_symmetry_space_group_name_H-M "P 2 2 21"
_symmetry_group_IT_number 17
_symmetry_cell_setting 'orthorhombic'
loop_
_space_group_symop_operation_xyz
x,y,z
-x,-y,1/2+z
x,-y,-z
-x,y,1/2-z
loop_
_atom_site_type_symbol
_atom_site_label
_atom_site_fract_x
_atom_site_fract_y
_atom_site_fract_z
Si Si1 0.632109 0.649294 0.748866
Si Si2 0.724458 0.500000 0.000000
Si Si3 0.093314 0.500000 0.000000
Si Si4 0.920828 0.185354 0.881119
Si Si5 0.229469 0.135279 0.846537
O O1 0.500000 0.621047 0.750000
O O2 0.659353 0.665549 0.896932
O O3 0.699566 0.394977 0.697179
O O4 0.682387 0.900612 0.674909
O O5 0.804432 0.300185 0.928367
O O6 0.175843 0.746504 0.024071
O O7 0.005553 0.561455 0.112384
O O8 0.878901 0.070271 0.745990
O O9 0.956729 0.000000 0.000000
#
# Coordination Sequence:
#
# PCOD9310958 Si02
#       5
#     4   2   2   4   4
#     4  11  24  44  72 102 140 192 252 308 380 432
#     4   9  20  41  68 100 134 187 252 305 352 460
#     4  11  26  41  66 108 150 187 232 309 384 438
#     4  10  20  42  70  98 138 196 245 290 366 455
#     4  11  25  45  67 106 146 188 247 310 367 456
#
# _framework density 24.936957
#
# number of rings (size 3 to 8) (size 9 to 14) (size 15 to 20)
#    0.000    1.500    2.500    1.500    3.500    1.000 
#    0.000    5.000    0.000    0.000    0.000    0.000 
#    0.000    0.000    0.000    0.000    0.000    0.000 
#
# Total GULP energy -89070.710009 kJ/mol
# GULP energy per Si atom -5566.919376 kJ/mol
# Density = 2.488020 g / cm^3
# Si number density = 24.936957 Si / 1000 Ang^3
#
#
#
# Elastic Constant Matrix: (Units=GPa)
#
#
# Indices 1 2 3 4 5 6 
#
# 1 140.1163 41.1609 21.6707 0.0000 0.0000 0.0000
# 2 41.1609 144.8528 6.5259 0.0000 0.0000 0.0000
# 3 21.6707 6.5259 81.7129 0.0000 0.0000 0.0000
# 4 0.0000 0.0000 0.0000 28.3910 0.0000 0.0000
# 5 0.0000 0.0000 0.0000 0.0000 -7.3042 0.0000
# 6 0.0000 0.0000 0.0000 0.0000 0.0000 32.7568
#
#
#
# Elastic Compliance Matrix: (Units=1/GPa)
#
#
# Indices 1 2 3 4 5 6 
#
# 1 0.008091 -0.002210 -0.001969 0.000000 0.000000 0.000000
# 2 -0.002210 0.007532 -0.000015 0.000000 0.000000 0.000000
# 3 -0.001969 -0.000015 0.012761 0.000000 0.000000 0.000000
# 4 0.000000 0.000000 0.000000 0.035222 0.000000 0.000000
# 5 0.000000 0.000000 0.000000 0.000000 -0.136907 0.000000
# 6 0.000000 0.000000 0.000000 0.000000 0.000000 0.030528
#
#
# Mechanical properties :
#
#
# Convention : Reuss Voigt Hill
#
# Bulk Modulus (GPa) = 50.01307 56.15520 53.08413
# Shear Modulus (GPa) = -180.39488 30.59035 -74.90226
#
# Velocity S-wave (km/s) = -8.51454 3.50624 -5.48652
# Velocity P-wave (km/s) = 8.75008 6.24174 4.33616
#
# Compressibility (1/GPa) = 0.01999477
#
# Stress axis : x y z
#
# Youngs Moduli (GPa) = 123.59711 132.76097 78.36109
#
# Poissons Ratio (x) = 0.29345 0.15431
# Poissons Ratio (y) = 0.27319 0.00120
# Poissons Ratio (z) = 0.24339 0.00204
#
# Static dielectric constant tensor:
#      x y z
#    x 1.937030 0.000000 0.000000 
#    y 0.000000 2.036450 0.000000 
#    z 0.000000 0.000000 2.381230 
# 
# From -- ./inp_files/5731.got.cif
#   From: 2010.05.17/outbox.cif.g08.bks.cpg/sg17_3_cif.got.tgz:5731.got - 2010.06.03 22:34:06.
