data_PCOD9310765
_publ_section_title
;
Structure prediction by ZEFSAII (Michael W. Deem and Ramdas Pophale) SiO2 
 PCOD9310765
Probable space group: P 2 2 21
;
_chemical_formula_sum "Si O2"
_cell_formula_units_Z 18
_cell_length_a 20.129102
_cell_length_b 8.335893
_cell_length_c 5.002725
_cell_angle_alpha 90.000000
_cell_angle_beta 90.000000
_cell_angle_gamma 90.000000
_cell_volume 839.427441
_symmetry_space_group_name_H-M "P 2 2 21"
_symmetry_group_IT_number 17
_symmetry_cell_setting 'orthorhombic'
loop_
_space_group_symop_operation_xyz
x,y,z
-x,-y,1/2+z
x,-y,-z
-x,y,1/2-z
loop_
_atom_site_type_symbol
_atom_site_label
_atom_site_fract_x
_atom_site_fract_y
_atom_site_fract_z
Si Si1 0.637034 0.000000 0.000000
Si Si2 0.119207 0.500000 0.500000
Si Si3 0.842841 0.187927 0.802660
Si Si4 0.270305 0.000000 0.000000
Si Si5 0.549105 0.320458 0.997009
Si Si6 0.073841 0.797026 0.798448
O O1 0.682016 0.953121 0.744189
O O2 0.594365 0.837488 0.042384
O O3 0.164278 0.621049 0.334922
O O4 0.076272 0.611570 0.697820
O O5 0.905043 0.173137 0.600786
O O6 0.779482 0.120941 0.652345
O O7 0.866921 0.139666 0.103003
O O8 0.500000 0.299809 0.250000
O O9 0.582323 0.500000 0.000000
O O10 0.500000 0.327800 0.750000
O O11 0.000000 0.858171 0.750000
#
# Coordination Sequence:
#
# PCOD9310765 Si02
#       6
#     2   2   4   2   4   4
#     4  12  24  43  70  99 132 192 230 264 322 386
#     4   8  22  32  62  88 116 150 204 274 364 396
#     4  10  22  38  57  83 120 164 207 269 344 390
#     4  12  26  45  60  83 134 186 232 268 310 404
#     4  10  21  41  71 108 145 171 214 277 334 385
#     4  10  20  34  61  91 114 144 208 280 355 424
#
# _framework density 21.443186000000001
#
# number of rings (size 3 to 8) (size 9 to 14) (size 15 to 20)
#    1.333    0.444    0.000    4.667    3.111    0.000 
#    2.000    2.222    0.000    0.000    0.000    0.000 
#    0.000    0.000    0.000    0.000    0.000    0.000 
#
# Total GULP energy -100227.502285 kJ/mol
# GULP energy per Si atom -5568.194571 kJ/mol
# Density = 2.139438 g / cm^3
# Si number density = 21.443186 Si / 1000 Ang^3
#
#
#
# Elastic Constant Matrix: (Units=GPa)
#
#
# Indices 1 2 3 4 5 6 
#
# 1 81.9904 50.1673 25.4113 0.0000 0.0000 0.0000
# 2 50.1673 125.0949 4.5080 0.0000 0.0000 0.0000
# 3 25.4113 4.5080 129.8902 0.0000 0.0000 0.0000
# 4 0.0000 0.0000 0.0000 37.9016 0.0000 0.0000
# 5 0.0000 0.0000 0.0000 0.0000 31.2429 0.0000
# 6 0.0000 0.0000 0.0000 0.0000 0.0000 -882.1639
#
#
#
# Elastic Compliance Matrix: (Units=1/GPa)
#
#
# Indices 1 2 3 4 5 6 
#
# 1 0.017368 -0.006851 -0.003160 0.000000 0.000000 0.000000
# 2 -0.006851 0.010707 0.000969 0.000000 0.000000 0.000000
# 3 -0.003160 0.000969 0.008283 0.000000 0.000000 0.000000
# 4 0.000000 0.000000 0.000000 0.026384 0.000000 0.000000
# 5 0.000000 0.000000 0.000000 0.000000 0.032007 0.000000
# 6 0.000000 0.000000 0.000000 0.000000 0.000000 -0.001134
#
#
# Mechanical properties :
#
#
# Convention : Reuss Voigt Hill
#
# Bulk Modulus (GPa) = 54.72571 55.23875 54.98223
# Shear Modulus (GPa) = 42.44771 -145.47795 -51.51512
#
# Velocity S-wave (km/s) = 4.45403 -8.24565 -4.90675
# Velocity P-wave (km/s) = 7.21303 8.05220 2.53081
#
# Compressibility (1/GPa) = 0.01827295
#
# Stress axis : x y z
#
# Youngs Moduli (GPa) = 57.57706 93.40020 120.72331
#
# Poissons Ratio (x) = 0.63991 0.38149
# Poissons Ratio (y) = 0.39448 -0.11695
# Poissons Ratio (z) = 0.18195 -0.09048
#
# Static dielectric constant tensor:
#      x y z
#    x 1.756850 0.000000 0.000000 
#    y 0.000000 1.943950 0.000000 
#    z 0.000000 0.000000 2.466000 
# 
# From -- ./inp_files/2509.got.cif
#   From: 2010.05.17/outbox.cif.g08.bks.cpg/sg17_2_cif.got.tgz:2509.got - 2010.06.03 22:34:06.
