data_PCOD9310533
_publ_section_title
;
Structure prediction by ZEFSAII (Michael W. Deem and Ramdas Pophale) SiO2 
 PCOD9310533
Probable space group: P 2 2 21
;
_chemical_formula_sum "Si O2"
_cell_formula_units_Z 22
_cell_length_a 14.284703
_cell_length_b 12.762926
_cell_length_c 5.975485
_cell_angle_alpha 90.000000
_cell_angle_beta 90.000000
_cell_angle_gamma 90.000000
_cell_volume 1089.418201
_symmetry_space_group_name_H-M "P 2 2 21"
_symmetry_group_IT_number 17
_symmetry_cell_setting 'orthorhombic'
loop_
_space_group_symop_operation_xyz
x,y,z
-x,-y,1/2+z
x,-y,-z
-x,y,1/2-z
loop_
_atom_site_type_symbol
_atom_site_label
_atom_site_fract_x
_atom_site_fract_y
_atom_site_fract_z
Si Si1 0.105865 0.709361 0.225692
Si Si2 0.398892 0.084721 0.329678
Si Si3 0.404989 0.709683 0.366356
Si Si4 0.157563 0.500000 0.000000
Si Si5 0.760267 0.370700 0.117861
Si Si6 0.729846 0.804671 0.508111
O O1 0.103275 0.605928 0.064686
O O2 0.157246 0.666083 0.449716
O O3 0.171891 0.800753 0.123941
O O4 0.000000 0.745022 0.250000
O O5 0.500000 0.044544 0.250000
O O6 0.420701 0.194146 0.459770
O O7 0.358708 0.000000 0.500000
O O8 0.324853 0.102926 0.132139
O O9 0.500000 0.672111 0.250000
O O10 0.338367 0.626162 0.487905
O O11 0.342768 0.757410 0.168207
O O12 0.215300 0.468826 0.223562
O O13 0.747318 0.277051 0.293256
#
# Coordination Sequence:
#
# PCOD9310533 Si02
#       6
#     4   4   4   2   4   4
#     4  10  21  35  58  84 117 148 195 247 305 361
#     4  11  21  31  53  88 126 152 189 242 299 354
#     4  10  18  34  55  80 113 158 197 232 286 352
#     4  10  20  32  52  84 114 146 186 260 310 342
#     4   9  20  34  52  83 111 147 192 239 297 351
#     4   9  20  36  51  82 118 153 188 233 293 358
#
# _framework density 20.194265000000001
#
# number of rings (size 3 to 8) (size 9 to 14) (size 15 to 20)
#    0.000    2.182    1.818    1.091    2.545    2.182 
#    0.000    0.000    0.000    0.000  170.182    0.000 
#  196.364    0.000    0.000    0.000    0.000    0.000 
#
# Total GULP energy -122622.806819 kJ/mol
# GULP energy per Si atom -5573.763946 kJ/mol
# Density = 2.014830 g / cm^3
# Si number density = 20.194265 Si / 1000 Ang^3
#
#
#
# Elastic Constant Matrix: (Units=GPa)
#
#
# Indices 1 2 3 4 5 6 
#
# 1 171.2795 19.0971 58.5423 0.0000 0.0000 0.0000
# 2 19.0971 43.0717 21.0155 0.0000 0.0000 0.0000
# 3 58.5423 21.0155 107.7450 0.0000 0.0000 0.0000
# 4 0.0000 0.0000 0.0000 48.6925 0.0000 0.0000
# 5 0.0000 0.0000 0.0000 0.0000 21.5734 0.0000
# 6 0.0000 0.0000 0.0000 0.0000 0.0000 -13.1329
#
#
#
# Elastic Compliance Matrix: (Units=1/GPa)
#
#
# Indices 1 2 3 4 5 6 
#
# 1 0.007249 -0.001428 -0.003660 0.000000 0.000000 0.000000
# 2 -0.001428 0.025940 -0.004284 0.000000 0.000000 0.000000
# 3 -0.003660 -0.004284 0.012105 0.000000 0.000000 0.000000
# 4 0.000000 0.000000 0.000000 0.020537 0.000000 0.000000
# 5 0.000000 0.000000 0.000000 0.000000 0.046353 0.000000
# 6 0.000000 0.000000 0.000000 0.000000 0.000000 -0.076145
#
#
# Mechanical properties :
#
#
# Convention : Reuss Voigt Hill
#
# Bulk Modulus (GPa) = 37.66357 57.71177 47.68767
# Shear Modulus (GPa) = 78.57469 26.32269 52.44869
#
# Velocity S-wave (km/s) = 6.24451 3.61428 5.10181
# Velocity P-wave (km/s) = 8.40732 6.78658 7.64005
#
# Compressibility (1/GPa) = 0.02655086
#
# Stress axis : x y z
#
# Youngs Moduli (GPa) = 137.95814 38.54989 82.60865
#
# Poissons Ratio (x) = 0.05505 0.30234
# Poissons Ratio (y) = 0.19702 0.35387
# Poissons Ratio (z) = 0.50491 0.16513
#
# Static dielectric constant tensor:
#      x y z
#    x 1.712540 0.000000 0.000000 
#    y 0.000000 1.744780 0.000000 
#    z 0.000000 0.000000 1.781560 
# 
# From -- ./inp_files/2151.got.cif
#   From: 2010.05.17/outbox.cif.g08.bks.cpg/sg17_2_cif.got.tgz:2151.got - 2010.06.03 22:34:06.
