data_PCOD9310425
_publ_section_title
;
Structure prediction by ZEFSAII (Michael W. Deem and Ramdas Pophale) SiO2 
 PCOD9310425
Probable space group: P 2 2 2
;
_chemical_formula_sum "Si O2"
_cell_formula_units_Z 32
_cell_length_a 18.190292
_cell_length_b 9.354435
_cell_length_c 12.865930
_cell_angle_alpha 90.000000
_cell_angle_beta 90.000000
_cell_angle_gamma 90.000000
_cell_volume 2189.265416
_symmetry_space_group_name_H-M "P 2 2 2"
_symmetry_group_IT_number 16
_symmetry_cell_setting 'orthorhombic'
loop_
_space_group_symop_operation_xyz
x,y,z
-x,-y,z
x,-y,-z
-x,y,-z
loop_
_atom_site_type_symbol
_atom_site_label
_atom_site_fract_x
_atom_site_fract_y
_atom_site_fract_z
Si Si1 0.645329 0.835430 0.873593
Si Si2 0.910693 0.164063 0.500000
Si Si3 0.645329 0.835430 0.126407
Si Si4 0.500000 0.334770 0.873208
Si Si5 0.793330 0.670564 0.121521
Si Si6 0.914178 0.670718 0.707978
Si Si7 0.085821 0.329281 0.292022
Si Si8 0.793330 0.670564 0.878479
O O1 0.573404 0.748148 0.839504
O O2 0.720745 0.756234 0.845079
O O3 0.643486 1.000000 0.839145
O O4 0.643589 0.836041 1.000000
O O5 0.889182 0.246427 0.395223
O O6 0.889182 0.246426 0.604777
O O7 0.000000 0.164631 0.500000
O O8 0.885943 0.000000 0.500000
O O9 0.573404 0.748148 0.160496
O O10 0.720745 0.756234 0.154921
O O11 0.500000 0.500000 0.840477
O O12 0.500000 0.334458 0.000000
O O13 0.862091 0.704696 0.194921
O O14 0.779060 0.500000 0.128561
O O15 0.808423 0.702576 1.000000
O O16 0.910288 0.500000 0.689240
O O17 0.862091 0.704696 0.805078
O O18 1.000000 0.705419 0.728616
#
# Coordination Sequence:
#
# PCOD9310425 Si02
#       8
#     4   4   4   4   4   4   4   4
#     4   9  16  25  37  54  78 108 140 172 206 245
#     4   9  17  29  45  63  81 102 133 176 221 259
#     4   9  16  25  37  54  78 108 140 172 206 245
#     4   9  15  23  37  55  75 102 137 174 209 245
#     4   9  17  28  41  59  85 115 144 173 207 249
#     4   9  17  29  45  63  83 109 141 177 215 253
#     4   9  17  29  45  63  83 109 141 177 215 253
#     4   9  17  28  41  59  85 115 144 173 207 249
#
# _framework density 14.616775000000001
#
# number of rings (size 3 to 8) (size 9 to 14) (size 15 to 20)
#    0.000    3.000    0.000    1.500    0.000    7.500 
#    0.000    2.500    0.000    0.000    0.000    7.000 
#    0.000    1.000    0.000   10.500    0.000    8.000 
#
# Total GULP energy -178170.893382 kJ/mol
# GULP energy per Si atom -5567.840418 kJ/mol
# Density = 1.458351 g / cm^3
# Si number density = 14.616775 Si / 1000 Ang^3
#
#
#
# Elastic Constant Matrix: (Units=GPa)
#
#
# Indices 1 2 3 4 5 6 
#
# 1 113.7448 70.3772 56.2537 0.0000 0.0000 0.0000
# 2 70.3772 83.3527 47.2060 0.0000 0.0000 0.0000
# 3 56.2537 47.2060 62.3181 0.0000 0.0000 0.0000
# 4 0.0000 0.0000 0.0000 11.1473 0.0000 0.0000
# 5 0.0000 0.0000 0.0000 0.0000 -0.2230 0.0000
# 6 0.0000 0.0000 0.0000 0.0000 0.0000 17.0622
#
#
#
# Elastic Compliance Matrix: (Units=1/GPa)
#
#
# Indices 1 2 3 4 5 6 
#
# 1 0.021382 -0.012474 -0.009853 0.000000 0.000000 0.000000
# 2 -0.012474 0.028288 -0.010168 0.000000 0.000000 0.000000
# 3 -0.009853 -0.010168 0.032643 0.000000 0.000000 0.000000
# 4 0.000000 0.000000 0.000000 0.089707 0.000000 0.000000
# 5 0.000000 0.000000 0.000000 0.000000 -4.483624 0.000000
# 6 0.000000 0.000000 0.000000 0.000000 0.000000 0.058609
#
#
# Mechanical properties :
#
#
# Convention : Reuss Voigt Hill
#
# Bulk Modulus (GPa) = 57.72353 67.45437 62.58895
# Shear Modulus (GPa) = -1.19553 11.30254 5.05350
#
# Velocity S-wave (km/s) = -0.90537 2.78377 1.86141
# Velocity P-wave (km/s) = 6.20356 7.52205 6.89440
#
# Compressibility (1/GPa) = 0.01732396
#
# Stress axis : x y z
#
# Youngs Moduli (GPa) = 46.76806 35.35095 30.63460
#
# Poissons Ratio (x) = 0.44096 0.30183
# Poissons Ratio (y) = 0.58337 0.31150
# Poissons Ratio (z) = 0.46078 0.35945
#
# Static dielectric constant tensor:
#      x y z
#    x 1.472880 0.000000 0.000000 
#    y 0.000000 1.491970 0.000000 
#    z 0.000000 0.000000 1.451860 
# 
# From -- ./inp_files/4834.got.cif
#   From: 2010.05.17/outbox.cif.g08.bks.cpg/sg16_3_cif.got.tgz:4834.got - 2010.06.03 22:28:35.
