data_PCOD9310919
_publ_section_title
;
Structure prediction by ZEFSAII (Michael W. Deem and Ramdas Pophale) SiO2 
 PCOD9310919
Probable space group: P 2 2 21
;
_chemical_formula_sum "Si O2"
_cell_formula_units_Z 20
_cell_length_a 5.326138
_cell_length_b 10.019618
_cell_length_c 16.349637
_cell_angle_alpha 90.000000
_cell_angle_beta 90.000000
_cell_angle_gamma 90.000000
_cell_volume 872.512573
_symmetry_space_group_name_H-M "P 2 2 21"
_symmetry_group_IT_number 17
_symmetry_cell_setting 'orthorhombic'
loop_
_space_group_symop_operation_xyz
x,y,z
-x,-y,1/2+z
x,-y,-z
-x,y,1/2-z
loop_
_atom_site_type_symbol
_atom_site_label
_atom_site_fract_x
_atom_site_fract_y
_atom_site_fract_z
Si Si1 0.357821 0.863342 0.137417
Si Si2 0.000000 0.263047 0.750000
Si Si3 0.618990 0.899558 0.922482
Si Si4 0.118488 0.778102 0.977695
Si Si5 0.841597 0.500000 0.000000
Si Si6 0.373210 0.589249 0.340656
O O1 0.216347 0.831333 0.220075
O O2 0.505150 0.724686 0.123802
O O3 0.522313 0.994956 0.143495
O O4 0.157495 0.863142 0.062177
O O5 0.906407 0.362851 0.818762
O O6 0.391326 0.794970 0.935939
O O7 0.894485 0.837698 0.921664
O O8 0.620141 0.000000 0.000000
O O9 0.019705 0.630465 0.998210
O O10 0.666400 0.504881 0.918406
O O11 0.500000 0.555930 0.250000
#
# Coordination Sequence:
#
# PCOD9310919 Si02
#       6
#     4   2   4   4   2   4
#     4  10  21  38  67  94 134 168 224 291 355 394
#     4  10  20  40  62 100 128 170 240 290 350 398
#     4  10  21  36  60  93 130 156 211 280 336 395
#     4  11  23  36  62 100 126 175 223 269 326 416
#     4  12  22  42  70  92 140 188 238 266 352 408
#     4  10  23  41  65 103 132 177 236 298 341 414
#
# _framework density 22.922307
#
# number of rings (size 3 to 8) (size 9 to 14) (size 15 to 20)
#    0.000    1.600    2.000    4.200    2.800    3.200 
#    0.000    0.000    4.400    0.000    0.000    0.000 
#    0.000    0.000    0.000    0.000    0.000    0.000 
#
# Total GULP energy -111451.576271 kJ/mol
# GULP energy per Si atom -5572.578814 kJ/mol
# Density = 2.287013 g / cm^3
# Si number density = 22.922307 Si / 1000 Ang^3
#
#
#
# Elastic Constant Matrix: (Units=GPa)
#
#
# Indices 1 2 3 4 5 6 
#
# 1 113.7926 39.6969 27.7947 0.0000 0.0000 0.0000
# 2 39.6969 80.7265 27.1115 0.0000 0.0000 0.0000
# 3 27.7947 27.1115 101.3440 0.0000 0.0000 0.0000
# 4 0.0000 0.0000 0.0000 34.8520 0.0000 0.0000
# 5 0.0000 0.0000 0.0000 0.0000 -3.5491 0.0000
# 6 0.0000 0.0000 0.0000 0.0000 0.0000 36.1772
#
#
#
# Elastic Compliance Matrix: (Units=1/GPa)
#
#
# Indices 1 2 3 4 5 6 
#
# 1 0.010869 -0.004772 -0.001704 0.000000 0.000000 0.000000
# 2 -0.004772 0.015706 -0.002893 0.000000 0.000000 0.000000
# 3 -0.001704 -0.002893 0.011109 0.000000 0.000000 0.000000
# 4 0.000000 0.000000 0.000000 0.028693 0.000000 0.000000
# 5 0.000000 0.000000 0.000000 0.000000 -0.281765 0.000000
# 6 0.000000 0.000000 0.000000 0.000000 0.000000 0.027642
#
#
# Mechanical properties :
#
#
# Convention : Reuss Voigt Hill
#
# Bulk Modulus (GPa) = 52.78515 53.89661 53.34088
# Shear Modulus (GPa) = -30.73270 26.91336 -1.90967
#
# Velocity S-wave (km/s) = -3.66557 3.43025 -0.91374
# Velocity P-wave (km/s) = 2.27213 6.26519 4.71249
#
# Compressibility (1/GPa) = 0.01894472
#
# Stress axis : x y z
#
# Youngs Moduli (GPa) = 92.00415 63.67056 90.01998
#
# Poissons Ratio (x) = 0.30387 0.15342
# Poissons Ratio (y) = 0.43909 0.26040
# Poissons Ratio (z) = 0.15680 0.18418
#
# Static dielectric constant tensor:
#      x y z
#    x 1.960810 0.000000 0.000000 
#    y 0.000000 1.990080 0.000000 
#    z 0.000000 0.000000 2.056800 
# 
# From -- ./inp_files/8967.got.cif
#   From: 2010.05.17/outbox.cif.g08.bks.cpg/sg17_5_cif.got.tgz:8967.got - 2010.06.03 22:34:06.
