data_PCOD9310811
_publ_section_title
;
Structure prediction by ZEFSAII (Michael W. Deem and Ramdas Pophale) SiO2 
 PCOD9310811
Probable space group: P 2 2 21
;
_chemical_formula_sum "Si O2"
_cell_formula_units_Z 32
_cell_length_a 14.367507
_cell_length_b 9.546174
_cell_length_c 11.134256
_cell_angle_alpha 90.000000
_cell_angle_beta 90.000000
_cell_angle_gamma 90.000000
_cell_volume 1527.115784
_symmetry_space_group_name_H-M "P 2 2 21"
_symmetry_group_IT_number 17
_symmetry_cell_setting 'orthorhombic'
loop_
_space_group_symop_operation_xyz
x,y,z
-x,-y,1/2+z
x,-y,-z
-x,y,1/2-z
loop_
_atom_site_type_symbol
_atom_site_label
_atom_site_fract_x
_atom_site_fract_y
_atom_site_fract_z
Si Si1 0.288955 0.227617 0.810083
Si Si2 0.547016 0.626447 0.916940
Si Si3 0.646390 0.747099 0.574719
Si Si4 0.013948 0.100674 0.111189
Si Si5 0.281097 0.460293 0.259226
Si Si6 0.169587 0.761632 0.595340
Si Si7 0.328369 0.150801 0.557533
Si Si8 0.788549 0.943634 0.677260
O O1 0.257622 0.380036 0.766001
O O2 0.344763 0.159701 0.698967
O O3 0.209836 0.110740 0.832257
O O4 0.346393 0.250594 0.931629
O O5 0.457268 0.715751 0.881026
O O6 0.616930 0.555790 0.821305
O O7 0.511069 0.500000 0.000000
O O8 0.610669 0.732615 0.991736
O O9 0.710057 0.627098 0.636066
O O10 0.691825 0.889322 0.623619
O O11 0.124338 0.124936 0.108173
O O12 0.000000 0.046835 0.250000
O O13 0.941490 0.227837 0.096678
O O14 0.989995 0.000000 0.000000
O O15 0.210058 0.380485 0.347859
O O16 0.221913 0.802191 0.473087
O O17 0.203301 0.884076 0.688045
O O18 0.346799 0.000000 0.500000
#
# Coordination Sequence:
#
# PCOD9310811 Si02
#       8
#     4   4   4   4   4   4   4   4
#     4  12  22  38  65  94 131 166 222 271 336 395
#     4  11  22  41  63  89 124 169 223 272 327 393
#     4  11  24  40  61  90 129 178 217 263 337 398
#     4  10  20  36  64  98 127 167 218 266 332 404
#     4  10  22  41  63  94 126 172 219 271 322 406
#     4   9  20  38  65  92 123 168 209 261 331 388
#     4  11  22  38  61  94 128 161 213 274 324 387
#     4  10  22  41  63  95 128 168 216 272 326 399
#
# _framework density 20.954533000000001
#
# number of rings (size 3 to 8) (size 9 to 14) (size 15 to 20)
#    0.000    1.500    2.500    3.000    1.750    1.500 
#    0.000    0.000    0.000   11.250   16.250    0.000 
#    0.000    0.000    0.000    0.000    0.000    0.000 
#
# Total GULP energy -178551.744445 kJ/mol
# GULP energy per Si atom -5579.742014 kJ/mol
# Density = 2.090684 g / cm^3
# Si number density = 20.954533 Si / 1000 Ang^3
#
#
#
# Elastic Constant Matrix: (Units=GPa)
#
#
# Indices 1 2 3 4 5 6 
#
# 1 107.6450 37.1255 6.5026 0.0000 0.0000 0.0000
# 2 37.1255 108.5667 31.3948 0.0000 0.0000 0.0000
# 3 6.5026 31.3948 95.7631 0.0000 0.0000 0.0000
# 4 0.0000 0.0000 0.0000 21.2458 0.0000 0.0000
# 5 0.0000 0.0000 0.0000 0.0000 16.2161 0.0000
# 6 0.0000 0.0000 0.0000 0.0000 0.0000 13.8536
#
#
#
# Elastic Compliance Matrix: (Units=1/GPa)
#
#
# Indices 1 2 3 4 5 6 
#
# 1 0.010555 -0.003758 0.000515 0.000000 0.000000 0.000000
# 2 -0.003758 0.011514 -0.003519 0.000000 0.000000 0.000000
# 3 0.000515 -0.003519 0.011561 0.000000 0.000000 0.000000
# 4 0.000000 0.000000 0.000000 0.047068 0.000000 0.000000
# 5 0.000000 0.000000 0.000000 0.000000 0.061667 0.000000
# 6 0.000000 0.000000 0.000000 0.000000 0.000000 0.072183
#
#
# Mechanical properties :
#
#
# Convention : Reuss Voigt Hill
#
# Bulk Modulus (GPa) = 49.73854 51.33564 50.53709
# Shear Modulus (GPa) = 21.29697 26.05989 23.67843
#
# Velocity S-wave (km/s) = 3.19147 3.53035 3.36518
# Velocity P-wave (km/s) = 6.11298 6.41636 6.26651
#
# Compressibility (1/GPa) = 0.02010513
#
# Stress axis : x y z
#
# Youngs Moduli (GPa) = 94.74284 86.85154 86.49571
#
# Poissons Ratio (x) = 0.32642 -0.04458
# Poissons Ratio (y) = 0.35608 0.30442
# Poissons Ratio (z) = -0.04883 0.30567
#
# Static dielectric constant tensor:
#      x y z
#    x 1.768750 0.000000 0.000000 
#    y 0.000000 1.746000 0.000000 
#    z 0.000000 0.000000 1.827720 
# 
# From -- ./inp_files/7317.got.cif
#   From: 2010.05.17/outbox.cif.g08.bks.cpg/sg17_4_cif.got.tgz:7317.got - 2010.06.03 22:34:06.
