data_PCOD9310762
_publ_section_title
;
Structure prediction by ZEFSAII (Michael W. Deem and Ramdas Pophale) SiO2 
 PCOD9310762
Probable space group: P 2 2 21
;
_chemical_formula_sum "Si O2"
_cell_formula_units_Z 22
_cell_length_a 11.960910
_cell_length_b 5.859033
_cell_length_c 12.929521
_cell_angle_alpha 90.000000
_cell_angle_beta 90.000000
_cell_angle_gamma 90.000000
_cell_volume 906.092640
_symmetry_space_group_name_H-M "P 2 2 21"
_symmetry_group_IT_number 17
_symmetry_cell_setting 'orthorhombic'
loop_
_space_group_symop_operation_xyz
x,y,z
-x,-y,1/2+z
x,-y,-z
-x,y,1/2-z
loop_
_atom_site_type_symbol
_atom_site_label
_atom_site_fract_x
_atom_site_fract_y
_atom_site_fract_z
Si Si1 0.151212 0.562847 0.616557
Si Si2 0.530787 0.626745 0.371338
Si Si3 0.531543 0.871820 0.628937
Si Si4 0.000000 0.223274 0.750000
Si Si5 0.740267 0.385138 0.330440
Si Si6 0.060330 0.864508 0.897583
O O1 0.188894 0.500000 0.500000
O O2 0.243122 0.604379 0.706082
O O3 0.071845 0.368550 0.668423
O O4 0.067329 0.777467 0.605750
O O5 0.500000 0.628203 0.250000
O O6 0.501424 0.877392 0.411743
O O7 0.665777 0.593578 0.371759
O O8 0.488990 0.377342 0.409755
O O9 0.500000 0.876432 0.750000
O O10 0.665184 0.828917 0.632525
O O11 0.918717 0.049470 0.691189
O O12 0.861445 0.352529 0.378347
O O13 0.083174 0.000000 0.000000
#
# Coordination Sequence:
#
# PCOD9310762 Si02
#       6
#     4   4   4   2   4   4
#     4  12  24  38  57  87 116 160 205 248 302 353
#     4   8  16  31  55  90 116 151 194 240 306 363
#     4   8  16  31  55  90 116 151 194 240 306 363
#     4  12  22  40  60  72 126 156 198 260 302 350
#     4  10  20  34  58  88 114 158 204 244 298 358
#     4  12  24  38  57  87 116 160 205 248 302 353
#
# _framework density 24.280078
#
# number of rings (size 3 to 8) (size 9 to 14) (size 15 to 20)
#    1.091    0.727    5.455    0.000    2.545    0.000 
#    0.000    0.000    0.000    0.000   18.909    0.000 
#    0.000    0.000    0.000    0.000    0.000    0.000 
#
# Total GULP energy -122634.151066 kJ/mol
# GULP energy per Si atom -5574.279594 kJ/mol
# Density = 2.422482 g / cm^3
# Si number density = 24.280078 Si / 1000 Ang^3
#
#
#
# Elastic Constant Matrix: (Units=GPa)
#
#
# Indices 1 2 3 4 5 6 
#
# 1 34.8635 -1.8489 -8.2944 0.0000 0.0000 0.0000
# 2 -1.8489 197.6997 63.9973 0.0000 0.0000 0.0000
# 3 -8.2944 63.9973 113.0820 0.0000 0.0000 0.0000
# 4 0.0000 0.0000 0.0000 58.4510 0.0000 0.0000
# 5 0.0000 0.0000 0.0000 0.0000 -83.9937 0.0000
# 6 0.0000 0.0000 0.0000 0.0000 0.0000 25.2174
#
#
#
# Elastic Compliance Matrix: (Units=1/GPa)
#
#
# Indices 1 2 3 4 5 6 
#
# 1 0.029236 -0.000515 0.002436 0.000000 0.000000 0.000000
# 2 -0.000515 0.006202 -0.003548 0.000000 0.000000 0.000000
# 3 0.002436 -0.003548 0.011030 0.000000 0.000000 0.000000
# 4 0.000000 0.000000 0.000000 0.017108 0.000000 0.000000
# 5 0.000000 0.000000 0.000000 0.000000 -0.011906 0.000000
# 6 0.000000 0.000000 0.000000 0.000000 0.000000 0.039655
#
#
# Mechanical properties :
#
#
# Convention : Reuss Voigt Hill
#
# Bulk Modulus (GPa) = 23.14105 50.37258 36.75682
# Shear Modulus (GPa) = 45.87886 19.38769 32.63327
#
# Velocity S-wave (km/s) = 4.35163 2.82884 3.67009
# Velocity P-wave (km/s) = 5.89920 5.60904 5.75595
#
# Compressibility (1/GPa) = 0.04321324
#
# Stress axis : x y z
#
# Youngs Moduli (GPa) = 34.20493 161.24494 90.66577
#
# Poissons Ratio (x) = 0.08306 -0.22085
# Poissons Ratio (y) = 0.01762 0.32164
# Poissons Ratio (z) = -0.08332 0.57203
#
# Static dielectric constant tensor:
#      x y z
#    x 1.936870 0.000000 0.000000 
#    y 0.000000 1.951990 0.000000 
#    z 0.000000 0.000000 1.981050 
# 
# From -- ./inp_files/8591.got.cif
#   From: 2010.05.17/outbox.cif.g08.bks.cpg/sg17_5_cif.got.tgz:8591.got - 2010.06.03 22:34:06.
