data_PCOD9310277
_publ_section_title
;
Structure prediction by ZEFSAII (Michael W. Deem and Ramdas Pophale) SiO2 
 PCOD9310277
Probable space group: P 2 2 2
;
_chemical_formula_sum "Si O2"
_cell_formula_units_Z 32
_cell_length_a 8.444804
_cell_length_b 12.074971
_cell_length_c 13.863497
_cell_angle_alpha 90.000000
_cell_angle_beta 90.000000
_cell_angle_gamma 90.000000
_cell_volume 1413.671372
_symmetry_space_group_name_H-M "P 2 2 2"
_symmetry_group_IT_number 16
_symmetry_cell_setting 'orthorhombic'
loop_
_space_group_symop_operation_xyz
x,y,z
-x,-y,z
x,-y,-z
-x,y,-z
loop_
_atom_site_type_symbol
_atom_site_label
_atom_site_fract_x
_atom_site_fract_y
_atom_site_fract_z
Si Si1 0.409777 0.178240 0.301925
Si Si2 0.624390 0.762966 0.091724
Si Si3 0.182069 0.454801 0.100543
Si Si4 0.680654 0.463104 0.302440
Si Si5 0.195705 0.660491 0.590517
Si Si6 0.274620 0.941343 0.296772
Si Si7 0.864597 0.735291 0.628084
Si Si8 0.178555 0.012431 0.112232
O O1 0.446099 0.240569 0.200291
O O2 0.344650 0.271082 0.371657
O O3 0.565155 0.113742 0.334371
O O4 0.281729 0.074957 0.303593
O O5 0.767827 0.673643 0.089835
O O6 0.712775 0.879349 0.105097
O O7 0.500000 0.757028 0.000000
O O8 0.264136 0.497720 0.197078
O O9 0.000000 0.500000 0.105077
O O10 0.249955 0.500000 0.000000
O O11 0.500000 0.500000 0.314237
O O12 0.774110 0.532720 0.385061
O O13 0.734924 0.336590 0.314466
O O14 0.166216 0.701218 0.482477
O O15 0.040700 0.693927 0.652011
O O16 0.145850 0.865546 0.348873
O O17 0.270604 0.926381 0.180188
O O18 0.000000 0.000000 0.154121
O O19 0.157697 0.000000 0.000000
#
# Coordination Sequence:
#
# PCOD9310277 Si02
#       8
#     4   4   4   4   4   4   4   4
#     4  10  22  42  68  97 138 180 231 284 354 422
#     4  11  24  42  71  99 139 191 233 297 354 433
#     4  11  27  45  68 102 139 184 236 293 360 431
#     4  12  26  43  71 100 138 183 234 297 362 429
#     4  11  24  46  67  99 137 186 241 283 372 423
#     4  10  23  40  65 101 134 183 227 293 353 414
#     4  11  26  42  71 100 137 184 231 304 349 441
#     4  10  23  40  66 101 138 182 237 289 353 429
#
# _framework density 22.636096999999999
#
# number of rings (size 3 to 8) (size 9 to 14) (size 15 to 20)
#    0.000    1.250    1.250    3.000    5.250    8.250 
#    0.000    2.500    0.000    0.000    0.000    0.000 
#    0.000    0.000    0.000    0.000    0.000    0.000 
#
# Total GULP energy -178191.834654 kJ/mol
# GULP energy per Si atom -5568.494833 kJ/mol
# Density = 2.258458 g / cm^3
# Si number density = 22.636097 Si / 1000 Ang^3
#
#
#
# Elastic Constant Matrix: (Units=GPa)
#
#
# Indices 1 2 3 4 5 6 
#
# 1 92.4368 19.9601 3.5182 0.0000 0.0000 0.0000
# 2 19.9601 75.3540 25.9037 0.0000 0.0000 0.0000
# 3 3.5182 25.9037 81.0893 0.0000 0.0000 0.0000
# 4 0.0000 0.0000 0.0000 37.2968 0.0000 0.0000
# 5 0.0000 0.0000 0.0000 0.0000 24.8873 0.0000
# 6 0.0000 0.0000 0.0000 0.0000 0.0000 33.2354
#
#
#
# Elastic Compliance Matrix: (Units=1/GPa)
#
#
# Indices 1 2 3 4 5 6 
#
# 1 0.011495 -0.003228 0.000532 0.000000 0.000000 0.000000
# 2 -0.003228 0.015814 -0.004912 0.000000 0.000000 0.000000
# 3 0.000532 -0.004912 0.013878 0.000000 0.000000 0.000000
# 4 0.000000 0.000000 0.000000 0.026812 0.000000 0.000000
# 5 0.000000 0.000000 0.000000 0.000000 0.040181 0.000000
# 6 0.000000 0.000000 0.000000 0.000000 0.000000 0.030088
#
#
# Mechanical properties :
#
#
# Convention : Reuss Voigt Hill
#
# Bulk Modulus (GPa) = 38.50191 38.62714 38.56452
# Shear Modulus (GPa) = 30.83745 32.38378 31.61061
#
# Velocity S-wave (km/s) = 3.69496 3.78646 3.74099
# Velocity P-wave (km/s) = 5.93714 6.01813 5.97777
#
# Compressibility (1/GPa) = 0.02597274
#
# Stress axis : x y z
#
# Youngs Moduli (GPa) = 86.99480 63.23445 72.05643
#
# Poissons Ratio (x) = 0.20411 -0.03836
# Poissons Ratio (y) = 0.28081 0.35392
# Poissons Ratio (z) = -0.04632 0.31059
#
# Static dielectric constant tensor:
#      x y z
#    x 1.831540 0.000000 0.000000 
#    y 0.000000 1.905020 0.000000 
#    z 0.000000 0.000000 1.747060 
# 
# From -- ./inp_files/7988.got.cif
#   From: 2010.05.17/outbox.cif.g08.bks.cpg/sg16_4_cif.got.tgz:7988.got - 2010.06.03 22:28:35.
