data_PCOD9310043
_publ_section_title
;
Structure prediction by ZEFSAII (Michael W. Deem and Ramdas Pophale) SiO2 
 PCOD9310043
Probable space group: P 2 2 2
;
_chemical_formula_sum "Si O2"
_cell_formula_units_Z 18
_cell_length_a 9.816503
_cell_length_b 7.634999
_cell_length_c 9.947526
_cell_angle_alpha 90.000000
_cell_angle_beta 90.000000
_cell_angle_gamma 90.000000
_cell_volume 745.557033
_symmetry_space_group_name_H-M "P 2 2 2"
_symmetry_group_IT_number 16
_symmetry_cell_setting 'orthorhombic'
loop_
_space_group_symop_operation_xyz
x,y,z
-x,-y,z
x,-y,-z
-x,y,-z
loop_
_atom_site_type_symbol
_atom_site_label
_atom_site_fract_x
_atom_site_fract_y
_atom_site_fract_z
Si Si1 0.359639 0.752696 0.788434
Si Si2 0.153895 0.212269 0.980208
Si Si3 0.000000 0.000000 0.500000
Si Si4 0.780463 0.746602 0.476861
Si Si5 0.655887 0.173949 0.252523
Si Si6 0.000000 0.500000 0.500000
O O1 0.299106 0.673768 0.650536
O O2 0.521131 0.724755 0.797377
O O3 0.354836 0.965684 0.774090
O O4 0.261019 0.711180 0.911858
O O5 0.216727 0.240358 0.833542
O O6 0.000000 0.275494 0.000000
O O7 0.151475 0.000000 0.000000
O O8 0.889923 0.887447 0.417370
O O9 0.675606 0.809952 0.587894
O O10 0.888056 0.628879 0.560952
#
# Coordination Sequence:
#
# PCOD9310043 Si02
#       6
#     4   4   1   4   4   1
#     4  10  19  33  56  88 120 150 186 234 286 338
#     4   9  19  29  49  85 126 153 180 226 288 337
#     4  10  20  30  58  84 112 138 182 244 284 318
#     4  11  21  37  58  83 115 148 193 239 282 345
#     4  10  19  33  56  88 120 150 186 234 286 338
#     4  10  28  38  54  84 124 146 190 236 308 322
#
# _framework density 24.143022999999999
#
# number of rings (size 3 to 8) (size 9 to 14) (size 15 to 20)
#    0.000    2.000    2.222    1.333    6.222    4.444 
#    0.000    2.222    0.000    2.667    0.000    3.111 
#    0.000    0.000    0.000    0.000    0.000    0.000 
#
# Total GULP energy -100266.037410 kJ/mol
# GULP energy per Si atom -5570.335412 kJ/mol
# Density = 2.408807 g / cm^3
# Si number density = 24.143023 Si / 1000 Ang^3
#
#
#
# Elastic Constant Matrix: (Units=GPa)
#
#
# Indices 1 2 3 4 5 6 
#
# 1 172.2017 12.1522 50.8161 0.0000 0.0000 0.0000
# 2 12.1522 18.0913 -1.9206 0.0000 0.0000 0.0000
# 3 50.8161 -1.9206 128.8998 0.0000 0.0000 0.0000
# 4 0.0000 0.0000 0.0000 -8.0287 0.0000 0.0000
# 5 0.0000 0.0000 0.0000 0.0000 26.4683 0.0000
# 6 0.0000 0.0000 0.0000 0.0000 0.0000 17.0412
#
#
#
# Elastic Compliance Matrix: (Units=1/GPa)
#
#
# Indices 1 2 3 4 5 6 
#
# 1 0.006996 -0.005000 -0.002832 0.000000 0.000000 0.000000
# 2 -0.005000 0.058936 0.002849 0.000000 0.000000 0.000000
# 3 -0.002832 0.002849 0.008917 0.000000 0.000000 0.000000
# 4 0.000000 0.000000 0.000000 -0.124554 0.000000 0.000000
# 5 0.000000 0.000000 0.000000 0.000000 0.037781 0.000000
# 6 0.000000 0.000000 0.000000 0.000000 0.000000 0.058681
#
#
# Mechanical properties :
#
#
# Convention : Reuss Voigt Hill
#
# Bulk Modulus (GPa) = 15.41240 49.03202 32.22221
# Shear Modulus (GPa) = 63.81508 24.30586 44.06047
#
# Velocity S-wave (km/s) = 5.14679 3.17637 4.27661
# Velocity P-wave (km/s) = 6.45887 5.81425 6.14502
#
# Compressibility (1/GPa) = 0.06488281
#
# Stress axis : x y z
#
# Youngs Moduli (GPa) = 142.94222 16.96753 112.14460
#
# Poissons Ratio (x) = 0.08484 0.31765
# Poissons Ratio (y) = 0.71470 -0.31953
# Poissons Ratio (z) = 0.40488 -0.04835
#
# Static dielectric constant tensor:
#      x y z
#    x 1.900940 0.000000 0.000000 
#    y 0.000000 2.200460 0.000000 
#    z 0.000000 0.000000 1.842110 
# 
# From -- ./inp_files/6333.got.cif
#   From: 2010.05.17/outbox.cif.g08.bks.cpg/sg16_4_cif.got.tgz:6333.got - 2010.06.03 22:28:35.
