data_PCOD9310237
_publ_section_title
;
Structure prediction by ZEFSAII (Michael W. Deem and Ramdas Pophale) SiO2 
 PCOD9310237
Probable space group: P 2 2 2
;
_chemical_formula_sum "Si O2"
_cell_formula_units_Z 14
_cell_length_a 6.169570
_cell_length_b 5.158361
_cell_length_c 19.001864
_cell_angle_alpha 90.000000
_cell_angle_beta 90.000000
_cell_angle_gamma 90.000000
_cell_volume 604.731838
_symmetry_space_group_name_H-M "P 2 2 2"
_symmetry_group_IT_number 16
_symmetry_cell_setting 'orthorhombic'
loop_
_space_group_symop_operation_xyz
x,y,z
-x,-y,z
x,-y,-z
-x,y,-z
loop_
_atom_site_type_symbol
_atom_site_label
_atom_site_fract_x
_atom_site_fract_y
_atom_site_fract_z
Si Si1 0.349226 0.247947 0.741815
Si Si2 0.500000 0.000000 0.500000
Si Si3 0.141517 0.747768 0.406561
Si Si4 0.654282 0.247730 0.099699
Si Si5 0.000000 0.500000 0.000000
O O1 0.500000 0.500000 0.741879
O O2 0.190689 0.271540 0.676470
O O3 0.256236 0.218748 0.820531
O O4 0.500000 0.000000 0.729049
O O5 0.357716 0.810912 0.450346
O O6 0.000000 0.500000 0.426135
O O7 0.000000 0.000000 0.418526
O O8 0.500000 0.500000 0.097930
O O9 0.500000 0.000000 0.084641
O O10 0.847471 0.315075 0.047083
#
# Coordination Sequence:
#
# PCOD9310237 Si02
#       5
#     4   1   4   4   1
#     4  10  21  47  75 104 144 191 238 313 364 429
#     4  12  30  54  68 112 160 198 232 326 372 436
#     4  12  28  48  78 109 144 193 251 297 371 447
#     4  10  25  46  72 107 149 189 250 303 368 444
#     4  12  26  46  76 108 148 214 232 318 376 440
#
# _framework density 23.150756000000001
#
# number of rings (size 3 to 8) (size 9 to 14) (size 15 to 20)
#    0.000    1.143    1.429    2.571    2.000    8.000 
#    0.000    0.000    0.000    0.000    0.000    0.000 
#    0.000    0.000    0.000    0.000    0.000    0.000 
#
# Total GULP energy -78442.303084 kJ/mol
# GULP energy per Si atom -5603.021649 kJ/mol
# Density = 2.309806 g / cm^3
# Si number density = 23.150756 Si / 1000 Ang^3
#
#
#
# Elastic Constant Matrix: (Units=GPa)
#
#
# Indices 1 2 3 4 5 6 
#
# 1 123.2186 74.2504 107.1016 0.0000 0.0000 0.0000
# 2 74.2504 212.7107 62.0171 0.0000 0.0000 0.0000
# 3 107.1016 62.0171 218.5559 0.0000 0.0000 0.0000
# 4 0.0000 0.0000 0.0000 20.4551 0.0000 0.0000
# 5 0.0000 0.0000 0.0000 0.0000 34.2887 0.0000
# 6 0.0000 0.0000 0.0000 0.0000 0.0000 30.5828
#
#
#
# Elastic Compliance Matrix: (Units=1/GPa)
#
#
# Indices 1 2 3 4 5 6 
#
# 1 0.016427 -0.003693 -0.007002 0.000000 0.000000 0.000000
# 2 -0.003693 0.005955 0.000120 0.000000 0.000000 0.000000
# 3 -0.007002 0.000120 0.007973 0.000000 0.000000 0.000000
# 4 0.000000 0.000000 0.000000 0.048888 0.000000 0.000000
# 5 0.000000 0.000000 0.000000 0.000000 0.029164 0.000000
# 6 0.000000 0.000000 0.000000 0.000000 0.000000 0.032698
#
#
# Mechanical properties :
#
#
# Convention : Reuss Voigt Hill
#
# Bulk Modulus (GPa) = 108.63604 115.69151 112.16378
# Shear Modulus (GPa) = 30.24372 37.80639 34.02505
#
# Velocity S-wave (km/s) = 3.61831 4.04549 3.83785
# Velocity P-wave (km/s) = 8.03017 8.47956 8.25792
#
# Compressibility (1/GPa) = 0.00920505
#
# Stress axis : x y z
#
# Youngs Moduli (GPa) = 60.87511 167.91739 125.42525
#
# Poissons Ratio (x) = 0.62006 0.87825
# Poissons Ratio (y) = 0.22479 -0.01501
# Poissons Ratio (z) = 0.42626 -0.02010
#
# Static dielectric constant tensor:
#      x y z
#    x 1.847040 0.000000 0.000000 
#    y 0.000000 1.807350 0.000000 
#    z 0.000000 0.000000 1.931140 
# 
# From -- ./inp_files/196.got.cif
#   From: 2010.05.17/outbox.cif.g08.bks.cpg/sg16_1_cif.got.tgz:196.got - 2010.06.03 22:28:35.
