data_PCOD9310498
_publ_section_title
;
Structure prediction by ZEFSAII (Michael W. Deem and Ramdas Pophale) SiO2 
 PCOD9310498
Probable space group: P 2 2 21
;
_chemical_formula_sum "Si O2"
_cell_formula_units_Z 20
_cell_length_a 9.403451
_cell_length_b 15.254840
_cell_length_c 5.423281
_cell_angle_alpha 90.000000
_cell_angle_beta 90.000000
_cell_angle_gamma 90.000000
_cell_volume 777.959575
_symmetry_space_group_name_H-M "P 2 2 21"
_symmetry_group_IT_number 17
_symmetry_cell_setting 'orthorhombic'
loop_
_space_group_symop_operation_xyz
x,y,z
-x,-y,1/2+z
x,-y,-z
-x,y,1/2-z
loop_
_atom_site_type_symbol
_atom_site_label
_atom_site_fract_x
_atom_site_fract_y
_atom_site_fract_z
Si Si1 0.819525 0.664270 0.989692
Si Si2 0.503665 0.744452 0.999879
Si Si3 0.744040 0.401620 0.513330
Si Si4 0.833001 0.087256 0.336973
Si Si5 0.851309 0.149878 0.830245
O O1 0.653448 0.693903 0.989488
O O2 0.830751 0.605956 0.232756
O O3 0.891938 0.756899 0.048541
O O4 0.839289 0.621184 0.724903
O O5 0.500000 0.797553 0.250000
O O6 0.500000 0.797322 0.750000
O O7 0.384091 0.668825 0.012445
O O8 0.685975 0.500000 0.500000
O O9 0.790710 0.159201 0.549051
O O10 0.000000 0.090901 0.250000
O O11 0.800494 0.000000 0.500000
O O12 0.772006 0.101803 0.058025
O O13 0.000000 0.104540 0.750000
#
# Coordination Sequence:
#
# PCOD9310498 Si02
#       5
#     4   4   4   4   4
#     4  10  19  31  46  69 100 130 164 198 248 308
#     4   8  16  27  43  66  94 120 153 197 251 302
#     4  10  19  31  49  72  98 126 163 216 268 302
#     4  10  18  31  51  75 100 124 155 196 246 294
#     4  10  20  32  49  72 101 134 160 193 238 292
#
# _framework density 25.708279000000001
#
# number of rings (size 3 to 8) (size 9 to 14) (size 15 to 20)
#    0.000    2.400    0.000    4.200    0.000    7.200 
#    0.000    0.000    0.000    2.400    0.000    0.000 
#    0.000  144.000    0.000    0.000    0.000    0.000 
#
# Total GULP energy -111356.754218 kJ/mol
# GULP energy per Si atom -5567.837711 kJ/mol
# Density = 2.564977 g / cm^3
# Si number density = 25.708279 Si / 1000 Ang^3
#
#
#
# Elastic Constant Matrix: (Units=GPa)
#
#
# Indices 1 2 3 4 5 6 
#
# 1 71.8428 5.9796 8.0209 0.0000 0.0000 0.0000
# 2 5.9796 79.9890 15.7542 0.0000 0.0000 0.0000
# 3 8.0209 15.7542 310.4981 0.0000 0.0000 0.0000
# 4 0.0000 0.0000 0.0000 17.1153 0.0000 0.0000
# 5 0.0000 0.0000 0.0000 0.0000 6.6769 0.0000
# 6 0.0000 0.0000 0.0000 0.0000 0.0000 3.8645
#
#
#
# Elastic Compliance Matrix: (Units=1/GPa)
#
#
# Indices 1 2 3 4 5 6 
#
# 1 0.014036 -0.000988 -0.000312 0.000000 0.000000 0.000000
# 2 -0.000988 0.012697 -0.000619 0.000000 0.000000 0.000000
# 3 -0.000312 -0.000619 0.003260 0.000000 0.000000 0.000000
# 4 0.000000 0.000000 0.000000 0.058427 0.000000 0.000000
# 5 0.000000 0.000000 0.000000 0.000000 0.149769 0.000000
# 6 0.000000 0.000000 0.000000 0.000000 0.000000 0.258763
#
#
# Mechanical properties :
#
#
# Convention : Reuss Voigt Hill
#
# Bulk Modulus (GPa) = 38.23217 57.98215 48.10716
# Shear Modulus (GPa) = 9.81336 34.36969 22.09152
#
# Velocity S-wave (km/s) = 1.95588 3.66035 2.93459
# Velocity P-wave (km/s) = 4.47264 6.36137 5.49870
#
# Compressibility (1/GPa) = 0.02615598
#
# Stress axis : x y z
#
# Youngs Moduli (GPa) = 71.24341 78.75610 306.73931
#
# Poissons Ratio (x) = 0.07779 0.09585
# Poissons Ratio (y) = 0.07037 0.18979
# Poissons Ratio (z) = 0.02226 0.04873
#
# Static dielectric constant tensor:
#      x y z
#    x 2.166090 0.000000 0.000000 
#    y 0.000000 2.042170 0.000000 
#    z 0.000000 0.000000 2.284420 
# 
# From -- ./inp_files/1515.got.cif
#   From: 2010.05.17/outbox.cif.g08.bks.cpg/sg17_1_cif.got.tgz:1515.got - 2010.06.03 22:34:06.
