data_PCOD9310891
_publ_section_title
;
Structure prediction by ZEFSAII (Michael W. Deem and Ramdas Pophale) SiO2 
 PCOD9310891
Probable space group: P 2 2 21
;
_chemical_formula_sum "Si O2"
_cell_formula_units_Z 20
_cell_length_a 9.330544
_cell_length_b 14.414018
_cell_length_c 7.342726
_cell_angle_alpha 90.000000
_cell_angle_beta 90.000000
_cell_angle_gamma 90.000000
_cell_volume 987.527840
_symmetry_space_group_name_H-M "P 2 2 21"
_symmetry_group_IT_number 17
_symmetry_cell_setting 'orthorhombic'
loop_
_space_group_symop_operation_xyz
x,y,z
-x,-y,1/2+z
x,-y,-z
-x,y,1/2-z
loop_
_atom_site_type_symbol
_atom_site_label
_atom_site_fract_x
_atom_site_fract_y
_atom_site_fract_z
Si Si1 0.899723 0.901698 0.418548
Si Si2 0.362646 0.945209 0.331081
Si Si3 0.408038 0.396801 0.066064
Si Si4 0.413067 0.232052 0.440805
Si Si5 0.154985 0.731878 0.804976
O O1 0.748202 0.924742 0.326022
O O2 0.876089 0.822650 0.570589
O O3 0.000000 0.870912 0.250000
O O4 0.953288 0.000000 0.500000
O O5 0.500000 0.997848 0.250000
O O6 0.421521 0.852237 0.423157
O O7 0.295226 0.000000 0.500000
O O8 0.500000 0.410537 0.250000
O O9 0.515558 0.323393 0.970179
O O10 0.259321 0.341597 0.095341
O O11 0.381917 0.500000 0.000000
O O12 0.500000 0.216562 0.250000
O O13 0.249198 0.242592 0.373475
O O14 0.000000 0.693658 0.750000
#
# Coordination Sequence:
#
# PCOD9310891 Si02
#       5
#     4   4   4   4   4
#     4  12  24  38  56  81 114 155 191 226 274 336
#     4  12  22  34  54  83 114 148 189 237 277 320
#     4   9  20  38  61  83 110 144 180 225 283 342
#     4   9  19  37  57  80 111 150 186 227 279 333
#     4  10  20  39  59  81 112 147 188 235 276 321
#
# _framework density 20.252593999999998
#
# number of rings (size 3 to 8) (size 9 to 14) (size 15 to 20)
#    0.000    2.000    0.000    7.200    0.000    2.400 
#    0.000    5.000    0.000    0.000    0.000    0.000 
#    0.000    0.000    0.000    0.000    0.000    0.000 
#
# Total GULP energy -111556.562571 kJ/mol
# GULP energy per Si atom -5577.828129 kJ/mol
# Density = 2.020650 g / cm^3
# Si number density = 20.252594 Si / 1000 Ang^3
#
#
#
# Elastic Constant Matrix: (Units=GPa)
#
#
# Indices 1 2 3 4 5 6 
#
# 1 144.2185 27.5748 27.4166 0.0000 0.0000 0.0000
# 2 27.5748 157.3768 38.9008 0.0000 0.0000 0.0000
# 3 27.4166 38.9008 59.9343 0.0000 0.0000 0.0000
# 4 0.0000 0.0000 0.0000 27.1869 0.0000 0.0000
# 5 0.0000 0.0000 0.0000 0.0000 22.6917 0.0000
# 6 0.0000 0.0000 0.0000 0.0000 0.0000 2.0703
#
#
#
# Elastic Compliance Matrix: (Units=1/GPa)
#
#
# Indices 1 2 3 4 5 6 
#
# 1 0.007636 -0.000565 -0.003126 0.000000 0.000000 0.000000
# 2 -0.000565 0.007610 -0.004681 0.000000 0.000000 0.000000
# 3 -0.003126 -0.004681 0.021153 0.000000 0.000000 0.000000
# 4 0.000000 0.000000 0.000000 0.036782 0.000000 0.000000
# 5 0.000000 0.000000 0.000000 0.000000 0.044069 0.000000
# 6 0.000000 0.000000 0.000000 0.000000 0.000000 0.483015
#
#
# Mechanical properties :
#
#
# Convention : Reuss Voigt Hill
#
# Bulk Modulus (GPa) = 50.87803 61.03489 55.95646
# Shear Modulus (GPa) = 8.01844 28.23228 18.12536
#
# Velocity S-wave (km/s) = 1.99194 3.73769 2.99484
# Velocity P-wave (km/s) = 5.51966 6.98780 6.29667
#
# Compressibility (1/GPa) = 0.01965485
#
# Stress axis : x y z
#
# Youngs Moduli (GPa) = 130.95308 131.40156 47.27409
#
# Poissons Ratio (x) = 0.07427 0.14779
# Poissons Ratio (y) = 0.07402 0.22129
# Poissons Ratio (z) = 0.40940 0.61508
#
# Static dielectric constant tensor:
#      x y z
#    x 1.766060 0.000000 0.000000 
#    y 0.000000 1.741970 0.000000 
#    z 0.000000 0.000000 1.750900 
# 
# From -- ./inp_files/4176.got.cif
#   From: 2010.05.17/outbox.cif.g08.bks.cpg/sg17_3_cif.got.tgz:4176.got - 2010.06.03 22:34:06.
