data_PCOD9310443
_publ_section_title
;
Structure prediction by ZEFSAII (Michael W. Deem and Ramdas Pophale) SiO2 
 PCOD9310443
Probable space group: P 2 2 21
;
_chemical_formula_sum "Si O2"
_cell_formula_units_Z 30
_cell_length_a 16.011946
_cell_length_b 5.288231
_cell_length_c 17.523817
_cell_angle_alpha 90.000000
_cell_angle_beta 90.000000
_cell_angle_gamma 90.000000
_cell_volume 1483.826912
_symmetry_space_group_name_H-M "P 2 2 21"
_symmetry_group_IT_number 17
_symmetry_cell_setting 'orthorhombic'
loop_
_space_group_symop_operation_xyz
x,y,z
-x,-y,1/2+z
x,-y,-z
-x,y,1/2-z
loop_
_atom_site_type_symbol
_atom_site_label
_atom_site_fract_x
_atom_site_fract_y
_atom_site_fract_z
Si Si1 0.873898 0.124638 0.419112
Si Si2 0.725096 0.673743 0.191640
Si Si3 0.730379 0.825234 0.705765
Si Si4 0.031632 0.951184 0.670347
Si Si5 0.460880 0.099842 0.164240
Si Si6 0.888719 0.575974 0.121711
Si Si7 0.008683 0.500000 0.000000
Si Si8 0.468094 0.600489 0.338234
O O1 0.797720 0.160112 0.361911
O O2 0.947510 0.978096 0.375610
O O3 0.927384 0.372155 0.441525
O O4 0.850097 0.000000 0.500000
O O5 0.738772 0.440644 0.250325
O O6 0.790198 0.620056 0.123670
O O7 0.629451 0.659729 0.164733
O O8 0.739103 0.939482 0.235420
O O9 0.636562 0.845243 0.672954
O O10 0.086062 0.717940 0.635568
O O11 0.000000 0.843669 0.750000
O O12 0.080285 0.214022 0.682590
O O13 0.500000 0.073874 0.250000
O O14 0.508877 0.332185 0.126192
O O15 0.480590 0.831755 0.126921
O O16 0.940995 0.662603 0.047403
O O17 0.500000 0.573950 0.250000
#
# Coordination Sequence:
#
# PCOD9310443 Si02
#       8
#     4   4   4   4   4   4   2   4
#     4  11  24  41  60  81 115 164 196 241 288 363
#     4  12  21  35  56  97 116 145 190 251 295 343
#     4  12  23  34  59  89 123 142 200 239 293 351
#     4  11  22  40  59  83 116 147 189 248 304 333
#     4  10  16  32  51  83 116 153 169 224 288 346
#     4  11  23  37  60  81 112 151 194 244 281 348
#     4  10  24  46  58  76 114 162 212 226 298 352
#     4  10  16  31  53  78 126 146 175 214 304 345
#
# _framework density 20.217991000000001
#
# number of rings (size 3 to 8) (size 9 to 14) (size 15 to 20)
#    0.000    1.067    6.667    2.800    1.867    1.067 
#    0.000    0.000    0.000    0.000    3.467    0.000 
#    0.000    0.000    0.000    0.000    0.000    0.000 
#
# Total GULP energy -167113.494262 kJ/mol
# GULP energy per Si atom -5570.449809 kJ/mol
# Density = 2.017197 g / cm^3
# Si number density = 20.217991 Si / 1000 Ang^3
#
#
#
# Elastic Constant Matrix: (Units=GPa)
#
#
# Indices 1 2 3 4 5 6 
#
# 1 119.8880 -16.0675 18.7361 0.0000 0.0000 0.0000
# 2 -16.0675 91.3391 -2.9715 0.0000 0.0000 0.0000
# 3 18.7361 -2.9715 21.0125 0.0000 0.0000 0.0000
# 4 0.0000 0.0000 0.0000 14.4719 0.0000 0.0000
# 5 0.0000 0.0000 0.0000 0.0000 9.2854 0.0000
# 6 0.0000 0.0000 0.0000 0.0000 0.0000 22.5086
#
#
#
# Elastic Compliance Matrix: (Units=1/GPa)
#
#
# Indices 1 2 3 4 5 6 
#
# 1 0.009881 0.001458 -0.008605 0.000000 0.000000 0.000000
# 2 0.001458 0.011214 0.000286 0.000000 0.000000 0.000000
# 3 -0.008605 0.000286 0.055304 0.000000 0.000000 0.000000
# 4 0.000000 0.000000 0.000000 0.069099 0.000000 0.000000
# 5 0.000000 0.000000 0.000000 0.000000 0.107696 0.000000
# 6 0.000000 0.000000 0.000000 0.000000 0.000000 0.044427
#
#
# Mechanical properties :
#
#
# Convention : Reuss Voigt Hill
#
# Bulk Modulus (GPa) = 15.95475 25.73712 20.84594
# Shear Modulus (GPa) = 15.04954 24.75601 19.90277
#
# Velocity S-wave (km/s) = 2.73126 3.50302 3.14093
# Velocity P-wave (km/s) = 4.22551 5.39620 4.84633
#
# Compressibility (1/GPa) = 0.06267725
#
# Stress axis : x y z
#
# Youngs Moduli (GPa) = 101.20141 89.17404 18.08204
#
# Poissons Ratio (x) = -0.13004 0.15559
# Poissons Ratio (y) = -0.14758 -0.00516
# Poissons Ratio (z) = 0.87080 -0.02546
#
# Static dielectric constant tensor:
#      x y z
#    x 1.714020 0.000000 0.000000 
#    y 0.000000 1.826880 0.000000 
#    z 0.000000 0.000000 1.854360 
# 
# From -- ./inp_files/9111.got.cif
#   From: 2010.05.17/outbox.cif.g08.bks.cpg/sg17_5_cif.got.tgz:9111.got - 2010.06.03 22:34:06.
