data_PCOD9310402
_publ_section_title
;
Structure prediction by ZEFSAII (Michael W. Deem and Ramdas Pophale) SiO2 
 PCOD9310402
Probable space group: P 2 2 2
;
_chemical_formula_sum "Si O2"
_cell_formula_units_Z 20
_cell_length_a 8.706166
_cell_length_b 5.095828
_cell_length_c 18.843792
_cell_angle_alpha 90.000000
_cell_angle_beta 90.000000
_cell_angle_gamma 90.000000
_cell_volume 836.007178
_symmetry_space_group_name_H-M "P 2 2 2"
_symmetry_group_IT_number 16
_symmetry_cell_setting 'orthorhombic'
loop_
_space_group_symop_operation_xyz
x,y,z
-x,-y,z
x,-y,-z
-x,y,-z
loop_
_atom_site_type_symbol
_atom_site_label
_atom_site_fract_x
_atom_site_fract_y
_atom_site_fract_z
Si Si1 0.500000 0.500000 0.241702
Si Si2 0.173393 0.113538 0.075690
Si Si3 0.500000 0.500000 0.500000
Si Si4 0.000000 0.500000 0.283257
Si Si5 0.237241 0.747222 0.602271
Si Si6 0.793663 0.641169 0.840342
Si Si7 0.500000 0.000000 0.661324
Si Si8 0.000000 0.000000 0.500000
O O1 0.648387 0.489091 0.194597
O O2 0.511624 0.746713 0.291720
O O3 0.254886 0.926517 0.132258
O O4 0.168008 0.421172 0.097696
O O5 0.000000 0.000000 0.079559
O O6 0.231068 0.000000 0.000000
O O7 0.376366 0.616737 0.556935
O O8 0.138141 0.384351 0.333010
O O9 0.083604 0.682708 0.223739
O O10 0.333363 0.008503 0.623896
O O11 0.105982 0.821310 0.547975
#
# Coordination Sequence:
#
# PCOD9310402 Si02
#       8
#     2   4   1   2   4   4   2   1
#     4  12  27  46  71 111 151 194 238 314 390 447
#     4  11  23  44  73 107 150 200 248 304 368 444
#     4  12  26  56  72 106 150 208 250 298 400 478
#     4  12  26  43  75 112 144 194 252 332 372 440
#     4  12  27  46  76 106 149 199 252 320 381 468
#     4  12  25  45  71 111 149 191 254 311 376 448
#     4  12  26  47  74 106 147 196 240 302 394 460
#     4  12  28  44  68 108 144 188 258 314 376 448
#
# _framework density 23.923241000000001
#
# number of rings (size 3 to 8) (size 9 to 14) (size 15 to 20)
#    0.000    0.200    4.000    4.800    2.800    1.600 
#    0.000    3.000    0.000    0.000    0.000    0.000 
#    0.000    0.000    0.000    0.000    0.000    0.000 
#
# Total GULP energy -111472.238164 kJ/mol
# GULP energy per Si atom -5573.611908 kJ/mol
# Density = 2.386879 g / cm^3
# Si number density = 23.923241 Si / 1000 Ang^3
#
#
#
# Elastic Constant Matrix: (Units=GPa)
#
#
# Indices 1 2 3 4 5 6 
#
# 1 135.7526 18.0447 42.4867 0.0000 0.0000 0.0000
# 2 18.0447 85.0384 12.9674 0.0000 0.0000 0.0000
# 3 42.4867 12.9674 108.7355 0.0000 0.0000 0.0000
# 4 0.0000 0.0000 0.0000 23.2081 0.0000 0.0000
# 5 0.0000 0.0000 0.0000 0.0000 25.6947 0.0000
# 6 0.0000 0.0000 0.0000 0.0000 0.0000 15.1616
#
#
#
# Elastic Compliance Matrix: (Units=1/GPa)
#
#
# Indices 1 2 3 4 5 6 
#
# 1 0.008537 -0.001327 -0.003178 0.000000 0.000000 0.000000
# 2 -0.001327 0.012183 -0.000934 0.000000 0.000000 0.000000
# 3 -0.003178 -0.000934 0.010550 0.000000 0.000000 0.000000
# 4 0.000000 0.000000 0.000000 0.043088 0.000000 0.000000
# 5 0.000000 0.000000 0.000000 0.000000 0.038919 0.000000
# 6 0.000000 0.000000 0.000000 0.000000 0.000000 0.065956
#
#
# Mechanical properties :
#
#
# Convention : Reuss Voigt Hill
#
# Bulk Modulus (GPa) = 49.03800 52.94711 50.99255
# Shear Modulus (GPa) = 25.39250 29.88141 27.63696
#
# Velocity S-wave (km/s) = 3.26147 3.53803 3.40256
# Velocity P-wave (km/s) = 5.89283 6.23461 6.06613
#
# Compressibility (1/GPa) = 0.02039235
#
# Stress axis : x y z
#
# Youngs Moduli (GPa) = 117.13432 82.07836 94.79004
#
# Poissons Ratio (x) = 0.10892 0.30120
# Poissons Ratio (y) = 0.15544 0.08858
# Poissons Ratio (z) = 0.37220 0.07670
#
# Static dielectric constant tensor:
#      x y z
#    x 1.966810 0.000000 0.000000 
#    y 0.000000 2.016680 0.000000 
#    z 0.000000 0.000000 2.057200 
# 
# From -- ./inp_files/8839.got.cif
#   From: 2010.05.17/outbox.cif.g08.bks.cpg/sg16_5_cif.got.tgz:8839.got - 2010.06.03 22:28:35.
