data_PCOD9310451
_publ_section_title
;
Structure prediction by ZEFSAII (Michael W. Deem and Ramdas Pophale) SiO2 
 PCOD9310451
Probable space group: P 2 2 21
;
_chemical_formula_sum "Si O2"
_cell_formula_units_Z 24
_cell_length_a 7.812881
_cell_length_b 9.622263
_cell_length_c 13.535182
_cell_angle_alpha 90.000000
_cell_angle_beta 90.000000
_cell_angle_gamma 90.000000
_cell_volume 1017.542441
_symmetry_space_group_name_H-M "P 2 2 21"
_symmetry_group_IT_number 17
_symmetry_cell_setting 'orthorhombic'
loop_
_space_group_symop_operation_xyz
x,y,z
-x,-y,1/2+z
x,-y,-z
-x,y,1/2-z
loop_
_atom_site_type_symbol
_atom_site_label
_atom_site_fract_x
_atom_site_fract_y
_atom_site_fract_z
Si Si1 0.341022 0.056266 0.396567
Si Si2 0.144910 0.563170 0.826409
Si Si3 0.724401 0.712804 0.421757
Si Si4 0.500000 0.845931 0.250000
Si Si5 0.962985 0.232155 0.026880
Si Si6 0.485006 0.342806 0.124537
Si Si7 0.264516 0.500000 0.500000
O O1 0.154734 0.111729 0.429159
O O2 0.431463 0.194555 0.357896
O O3 0.420236 0.000000 0.500000
O O4 0.368569 0.939704 0.314437
O O5 0.186768 0.432147 0.893948
O O6 0.335911 0.614617 0.799408
O O7 0.000000 0.519631 0.750000
O O8 0.058165 0.690277 0.883714
O O9 0.610432 0.762184 0.330358
O O10 0.610582 0.685350 0.518394
O O11 0.885996 0.809359 0.451864
O O12 0.842431 0.357592 0.984136
O O13 0.618674 0.462644 0.094235
#
# Coordination Sequence:
#
# PCOD9310451 Si02
#       7
#     4   4   4   2   4   4   2
#     4  11  25  47  71 105 146 202 255 296 372 453
#     4  11  23  40  67 114 145 181 242 313 387 433
#     4  11  22  47  73 104 147 191 244 319 377 444
#     4  12  28  46  76 110 144 200 270 298 364 474
#     4  10  22  43  74 101 146 190 243 305 377 449
#     4  10  20  41  73  99 143 198 241 304 376 446
#     4  10  16  36  76 100 132 180 250 288 372 448
#
# _framework density 23.58624
#
# number of rings (size 3 to 8) (size 9 to 14) (size 15 to 20)
#    0.000    1.333    5.000    1.000    2.333    2.667 
#    6.000    0.000    0.000    0.000    0.000    0.000 
#    0.000    0.000    0.000    0.000    0.000    0.000 
#
# Total GULP energy -134127.856395 kJ/mol
# GULP energy per Si atom -5588.660683 kJ/mol
# Density = 2.353256 g / cm^3
# Si number density = 23.586240 Si / 1000 Ang^3
#
#
#
# Elastic Constant Matrix: (Units=GPa)
#
#
# Indices 1 2 3 4 5 6 
#
# 1 124.7539 20.4824 23.8317 0.0000 0.0000 0.0000
# 2 20.4824 44.8602 16.0740 0.0000 0.0000 0.0000
# 3 23.8317 16.0740 98.2847 0.0000 0.0000 0.0000
# 4 0.0000 0.0000 0.0000 41.1233 0.0000 0.0000
# 5 0.0000 0.0000 0.0000 0.0000 41.9119 0.0000
# 6 0.0000 0.0000 0.0000 0.0000 0.0000 25.9426
#
#
#
# Elastic Compliance Matrix: (Units=1/GPa)
#
#
# Indices 1 2 3 4 5 6 
#
# 1 0.008892 -0.003492 -0.001585 0.000000 0.000000 0.000000
# 2 -0.003492 0.025050 -0.003250 0.000000 0.000000 0.000000
# 3 -0.001585 -0.003250 0.011090 0.000000 0.000000 0.000000
# 4 0.000000 0.000000 0.000000 0.024317 0.000000 0.000000
# 5 0.000000 0.000000 0.000000 0.000000 0.023860 0.000000
# 6 0.000000 0.000000 0.000000 0.000000 0.000000 0.038547
#
#
# Mechanical properties :
#
#
# Convention : Reuss Voigt Hill
#
# Bulk Modulus (GPa) = 35.23798 43.18614 39.21206
# Shear Modulus (GPa) = 31.67170 35.62961 33.65065
#
# Velocity S-wave (km/s) = 3.66840 3.89087 3.78128
# Velocity P-wave (km/s) = 5.73720 6.20764 5.97705
#
# Compressibility (1/GPa) = 0.02837847
#
# Stress axis : x y z
#
# Youngs Moduli (GPa) = 112.46220 39.91950 90.16816
#
# Poissons Ratio (x) = 0.13940 0.14291
# Poissons Ratio (y) = 0.39271 0.29306
# Poissons Ratio (z) = 0.17825 0.12974
#
# Static dielectric constant tensor:
#      x y z
#    x 2.002680 0.000000 0.000000 
#    y 0.000000 1.848030 0.000000 
#    z 0.000000 0.000000 1.986320 
# 
# From -- ./inp_files/8140.got.cif
#   From: 2010.05.17/outbox.cif.g08.bks.cpg/sg17_5_cif.got.tgz:8140.got - 2010.06.03 22:34:06.
