data_PCOD9310463
_publ_section_title
;
Structure prediction by ZEFSAII (Michael W. Deem and Ramdas Pophale) SiO2 
 PCOD9310463
Probable space group: P 2 2 21
;
_chemical_formula_sum "Si O2"
_cell_formula_units_Z 16
_cell_length_a 7.025021
_cell_length_b 8.679294
_cell_length_c 10.065980
_cell_angle_alpha 90.000000
_cell_angle_beta 90.000000
_cell_angle_gamma 90.000000
_cell_volume 613.745173
_symmetry_space_group_name_H-M "P 2 2 21"
_symmetry_group_IT_number 17
_symmetry_cell_setting 'orthorhombic'
loop_
_space_group_symop_operation_xyz
x,y,z
-x,-y,1/2+z
x,-y,-z
-x,y,1/2-z
loop_
_atom_site_type_symbol
_atom_site_label
_atom_site_fract_x
_atom_site_fract_y
_atom_site_fract_z
Si Si1 0.223849 0.153902 0.354881
Si Si2 0.138037 0.205146 0.634667
Si Si3 0.672756 0.834556 0.563953
Si Si4 0.497799 0.394326 0.883004
O O1 0.112397 0.235756 0.476606
O O2 0.221658 0.204123 0.201520
O O3 0.447165 0.150094 0.398715
O O4 0.153681 0.978152 0.353334
O O5 0.345912 0.271676 0.662827
O O6 0.000000 0.263340 0.750000
O O7 0.672452 0.698874 0.454272
O O8 0.730258 0.000000 0.500000
O O9 0.500000 0.497123 0.750000
O O10 0.574836 0.500000 0.000000
#
# Coordination Sequence:
#
# PCOD9310463 Si02
#       4
#     4   4   4   4
#     4   9  18  34  62  97 126 163 210 267 326 385
#     4  10  20  39  62  91 134 171 209 261 328 397
#     4  10  17  34  67  95 133 155 213 280 331 369
#     4  11  24  40  64  98 126 170 223 275 321 384
#
# _framework density 26.069448999999999
#
# number of rings (size 3 to 8) (size 9 to 14) (size 15 to 20)
#    0.000    2.000    5.000    1.500    7.000    0.000 
#   13.500    1.250    0.000   13.500    0.000    0.000 
#    0.000    0.000    0.000    0.000    0.000    0.000 
#
# Total GULP energy -89363.250680 kJ/mol
# GULP energy per Si atom -5585.203168 kJ/mol
# Density = 2.601011 g / cm^3
# Si number density = 26.069449 Si / 1000 Ang^3
#
#
#
# Elastic Constant Matrix: (Units=GPa)
#
#
# Indices 1 2 3 4 5 6 
#
# 1 92.3776 8.1310 76.4234 0.0000 0.0000 0.0000
# 2 8.1310 58.2164 29.4768 0.0000 0.0000 0.0000
# 3 76.4234 29.4768 319.8204 0.0000 0.0000 0.0000
# 4 0.0000 0.0000 0.0000 27.2963 0.0000 0.0000
# 5 0.0000 0.0000 0.0000 0.0000 69.1064 0.0000
# 6 0.0000 0.0000 0.0000 0.0000 0.0000 -4.0930
#
#
#
# Elastic Compliance Matrix: (Units=1/GPa)
#
#
# Indices 1 2 3 4 5 6 
#
# 1 0.013496 -0.000264 -0.003201 0.000000 0.000000 0.000000
# 2 -0.000264 0.018023 -0.001598 0.000000 0.000000 0.000000
# 3 -0.003201 -0.001598 0.004039 0.000000 0.000000 0.000000
# 4 0.000000 0.000000 0.000000 0.036635 0.000000 0.000000
# 5 0.000000 0.000000 0.000000 0.000000 0.014470 0.000000
# 6 0.000000 0.000000 0.000000 0.000000 0.000000 -0.244319
#
#
# Mechanical properties :
#
#
# Convention : Reuss Voigt Hill
#
# Bulk Modulus (GPa) = 39.31996 77.60855 58.46425
# Shear Modulus (GPa) = -35.95803 42.22080 3.13138
#
# Velocity S-wave (km/s) = -3.71794 4.02873 1.09717
# Velocity P-wave (km/s) = 1.82080 7.17464 4.90714
#
# Compressibility (1/GPa) = 0.02543238
#
# Stress axis : x y z
#
# Youngs Moduli (GPa) = 74.09432 55.48372 247.59476
#
# Poissons Ratio (x) = 0.01467 0.79247
# Poissons Ratio (y) = 0.01959 0.39565
# Poissons Ratio (z) = 0.23715 0.08866
#
# Static dielectric constant tensor:
#      x y z
#    x 2.156530 0.000000 0.000000 
#    y 0.000000 1.990690 0.000000 
#    z 0.000000 0.000000 0.773470 
# 
# From -- ./inp_files/3763.got.cif
#   From: 2010.05.17/outbox.cif.g08.bks.cpg/sg17_2_cif.got.tgz:3763.got - 2010.06.03 22:34:06.
