data_PCOD9310073
_publ_section_title
;
Structure prediction by ZEFSAII (Michael W. Deem and Ramdas Pophale) SiO2 
 PCOD9310073
Probable space group: P 2 2 2
;
_chemical_formula_sum "Si O2"
_cell_formula_units_Z 32
_cell_length_a 9.756788
_cell_length_b 13.955833
_cell_length_c 12.254670
_cell_angle_alpha 90.000000
_cell_angle_beta 90.000000
_cell_angle_gamma 90.000000
_cell_volume 1668.646160
_symmetry_space_group_name_H-M "P 2 2 2"
_symmetry_group_IT_number 16
_symmetry_cell_setting 'orthorhombic'
loop_
_space_group_symop_operation_xyz
x,y,z
-x,-y,z
x,-y,-z
-x,y,-z
loop_
_atom_site_type_symbol
_atom_site_label
_atom_site_fract_x
_atom_site_fract_y
_atom_site_fract_z
Si Si1 0.024997 0.609521 0.773772
Si Si2 0.382520 0.129325 0.726137
Si Si3 0.899358 0.202120 0.899422
Si Si4 0.660848 0.891324 0.978253
Si Si5 0.175986 0.266869 0.627997
Si Si6 0.662905 0.057338 0.614548
Si Si7 0.950261 0.891144 0.333789
Si Si8 0.844197 0.596302 0.451990
O O1 0.074307 0.688310 0.860678
O O2 0.137762 0.601915 0.676577
O O3 0.000000 0.500000 0.811305
O O4 0.891137 0.655257 0.712155
O O5 0.344482 0.139005 0.852604
O O6 0.312067 0.218587 0.671183
O O7 0.534019 0.111239 0.672552
O O8 0.307987 0.030043 0.696250
O O9 0.932115 0.137283 0.793634
O O10 0.748462 0.178160 0.944740
O O11 0.000000 0.180021 0.000000
O O12 0.500000 0.892964 0.000000
O O13 0.712981 0.000000 0.000000
O O14 0.214606 0.313645 0.513447
O O15 0.059723 0.184865 0.621074
O O16 0.801067 0.117772 0.610825
O O17 0.639973 0.000000 0.500000
O O18 0.000000 0.000000 0.349400
O O19 0.779338 0.500000 0.500000
O O20 0.000000 0.596495 0.500000
#
# Coordination Sequence:
#
# PCOD9310073 Si02
#       8
#     4   4   4   4   4   4   4   4
#     4  10  19  37  60  92 134 158 206 276 338 390
#     4  11  21  39  55  84 122 169 219 253 305 374
#     4  11  25  37  58  94 127 169 212 269 327 364
#     4  11  22  38  62  84 121 179 228 255 297 379
#     4  10  20  33  61  95 123 159 210 256 321 385
#     4  11  24  40  58  83 130 175 208 256 317 370
#     4  11  22  40  56  90 129 168 208 264 308 376
#     4   9  15  32  59  90 122 155 197 253 325 392
#
# _framework density 19.177223999999999
#
# number of rings (size 3 to 8) (size 9 to 14) (size 15 to 20)
#    0.000    1.500    3.750    5.250    1.750    4.500 
#    0.000    2.500    0.000    0.000    0.000   20.125 
#    0.000    0.000    0.000    0.000    0.000    0.000 
#
# Total GULP energy -178363.902759 kJ/mol
# GULP energy per Si atom -5573.871961 kJ/mol
# Density = 1.913358 g / cm^3
# Si number density = 19.177224 Si / 1000 Ang^3
#
#
#
# Elastic Constant Matrix: (Units=GPa)
#
#
# Indices 1 2 3 4 5 6 
#
# 1 56.8069 31.5487 23.4202 0.0000 0.0000 0.0000
# 2 31.5487 115.4481 28.9969 0.0000 0.0000 0.0000
# 3 23.4202 28.9969 90.8422 0.0000 0.0000 0.0000
# 4 0.0000 0.0000 0.0000 27.2665 0.0000 0.0000
# 5 0.0000 0.0000 0.0000 0.0000 25.5711 0.0000
# 6 0.0000 0.0000 0.0000 0.0000 0.0000 22.7043
#
#
#
# Elastic Compliance Matrix: (Units=1/GPa)
#
#
# Indices 1 2 3 4 5 6 
#
# 1 0.022069 -0.005003 -0.004093 0.000000 0.000000 0.000000
# 2 -0.005003 0.010551 -0.002078 0.000000 0.000000 0.000000
# 3 -0.004093 -0.002078 0.012727 0.000000 0.000000 0.000000
# 4 0.000000 0.000000 0.000000 0.036675 0.000000 0.000000
# 5 0.000000 0.000000 0.000000 0.000000 0.039107 0.000000
# 6 0.000000 0.000000 0.000000 0.000000 0.000000 0.044044
#
#
# Mechanical properties :
#
#
# Convention : Reuss Voigt Hill
#
# Bulk Modulus (GPa) = 43.47957 47.89210 45.68583
# Shear Modulus (GPa) = 25.61643 27.05047 26.33345
#
# Velocity S-wave (km/s) = 3.65879 3.75981 3.70964
# Velocity P-wave (km/s) = 6.36951 6.62388 6.49794
#
# Compressibility (1/GPa) = 0.02299931
#
# Stress axis : x y z
#
# Youngs Moduli (GPa) = 45.31176 94.77768 78.57561
#
# Poissons Ratio (x) = 0.47417 0.32159
# Poissons Ratio (y) = 0.22669 0.16329
# Poissons Ratio (z) = 0.18545 0.19695
#
# Static dielectric constant tensor:
#      x y z
#    x 1.697220 0.000000 0.000000 
#    y 0.000000 1.715750 0.000000 
#    z 0.000000 0.000000 1.837030 
# 
# From -- ./inp_files/6624.got.cif
#   From: 2010.05.17/outbox.cif.g08.bks.cpg/sg16_4_cif.got.tgz:6624.got - 2010.06.03 22:28:35.
