data_PCOD9310044
_publ_section_title
;
Structure prediction by ZEFSAII (Michael W. Deem and Ramdas Pophale) SiO2 
 PCOD9310044
Probable space group: P 2 2 2
;
_chemical_formula_sum "Si O2"
_cell_formula_units_Z 13
_cell_length_a 8.184880
_cell_length_b 5.190764
_cell_length_c 14.478946
_cell_angle_alpha 90.000000
_cell_angle_beta 90.000000
_cell_angle_gamma 90.000000
_cell_volume 615.149321
_symmetry_space_group_name_H-M "P 2 2 2"
_symmetry_group_IT_number 16
_symmetry_cell_setting 'orthorhombic'
loop_
_space_group_symop_operation_xyz
x,y,z
-x,-y,z
x,-y,-z
-x,y,-z
loop_
_atom_site_type_symbol
_atom_site_label
_atom_site_fract_x
_atom_site_fract_y
_atom_site_fract_z
Si Si1 0.685456 0.251894 0.458330
Si Si2 0.160216 0.864159 0.821846
Si Si3 0.329540 0.642664 0.241849
Si Si4 0.000000 0.000000 0.000000
O O1 0.769851 0.500000 0.500000
O O2 0.500000 0.251011 0.500000
O O3 0.673164 0.274259 0.349005
O O4 0.765372 0.000000 0.500000
O O5 0.203342 0.589016 0.779663
O O6 0.294123 0.091595 0.811987
O O7 0.000000 0.000000 0.777197
O O8 0.110019 0.836334 0.929337
O O9 0.500000 0.500000 0.221291
#
# Coordination Sequence:
#
# PCOD9310044 Si02
#       4
#     4   4   4   1
#     4  10  19  33  56  92 131 178 197 259 322 414
#     4  10  24  43  69  89 136 182 221 268 342 430
#     4  12  22  38  67 109 127 163 236 288 322 375
#     4   8  24  50  70  86 130 206 214 246 376 438
#
# _framework density 21.133078999999999
#
# number of rings (size 3 to 8) (size 9 to 14) (size 15 to 20)
#    0.923    0.615    3.077    3.692    4.308    2.462 
#    0.000    4.615    0.000   13.846    0.000    0.000 
#    0.000    0.000    0.000    0.000    0.000    0.000 
#
# Total GULP energy -72433.699389 kJ/mol
# GULP energy per Si atom -5571.823030 kJ/mol
# Density = 2.108498 g / cm^3
# Si number density = 21.133079 Si / 1000 Ang^3
#
#
#
# Elastic Constant Matrix: (Units=GPa)
#
#
# Indices 1 2 3 4 5 6 
#
# 1 50.6106 19.3626 32.2462 0.0000 0.0000 0.0000
# 2 19.3626 177.5003 53.8820 0.0000 0.0000 0.0000
# 3 32.2462 53.8820 131.2020 0.0000 0.0000 0.0000
# 4 0.0000 0.0000 0.0000 18.6421 0.0000 0.0000
# 5 0.0000 0.0000 0.0000 0.0000 50.9663 0.0000
# 6 0.0000 0.0000 0.0000 0.0000 0.0000 18.9954
#
#
#
# Elastic Compliance Matrix: (Units=1/GPa)
#
#
# Indices 1 2 3 4 5 6 
#
# 1 0.023560 -0.000928 -0.005409 0.000000 0.000000 0.000000
# 2 -0.000928 0.006473 -0.002430 0.000000 0.000000 0.000000
# 3 -0.005409 -0.002430 0.009949 0.000000 0.000000 0.000000
# 4 0.000000 0.000000 0.000000 0.053642 0.000000 0.000000
# 5 0.000000 0.000000 0.000000 0.000000 0.019621 0.000000
# 6 0.000000 0.000000 0.000000 0.000000 0.000000 0.052644
#
#
# Mechanical properties :
#
#
# Convention : Reuss Voigt Hill
#
# Bulk Modulus (GPa) = 44.54883 63.36603 53.95743
# Shear Modulus (GPa) = 26.19075 34.64224 30.41649
#
# Velocity S-wave (km/s) = 3.52422 4.05315 3.79790
# Velocity P-wave (km/s) = 6.13890 7.20787 6.69476
#
# Compressibility (1/GPa) = 0.02244728
#
# Stress axis : x y z
#
# Youngs Moduli (GPa) = 42.44419 154.49468 100.50901
#
# Poissons Ratio (x) = 0.14337 0.54370
# Poissons Ratio (y) = 0.03939 0.24425
# Poissons Ratio (z) = 0.22960 0.37544
#
# Static dielectric constant tensor:
#      x y z
#    x 1.845210 0.000000 0.000000 
#    y 0.000000 1.767090 0.000000 
#    z 0.000000 0.000000 1.738610 
# 
# From -- ./inp_files/2998.got.cif
#   From: 2010.05.17/outbox.cif.g08.bks.cpg/sg16_2_cif.got.tgz:2998.got - 2010.06.03 22:28:35.
