data_PCOD9310312
_publ_section_title
;
Structure prediction by ZEFSAII (Michael W. Deem and Ramdas Pophale) SiO2 
 PCOD9310312
Probable space group: P 2 2 2
;
_chemical_formula_sum "Si O2"
_cell_formula_units_Z 20
_cell_length_a 30.602907
_cell_length_b 5.193062
_cell_length_c 5.175343
_cell_angle_alpha 90.000000
_cell_angle_beta 90.000000
_cell_angle_gamma 90.000000
_cell_volume 822.479967
_symmetry_space_group_name_H-M "P 2 2 2"
_symmetry_group_IT_number 16
_symmetry_cell_setting 'orthorhombic'
loop_
_space_group_symop_operation_xyz
x,y,z
-x,-y,z
x,-y,-z
-x,y,-z
loop_
_atom_site_type_symbol
_atom_site_label
_atom_site_fract_x
_atom_site_fract_y
_atom_site_fract_z
Si Si1 0.351748 0.500000 0.000000
Si Si2 0.702067 0.000000 0.000000
Si Si3 0.755840 0.000000 0.500000
Si Si4 0.925673 0.320655 0.249740
Si Si5 0.427380 0.257211 0.340989
Si Si6 0.832396 0.323942 0.253116
Si Si7 0.000000 0.000000 0.000000
Si Si8 0.500000 0.000000 0.000000
O O1 0.384388 0.363340 0.200918
O O2 0.323627 0.255783 0.903125
O O3 0.726746 0.103055 0.739349
O O4 0.789247 0.171861 0.329799
O O5 0.931596 0.500000 0.500000
O O6 0.878759 0.173505 0.245794
O O7 0.967675 0.152896 0.189111
O O8 0.921754 0.500000 0.000000
O O9 0.443422 0.500000 0.500000
O O10 0.416218 0.000000 0.500000
O O11 0.466970 0.173826 0.160783
O O12 0.839693 0.500000 0.500000
O O13 0.825941 0.500000 0.000000
#
# Coordination Sequence:
#
# PCOD9310312 Si02
#       8
#     2   2   2   4   4   4   1   1
#     4  12  30  55  74 120 160 218 266 341 406 504
#     4  12  31  49  86 115 166 205 280 335 427 498
#     4  12  28  48  80 117 140 203 260 336 402 506
#     4  10  25  46  69 107 146 195 255 310 384 469
#     4  12  28  50  83 114 165 220 272 335 406 480
#     4  10  23  46  75 105 150 191 246 329 399 471
#     4  12  26  44  76 100 158 206 250 316 372 484
#     4  12  28  50  76 136 158 214 286 346 386 480
#
# _framework density 24.316700999999998
#
# number of rings (size 3 to 8) (size 9 to 14) (size 15 to 20)
#    0.000    0.800    0.000    4.800    8.400   14.800 
#    0.000    2.000    0.000    0.000    0.000    0.000 
#    0.000    0.000    0.000    0.000    0.000    0.000 
#
# Total GULP energy -111821.709994 kJ/mol
# GULP energy per Si atom -5591.085500 kJ/mol
# Density = 2.426136 g / cm^3
# Si number density = 24.316701 Si / 1000 Ang^3
#
#
#
# Elastic Constant Matrix: (Units=GPa)
#
#
# Indices 1 2 3 4 5 6 
#
# 1 143.1937 67.5815 60.5592 0.0000 0.0000 0.0000
# 2 67.5815 136.8443 66.5551 0.0000 0.0000 0.0000
# 3 60.5592 66.5551 184.0740 0.0000 0.0000 0.0000
# 4 0.0000 0.0000 0.0000 42.9131 0.0000 0.0000
# 5 0.0000 0.0000 0.0000 0.0000 69.0550 0.0000
# 6 0.0000 0.0000 0.0000 0.0000 0.0000 46.9081
#
#
#
# Elastic Compliance Matrix: (Units=1/GPa)
#
#
# Indices 1 2 3 4 5 6 
#
# 1 0.009545 -0.003867 -0.001742 0.000000 0.000000 0.000000
# 2 -0.003867 0.010433 -0.002500 0.000000 0.000000 0.000000
# 3 -0.001742 -0.002500 0.006910 0.000000 0.000000 0.000000
# 4 0.000000 0.000000 0.000000 0.023303 0.000000 0.000000
# 5 0.000000 0.000000 0.000000 0.000000 0.014481 0.000000
# 6 0.000000 0.000000 0.000000 0.000000 0.000000 0.021318
#
#
# Mechanical properties :
#
#
# Convention : Reuss Voigt Hill
#
# Bulk Modulus (GPa) = 93.72083 94.83374 94.27728
# Shear Modulus (GPa) = 47.27443 49.73633 48.50538
#
# Velocity S-wave (km/s) = 4.41399 4.52747 4.47109
# Velocity P-wave (km/s) = 8.03761 8.14952 8.09376
#
# Compressibility (1/GPa) = 0.01066999
#
# Stress axis : x y z
#
# Youngs Moduli (GPa) = 104.76379 95.84874 144.72239
#
# Poissons Ratio (x) = 0.37061 0.25215
# Poissons Ratio (y) = 0.40508 0.36183
# Poissons Ratio (z) = 0.18253 0.23964
#
# Static dielectric constant tensor:
#      x y z
#    x 2.044060 0.000000 0.000000 
#    y 0.000000 1.920460 0.000000 
#    z 0.000000 0.000000 1.903410 
# 
# From -- ./inp_files/2862.got.cif
#   From: 2010.05.17/outbox.cif.g08.bks.cpg/sg16_2_cif.got.tgz:2862.got - 2010.06.03 22:28:35.
