data_PCOD9310015
_publ_section_title
;
Structure prediction by ZEFSAII (Michael W. Deem and Ramdas Pophale) SiO2 
 PCOD9310015
Probable space group: P 2 2 2
;
_chemical_formula_sum "Si O2"
_cell_formula_units_Z 20
_cell_length_a 5.524018
_cell_length_b 16.209863
_cell_length_c 9.225466
_cell_angle_alpha 90.000000
_cell_angle_beta 90.000000
_cell_angle_gamma 90.000000
_cell_volume 826.081207
_symmetry_space_group_name_H-M "P 2 2 2"
_symmetry_group_IT_number 16
_symmetry_cell_setting 'orthorhombic'
loop_
_space_group_symop_operation_xyz
x,y,z
-x,-y,z
x,-y,-z
-x,y,-z
loop_
_atom_site_type_symbol
_atom_site_label
_atom_site_fract_x
_atom_site_fract_y
_atom_site_fract_z
Si Si1 0.884829 0.141839 0.195638
Si Si2 0.500662 0.597649 0.175188
Si Si3 0.386246 0.088316 0.225663
Si Si4 0.749898 0.206149 0.503719
Si Si5 0.002179 0.667971 0.166088
O O1 0.115344 0.084782 0.158067
O O2 0.814046 0.146174 0.367616
O O3 0.614448 0.125716 0.137395
O O4 0.973687 0.233745 0.160327
O O5 0.500000 0.500000 0.197972
O O6 0.250643 0.635061 0.233331
O O7 0.746822 0.639814 0.230651
O O8 0.500000 0.612889 0.000000
O O9 0.314416 0.146819 0.361194
O O10 0.500000 0.000000 0.267336
O O11 0.500000 0.255625 0.500000
O O12 0.000000 0.256588 0.500000
O O13 0.000000 0.635668 0.000000
#
# Coordination Sequence:
#
# PCOD9310015 Si02
#       5
#     4   4   4   4   4
#     4  10  19  31  47  69  98 128 162 197 246 301
#     4   9  17  30  49  73  99 127 161 201 246 290
#     4  10  19  32  49  69  94 123 162 211 260 300
#     4   8  16  28  43  64  89 113 146 188 241 292
#     4  10  19  31  49  72 101 135 164 197 240 292
#
# _framework density 24.210695000000001
#
# number of rings (size 3 to 8) (size 9 to 14) (size 15 to 20)
#    0.000    2.600    0.000    2.400    0.000    6.000 
#    0.000   10.000    0.000    3.600    0.000    0.000 
#    0.000  108.000    0.000    0.000    0.000    0.000 
#
# Total GULP energy -111342.834913 kJ/mol
# GULP energy per Si atom -5567.141746 kJ/mol
# Density = 2.415559 g / cm^3
# Si number density = 24.210695 Si / 1000 Ang^3
#
#
#
# Elastic Constant Matrix: (Units=GPa)
#
#
# Indices 1 2 3 4 5 6 
#
# 1 362.7217 81.3888 38.7791 0.0000 0.0000 0.0000
# 2 81.3888 55.8244 -0.2394 0.0000 0.0000 0.0000
# 3 38.7791 -0.2394 61.8953 0.0000 0.0000 0.0000
# 4 0.0000 0.0000 0.0000 12.6593 0.0000 0.0000
# 5 0.0000 0.0000 0.0000 0.0000 25.4876 0.0000
# 6 0.0000 0.0000 0.0000 0.0000 0.0000 38.4336
#
#
#
# Elastic Compliance Matrix: (Units=1/GPa)
#
#
# Indices 1 2 3 4 5 6 
#
# 1 0.004559 -0.006660 -0.002882 0.000000 0.000000 0.000000
# 2 -0.006660 0.027641 0.004279 0.000000 0.000000 0.000000
# 3 -0.002882 0.004279 0.017979 0.000000 0.000000 0.000000
# 4 0.000000 0.000000 0.000000 0.078993 0.000000 0.000000
# 5 0.000000 0.000000 0.000000 0.000000 0.039235 0.000000
# 6 0.000000 0.000000 0.000000 0.000000 0.000000 0.026019
#
#
# Mechanical properties :
#
#
# Convention : Reuss Voigt Hill
#
# Bulk Modulus (GPa) = 25.21816 80.03317 52.62567
# Shear Modulus (GPa) = 22.91795 39.35030 31.13412
#
# Velocity S-wave (km/s) = 3.08003 4.03591 3.58993
# Velocity P-wave (km/s) = 4.80495 7.40586 6.24237
#
# Compressibility (1/GPa) = 0.03965396
#
# Stress axis : x y z
#
# Youngs Moduli (GPa) = 219.32564 36.17786 55.62129
#
# Poissons Ratio (x) = 0.24094 0.16032
# Poissons Ratio (y) = 1.46065 -0.23803
# Poissons Ratio (z) = 0.63217 -0.15482
#
# Static dielectric constant tensor:
#      x y z
#    x 2.191870 0.000000 0.000000 
#    y 0.000000 1.877570 0.000000 
#    z 0.000000 0.000000 2.168910 
# 
# From -- ./inp_files/5897.got.cif
#   From: 2010.05.17/outbox.cif.g08.bks.cpg/sg16_3_cif.got.tgz:5897.got - 2010.06.03 22:28:35.
