data_PCOD9310201
_publ_section_title
;
Structure prediction by ZEFSAII (Michael W. Deem and Ramdas Pophale) SiO2 
 PCOD9310201
Probable space group: P 2 2 2
;
_chemical_formula_sum "Si O2"
_cell_formula_units_Z 25
_cell_length_a 5.599539
_cell_length_b 8.621969
_cell_length_c 23.564865
_cell_angle_alpha 90.000000
_cell_angle_beta 90.000000
_cell_angle_gamma 90.000000
_cell_volume 1137.689335
_symmetry_space_group_name_H-M "P 2 2 2"
_symmetry_group_IT_number 16
_symmetry_cell_setting 'orthorhombic'
loop_
_space_group_symop_operation_xyz
x,y,z
-x,-y,z
x,-y,-z
-x,y,-z
loop_
_atom_site_type_symbol
_atom_site_label
_atom_site_fract_x
_atom_site_fract_y
_atom_site_fract_z
Si Si1 0.500000 0.000000 0.500000
Si Si2 0.001400 0.814619 0.877815
Si Si3 0.499088 0.189175 0.933654
Si Si4 0.876099 0.760818 0.555575
Si Si5 0.600463 0.671929 0.661951
Si Si6 0.815693 0.866017 0.344088
Si Si7 0.030180 0.679783 0.245315
O O1 0.680143 0.884803 0.533944
O O2 0.750284 0.756981 0.904964
O O3 0.000892 0.776589 0.811320
O O4 0.251621 0.756917 0.905064
O O5 0.000000 0.000000 0.886050
O O6 0.500000 0.000000 0.929887
O O7 0.500000 0.230128 0.000000
O O8 0.760414 0.656562 0.604685
O O9 0.000000 0.690074 0.500000
O O10 0.087677 0.834650 0.593037
O O11 0.500000 0.500000 0.665902
O O12 0.464762 0.835179 0.650846
O O13 0.720484 0.700511 0.722803
O O14 0.857712 0.732595 0.296383
O O15 0.000000 0.000000 0.323912
O O16 0.000000 0.500000 0.231473
#
# Coordination Sequence:
#
# PCOD9310201 Si02
#       7
#     1   4   4   4   4   4   4
#     4  12  22  44  66  94 128 168 206 286 350 426
#     4  10  21  37  62  99 134 173 230 283 337 409
#     4   9  18  35  62  96 136 177 221 279 342 401
#     4  11  23  39  65  93 126 159 215 269 340 414
#     4  11  24  44  68  90 131 179 221 279 355 425
#     4  11  23  42  66  94 124 164 221 278 335 410
#     4  11  24  41  64  90 128 175 221 277 340 411
#
# _framework density 21.974364999999999
#
# number of rings (size 3 to 8) (size 9 to 14) (size 15 to 20)
#    0.000    1.440    1.600    4.080    2.240    3.840 
#    2.880    6.000    0.000    2.880    0.000    0.000 
#    0.000    0.000    0.000    0.000    0.000    0.000 
#
# Total GULP energy -139178.420639 kJ/mol
# GULP energy per Si atom -5567.136826 kJ/mol
# Density = 2.192435 g / cm^3
# Si number density = 21.974365 Si / 1000 Ang^3
#
#
#
# Elastic Constant Matrix: (Units=GPa)
#
#
# Indices 1 2 3 4 5 6 
#
# 1 126.8689 27.3601 69.7530 0.0000 0.0000 0.0000
# 2 27.3601 38.4775 5.2441 0.0000 0.0000 0.0000
# 3 69.7530 5.2441 144.3894 0.0000 0.0000 0.0000
# 4 0.0000 0.0000 0.0000 -45.5803 0.0000 0.0000
# 5 0.0000 0.0000 0.0000 0.0000 -66.7682 0.0000
# 6 0.0000 0.0000 0.0000 0.0000 0.0000 19.2010
#
#
#
# Elastic Compliance Matrix: (Units=1/GPa)
#
#
# Indices 1 2 3 4 5 6 
#
# 1 0.012975 -0.008413 -0.005962 0.000000 0.000000 0.000000
# 2 -0.008413 0.031574 0.002918 0.000000 0.000000 0.000000
# 3 -0.005962 0.002918 0.009700 0.000000 0.000000 0.000000
# 4 0.000000 0.000000 0.000000 -0.021939 0.000000 0.000000
# 5 0.000000 0.000000 0.000000 0.000000 -0.014977 0.000000
# 6 0.000000 0.000000 0.000000 0.000000 0.000000 0.052081
#
#
# Mechanical properties :
#
#
# Convention : Reuss Voigt Hill
#
# Bulk Modulus (GPa) = 31.91554 57.16116 44.53835
# Shear Modulus (GPa) = 48.65095 -4.80426 21.92334
#
# Velocity S-wave (km/s) = 4.71041 -1.48022 3.16203
# Velocity P-wave (km/s) = 6.64375 4.81121 5.80031
#
# Compressibility (1/GPa) = 0.03133270
#
# Stress axis : x y z
#
# Youngs Moduli (GPa) = 77.07338 31.67170 103.09171
#
# Poissons Ratio (x) = 0.26646 0.61467
# Poissons Ratio (y) = 0.64844 -0.30078
# Poissons Ratio (z) = 0.45954 -0.09241
#
# Static dielectric constant tensor:
#      x y z
#    x 2.035100 0.000000 0.000000 
#    y 0.000000 1.999840 0.000000 
#    z 0.000000 0.000000 1.726210 
# 
# From -- ./inp_files/9480.got.cif
#   From: 2010.05.17/outbox.cif.g08.bks.cpg/sg16_5_cif.got.tgz:9480.got - 2010.06.03 22:28:35.
