data_PCOD9310727
_publ_section_title
;
Structure prediction by ZEFSAII (Michael W. Deem and Ramdas Pophale) SiO2 
 PCOD9310727
Probable space group: P 2 2 21
;
_chemical_formula_sum "Si O2"
_cell_formula_units_Z 18
_cell_length_a 14.726358
_cell_length_b 13.198737
_cell_length_c 5.166026
_cell_angle_alpha 90.000000
_cell_angle_beta 90.000000
_cell_angle_gamma 90.000000
_cell_volume 1004.116993
_symmetry_space_group_name_H-M "P 2 2 21"
_symmetry_group_IT_number 17
_symmetry_cell_setting 'orthorhombic'
loop_
_space_group_symop_operation_xyz
x,y,z
-x,-y,1/2+z
x,-y,-z
-x,y,1/2-z
loop_
_atom_site_type_symbol
_atom_site_label
_atom_site_fract_x
_atom_site_fract_y
_atom_site_fract_z
Si Si1 0.061453 0.379544 0.000541
Si Si2 0.352674 0.214942 0.585880
Si Si3 0.645276 0.500000 0.500000
Si Si4 0.438085 0.000000 0.500000
Si Si5 0.742288 0.697991 0.599390
Si Si6 0.500000 0.354260 0.750000
O O1 0.153136 0.315007 0.021708
O O2 0.000000 0.358880 0.750000
O O3 0.084665 0.500000 0.000000
O O4 0.000000 0.360757 0.250000
O O5 0.311437 0.248913 0.862357
O O6 0.446872 0.279364 0.554450
O O7 0.378930 0.097963 0.571573
O O8 0.282617 0.243725 0.360644
O O9 0.706281 0.582737 0.643692
O O10 0.578652 0.430055 0.663901
O O11 0.500000 0.023943 0.250000
#
# Coordination Sequence:
#
# PCOD9310727 Si02
#       6
#     4   4   2   2   4   2
#     4  10  20  36  58  85 120 155 189 232 290 352
#     4  11  24  37  60  81 116 150 207 239 291 336
#     4  10  20  32  52  76 122 154 192 226 268 326
#     4  12  24  42  62  84 112 156 198 260 294 330
#     4  11  22  38  56  89 114 157 192 238 282 353
#     4  10  20  36  50  84 110 170 190 238 264 350
#
# _framework density 17.926196999999998
#
# number of rings (size 3 to 8) (size 9 to 14) (size 15 to 20)
#    0.000    1.333    2.222    4.000    3.111    2.667 
#    0.000    0.000    0.000    0.000    0.000   15.556 
#    0.000    0.000    0.000    0.000    0.000    0.000 
#
# Total GULP energy -100440.341914 kJ/mol
# GULP energy per Si atom -5580.018995 kJ/mol
# Density = 1.788540 g / cm^3
# Si number density = 17.926197 Si / 1000 Ang^3
#
#
#
# Elastic Constant Matrix: (Units=GPa)
#
#
# Indices 1 2 3 4 5 6 
#
# 1 97.9200 38.9123 25.7354 0.0000 0.0000 0.0000
# 2 38.9123 119.4002 21.8508 0.0000 0.0000 0.0000
# 3 25.7354 21.8508 93.5809 0.0000 0.0000 0.0000
# 4 0.0000 0.0000 0.0000 31.0205 0.0000 0.0000
# 5 0.0000 0.0000 0.0000 0.0000 13.5252 0.0000
# 6 0.0000 0.0000 0.0000 0.0000 0.0000 17.5964
#
#
#
# Elastic Compliance Matrix: (Units=1/GPa)
#
#
# Indices 1 2 3 4 5 6 
#
# 1 0.012289 -0.003538 -0.002554 0.000000 0.000000 0.000000
# 2 -0.003538 0.009767 -0.001308 0.000000 0.000000 0.000000
# 3 -0.002554 -0.001308 0.011694 0.000000 0.000000 0.000000
# 4 0.000000 0.000000 0.000000 0.032237 0.000000 0.000000
# 5 0.000000 0.000000 0.000000 0.000000 0.073936 0.000000
# 6 0.000000 0.000000 0.000000 0.000000 0.000000 0.056830
#
#
# Mechanical properties :
#
#
# Convention : Reuss Voigt Hill
#
# Bulk Modulus (GPa) = 52.76445 53.76647 53.26546
# Shear Modulus (GPa) = 22.94961 27.38859 25.16910
#
# Velocity S-wave (km/s) = 3.58191 3.91302 3.75112
# Velocity P-wave (km/s) = 6.82678 7.10450 6.96702
#
# Compressibility (1/GPa) = 0.01895216
#
# Stress axis : x y z
#
# Youngs Moduli (GPa) = 81.37068 102.38056 85.51713
#
# Poissons Ratio (x) = 0.36220 0.21838
# Poissons Ratio (y) = 0.28787 0.11184
# Poissons Ratio (z) = 0.20779 0.13389
#
# Static dielectric constant tensor:
#      x y z
#    x 1.601030 0.000000 0.000000 
#    y 0.000000 1.608830 0.000000 
#    z 0.000000 0.000000 1.618580 
# 
# From -- ./inp_files/1433.got.cif
#   From: 2010.05.17/outbox.cif.g08.bks.cpg/sg17_1_cif.got.tgz:1433.got - 2010.06.03 22:34:06.
