data_PCOD9310750
_publ_section_title
;
Structure prediction by ZEFSAII (Michael W. Deem and Ramdas Pophale) SiO2 
 PCOD9310750
Probable space group: P 2 2 21
;
_chemical_formula_sum "Si O2"
_cell_formula_units_Z 24
_cell_length_a 12.920157
_cell_length_b 10.984944
_cell_length_c 9.350754
_cell_angle_alpha 90.000000
_cell_angle_beta 90.000000
_cell_angle_gamma 90.000000
_cell_volume 1327.126344
_symmetry_space_group_name_H-M "P 2 2 21"
_symmetry_group_IT_number 17
_symmetry_cell_setting 'orthorhombic'
loop_
_space_group_symop_operation_xyz
x,y,z
-x,-y,1/2+z
x,-y,-z
-x,y,1/2-z
loop_
_atom_site_type_symbol
_atom_site_label
_atom_site_fract_x
_atom_site_fract_y
_atom_site_fract_z
Si Si1 0.433921 0.000000 0.000000
Si Si2 0.703755 0.214472 0.624517
Si Si3 0.396096 0.465389 0.834667
Si Si4 0.896385 0.158012 0.158369
Si Si5 0.284767 0.300701 0.195516
Si Si6 0.500000 0.837390 0.750000
Si Si7 0.109878 0.130392 0.678443
O O1 0.501400 0.078663 0.109365
O O2 0.361387 0.907725 0.090626
O O3 0.632817 0.324450 0.680827
O O4 0.739643 0.262995 0.468444
O O5 0.796701 0.190085 0.733410
O O6 0.500000 0.492009 0.750000
O O7 0.303361 0.555414 0.789160
O O8 0.414605 0.500000 0.000000
O O9 0.804379 0.243613 0.210185
O O10 0.000000 0.185756 0.250000
O O11 0.872557 0.015540 0.187773
O O12 0.902332 0.166953 0.987076
O O13 0.395752 0.240695 0.234337
O O14 0.000000 0.157262 0.750000
#
# Coordination Sequence:
#
# PCOD9310750 Si02
#       7
#     2   4   4   4   4   2   4
#     4  10  22  34  54  84 120 150 190 240 296 352
#     4  10  21  37  56  83 114 155 189 242 294 343
#     4  10  22  39  59  81 112 157 200 238 287 344
#     4  10  21  36  60  88 115 153 192 243 297 355
#     4  10  20  38  57  80 115 151 197 236 288 344
#     4  10  20  34  54  80 114 154 184 242 296 342
#     4  10  20  36  58  87 117 148 191 241 302 355
#
# _framework density 18.084187
#
# number of rings (size 3 to 8) (size 9 to 14) (size 15 to 20)
#    0.000    2.000    0.833    3.000    1.167    6.667 
#    0.000    0.833    0.000    0.000    0.000    0.000 
#    0.000    0.000    0.000    0.000    0.000    0.000 
#
# Total GULP energy -133925.169408 kJ/mol
# GULP energy per Si atom -5580.215392 kJ/mol
# Density = 1.804303 g / cm^3
# Si number density = 18.084187 Si / 1000 Ang^3
#
#
#
# Elastic Constant Matrix: (Units=GPa)
#
#
# Indices 1 2 3 4 5 6 
#
# 1 102.7770 50.5269 72.5898 0.0000 0.0000 0.0000
# 2 50.5269 87.5191 42.3984 0.0000 0.0000 0.0000
# 3 72.5898 42.3984 96.7997 0.0000 0.0000 0.0000
# 4 0.0000 0.0000 0.0000 17.6429 0.0000 0.0000
# 5 0.0000 0.0000 0.0000 0.0000 36.2374 0.0000
# 6 0.0000 0.0000 0.0000 0.0000 0.0000 48.4164
#
#
#
# Elastic Compliance Matrix: (Units=1/GPa)
#
#
# Indices 1 2 3 4 5 6 
#
# 1 0.023120 -0.006281 -0.014586 0.000000 0.000000 0.000000
# 2 -0.006281 0.016210 -0.002390 0.000000 0.000000 0.000000
# 3 -0.014586 -0.002390 0.022316 0.000000 0.000000 0.000000
# 4 0.000000 0.000000 0.000000 0.056680 0.000000 0.000000
# 5 0.000000 0.000000 0.000000 0.000000 0.027596 0.000000
# 6 0.000000 0.000000 0.000000 0.000000 0.000000 0.020654
#
#
# Mechanical properties :
#
#
# Convention : Reuss Voigt Hill
#
# Bulk Modulus (GPa) = 66.09009 68.68065 67.38537
# Shear Modulus (GPa) = 22.92168 28.56471 25.74320
#
# Velocity S-wave (km/s) = 3.56406 3.97866 3.77705
# Velocity P-wave (km/s) = 7.31859 7.69201 7.50762
#
# Compressibility (1/GPa) = 0.01513086
#
# Stress axis : x y z
#
# Youngs Moduli (GPa) = 43.25273 61.68977 44.81182
#
# Poissons Ratio (x) = 0.38750 0.65364
# Poissons Ratio (y) = 0.27169 0.10709
# Poissons Ratio (z) = 0.63090 0.14742
#
# Static dielectric constant tensor:
#      x y z
#    x 1.581160 0.000000 0.000000 
#    y 0.000000 1.632530 0.000000 
#    z 0.000000 0.000000 1.624330 
# 
# From -- ./inp_files/4813.got.cif
#   From: 2010.05.17/outbox.cif.g08.bks.cpg/sg17_3_cif.got.tgz:4813.got - 2010.06.03 22:34:06.
