data_PCOD9310265
_publ_section_title
;
Structure prediction by ZEFSAII (Michael W. Deem and Ramdas Pophale) SiO2 
 PCOD9310265
Probable space group: P 2 2 2
;
_chemical_formula_sum "Si O2"
_cell_formula_units_Z 32
_cell_length_a 12.843308
_cell_length_b 8.390936
_cell_length_c 14.990065
_cell_angle_alpha 90.000000
_cell_angle_beta 90.000000
_cell_angle_gamma 90.000000
_cell_volume 1615.439963
_symmetry_space_group_name_H-M "P 2 2 2"
_symmetry_group_IT_number 16
_symmetry_cell_setting 'orthorhombic'
loop_
_space_group_symop_operation_xyz
x,y,z
-x,-y,z
x,-y,-z
-x,y,-z
loop_
_atom_site_type_symbol
_atom_site_label
_atom_site_fract_x
_atom_site_fract_y
_atom_site_fract_z
Si Si1 0.017213 0.184362 0.096311
Si Si2 0.766865 0.668140 0.124142
Si Si3 0.430791 0.162701 0.777369
Si Si4 0.624737 0.334902 0.708190
Si Si5 0.893734 0.401206 0.220570
Si Si6 0.288242 0.325514 0.650198
Si Si7 0.622176 0.814081 0.977577
Si Si8 0.378961 0.812932 0.519230
O O1 0.135901 0.215542 0.119300
O O2 0.937598 0.251538 0.167828
O O3 0.000000 0.000000 0.088876
O O4 0.000000 0.265261 0.000000
O O5 0.700511 0.707312 0.211176
O O6 0.820796 0.499535 0.150433
O O7 0.694919 0.699057 0.037182
O O8 0.513127 0.298659 0.750869
O O9 0.343949 0.177712 0.701220
O O10 0.374912 0.199432 0.870881
O O11 0.500000 0.000000 0.782289
O O12 0.649706 0.512326 0.674393
O O13 0.639307 0.224849 0.622147
O O14 0.824744 0.356333 0.306349
O O15 0.000000 0.500000 0.241626
O O16 0.303889 0.285984 0.546508
O O17 0.500000 0.786808 0.000000
O O18 0.646341 0.000000 0.000000
O O19 0.500000 0.767691 0.500000
O O20 0.368473 0.000000 0.500000
#
# Coordination Sequence:
#
# PCOD9310265 Si02
#       8
#     4   4   4   4   4   4   4   4
#     4  10  23  40  63  91 118 160 220 275 323 377
#     4  10  22  40  65  88 125 173 208 268 323 376
#     4  12  22  36  57  86 129 173 220 259 303 380
#     4  11  22  40  60  89 127 166 210 257 311 386
#     4   9  22  45  65  93 126 161 219 277 335 380
#     4  11  24  39  66  92 123 175 209 263 331 380
#     4  11  21  37  57  88 130 178 217 257 312 377
#     4  11  23  39  62  95 130 168 210 253 309 387
#
# _framework density 19.808845000000002
#
# number of rings (size 3 to 8) (size 9 to 14) (size 15 to 20)
#    0.000    1.375    3.750    1.500    3.500    4.750 
#    2.250    0.000    0.000   12.750    0.000    8.750 
#    0.000    0.000    0.000    0.000    0.000    0.000 
#
# Total GULP energy -178627.982069 kJ/mol
# GULP energy per Si atom -5582.124440 kJ/mol
# Density = 1.976376 g / cm^3
# Si number density = 19.808845 Si / 1000 Ang^3
#
#
#
# Elastic Constant Matrix: (Units=GPa)
#
#
# Indices 1 2 3 4 5 6 
#
# 1 99.2489 45.2012 38.1265 0.0000 0.0000 0.0000
# 2 45.2012 62.9169 42.6957 0.0000 0.0000 0.0000
# 3 38.1265 42.6957 121.0431 0.0000 0.0000 0.0000
# 4 0.0000 0.0000 0.0000 22.5702 0.0000 0.0000
# 5 0.0000 0.0000 0.0000 0.0000 -12.7004 0.0000
# 6 0.0000 0.0000 0.0000 0.0000 0.0000 -1.1590
#
#
#
# Elastic Compliance Matrix: (Units=1/GPa)
#
#
# Indices 1 2 3 4 5 6 
#
# 1 0.015112 -0.010027 -0.001223 0.000000 0.000000 0.000000
# 2 -0.010027 0.027548 -0.006559 0.000000 0.000000 0.000000
# 3 -0.001223 -0.006559 0.010960 0.000000 0.000000 0.000000
# 4 0.000000 0.000000 0.000000 0.044306 0.000000 0.000000
# 5 0.000000 0.000000 0.000000 0.000000 -0.078738 0.000000
# 6 0.000000 0.000000 0.000000 0.000000 0.000000 -0.862791
#
#
# Mechanical properties :
#
#
# Convention : Reuss Voigt Hill
#
# Bulk Modulus (GPa) = 55.54668 59.47283 57.50975
# Shear Modulus (GPa) = -6.23455 12.22119 2.99332
#
# Velocity S-wave (km/s) = -1.77600 2.48655 1.23060
# Velocity P-wave (km/s) = 4.88842 6.19132 5.57804
#
# Compressibility (1/GPa) = 0.01800288
#
# Stress axis : x y z
#
# Youngs Moduli (GPa) = 66.17191 36.29968 91.23779
#
# Poissons Ratio (x) = 0.36397 0.11161
# Poissons Ratio (y) = 0.66350 0.59842
# Poissons Ratio (z) = 0.08095 0.23809
#
# Static dielectric constant tensor:
#      x y z
#    x 1.676760 0.000000 0.000000 
#    y 0.000000 1.712390 0.000000 
#    z 0.000000 0.000000 1.708850 
# 
# From -- ./inp_files/8213.got.cif
#   From: 2010.05.17/outbox.cif.g08.bks.cpg/sg16_5_cif.got.tgz:8213.got - 2010.06.03 22:28:35.
