data_PCOD9310171
_publ_section_title
;
Structure prediction by ZEFSAII (Michael W. Deem and Ramdas Pophale) SiO2 
 PCOD9310171
Probable space group: P 2 2 2
;
_chemical_formula_sum "Si O2"
_cell_formula_units_Z 23
_cell_length_a 13.295391
_cell_length_b 9.439087
_cell_length_c 9.015639
_cell_angle_alpha 90.000000
_cell_angle_beta 90.000000
_cell_angle_gamma 90.000000
_cell_volume 1131.429809
_symmetry_space_group_name_H-M "P 2 2 2"
_symmetry_group_IT_number 16
_symmetry_cell_setting 'orthorhombic'
loop_
_space_group_symop_operation_xyz
x,y,z
-x,-y,z
x,-y,-z
-x,y,-z
loop_
_atom_site_type_symbol
_atom_site_label
_atom_site_fract_x
_atom_site_fract_y
_atom_site_fract_z
Si Si1 0.564211 0.126350 0.220751
Si Si2 0.382043 0.729312 0.657517
Si Si3 0.333867 0.329692 0.006074
Si Si4 0.500000 0.500000 0.500000
Si Si5 0.000000 0.500000 0.000000
Si Si6 0.000000 0.000000 0.000000
Si Si7 0.758762 0.864873 0.585944
Si Si8 0.874496 0.251841 0.146898
O O1 0.484023 0.178901 0.341369
O O2 0.590112 0.251461 0.106548
O O3 0.668976 0.085430 0.300841
O O4 0.500000 0.000000 0.151469
O O5 0.424315 0.580012 0.607539
O O6 0.298831 0.777195 0.540788
O O7 0.345966 0.722664 0.826197
O O8 0.225276 0.279061 0.949580
O O9 0.343531 0.500000 0.000000
O O10 0.060293 0.391246 0.892489
O O11 0.931526 0.891349 0.904670
O O12 0.836072 0.775359 0.685358
O O13 0.803374 0.000000 0.500000
#
# Coordination Sequence:
#
# PCOD9310171 Si02
#       8
#     4   4   4   1   1   1   4   4
#     4  11  22  41  61  95 135 193 238 278 319 379
#     4  12  24  37  61  89 137 186 227 275 320 390
#     4  11  25  42  66  98 136 177 242 288 331 401
#     4  12  24  36  56  84 132 194 226 262 344 368
#     4  10  20  50  84 104 130 162 230 302 372 442
#     4  10  24  46  74 102 126 174 222 278 384 442
#     4  11  23  42  66  97 141 177 227 279 340 406
#     4  10  24  44  77 101 131 171 222 294 364 429
#
# _framework density 20.328261999999999
#
# number of rings (size 3 to 8) (size 9 to 14) (size 15 to 20)
#    0.000    1.043    4.348    1.565    4.870    2.087 
#    0.000    0.435    0.000    1.043    0.000    0.000 
#    0.000    0.000    0.000    0.000    0.000    0.000 
#
# Total GULP energy -128361.051100 kJ/mol
# GULP energy per Si atom -5580.915265 kJ/mol
# Density = 2.028199 g / cm^3
# Si number density = 20.328262 Si / 1000 Ang^3
#
#
#
# Elastic Constant Matrix: (Units=GPa)
#
#
# Indices 1 2 3 4 5 6 
#
# 1 90.9957 61.4479 59.1322 0.0000 0.0000 0.0000
# 2 61.4479 134.5208 68.1393 0.0000 0.0000 0.0000
# 3 59.1322 68.1393 162.8009 0.0000 0.0000 0.0000
# 4 0.0000 0.0000 0.0000 37.0942 0.0000 0.0000
# 5 0.0000 0.0000 0.0000 0.0000 37.1677 0.0000
# 6 0.0000 0.0000 0.0000 0.0000 0.0000 29.8872
#
#
#
# Elastic Compliance Matrix: (Units=1/GPa)
#
#
# Indices 1 2 3 4 5 6 
#
# 1 0.017602 -0.006094 -0.003843 0.000000 0.000000 0.000000
# 2 -0.006094 0.011544 -0.002618 0.000000 0.000000 0.000000
# 3 -0.003843 -0.002618 0.008634 0.000000 0.000000 0.000000
# 4 0.000000 0.000000 0.000000 0.026958 0.000000 0.000000
# 5 0.000000 0.000000 0.000000 0.000000 0.026905 0.000000
# 6 0.000000 0.000000 0.000000 0.000000 0.000000 0.033459
#
#
# Mechanical properties :
#
#
# Convention : Reuss Voigt Hill
#
# Bulk Modulus (GPa) = 78.92674 85.08403 82.00538
# Shear Modulus (GPa) = 32.37617 34.13635 33.25626
#
# Velocity S-wave (km/s) = 3.99515 4.10232 4.04909
# Velocity P-wave (km/s) = 7.75835 8.02400 7.89230
#
# Compressibility (1/GPa) = 0.01266998
#
# Stress axis : x y z
#
# Youngs Moduli (GPa) = 56.81255 86.62832 115.82112
#
# Poissons Ratio (x) = 0.52790 0.44507
# Poissons Ratio (y) = 0.34621 0.30323
# Poissons Ratio (z) = 0.21831 0.22680
#
# Static dielectric constant tensor:
#      x y z
#    x 1.722870 0.000000 0.000000 
#    y 0.000000 1.634030 0.000000 
#    z 0.000000 0.000000 1.649900 
# 
# From -- ./inp_files/5144.got.cif
#   From: 2010.05.17/outbox.cif.g08.bks.cpg/sg16_3_cif.got.tgz:5144.got - 2010.06.03 22:28:35.
