data_PCOD9310028
_publ_section_title
;
Structure prediction by ZEFSAII (Michael W. Deem and Ramdas Pophale) SiO2 
 PCOD9310028
Probable space group: P 2 2 2
;
_chemical_formula_sum "Si O2"
_cell_formula_units_Z 29
_cell_length_a 14.086177
_cell_length_b 5.224712
_cell_length_c 20.294614
_cell_angle_alpha 90.000000
_cell_angle_beta 90.000000
_cell_angle_gamma 90.000000
_cell_volume 1493.606836
_symmetry_space_group_name_H-M "P 2 2 2"
_symmetry_group_IT_number 16
_symmetry_cell_setting 'orthorhombic'
loop_
_space_group_symop_operation_xyz
x,y,z
-x,-y,z
x,-y,-z
-x,y,-z
loop_
_atom_site_type_symbol
_atom_site_label
_atom_site_fract_x
_atom_site_fract_y
_atom_site_fract_z
Si Si1 0.885689 0.014349 0.425519
Si Si2 0.360111 0.852782 0.918533
Si Si3 0.394038 0.896880 0.761104
Si Si4 0.113868 0.486663 0.341360
Si Si5 0.500000 0.500000 0.000000
Si Si6 0.743196 0.642153 0.910558
Si Si7 0.717615 0.393585 0.246808
Si Si8 0.959095 0.750358 0.925501
O O1 0.864083 0.283224 0.391763
O O2 0.847347 0.000000 0.500000
O O3 0.861316 0.778222 0.377957
O O4 0.000000 0.000000 0.430610
O O5 0.383627 0.875009 0.840820
O O6 0.274340 0.650909 0.931313
O O7 0.330699 0.142781 0.936508
O O8 0.444427 0.696285 0.952328
O O9 0.359483 0.616703 0.738022
O O10 0.500000 0.000000 0.747235
O O11 0.322766 0.115170 0.734521
O O12 0.182918 0.531876 0.279817
O O13 0.000000 0.500000 0.326569
O O14 0.731736 0.627663 0.831829
O O15 0.847007 0.738014 0.927953
O O16 0.000000 0.500000 0.891500
O O17 0.000000 0.000000 0.891548
O O18 0.000000 0.750542 0.000000
#
# Coordination Sequence:
#
# PCOD9310028 Si02
#       8
#     4   4   4   4   1   4   4   4
#     4   9  17  30  50  78 118 167 202 230 276 324
#     4  10  25  39  59  80 109 135 168 225 289 366
#     4  10  21  39  62  77 110 141 181 235 297 345
#     4  10  19  32  52  83 124 158 195 240 272 325
#     4  12  28  38  60  90 106 138 180 222 290 386
#     4  10  22  42  55  78 110 142 176 225 291 336
#     4  10  21  36  57  85 108 149 187 231 284 343
#     4  10  21  36  58  76  96 133 181 223 262 321
#
# _framework density 19.416087000000001
#
# number of rings (size 3 to 8) (size 9 to 14) (size 15 to 20)
#    0.000    2.069    0.000    2.483    5.793    6.621 
#    0.000    2.069    0.000    0.000    0.000    0.000 
#    0.000   38.621    0.000    0.000    0.000    0.000 
#
# Total GULP energy -161845.641211 kJ/mol
# GULP energy per Si atom -5580.884180 kJ/mol
# Density = 1.937189 g / cm^3
# Si number density = 19.416087 Si / 1000 Ang^3
#
#
#
# Elastic Constant Matrix: (Units=GPa)
#
#
# Indices 1 2 3 4 5 6 
#
# 1 97.1409 38.6962 23.3333 0.0000 0.0000 0.0000
# 2 38.6962 141.9541 33.1554 0.0000 0.0000 0.0000
# 3 23.3333 33.1554 48.6904 0.0000 0.0000 0.0000
# 4 0.0000 0.0000 0.0000 10.2628 0.0000 0.0000
# 5 0.0000 0.0000 0.0000 0.0000 8.1816 0.0000
# 6 0.0000 0.0000 0.0000 0.0000 0.0000 28.7828
#
#
#
# Elastic Compliance Matrix: (Units=1/GPa)
#
#
# Indices 1 2 3 4 5 6 
#
# 1 0.012255 -0.002341 -0.004278 0.000000 0.000000 0.000000
# 2 -0.002341 0.008824 -0.004887 0.000000 0.000000 0.000000
# 3 -0.004278 -0.004887 0.025916 0.000000 0.000000 0.000000
# 4 0.000000 0.000000 0.000000 0.097440 0.000000 0.000000
# 5 0.000000 0.000000 0.000000 0.000000 0.122226 0.000000
# 6 0.000000 0.000000 0.000000 0.000000 0.000000 0.034743
#
#
# Mechanical properties :
#
#
# Convention : Reuss Voigt Hill
#
# Bulk Modulus (GPa) = 41.69833 53.12835 47.41334
# Shear Modulus (GPa) = 15.04170 22.28548 18.66359
#
# Velocity S-wave (km/s) = 2.78637 3.39157 3.10376
# Velocity P-wave (km/s) = 5.64576 6.53907 6.10877
#
# Compressibility (1/GPa) = 0.02398177
#
# Stress axis : x y z
#
# Youngs Moduli (GPa) = 81.60176 113.32570 38.58659
#
# Poissons Ratio (x) = 0.26533 0.16509
# Poissons Ratio (y) = 0.19105 0.18856
# Poissons Ratio (z) = 0.34912 0.55379
#
# Static dielectric constant tensor:
#      x y z
#    x 1.706470 0.000000 0.000000 
#    y 0.000000 1.724710 0.000000 
#    z 0.000000 0.000000 1.678640 
# 
# From -- ./inp_files/9341.got.cif
#   From: 2010.05.17/outbox.cif.g08.bks.cpg/sg16_5_cif.got.tgz:9341.got - 2010.06.03 22:28:35.
