data_PCOD9310658
_publ_section_title
;
Structure prediction by ZEFSAII (Michael W. Deem and Ramdas Pophale) SiO2 
 PCOD9310658
Probable space group: P 2 2 21
;
_chemical_formula_sum "Si O2"
_cell_formula_units_Z 14
_cell_length_a 7.904563
_cell_length_b 16.919259
_cell_length_c 5.003122
_cell_angle_alpha 90.000000
_cell_angle_beta 90.000000
_cell_angle_gamma 90.000000
_cell_volume 669.114278
_symmetry_space_group_name_H-M "P 2 2 21"
_symmetry_group_IT_number 17
_symmetry_cell_setting 'orthorhombic'
loop_
_space_group_symop_operation_xyz
x,y,z
-x,-y,1/2+z
x,-y,-z
-x,y,1/2-z
loop_
_atom_site_type_symbol
_atom_site_label
_atom_site_fract_x
_atom_site_fract_y
_atom_site_fract_z
Si Si1 0.374309 0.000000 0.500000
Si Si2 0.812254 0.670965 0.135328
Si Si3 0.625744 0.828146 0.999567
Si Si4 0.311247 0.417688 0.132173
O O1 0.285322 0.085323 0.490764
O O2 0.500000 0.000294 0.750000
O O3 0.697039 0.643787 0.386500
O O4 0.000000 0.672922 0.250000
O O5 0.752361 0.755632 0.027519
O O6 0.795952 0.611349 0.885718
O O7 0.500000 0.818393 0.750000
O O8 0.500000 0.827596 0.250000
O O9 0.500000 0.426385 0.250000
O O10 0.255518 0.500000 0.000000
#
# Coordination Sequence:
#
# PCOD9310658 Si02
#       4
#     2   4   4   4
#     4   8  16  30  54  88 116 150 202 252 288 334
#     4  12  25  40  62  93 127 159 195 245 307 362
#     4  10  19  35  61  88 119 159 205 248 291 348
#     4  12  25  44  66  88 116 157 206 252 297 355
#
# _framework density 20.923181
#
# number of rings (size 3 to 8) (size 9 to 14) (size 15 to 20)
#    0.000    1.143    0.000    8.571    0.000    2.286 
#    0.000    1.429    0.000   13.714    0.000    0.000 
#    0.000    0.000    0.000    0.000    0.000    0.000 
#
# Total GULP energy -78255.415133 kJ/mol
# GULP energy per Si atom -5589.672510 kJ/mol
# Density = 2.087556 g / cm^3
# Si number density = 20.923181 Si / 1000 Ang^3
#
#
#
# Elastic Constant Matrix: (Units=GPa)
#
#
# Indices 1 2 3 4 5 6 
#
# 1 67.2385 59.7802 41.2426 0.0000 0.0000 0.0000
# 2 59.7802 185.4203 66.1870 0.0000 0.0000 0.0000
# 3 41.2426 66.1870 182.2098 0.0000 0.0000 0.0000
# 4 0.0000 0.0000 0.0000 34.7901 0.0000 0.0000
# 5 0.0000 0.0000 0.0000 0.0000 34.0507 0.0000
# 6 0.0000 0.0000 0.0000 0.0000 0.0000 -9.2234
#
#
#
# Elastic Compliance Matrix: (Units=1/GPa)
#
#
# Indices 1 2 3 4 5 6 
#
# 1 0.021994 -0.006106 -0.002760 0.000000 0.000000 0.000000
# 2 -0.006106 0.007892 -0.001485 0.000000 0.000000 0.000000
# 3 -0.002760 -0.001485 0.006652 0.000000 0.000000 0.000000
# 4 0.000000 0.000000 0.000000 0.028744 0.000000 0.000000
# 5 0.000000 0.000000 0.000000 0.000000 0.029368 0.000000
# 6 0.000000 0.000000 0.000000 0.000000 0.000000 -0.108420
#
#
# Mechanical properties :
#
#
# Convention : Reuss Voigt Hill
#
# Bulk Modulus (GPa) = 63.14509 85.47648 74.31079
# Shear Modulus (GPa) = 409.51546 29.76740 219.64143
#
# Velocity S-wave (km/s) = 14.00529 3.77596 10.25685
# Velocity P-wave (km/s) = 17.08145 7.74285 13.26137
#
# Compressibility (1/GPa) = 0.01583654
#
# Stress axis : x y z
#
# Youngs Moduli (GPa) = 45.46706 126.71782 150.32472
#
# Poissons Ratio (x) = 0.77369 0.41496
# Poissons Ratio (y) = 0.27760 0.22317
# Poissons Ratio (z) = 0.12551 0.18812
#
# Static dielectric constant tensor:
#      x y z
#    x 1.715780 0.000000 0.000000 
#    y 0.000000 1.842210 0.000000 
#    z 0.000000 0.000000 1.711600 
# 
# From -- ./inp_files/705.got.cif
#   From: 2010.05.17/outbox.cif.g08.bks.cpg/sg17_1_cif.got.tgz:705.got - 2010.06.03 22:34:06.
