data_PCOD9310437
_publ_section_title
;
Structure prediction by ZEFSAII (Michael W. Deem and Ramdas Pophale) SiO2 
 PCOD9310437
Probable space group: P 2 2 21
;
_chemical_formula_sum "Si O2"
_cell_formula_units_Z 26
_cell_length_a 29.536689
_cell_length_b 7.182387
_cell_length_c 5.179510
_cell_angle_alpha 90.000000
_cell_angle_beta 90.000000
_cell_angle_gamma 90.000000
_cell_volume 1098.801613
_symmetry_space_group_name_H-M "P 2 2 21"
_symmetry_group_IT_number 17
_symmetry_cell_setting 'orthorhombic'
loop_
_space_group_symop_operation_xyz
x,y,z
-x,-y,1/2+z
x,-y,-z
-x,y,1/2-z
loop_
_atom_site_type_symbol
_atom_site_label
_atom_site_fract_x
_atom_site_fract_y
_atom_site_fract_z
Si Si1 0.320588 0.774507 0.529800
Si Si2 0.905744 0.723849 0.442948
Si Si3 0.633005 0.782465 0.481237
Si Si4 0.772011 0.133081 0.245870
Si Si5 0.000000 0.370492 0.750000
Si Si6 0.863719 0.717820 0.936958
Si Si7 0.472848 0.276047 0.995214
O O1 0.335168 0.705405 0.247455
O O2 0.272277 0.745926 0.669914
O O3 0.322984 0.000000 0.500000
O O4 0.356770 0.704736 0.736333
O O5 0.900366 0.500000 0.500000
O O6 0.955445 0.743374 0.324754
O O7 0.899605 0.798304 0.731905
O O8 0.870089 0.795446 0.227409
O O9 0.579441 0.772868 0.448428
O O10 0.645229 0.000000 0.500000
O O11 0.816996 0.256068 0.219924
O O12 0.767090 0.000000 0.500000
O O13 0.777049 0.000000 0.000000
O O14 0.010411 0.500000 0.500000
O O15 0.870116 0.500000 0.000000
O O16 0.500000 0.207443 0.750000
O O17 0.473852 0.500000 0.000000
O O18 0.500000 0.214638 0.250000
#
# Coordination Sequence:
#
# PCOD9310437 Si02
#       7
#     4   4   4   4   2   4   4
#     4   9  18  33  53  76 102 129 166 216 263 302
#     4   9  17  29  47  73 106 138 170 218 275 325
#     4  10  19  33  54  77  99 128 166 213 259 299
#     4  11  21  36  57  79 104 143 186 220 264 334
#     4  10  16  26  46  74 104 138 178 216 266 332
#     4  10  20  34  51  77 110 138 171 225 282 320
#     4  10  21  36  52  73 105 140 170 204 251 309
#
# _framework density 23.662143
#
# number of rings (size 3 to 8) (size 9 to 14) (size 15 to 20)
#    0.000    2.154    0.000    6.462    0.000    0.615 
#    0.000    1.538    0.000    0.000    0.000   10.769 
#    0.000    0.000    0.000    0.000    0.000    0.000 
#
# Total GULP energy -144951.881662 kJ/mol
# GULP energy per Si atom -5575.072372 kJ/mol
# Density = 2.360829 g / cm^3
# Si number density = 23.662143 Si / 1000 Ang^3
#
#
#
# Elastic Constant Matrix: (Units=GPa)
#
#
# Indices 1 2 3 4 5 6 
#
# 1 145.9114 -13.1467 73.4294 0.0000 0.0000 0.0000
# 2 -13.1467 67.1090 11.9391 0.0000 0.0000 0.0000
# 3 73.4294 11.9391 203.0158 0.0000 0.0000 0.0000
# 4 0.0000 0.0000 0.0000 -171.1943 0.0000 0.0000
# 5 0.0000 0.0000 0.0000 0.0000 40.5054 0.0000
# 6 0.0000 0.0000 0.0000 0.0000 0.0000 18.7764
#
#
#
# Elastic Compliance Matrix: (Units=1/GPa)
#
#
# Indices 1 2 3 4 5 6 
#
# 1 0.008714 0.002292 -0.003287 0.000000 0.000000 0.000000
# 2 0.002292 0.015661 -0.001750 0.000000 0.000000 0.000000
# 3 -0.003287 -0.001750 0.006217 0.000000 0.000000 0.000000
# 4 0.000000 0.000000 0.000000 -0.005841 0.000000 0.000000
# 5 0.000000 0.000000 0.000000 0.000000 0.024688 0.000000
# 6 0.000000 0.000000 0.000000 0.000000 0.000000 0.053258
#
#
# Mechanical properties :
#
#
# Convention : Reuss Voigt Hill
#
# Bulk Modulus (GPa) = 39.83550 62.27555 51.05553
# Shear Modulus (GPa) = 42.89828 0.53847 21.71837
#
# Velocity S-wave (km/s) = 4.26249 0.47756 3.03290
# Velocity P-wave (km/s) = 6.41068 5.16525 5.82137
#
# Compressibility (1/GPa) = 0.02510324
#
# Stress axis : x y z
#
# Youngs Moduli (GPa) = 114.75921 63.85117 160.84015
#
# Poissons Ratio (x) = -0.14633 0.52861
# Poissons Ratio (y) = -0.26300 0.28146
# Poissons Ratio (z) = 0.37716 0.11174
#
# Static dielectric constant tensor:
#      x y z
#    x 2.345230 0.000000 0.000000 
#    y 0.000000 1.995150 0.000000 
#    z 0.000000 0.000000 1.905640 
# 
# From -- ./inp_files/3198.got.cif
#   From: 2010.05.17/outbox.cif.g08.bks.cpg/sg17_2_cif.got.tgz:3198.got - 2010.06.03 22:34:06.
