data_PCOD9310189
_publ_section_title
;
Structure prediction by ZEFSAII (Michael W. Deem and Ramdas Pophale) SiO2 
 PCOD9310189
Probable space group: P 2 2 2
;
_chemical_formula_sum "Si O2"
_cell_formula_units_Z 24
_cell_length_a 10.838400
_cell_length_b 11.453853
_cell_length_c 8.890552
_cell_angle_alpha 90.000000
_cell_angle_beta 90.000000
_cell_angle_gamma 90.000000
_cell_volume 1103.685931
_symmetry_space_group_name_H-M "P 2 2 2"
_symmetry_group_IT_number 16
_symmetry_cell_setting 'orthorhombic'
loop_
_space_group_symop_operation_xyz
x,y,z
-x,-y,z
x,-y,-z
-x,y,-z
loop_
_atom_site_type_symbol
_atom_site_label
_atom_site_fract_x
_atom_site_fract_y
_atom_site_fract_z
Si Si1 0.063263 0.127115 0.851879
Si Si2 0.649115 0.487392 0.176322
Si Si3 0.813826 0.865979 0.551801
Si Si4 0.305795 0.268518 0.297382
Si Si5 0.589044 0.245452 0.293878
Si Si6 0.666472 0.869385 0.989704
O O1 0.085049 0.168242 0.678828
O O2 0.202833 0.117633 0.906508
O O3 0.000000 0.000000 0.839427
O O4 0.000000 0.187114 0.000000
O O5 0.500000 0.500000 0.174504
O O6 0.709708 0.595880 0.260615
O O7 0.663302 0.367433 0.270131
O O8 0.686933 0.500000 0.000000
O O9 0.796343 0.783343 0.407713
O O10 0.676295 0.847309 0.623461
O O11 0.831550 0.000000 0.500000
O O12 0.449385 0.258923 0.351840
O O13 0.305397 0.193486 0.145409
O O14 0.580367 0.203140 0.121718
O O15 0.621767 0.000000 0.000000
#
# Coordination Sequence:
#
# PCOD9310189 Si02
#       6
#     4   4   4   4   4   4
#     4  10  21  42  64  80 116 155 209 273 320 392
#     4   9  17  34  58  85 121 178 236 257 280 349
#     4  11  25  38  56  94 131 160 210 253 339 400
#     4  11  21  35  57  90 134 173 213 259 302 369
#     4  10  21  36  56  85 135 182 208 251 301 372
#     4  11  20  33  57  91 121 162 222 247 315 390
#
# _framework density 21.745317
#
# number of rings (size 3 to 8) (size 9 to 14) (size 15 to 20)
#    0.000    1.667    3.333    3.000    0.000    5.000 
#    0.000    2.500    0.000    0.000    0.000    9.333 
#   10.000    0.000    0.000    0.000    0.000    0.000 
#
# Total GULP energy -133753.498062 kJ/mol
# GULP energy per Si atom -5573.062419 kJ/mol
# Density = 2.169582 g / cm^3
# Si number density = 21.745317 Si / 1000 Ang^3
#
#
#
# Elastic Constant Matrix: (Units=GPa)
#
#
# Indices 1 2 3 4 5 6 
#
# 1 78.6421 11.3490 27.4155 0.0000 0.0000 0.0000
# 2 11.3490 116.8958 47.9901 0.0000 0.0000 0.0000
# 3 27.4155 47.9901 122.1298 0.0000 0.0000 0.0000
# 4 0.0000 0.0000 0.0000 19.6961 0.0000 0.0000
# 5 0.0000 0.0000 0.0000 0.0000 51.2558 0.0000
# 6 0.0000 0.0000 0.0000 0.0000 0.0000 16.7274
#
#
#
# Elastic Compliance Matrix: (Units=1/GPa)
#
#
# Indices 1 2 3 4 5 6 
#
# 1 0.013796 -0.000081 -0.003065 0.000000 0.000000 0.000000
# 2 -0.000081 0.010201 -0.003990 0.000000 0.000000 0.000000
# 3 -0.003065 -0.003990 0.010444 0.000000 0.000000 0.000000
# 4 0.000000 0.000000 0.000000 0.050772 0.000000 0.000000
# 5 0.000000 0.000000 0.000000 0.000000 0.019510 0.000000
# 6 0.000000 0.000000 0.000000 0.000000 0.000000 0.059782
#
#
# Mechanical properties :
#
#
# Convention : Reuss Voigt Hill
#
# Bulk Modulus (GPa) = 49.58312 54.57521 52.07916
# Shear Modulus (GPa) = 26.95425 32.93004 29.94215
#
# Velocity S-wave (km/s) = 3.52453 3.89569 3.71475
# Velocity P-wave (km/s) = 6.27809 6.73700 6.51159
#
# Compressibility (1/GPa) = 0.02016815
#
# Stress axis : x y z
#
# Youngs Moduli (GPa) = 72.48448 98.03382 95.74956
#
# Poissons Ratio (x) = 0.00795 0.29348
# Poissons Ratio (y) = 0.00588 0.38204
# Poissons Ratio (z) = 0.22217 0.39116
#
# Static dielectric constant tensor:
#      x y z
#    x 1.821260 0.000000 0.000000 
#    y 0.000000 1.783690 0.000000 
#    z 0.000000 0.000000 1.915050 
# 
# From -- ./inp_files/4705.got.cif
#   From: 2010.05.17/outbox.cif.g08.bks.cpg/sg16_3_cif.got.tgz:4705.got - 2010.06.03 22:28:35.
