data_PCOD9310143
_publ_section_title
;
Structure prediction by ZEFSAII (Michael W. Deem and Ramdas Pophale) SiO2 
 PCOD9310143
Probable space group: P 2 2 2
;
_chemical_formula_sum "Si O2"
_cell_formula_units_Z 32
_cell_length_a 12.680343
_cell_length_b 11.828765
_cell_length_c 11.265409
_cell_angle_alpha 90.000000
_cell_angle_beta 90.000000
_cell_angle_gamma 90.000000
_cell_volume 1689.730211
_symmetry_space_group_name_H-M "P 2 2 2"
_symmetry_group_IT_number 16
_symmetry_cell_setting 'orthorhombic'
loop_
_space_group_symop_operation_xyz
x,y,z
-x,-y,z
x,-y,-z
-x,y,-z
loop_
_atom_site_type_symbol
_atom_site_label
_atom_site_fract_x
_atom_site_fract_y
_atom_site_fract_z
Si Si1 0.105298 0.937849 0.308907
Si Si2 0.273872 0.002576 0.864249
Si Si3 0.803067 0.331149 0.728952
Si Si4 0.366935 0.747484 0.137062
Si Si5 0.608757 0.227342 0.859765
Si Si6 0.816304 0.599333 0.754109
Si Si7 0.987908 0.745467 0.862813
Si Si8 0.874811 0.743716 0.525839
O O1 0.186466 0.016193 0.237293
O O2 0.066219 0.846395 0.210892
O O3 0.152637 0.865316 0.416759
O O4 0.000000 0.000000 0.349393
O O5 0.319066 0.127610 0.842311
O O6 0.363082 0.906289 0.859549
O O7 0.230556 0.000000 0.000000
O O8 0.692607 0.288071 0.777644
O O9 0.808934 0.466063 0.740461
O O10 0.819066 0.288685 0.595280
O O11 0.899267 0.281544 0.806453
O O12 0.488756 0.748450 0.175269
O O13 0.291340 0.656937 0.199202
O O14 0.370519 0.731847 0.994721
O O15 0.909168 0.639623 0.843146
O O16 0.847781 0.653359 0.627622
O O17 0.000000 0.773960 0.000000
O O18 0.000000 0.743129 0.500000
#
# Coordination Sequence:
#
# PCOD9310143 Si02
#       8
#     4   4   4   4   4   4   4   4
#     4  11  23  37  60  93 129 168 204 256 313 377
#     4  10  20  37  64  92 125 164 204 247 306 383
#     4  12  24  40  61  93 121 163 220 256 319 372
#     4  10  20  43  64  93 127 164 208 254 321 374
#     4  10  23  38  65  95 128 163 203 260 316 389
#     4  11  23  40  65  87 120 168 213 266 309 377
#     4  11  23  37  56  89 132 164 202 258 322 384
#     4  11  23  44  60  86 123 168 214 258 306 371
#
# _framework density 18.937933999999998
#
# number of rings (size 3 to 8) (size 9 to 14) (size 15 to 20)
#    0.000    1.250    5.000    2.625    3.500    5.250 
#    0.000    1.875    0.000    1.500    3.250    0.000 
#    0.000    0.000    0.000    0.000    0.000    0.000 
#
# Total GULP energy -178884.800289 kJ/mol
# GULP energy per Si atom -5590.150009 kJ/mol
# Density = 1.889483 g / cm^3
# Si number density = 18.937934 Si / 1000 Ang^3
#
#
#
# Elastic Constant Matrix: (Units=GPa)
#
#
# Indices 1 2 3 4 5 6 
#
# 1 111.2615 21.5113 38.4820 0.0000 0.0000 0.0000
# 2 21.5113 73.4548 39.2667 0.0000 0.0000 0.0000
# 3 38.4820 39.2667 72.3607 0.0000 0.0000 0.0000
# 4 0.0000 0.0000 0.0000 3.8888 0.0000 0.0000
# 5 0.0000 0.0000 0.0000 0.0000 26.3373 0.0000
# 6 0.0000 0.0000 0.0000 0.0000 0.0000 8.1942
#
#
#
# Elastic Compliance Matrix: (Units=1/GPa)
#
#
# Indices 1 2 3 4 5 6 
#
# 1 0.011015 -0.000133 -0.005786 0.000000 0.000000 0.000000
# 2 -0.000133 0.019178 -0.010336 0.000000 0.000000 0.000000
# 3 -0.005786 -0.010336 0.022506 0.000000 0.000000 0.000000
# 4 0.000000 0.000000 0.000000 0.257151 0.000000 0.000000
# 5 0.000000 0.000000 0.000000 0.000000 0.037969 0.000000
# 6 0.000000 0.000000 0.000000 0.000000 0.000000 0.122038
#
#
# Mechanical properties :
#
#
# Convention : Reuss Voigt Hill
#
# Bulk Modulus (GPa) = 49.53275 50.62189 50.07732
# Shear Modulus (GPa) = 9.82134 18.20519 14.01327
#
# Velocity S-wave (km/s) = 2.27976 3.10386 2.72317
# Velocity P-wave (km/s) = 5.75690 6.29553 6.03223
#
# Compressibility (1/GPa) = 0.02018866
#
# Stress axis : x y z
#
# Youngs Moduli (GPa) = 90.78881 52.14232 44.43345
#
# Poissons Ratio (x) = 0.00693 0.25707
# Poissons Ratio (y) = 0.01206 0.45929
# Poissons Ratio (z) = 0.52526 0.53897
#
# Static dielectric constant tensor:
#      x y z
#    x 1.644470 0.000000 0.000000 
#    y 0.000000 1.681800 0.000000 
#    z 0.000000 0.000000 1.651790 
# 
# From -- ./inp_files/6927.got.cif
#   From: 2010.05.17/outbox.cif.g08.bks.cpg/sg16_4_cif.got.tgz:6927.got - 2010.06.03 22:28:35.
