data_PCOD9310178
_publ_section_title
;
Structure prediction by ZEFSAII (Michael W. Deem and Ramdas Pophale) SiO2 
 PCOD9310178
Probable space group: P 2 2 2
;
_chemical_formula_sum "Si O2"
_cell_formula_units_Z 20
_cell_length_a 11.227714
_cell_length_b 16.429873
_cell_length_c 5.186842
_cell_angle_alpha 90.000000
_cell_angle_beta 90.000000
_cell_angle_gamma 90.000000
_cell_volume 956.816303
_symmetry_space_group_name_H-M "P 2 2 2"
_symmetry_group_IT_number 16
_symmetry_cell_setting 'orthorhombic'
loop_
_space_group_symop_operation_xyz
x,y,z
-x,-y,z
x,-y,-z
-x,y,-z
loop_
_atom_site_type_symbol
_atom_site_label
_atom_site_fract_x
_atom_site_fract_y
_atom_site_fract_z
Si Si1 0.867036 0.616226 0.938203
Si Si2 0.635318 0.766538 0.464322
Si Si3 0.788320 0.796633 0.964865
Si Si4 0.134074 0.963155 0.240671
Si Si5 0.717055 0.585930 0.428921
O O1 0.861211 0.713439 0.987653
O O2 0.817763 0.599996 0.651279
O O3 0.779484 0.579381 0.152262
O O4 0.000000 0.589226 0.000000
O O5 0.500000 0.794230 0.500000
O O6 0.693538 0.781583 0.740403
O O7 0.640500 0.668559 0.418940
O O8 0.716626 0.806371 0.236077
O O9 0.866929 0.868985 0.838842
O O10 0.188012 0.000000 0.500000
O O11 0.000000 0.000000 0.244478
O O12 0.203478 0.000000 0.000000
O O13 0.657186 0.500000 0.500000
#
# Coordination Sequence:
#
# PCOD9310178 Si02
#       5
#     4   4   4   4   4
#     4  10  21  34  53  81 114 163 193 229 293 364
#     4  10  21  39  62  84 110 157 204 243 297 339
#     4  10  21  38  58  86 122 148 192 245 284 350
#     4  10  21  36  57  90 121 155 181 230 294 355
#     4  10  21  36  53  82 116 149 201 254 292 340
#
# _framework density 20.902654999999999
#
# number of rings (size 3 to 8) (size 9 to 14) (size 15 to 20)
#    0.000    2.000    0.000    3.000    2.800    2.800 
#    7.200    0.000    0.000   16.200    0.000    0.000 
#    0.000    0.000    0.000    0.000    0.000    0.000 
#
# Total GULP energy -111396.740734 kJ/mol
# GULP energy per Si atom -5569.837037 kJ/mol
# Density = 2.085508 g / cm^3
# Si number density = 20.902655 Si / 1000 Ang^3
#
#
#
# Elastic Constant Matrix: (Units=GPa)
#
#
# Indices 1 2 3 4 5 6 
#
# 1 64.1673 -1.7468 5.6920 0.0000 0.0000 0.0000
# 2 -1.7468 116.0304 1.3861 0.0000 0.0000 0.0000
# 3 5.6920 1.3861 145.4507 0.0000 0.0000 0.0000
# 4 0.0000 0.0000 0.0000 35.6395 0.0000 0.0000
# 5 0.0000 0.0000 0.0000 0.0000 3.4630 0.0000
# 6 0.0000 0.0000 0.0000 0.0000 0.0000 15.5618
#
#
#
# Elastic Compliance Matrix: (Units=1/GPa)
#
#
# Indices 1 2 3 4 5 6 
#
# 1 0.015645 0.000243 -0.000615 0.000000 0.000000 0.000000
# 2 0.000243 0.008623 -0.000092 0.000000 0.000000 0.000000
# 3 -0.000615 -0.000092 0.006900 0.000000 0.000000 0.000000
# 4 0.000000 0.000000 0.000000 0.028059 0.000000 0.000000
# 5 0.000000 0.000000 0.000000 0.000000 0.288764 0.000000
# 6 0.000000 0.000000 0.000000 0.000000 0.000000 0.064260
#
#
# Mechanical properties :
#
#
# Convention : Reuss Voigt Hill
#
# Bulk Modulus (GPa) = 33.06669 37.36789 35.21729
# Shear Modulus (GPa) = 11.81310 32.28736 22.05023
#
# Velocity S-wave (km/s) = 2.37986 3.93447 3.25145
# Velocity P-wave (km/s) = 4.83791 6.20935 5.56603
#
# Compressibility (1/GPa) = 0.03024192
#
# Stress axis : x y z
#
# Youngs Moduli (GPa) = 63.91662 115.96644 144.92535
#
# Poissons Ratio (x) = -0.02817 0.08907
# Poissons Ratio (y) = -0.01552 0.01329
# Poissons Ratio (z) = 0.03928 0.01063
#
# Static dielectric constant tensor:
#      x y z
#    x 1.719380 0.000000 0.000000 
#    y 0.000000 1.919830 0.000000 
#    z 0.000000 0.000000 1.811630 
# 
# From -- ./inp_files/1427.got.cif
#   From: 2010.05.17/outbox.cif.g08.bks.cpg/sg16_1_cif.got.tgz:1427.got - 2010.06.03 22:28:35.
