data_PCOD9310365
_publ_section_title
;
Structure prediction by ZEFSAII (Michael W. Deem and Ramdas Pophale) SiO2 
 PCOD9310365
Probable space group: P 2 2 2
;
_chemical_formula_sum "Si O2"
_cell_formula_units_Z 25
_cell_length_a 5.062945
_cell_length_b 21.938641
_cell_length_c 12.378752
_cell_angle_alpha 90.000000
_cell_angle_beta 90.000000
_cell_angle_gamma 90.000000
_cell_volume 1374.959143
_symmetry_space_group_name_H-M "P 2 2 2"
_symmetry_group_IT_number 16
_symmetry_cell_setting 'orthorhombic'
loop_
_space_group_symop_operation_xyz
x,y,z
-x,-y,z
x,-y,-z
-x,y,-z
loop_
_atom_site_type_symbol
_atom_site_label
_atom_site_fract_x
_atom_site_fract_y
_atom_site_fract_z
Si Si1 0.562422 0.800992 0.871741
Si Si2 0.913359 0.360357 0.380758
Si Si3 0.760759 0.398158 0.929201
Si Si4 0.929318 0.275416 0.813355
Si Si5 0.000000 0.000000 0.000000
Si Si6 0.601668 0.433502 0.690485
Si Si7 0.388470 0.937381 0.123704
O O1 0.340030 0.762426 0.810845
O O2 0.564868 0.870948 0.831391
O O3 0.841283 0.768139 0.856233
O O4 0.500000 0.801337 0.000000
O O5 0.619907 0.385302 0.352087
O O6 0.000000 0.340403 0.500000
O O7 0.981857 0.306278 0.298133
O O8 0.116686 0.415713 0.358273
O O9 0.874323 0.333303 0.889902
O O10 0.658811 0.430316 0.819514
O O11 0.500000 0.389827 0.000000
O O12 0.000000 0.426684 0.000000
O O13 0.910729 0.950501 0.908567
O O14 0.500000 0.500000 0.660989
O O15 0.500000 0.000000 0.175329
O O16 0.500000 0.938832 0.000000
#
# Coordination Sequence:
#
# PCOD9310365 Si02
#       7
#     4   4   4   4   1   4   4
#     4  11  21  30  51  77 108 145 182 214 257 310
#     4  11  24  42  62  80 108 142 174 233 303 335
#     4  11  21  37  55  76 112 151 175 210 264 312
#     4  11  22  35  51  77 104 134 185 224 257 323
#     4   8  14  28  40  58 104 144 192 212 248 308
#     4  11  24  40  60  88 111 136 185 229 265 340
#     4   8  17  27  41  65 101 146 184 215 255 298
#
# _framework density 18.182357
#
# number of rings (size 3 to 8) (size 9 to 14) (size 15 to 20)
#    0.000    1.760    0.000    7.680    6.720    2.240 
#    0.000    2.400    0.000    0.000    0.000    0.000 
#    0.000    3.840    0.000    0.000    0.000    0.000 
#
# Total GULP energy -139212.108495 kJ/mol
# GULP energy per Si atom -5568.484340 kJ/mol
# Density = 1.814097 g / cm^3
# Si number density = 18.182357 Si / 1000 Ang^3
#
#
#
# Elastic Constant Matrix: (Units=GPa)
#
#
# Indices 1 2 3 4 5 6 
#
# 1 69.4222 -3.4062 2.0053 0.0000 0.0000 0.0000
# 2 -3.4062 80.4757 -8.8199 0.0000 0.0000 0.0000
# 3 2.0053 -8.8199 60.5462 0.0000 0.0000 0.0000
# 4 0.0000 0.0000 0.0000 56.0797 0.0000 0.0000
# 5 0.0000 0.0000 0.0000 0.0000 18.0668 0.0000
# 6 0.0000 0.0000 0.0000 0.0000 0.0000 -3.1679
#
#
#
# Elastic Compliance Matrix: (Units=1/GPa)
#
#
# Indices 1 2 3 4 5 6 
#
# 1 0.014444 0.000568 -0.000396 0.000000 0.000000 0.000000
# 2 0.000568 0.012650 0.001824 0.000000 0.000000 0.000000
# 3 -0.000396 0.001824 0.016795 0.000000 0.000000 0.000000
# 4 0.000000 0.000000 0.000000 0.017832 0.000000 0.000000
# 5 0.000000 0.000000 0.000000 0.000000 0.055350 0.000000
# 6 0.000000 0.000000 0.000000 0.000000 0.000000 -0.315664
#
#
# Mechanical properties :
#
#
# Convention : Reuss Voigt Hill
#
# Bulk Modulus (GPa) = 20.88481 21.11138 20.99809
# Shear Modulus (GPa) = -26.79164 28.90671 1.05754
#
# Velocity S-wave (km/s) = -3.84278 3.99158 0.76347
# Velocity P-wave (km/s) = 2.85973 5.73409 3.51438
#
# Compressibility (1/GPa) = 0.04788169
#
# Stress axis : x y z
#
# Youngs Moduli (GPa) = 69.23333 79.05100 59.54112
#
# Poissons Ratio (x) = -0.04490 0.02356
# Poissons Ratio (y) = -0.03932 -0.10860
# Poissons Ratio (z) = 0.02739 -0.14419
#
# Static dielectric constant tensor:
#      x y z
#    x 2.753440 0.000000 0.000000 
#    y 0.000000 1.647800 0.000000 
#    z 0.000000 0.000000 1.666370 
# 
# From -- ./inp_files/6065.got.cif
#   From: 2010.05.17/outbox.cif.g08.bks.cpg/sg16_4_cif.got.tgz:6065.got - 2010.06.03 22:28:35.
