data_PCOD9310220
_publ_section_title
;
Structure prediction by ZEFSAII (Michael W. Deem and Ramdas Pophale) SiO2 
 PCOD9310220
Probable space group: P 2 2 2
;
_chemical_formula_sum "Si O2"
_cell_formula_units_Z 17
_cell_length_a 13.974854
_cell_length_b 7.067303
_cell_length_c 7.914687
_cell_angle_alpha 90.000000
_cell_angle_beta 90.000000
_cell_angle_gamma 90.000000
_cell_volume 781.690323
_symmetry_space_group_name_H-M "P 2 2 2"
_symmetry_group_IT_number 16
_symmetry_cell_setting 'orthorhombic'
loop_
_space_group_symop_operation_xyz
x,y,z
-x,-y,z
x,-y,-z
-x,y,-z
loop_
_atom_site_type_symbol
_atom_site_label
_atom_site_fract_x
_atom_site_fract_y
_atom_site_fract_z
Si Si1 0.695596 0.223097 0.185528
Si Si2 0.166208 0.227576 0.511486
Si Si3 0.491845 0.229598 0.304593
Si Si4 0.282809 0.766388 0.816039
Si Si5 0.000000 0.500000 0.500000
O O1 0.749675 0.273476 0.356841
O O2 0.585263 0.283341 0.198683
O O3 0.706095 0.994906 0.184872
O O4 0.738595 0.289423 0.008061
O O5 0.204560 0.283164 0.325001
O O6 0.075489 0.347545 0.574413
O O7 0.148560 0.000000 0.500000
O O8 0.500000 0.285416 0.500000
O O9 0.389669 0.294640 0.236357
O O10 0.500000 0.000000 0.302658
#
# Coordination Sequence:
#
# PCOD9310220 Si02
#       5
#     4   4   4   4   1
#     4   9  16  28  51  83 119 156 188 224 274 333
#     4  10  21  40  61  84 114 145 189 240 287 343
#     4   9  13  21  43  82 124 155 187 223 262 324
#     4   9  16  28  51  83 119 156 188 224 274 333
#     4  12  26  44  66  84 104 146 190 248 314 340
#
# _framework density 21.747744000000001
#
# number of rings (size 3 to 8) (size 9 to 14) (size 15 to 20)
#    0.000    2.588    2.353    1.059    0.000    2.824 
#    0.000    3.529    0.000    8.471    0.000    3.294 
#    0.000    0.000    0.000    0.000    0.000    0.941 
#
# Total GULP energy -94785.461670 kJ/mol
# GULP energy per Si atom -5575.615392 kJ/mol
# Density = 2.169825 g / cm^3
# Si number density = 21.747744 Si / 1000 Ang^3
#
#
#
# Elastic Constant Matrix: (Units=GPa)
#
#
# Indices 1 2 3 4 5 6 
#
# 1 75.0519 8.4704 16.0951 0.0000 0.0000 0.0000
# 2 8.4704 126.6311 -2.8570 0.0000 0.0000 0.0000
# 3 16.0951 -2.8570 138.3996 0.0000 0.0000 0.0000
# 4 0.0000 0.0000 0.0000 -21.3164 0.0000 0.0000
# 5 0.0000 0.0000 0.0000 0.0000 0.2012 0.0000
# 6 0.0000 0.0000 0.0000 0.0000 0.0000 -444.8036
#
#
#
# Elastic Compliance Matrix: (Units=1/GPa)
#
#
# Indices 1 2 3 4 5 6 
#
# 1 0.013780 -0.000958 -0.001622 0.000000 0.000000 0.000000
# 2 -0.000958 0.007967 0.000276 0.000000 0.000000 0.000000
# 3 -0.001622 0.000276 0.007420 0.000000 0.000000 0.000000
# 4 0.000000 0.000000 0.000000 -0.046912 0.000000 0.000000
# 5 0.000000 0.000000 0.000000 0.000000 4.970475 0.000000
# 6 0.000000 0.000000 0.000000 0.000000 0.000000 -0.002248
#
#
# Mechanical properties :
#
#
# Convention : Reuss Voigt Hill
#
# Bulk Modulus (GPa) = 40.72038 42.61106 41.66572
# Shear Modulus (GPa) = 1.00740 -71.95882 -35.47571
#
# Velocity S-wave (km/s) = 0.68134 -5.75845 -4.04324
# Velocity P-wave (km/s) = 4.40268 4.95754 1.61146
#
# Compressibility (1/GPa) = 0.02455772
#
# Stress axis : x y z
#
# Youngs Moduli (GPa) = 72.56795 125.51323 134.77417
#
# Poissons Ratio (x) = 0.12029 0.21865
# Poissons Ratio (y) = 0.06955 -0.03719
# Poissons Ratio (z) = 0.11773 -0.03463
#
# Static dielectric constant tensor:
#      x y z
#    x 1.747110 0.000000 0.000000 
#    y 0.000000 1.918620 0.000000 
#    z 0.000000 0.000000 1.791790 
# 
# From -- ./inp_files/4436.got.cif
#   From: 2010.05.17/outbox.cif.g08.bks.cpg/sg16_3_cif.got.tgz:4436.got - 2010.06.03 22:28:35.
