data_PCOD9310510
_publ_section_title
;
Structure prediction by ZEFSAII (Michael W. Deem and Ramdas Pophale) SiO2 
 PCOD9310510
Probable space group: P 2 2 21
;
_chemical_formula_sum "Si O2"
_cell_formula_units_Z 20
_cell_length_a 20.973596
_cell_length_b 8.185350
_cell_length_c 5.631981
_cell_angle_alpha 90.000000
_cell_angle_beta 90.000000
_cell_angle_gamma 90.000000
_cell_volume 966.877232
_symmetry_space_group_name_H-M "P 2 2 21"
_symmetry_group_IT_number 17
_symmetry_cell_setting 'orthorhombic'
loop_
_space_group_symop_operation_xyz
x,y,z
-x,-y,1/2+z
x,-y,-z
-x,y,1/2-z
loop_
_atom_site_type_symbol
_atom_site_label
_atom_site_fract_x
_atom_site_fract_y
_atom_site_fract_z
Si Si1 0.617737 0.826439 0.135101
Si Si2 0.500000 0.595242 0.250000
Si Si3 0.744079 0.242139 0.142352
Si Si4 0.863718 0.326954 0.859010
Si Si5 0.000000 0.394402 0.750000
Si Si6 0.692338 0.000000 0.500000
Si Si7 0.216695 0.500000 0.000000
O O1 0.558320 0.709104 0.163166
O O2 0.645100 0.866868 0.393687
O O3 0.679925 0.751361 0.010193
O O4 0.603311 0.000000 0.000000
O O5 0.517046 0.500000 0.500000
O O6 0.734868 0.082865 0.302229
O O7 0.745367 0.407224 0.297503
O O8 0.811287 0.228443 0.006685
O O9 0.936975 0.287954 0.806121
O O10 0.828564 0.363735 0.613050
O O11 0.867910 0.500000 0.000000
O O12 0.988541 0.500000 0.500000
#
# Coordination Sequence:
#
# PCOD9310510 Si02
#       7
#     4   2   4   4   2   2   2
#     4  10  25  47  73  94 133 184 233 277 341 425
#     4  12  32  50  72 112 144 182 230 294 352 404
#     4  10  21  38  61  97 127 172 218 279 333 399
#     4   9  18  31  52  87 132 170 212 267 339 399
#     4  10  18  32  52  84 138 180 216 262 340 424
#     4  10  22  42  68  90 128 170 232 272 332 406
#     4  10  18  34  58  90 138 160 206 280 338 390
#
# _framework density 20.685147000000001
#
# number of rings (size 3 to 8) (size 9 to 14) (size 15 to 20)
#    0.000    2.000    1.000    1.200    7.000    4.000 
#    1.800    0.000    0.000    0.000    0.000    0.000 
#  135.000    0.000    0.000    0.000    0.000    0.000 
#
# Total GULP energy -111442.800028 kJ/mol
# GULP energy per Si atom -5572.140001 kJ/mol
# Density = 2.063807 g / cm^3
# Si number density = 20.685147 Si / 1000 Ang^3
#
#
#
# Elastic Constant Matrix: (Units=GPa)
#
#
# Indices 1 2 3 4 5 6 
#
# 1 173.1711 55.8518 49.4276 0.0000 0.0000 0.0000
# 2 55.8518 43.9467 17.4402 0.0000 0.0000 0.0000
# 3 49.4276 17.4402 89.4648 0.0000 0.0000 0.0000
# 4 0.0000 0.0000 0.0000 29.9061 0.0000 0.0000
# 5 0.0000 0.0000 0.0000 0.0000 0.4740 0.0000
# 6 0.0000 0.0000 0.0000 0.0000 0.0000 12.3181
#
#
#
# Elastic Compliance Matrix: (Units=1/GPa)
#
#
# Indices 1 2 3 4 5 6 
#
# 1 0.010731 -0.012232 -0.003544 0.000000 0.000000 0.000000
# 2 -0.012232 0.038605 -0.000768 0.000000 0.000000 0.000000
# 3 -0.003544 -0.000768 0.013285 0.000000 0.000000 0.000000
# 4 0.000000 0.000000 0.000000 0.033438 0.000000 0.000000
# 5 0.000000 0.000000 0.000000 0.000000 2.109591 0.000000
# 6 0.000000 0.000000 0.000000 0.000000 0.000000 0.081181
#
#
# Mechanical properties :
#
#
# Convention : Reuss Voigt Hill
#
# Bulk Modulus (GPa) = 33.85951 61.33576 47.59764
# Shear Modulus (GPa) = 2.14614 20.79717 11.47165
#
# Velocity S-wave (km/s) = 1.01970 3.17427 2.35752
# Velocity P-wave (km/s) = 4.21793 6.56895 5.52005
#
# Compressibility (1/GPa) = 0.02953380
#
# Stress axis : x y z
#
# Youngs Moduli (GPa) = 93.18444 25.90329 75.27023
#
# Poissons Ratio (x) = 0.31685 0.26679
# Poissons Ratio (y) = 1.13983 0.05779
# Poissons Ratio (z) = 0.33028 0.01989
#
# Static dielectric constant tensor:
#      x y z
#    x 1.733530 0.000000 0.000000 
#    y 0.000000 1.786840 0.000000 
#    z 0.000000 0.000000 1.875390 
# 
# From -- ./inp_files/2541.got.cif
#   From: 2010.05.17/outbox.cif.g08.bks.cpg/sg17_2_cif.got.tgz:2541.got - 2010.06.03 22:34:06.
