data_PCOD9310282
_publ_section_title
;
Structure prediction by ZEFSAII (Michael W. Deem and Ramdas Pophale) SiO2 
 PCOD9310282
Probable space group: P 2 2 2
;
_chemical_formula_sum "Si O2"
_cell_formula_units_Z 25
_cell_length_a 12.582005
_cell_length_b 16.433331
_cell_length_c 5.746077
_cell_angle_alpha 90.000000
_cell_angle_beta 90.000000
_cell_angle_gamma 90.000000
_cell_volume 1188.083317
_symmetry_space_group_name_H-M "P 2 2 2"
_symmetry_group_IT_number 16
_symmetry_cell_setting 'orthorhombic'
loop_
_space_group_symop_operation_xyz
x,y,z
-x,-y,z
x,-y,-z
-x,y,-z
loop_
_atom_site_type_symbol
_atom_site_label
_atom_site_fract_x
_atom_site_fract_y
_atom_site_fract_z
Si Si1 0.154857 0.622975 0.257133
Si Si2 0.315736 0.096351 0.971653
Si Si3 0.117612 0.788986 0.033260
Si Si4 0.381116 0.169893 0.484693
Si Si5 0.762661 0.688744 0.356148
Si Si6 0.000000 0.500000 0.000000
Si Si7 0.623440 0.402601 0.993998
O O1 0.165608 0.618694 0.531815
O O2 0.113817 0.715283 0.217945
O O3 0.078549 0.558668 0.142955
O O4 0.278328 0.618312 0.169705
O O5 0.372131 0.115393 0.721311
O O6 0.201949 0.139533 0.934672
O O7 0.361693 0.131344 0.222396
O O8 0.309969 0.000000 0.000000
O O9 0.162594 0.738869 0.814580
O O10 0.000000 0.821675 0.000000
O O11 0.500000 0.203267 0.500000
O O12 0.296041 0.242067 0.506272
O O13 0.668578 0.640409 0.233394
O O14 0.620714 0.500000 0.000000
O O15 0.500000 0.375113 0.000000
#
# Coordination Sequence:
#
# PCOD9310282 Si02
#       7
#     4   4   4   4   4   1   4
#     4  11  22  44  64  94 135 171 234 281 358 408
#     4  11  24  44  68 104 143 177 230 287 344 424
#     4  10  22  44  65  92 132 176 225 282 347 407
#     4  11  24  42  71 104 137 185 229 279 354 426
#     4  10  24  41  67  97 128 181 227 289 344 428
#     4  12  24  44  68  96 132 184 224 304 348 420
#     4  10  23  42  62  91 134 176 226 291 351 417
#
# _framework density 21.042297000000001
#
# number of rings (size 3 to 8) (size 9 to 14) (size 15 to 20)
#    0.000    1.440    3.200    0.960    2.240    3.520 
#    0.000    6.400    0.000    1.920    0.000    0.000 
#    0.000    0.000    0.000    0.000    0.000    0.000 
#
# Total GULP energy -139184.362868 kJ/mol
# GULP energy per Si atom -5567.374515 kJ/mol
# Density = 2.099440 g / cm^3
# Si number density = 21.042297 Si / 1000 Ang^3
#
#
#
# Elastic Constant Matrix: (Units=GPa)
#
#
# Indices 1 2 3 4 5 6 
#
# 1 105.8567 6.3083 26.3541 0.0000 0.0000 0.0000
# 2 6.3083 70.7377 36.9232 0.0000 0.0000 0.0000
# 3 26.3541 36.9232 78.8615 0.0000 0.0000 0.0000
# 4 0.0000 0.0000 0.0000 312.8173 0.0000 0.0000
# 5 0.0000 0.0000 0.0000 0.0000 16.5110 0.0000
# 6 0.0000 0.0000 0.0000 0.0000 0.0000 16.8073
#
#
#
# Elastic Compliance Matrix: (Units=1/GPa)
#
#
# Indices 1 2 3 4 5 6 
#
# 1 0.010377 0.001171 -0.004016 0.000000 0.000000 0.000000
# 2 0.001171 0.018841 -0.009213 0.000000 0.000000 0.000000
# 3 -0.004016 -0.009213 0.018336 0.000000 0.000000 0.000000
# 4 0.000000 0.000000 0.000000 0.003197 0.000000 0.000000
# 5 0.000000 0.000000 0.000000 0.000000 0.060566 0.000000
# 6 0.000000 0.000000 0.000000 0.000000 0.000000 0.059498
#
#
# Mechanical properties :
#
#
# Convention : Reuss Voigt Hill
#
# Bulk Modulus (GPa) = 42.66548 43.84746 43.25647
# Shear Modulus (GPa) = 24.66179 81.61846 53.14013
#
# Velocity S-wave (km/s) = 3.42718 6.23474 5.03078
# Velocity P-wave (km/s) = 5.99840 8.52715 7.37201
#
# Compressibility (1/GPa) = 0.02343815
#
# Stress axis : x y z
#
# Youngs Moduli (GPa) = 96.36923 53.07534 54.53776
#
# Poissons Ratio (x) = -0.06214 0.21902
# Poissons Ratio (y) = -0.11283 0.50244
# Poissons Ratio (z) = 0.38701 0.48897
#
# Static dielectric constant tensor:
#      x y z
#    x 1.744700 0.000000 0.000000 
#    y 0.000000 1.666080 0.000000 
#    z 0.000000 0.000000 1.970000 
# 
# From -- ./inp_files/1568.got.cif
#   From: 2010.05.17/outbox.cif.g08.bks.cpg/sg16_1_cif.got.tgz:1568.got - 2010.06.03 22:28:35.
