data_PCOD9310985
_publ_section_title
;
Structure prediction by ZEFSAII (Michael W. Deem and Ramdas Pophale) SiO2 
 PCOD9310985
Probable space group: P 2 2 21
;
_chemical_formula_sum "Si O2"
_cell_formula_units_Z 16
_cell_length_a 7.597628
_cell_length_b 18.895402
_cell_length_c 5.204036
_cell_angle_alpha 90.000000
_cell_angle_beta 90.000000
_cell_angle_gamma 90.000000
_cell_volume 747.092633
_symmetry_space_group_name_H-M "P 2 2 21"
_symmetry_group_IT_number 17
_symmetry_cell_setting 'orthorhombic'
loop_
_space_group_symop_operation_xyz
x,y,z
-x,-y,1/2+z
x,-y,-z
-x,y,1/2-z
loop_
_atom_site_type_symbol
_atom_site_label
_atom_site_fract_x
_atom_site_fract_y
_atom_site_fract_z
Si Si1 0.376314 0.576805 0.503918
Si Si2 0.210813 0.282601 0.277325
Si Si3 0.287492 0.958156 0.245799
Si Si4 0.209850 0.793399 0.233427
O O1 0.281323 0.500000 0.500000
O O2 0.500000 0.588026 0.250000
O O3 0.258090 0.642810 0.589480
O O4 0.500000 0.569037 0.750000
O O5 0.280852 0.227518 0.487668
O O6 0.000000 0.280007 0.250000
O O7 0.278122 0.257170 0.997258
O O8 0.500000 0.960473 0.250000
O O9 0.238700 0.876516 0.205553
O O10 0.226677 0.000000 0.500000
O O11 0.221026 0.000000 0.000000
O O12 0.000000 0.781502 0.250000
#
# Coordination Sequence:
#
# PCOD9310985 Si02
#       4
#     4   4   4   4
#     4  10  21  38  59  85 116 150 192 239 286 343
#     4  10  21  38  57  83 115 147 187 234 284 341
#     4  10  21  36  53  77 108 141 181 228 277 333
#     4  10  21  36  56  81 110 144 185 231 279 337
#
# _framework density 21.416353000000001
#
# number of rings (size 3 to 8) (size 9 to 14) (size 15 to 20)
#    0.000    2.000    0.000    3.000    0.000    4.000 
#    0.000    7.500    0.000    0.000    0.000    0.000 
#    0.000    0.000    0.000    0.000    0.000    0.000 
#
# Total GULP energy -89164.558698 kJ/mol
# GULP energy per Si atom -5572.784919 kJ/mol
# Density = 2.136761 g / cm^3
# Si number density = 21.416353 Si / 1000 Ang^3
#
#
#
# Elastic Constant Matrix: (Units=GPa)
#
#
# Indices 1 2 3 4 5 6 
#
# 1 31.9706 4.2235 25.2250 0.0000 0.0000 0.0000
# 2 4.2235 156.7465 75.4509 0.0000 0.0000 0.0000
# 3 25.2250 75.4509 191.3009 0.0000 0.0000 0.0000
# 4 0.0000 0.0000 0.0000 39.6339 0.0000 0.0000
# 5 0.0000 0.0000 0.0000 0.0000 1.4882 0.0000
# 6 0.0000 0.0000 0.0000 0.0000 0.0000 15.5776
#
#
#
# Elastic Compliance Matrix: (Units=1/GPa)
#
#
# Indices 1 2 3 4 5 6 
#
# 1 0.035228 0.001588 -0.005272 0.000000 0.000000 0.000000
# 2 0.001588 0.007946 -0.003344 0.000000 0.000000 0.000000
# 3 -0.005272 -0.003344 0.007241 0.000000 0.000000 0.000000
# 4 0.000000 0.000000 0.000000 0.025231 0.000000 0.000000
# 5 0.000000 0.000000 0.000000 0.000000 0.671932 0.000000
# 6 0.000000 0.000000 0.000000 0.000000 0.000000 0.064195
#
#
# Mechanical properties :
#
#
# Convention : Reuss Voigt Hill
#
# Bulk Modulus (GPa) = 27.50114 65.53522 46.51818
# Shear Modulus (GPa) = 5.96695 29.68117 17.82406
#
# Velocity S-wave (km/s) = 1.67099 3.72682 2.88803
# Velocity P-wave (km/s) = 4.07333 7.01327 5.73489
#
# Compressibility (1/GPa) = 0.03636213
#
# Stress axis : x y z
#
# Youngs Moduli (GPa) = 28.38622 125.84353 138.09810
#
# Poissons Ratio (x) = -0.19988 0.72801
# Poissons Ratio (y) = -0.04509 0.46174
# Poissons Ratio (z) = 0.14964 0.42077
#
# Static dielectric constant tensor:
#      x y z
#    x 1.764650 0.000000 0.000000 
#    y 0.000000 1.901920 0.000000 
#    z 0.000000 0.000000 1.775370 
# 
# From -- ./inp_files/704.got.cif
#   From: 2010.05.17/outbox.cif.g08.bks.cpg/sg17_1_cif.got.tgz:704.got - 2010.06.03 22:34:06.
