data_PCOD9310429
_publ_section_title
;
Structure prediction by ZEFSAII (Michael W. Deem and Ramdas Pophale) SiO2 
 PCOD9310429
Probable space group: P 2 2 2
;
_chemical_formula_sum "Si O2"
_cell_formula_units_Z 32
_cell_length_a 9.000000
_cell_length_b 12.000000
_cell_length_c 15.000000
_cell_angle_alpha 90.000000
_cell_angle_beta 90.000000
_cell_angle_gamma 90.000000
_cell_volume 1620.000000
_symmetry_space_group_name_H-M "P 2 2 2"
_symmetry_group_IT_number 16
_symmetry_cell_setting 'orthorhombic'
loop_
_space_group_symop_operation_xyz
x,y,z
-x,-y,z
x,-y,-z
-x,y,-z
loop_
_atom_site_type_symbol
_atom_site_label
_atom_site_fract_x
_atom_site_fract_y
_atom_site_fract_z
Si Si1 0.181099 0.260631 0.850850
Si Si2 0.325923 0.131703 0.011694
Si Si3 0.179622 0.494186 0.101175
Si Si4 0.327573 0.737637 0.325826
Si Si5 0.172024 0.488029 0.607429
Si Si6 0.826736 0.748918 0.170208
Si Si7 0.320597 0.122782 0.508246
Si Si8 0.319064 0.717042 0.652204
O O1 0.223327 0.391615 0.852579
O O2 0.273828 0.217458 0.768288
O O3 0.004441 0.247115 0.839975
O O4 0.232351 0.200916 0.939905
O O5 0.259232 0.169144 0.105192
O O6 0.500000 0.158849 0.000000
O O7 0.308072 0.000000 0.000000
O O8 0.220713 0.377901 0.145172
O O9 0.000000 0.500000 0.098168
O O10 0.235023 0.500000 0.000000
O O11 0.242657 0.625614 0.356566
O O12 0.284055 0.829814 0.396620
O O13 0.504669 0.720256 0.330594
O O14 0.176264 0.500000 0.500000
O O15 0.266455 0.590767 0.643275
O O16 0.000000 0.500000 0.636568
O O17 0.772633 0.771477 0.268649
O O18 0.500000 0.116027 0.500000
O O19 0.278461 0.214211 0.435688
O O20 0.257631 0.000000 0.500000
#
# Coordination Sequence:
#
# PCOD9310429 Si02
#       8
#     4   4   4   4   4   4   4   4
#     4  11  22  39  64  92 124 159 198 247 309 373
#     4  11  25  44  63  86 120 163 212 261 303 351
#     4   9  17  34  59  86 116 152 188 231 290 359
#     4  11  22  38  62  91 123 159 203 251 304 370
#     4  11  22  37  60  89 125 163 202 253 312 364
#     4  11  22  39  64  92 124 159 198 247 309 373
#     4   9  20  39  61  84 114 157 204 249 300 357
#     4  11  22  38  62  91 123 159 203 251 304 370
#
# _framework density 19.753086
#
# number of rings (size 3 to 8) (size 9 to 14) (size 15 to 20)
#    0.000    1.500    2.500    3.000    0.000    3.500 
#    0.000    5.000    0.000    5.250    0.000    0.000 
#    0.000    0.000    0.000    0.000    0.000    0.000 
#
# Total GULP energy -178633.902153 kJ/mol
# GULP energy per Si atom -5582.309442 kJ/mol
# Density = 1.970813 g / cm^3
# Si number density = 19.753086 Si / 1000 Ang^3
#
#
#
# Elastic Constant Matrix: (Units=GPa)
#
#
# Indices 1 2 3 4 5 6 
#
# 1 50.8252 4.2128 -21.1219 0.0000 0.0000 0.0000
# 2 4.2128 51.9784 -24.5085 0.0000 0.0000 0.0000
# 3 -21.1219 -24.5085 25.5152 0.0000 0.0000 0.0000
# 4 0.0000 0.0000 0.0000 -21.0186 0.0000 0.0000
# 5 0.0000 0.0000 0.0000 0.0000 19.4741 0.0000
# 6 0.0000 0.0000 0.0000 0.0000 0.0000 -4.7636
#
#
#
# Elastic Compliance Matrix: (Units=1/GPa)
#
#
# Indices 1 2 3 4 5 6 
#
# 1 0.041233 0.023310 0.056523 0.000000 0.000000 0.000000
# 2 0.023310 0.048343 0.065731 0.000000 0.000000 0.000000
# 3 0.056523 0.065731 0.149121 0.000000 0.000000 0.000000
# 4 0.000000 0.000000 0.000000 -0.047577 0.000000 0.000000
# 5 0.000000 0.000000 0.000000 0.000000 0.051350 0.000000
# 6 0.000000 0.000000 0.000000 0.000000 0.000000 -0.209924
#
#
# Mechanical properties :
#
#
# Convention : Reuss Voigt Hill
#
# Bulk Modulus (GPa) = 1.88741 5.05373 3.47057
# Shear Modulus (GPa) = -60.99488 10.05414 -25.47037
#
# Velocity S-wave (km/s) = -5.56289 2.25853 -3.59477
# Velocity P-wave (km/s) = 6.34849 3.06027 3.93307
#
# Compressibility (1/GPa) = 0.52982596
#
# Stress axis : x y z
#
# Youngs Moduli (GPa) = 24.25228 20.68566 6.70595
#
# Poissons Ratio (x) = -0.48218 -0.37904
# Poissons Ratio (y) = -0.56531 -0.44079
# Poissons Ratio (z) = -1.37082 -1.35970
#
# Static dielectric constant tensor:
#      x y z
#    x 1.653880 0.000000 0.000000 
#    y 0.000000 1.705500 0.000000 
#    z 0.000000 0.000000 1.872420 
# 
# From -- ./inp_files/7995.got.cif
#   From: 2010.05.17/outbox.ucp.g08.bks.cvg/sg16_4_cif.got.tgz:7995.got - 2010.06.11 13:12:45.
