data_PCOD9310831
_publ_section_title
;
Structure prediction by ZEFSAII (Michael W. Deem and Ramdas Pophale) SiO2 
 PCOD9310831
Probable space group: P 2 2 21
;
_chemical_formula_sum "Si O2"
_cell_formula_units_Z 24
_cell_length_a 9.366545
_cell_length_b 8.406569
_cell_length_c 15.895444
_cell_angle_alpha 90.000000
_cell_angle_beta 90.000000
_cell_angle_gamma 90.000000
_cell_volume 1251.615317
_symmetry_space_group_name_H-M "P 2 2 21"
_symmetry_group_IT_number 17
_symmetry_cell_setting 'orthorhombic'
loop_
_space_group_symop_operation_xyz
x,y,z
-x,-y,1/2+z
x,-y,-z
-x,y,1/2-z
loop_
_atom_site_type_symbol
_atom_site_label
_atom_site_fract_x
_atom_site_fract_y
_atom_site_fract_z
Si Si1 0.061570 0.776836 0.842446
Si Si2 0.889812 0.193223 0.994513
Si Si3 0.434682 0.188882 0.507718
Si Si4 0.598420 0.291311 0.671939
Si Si5 0.082189 0.160637 0.835272
Si Si6 0.657468 0.603928 0.586415
O O1 0.205485 0.693261 0.875646
O O2 0.000000 0.731414 0.750000
O O3 0.086110 0.968138 0.840955
O O4 0.948548 0.745358 0.916779
O O5 0.996573 0.226361 0.916682
O O6 0.727473 0.249780 0.983956
O O7 0.886434 0.000000 0.000000
O O8 0.519761 0.221987 0.591791
O O9 0.529502 0.275607 0.436900
O O10 0.428798 0.000000 0.500000
O O11 0.500000 0.250381 0.750000
O O12 0.758361 0.225023 0.672482
O O13 0.607786 0.478987 0.656018
O O14 0.000000 0.203256 0.750000
O O15 0.688507 0.500000 0.500000
#
# Coordination Sequence:
#
# PCOD9310831 Si02
#       6
#     4   4   4   4   4   4
#     4  10  21  38  60  86 113 149 199 246 288 341
#     4   9  18  34  58  87 114 141 185 244 292 334
#     4  10  20  38  63  86 111 150 195 239 290 342
#     4  11  23  38  56  84 121 155 190 234 289 352
#     4  10  20  37  62  88 115 150 196 244 288 340
#     4  10  22  39  56  81 118 157 191 233 293 351
#
# _framework density 19.175221000000001
#
# number of rings (size 3 to 8) (size 9 to 14) (size 15 to 20)
#    0.000    2.000    0.000    4.000    0.000    4.667 
#    0.000   10.833    0.000    0.000    0.000    0.000 
#    0.000    0.000    0.000    0.000    0.000    0.000 
#
# Total GULP energy -133901.265843 kJ/mol
# GULP energy per Si atom -5579.219410 kJ/mol
# Density = 1.913158 g / cm^3
# Si number density = 19.175221 Si / 1000 Ang^3
#
#
#
# Elastic Constant Matrix: (Units=GPa)
#
#
# Indices 1 2 3 4 5 6 
#
# 1 205.9915 44.4798 94.1123 0.0000 0.0000 0.0000
# 2 44.4798 37.8032 21.8807 0.0000 0.0000 0.0000
# 3 94.1123 21.8807 119.6538 0.0000 0.0000 0.0000
# 4 0.0000 0.0000 0.0000 -4.0648 0.0000 0.0000
# 5 0.0000 0.0000 0.0000 0.0000 48.2858 0.0000
# 6 0.0000 0.0000 0.0000 0.0000 0.0000 20.4761
#
#
#
# Elastic Compliance Matrix: (Units=1/GPa)
#
#
# Indices 1 2 3 4 5 6 
#
# 1 0.009094 -0.007336 -0.005811 0.000000 0.000000 0.000000
# 2 -0.007336 0.035503 -0.000722 0.000000 0.000000 0.000000
# 3 -0.005811 -0.000722 0.013060 0.000000 0.000000 0.000000
# 4 0.000000 0.000000 0.000000 -0.246012 0.000000 0.000000
# 5 0.000000 0.000000 0.000000 0.000000 0.020710 0.000000
# 6 0.000000 0.000000 0.000000 0.000000 0.000000 0.048838
#
#
# Mechanical properties :
#
#
# Convention : Reuss Voigt Hill
#
# Bulk Modulus (GPa) = 33.42482 76.04379 54.73431
# Shear Modulus (GPa) = -61.65413 26.47113 -17.59150
#
# Velocity S-wave (km/s) = -5.67652 3.71952 -3.03216
# Velocity P-wave (km/s) = 5.04922 7.62823 4.04322
#
# Compressibility (1/GPa) = 0.02991788
#
# Stress axis : x y z
#
# Youngs Moduli (GPa) = 109.96861 28.16693 76.57017
#
# Poissons Ratio (x) = 0.20664 0.44494
# Poissons Ratio (y) = 0.80675 0.05529
# Poissons Ratio (z) = 0.63901 0.02034
#
# Static dielectric constant tensor:
#      x y z
#    x 1.682660 0.000000 0.000000 
#    y 0.000000 1.381680 0.000000 
#    z 0.000000 0.000000 1.665330 
# 
# From -- ./inp_files/8078.got.cif
#   From: 2010.05.17/outbox.cif.g08.bks.cpg/sg17_5_cif.got.tgz:8078.got - 2010.06.03 22:34:06.
