data_PCOD9310785
_publ_section_title
;
Structure prediction by ZEFSAII (Michael W. Deem and Ramdas Pophale) SiO2 
 PCOD9310785
Probable space group: P 2 2 21
;
_chemical_formula_sum "Si O2"
_cell_formula_units_Z 24
_cell_length_a 9.557042
_cell_length_b 26.228982
_cell_length_c 5.079884
_cell_angle_alpha 90.000000
_cell_angle_beta 90.000000
_cell_angle_gamma 90.000000
_cell_volume 1273.382054
_symmetry_space_group_name_H-M "P 2 2 21"
_symmetry_group_IT_number 17
_symmetry_cell_setting 'orthorhombic'
loop_
_space_group_symop_operation_xyz
x,y,z
-x,-y,1/2+z
x,-y,-z
-x,y,1/2-z
loop_
_atom_site_type_symbol
_atom_site_label
_atom_site_fract_x
_atom_site_fract_y
_atom_site_fract_z
Si Si1 0.343089 0.339241 0.877097
Si Si2 0.262445 0.601811 0.602580
Si Si3 0.095197 0.061453 0.999283
Si Si4 0.602309 0.115186 0.494731
Si Si5 0.402153 0.231771 0.003813
Si Si6 0.000000 0.462952 0.250000
Si Si7 0.591358 0.500000 0.000000
O O1 0.500000 0.341229 0.750000
O O2 0.246714 0.358938 0.638068
O O3 0.337753 0.372281 0.145450
O O4 0.307149 0.280987 0.953993
O O5 0.128646 0.575019 0.725680
O O6 0.329657 0.552677 0.458018
O O7 0.000000 0.076202 0.250000
O O8 0.253017 0.083699 0.993184
O O9 0.000000 0.076369 0.750000
O O10 0.108723 0.000000 0.000000
O O11 0.500000 0.110449 0.750000
O O12 0.650875 0.174361 0.457702
O O13 0.500000 0.102080 0.250000
O O14 0.500000 0.245043 0.250000
O O15 0.500000 0.227956 0.750000
O O16 0.988168 0.500000 0.500000
O O17 0.500000 0.510641 0.750000
#
# Coordination Sequence:
#
# PCOD9310785 Si02
#       7
#     4   4   4   4   4   2   2
#     4  11  21  37  59  88 111 136 172 224 282 330
#     4  12  24  39  59  80 106 144 177 215 264 328
#     4  10  21  37  57  84 123 169 206 247 310 369
#     4  10  20  35  59  90 118 156 207 256 297 350
#     4   9  18  33  56  85 115 147 181 227 287 343
#     4  12  26  46  60  74 104 152 188 208 260 332
#     4  12  24  36  54  84 110 122 160 218 270 316
#
# _framework density 18.847446999999999
#
# number of rings (size 3 to 8) (size 9 to 14) (size 15 to 20)
#    0.000    1.333    0.833    7.000    1.167    0.667 
#    0.000    0.000    5.500    0.000    0.000    0.000 
#    0.000    0.000    0.000    0.000    0.000    0.000 
#
# Total GULP energy -133766.648179 kJ/mol
# GULP energy per Si atom -5573.610341 kJ/mol
# Density = 1.880455 g / cm^3
# Si number density = 18.847447 Si / 1000 Ang^3
#
#
#
# Elastic Constant Matrix: (Units=GPa)
#
#
# Indices 1 2 3 4 5 6 
#
# 1 92.4374 53.8731 38.1211 0.0000 0.0000 0.0000
# 2 53.8731 89.4055 39.0159 0.0000 0.0000 0.0000
# 3 38.1211 39.0159 146.1501 0.0000 0.0000 0.0000
# 4 0.0000 0.0000 0.0000 21.7154 0.0000 0.0000
# 5 0.0000 0.0000 0.0000 0.0000 15.0177 0.0000
# 6 0.0000 0.0000 0.0000 0.0000 0.0000 -56.1974
#
#
#
# Elastic Compliance Matrix: (Units=1/GPa)
#
#
# Indices 1 2 3 4 5 6 
#
# 1 0.017146 -0.009485 -0.001940 0.000000 0.000000 0.000000
# 2 -0.009485 0.017907 -0.002306 0.000000 0.000000 0.000000
# 3 -0.001940 -0.002306 0.007964 0.000000 0.000000 0.000000
# 4 0.000000 0.000000 0.000000 0.046050 0.000000 0.000000
# 5 0.000000 0.000000 0.000000 0.000000 0.066588 0.000000
# 6 0.000000 0.000000 0.000000 0.000000 0.000000 -0.017794
#
#
# Mechanical properties :
#
#
# Convention : Reuss Voigt Hill
#
# Bulk Modulus (GPa) = 64.29270 65.55702 64.92486
# Shear Modulus (GPa) = 29.32389 9.23933 19.28161
#
# Velocity S-wave (km/s) = 3.94871 2.21649 3.20196
# Velocity P-wave (km/s) = 7.41458 6.43497 6.94208
#
# Compressibility (1/GPa) = 0.01555387
#
# Stress axis : x y z
#
# Youngs Moduli (GPa) = 58.32165 55.84426 125.56424
#
# Poissons Ratio (x) = 0.52969 0.24362
# Poissons Ratio (y) = 0.55319 0.28959
# Poissons Ratio (z) = 0.11316 0.12880
#
# Static dielectric constant tensor:
#      x y z
#    x 1.635840 0.000000 0.000000 
#    y 0.000000 1.684600 0.000000 
#    z 0.000000 0.000000 1.667870 
# 
# From -- ./inp_files/1036.got.cif
#   From: 2010.05.17/outbox.cif.g08.bks.cpg/sg17_1_cif.got.tgz:1036.got - 2010.06.03 22:34:06.
