data_PCOD9310441
_publ_section_title
;
Structure prediction by ZEFSAII (Michael W. Deem and Ramdas Pophale) SiO2 
 PCOD9310441
Probable space group: P 2 2 21
;
_chemical_formula_sum "Si O2"
_cell_formula_units_Z 22
_cell_length_a 14.539889
_cell_length_b 15.418046
_cell_length_c 5.178324
_cell_angle_alpha 90.000000
_cell_angle_beta 90.000000
_cell_angle_gamma 90.000000
_cell_volume 1160.859469
_symmetry_space_group_name_H-M "P 2 2 21"
_symmetry_group_IT_number 17
_symmetry_cell_setting 'orthorhombic'
loop_
_space_group_symop_operation_xyz
x,y,z
-x,-y,1/2+z
x,-y,-z
-x,y,1/2-z
loop_
_atom_site_type_symbol
_atom_site_label
_atom_site_fract_x
_atom_site_fract_y
_atom_site_fract_z
Si Si1 0.563429 0.500000 0.500000
Si Si2 0.000000 0.083407 0.250000
Si Si3 0.151002 0.596304 0.553786
Si Si4 0.832448 0.000000 0.500000
Si Si5 0.900666 0.776669 0.030775
Si Si6 0.274710 0.633901 0.054653
Si Si7 0.783673 0.188209 0.473815
O O1 0.500000 0.507861 0.750000
O O2 0.632249 0.418944 0.526355
O O3 0.909139 0.026043 0.285862
O O4 0.977265 0.151647 0.024569
O O5 0.114235 0.500000 0.500000
O O6 0.079100 0.675578 0.523188
O O7 0.227753 0.613954 0.330835
O O8 0.202688 0.604431 0.829635
O O9 0.772035 0.086226 0.530101
O O10 0.823346 0.800154 0.814447
O O11 0.858906 0.784018 0.313119
O O12 0.290911 0.737005 0.016434
#
# Coordination Sequence:
#
# PCOD9310441 Si02
#       7
#     2   2   4   2   4   4   4
#     4  12  22  32  52  82 108 132 154 184 250 312
#     4  10  18  30  46  70 106 126 158 220 276 294
#     4  10  16  30  51  67  91 134 178 199 237 282
#     4  10  18  30  52  72  94 132 166 208 260 302
#     4   9  19  29  45  68  94 129 164 208 254 297
#     4  10  19  33  49  73 103 128 157 206 235 280
#     4   9  19  32  48  71  94 125 170 202 241 287
#
# _framework density 18.951474999999999
#
# number of rings (size 3 to 8) (size 9 to 14) (size 15 to 20)
#    0.000    2.182    1.818    2.182    0.000    4.364 
#    0.000    0.000    0.000   10.909    0.000    1.273 
#    0.000    0.000    0.000    0.000    0.000    0.000 
#
# Total GULP energy -122570.029255 kJ/mol
# GULP energy per Si atom -5571.364966 kJ/mol
# Density = 1.890834 g / cm^3
# Si number density = 18.951475 Si / 1000 Ang^3
#
#
#
# Elastic Constant Matrix: (Units=GPa)
#
#
# Indices 1 2 3 4 5 6 
#
# 1 41.6790 31.4826 24.6204 0.0000 0.0000 0.0000
# 2 31.4826 188.4063 -9.3383 0.0000 0.0000 0.0000
# 3 24.6204 -9.3383 90.1910 0.0000 0.0000 0.0000
# 4 0.0000 0.0000 0.0000 23.4185 0.0000 0.0000
# 5 0.0000 0.0000 0.0000 0.0000 19.4692 0.0000
# 6 0.0000 0.0000 0.0000 0.0000 0.0000 24.0405
#
#
#
# Elastic Compliance Matrix: (Units=1/GPa)
#
#
# Indices 1 2 3 4 5 6 
#
# 1 0.034747 -0.006309 -0.010139 0.000000 0.000000 0.000000
# 2 -0.006309 0.006480 0.002393 0.000000 0.000000 0.000000
# 3 -0.010139 0.002393 0.014103 0.000000 0.000000 0.000000
# 4 0.000000 0.000000 0.000000 0.042701 0.000000 0.000000
# 5 0.000000 0.000000 0.000000 0.000000 0.051363 0.000000
# 6 0.000000 0.000000 0.000000 0.000000 0.000000 0.041596
#
#
# Mechanical properties :
#
#
# Convention : Reuss Voigt Hill
#
# Bulk Modulus (GPa) = 36.73440 45.97843 41.35641
# Shear Modulus (GPa) = 21.91308 31.61974 26.76641
#
# Velocity S-wave (km/s) = 3.40409 4.08911 3.76222
# Velocity P-wave (km/s) = 5.90558 6.82702 6.38295
#
# Compressibility (1/GPa) = 0.02722244
#
# Stress axis : x y z
#
# Youngs Moduli (GPa) = 28.77923 154.30940 70.90695
#
# Poissons Ratio (x) = 0.97350 0.71889
# Poissons Ratio (y) = 0.18156 -0.16969
# Poissons Ratio (z) = 0.29178 -0.36929
#
# Static dielectric constant tensor:
#      x y z
#    x 1.615950 0.000000 0.000000 
#    y 0.000000 1.770240 0.000000 
#    z 0.000000 0.000000 1.713260 
# 
# From -- ./inp_files/2163.got.cif
#   From: 2010.05.17/outbox.cif.g08.bks.cpg/sg17_2_cif.got.tgz:2163.got - 2010.06.03 22:34:06.
