data_PCOD9310163
_publ_section_title
;
Structure prediction by ZEFSAII (Michael W. Deem and Ramdas Pophale) SiO2 
 PCOD9310163
Probable space group: P 2 2 2
;
_chemical_formula_sum "Si O2"
_cell_formula_units_Z 24
_cell_length_a 5.988198
_cell_length_b 15.671687
_cell_length_c 11.583403
_cell_angle_alpha 90.000000
_cell_angle_beta 90.000000
_cell_angle_gamma 90.000000
_cell_volume 1087.046363
_symmetry_space_group_name_H-M "P 2 2 2"
_symmetry_group_IT_number 16
_symmetry_cell_setting 'orthorhombic'
loop_
_space_group_symop_operation_xyz
x,y,z
-x,-y,z
x,-y,-z
-x,y,-z
loop_
_atom_site_type_symbol
_atom_site_label
_atom_site_fract_x
_atom_site_fract_y
_atom_site_fract_z
Si Si1 0.000000 0.693676 0.500000
Si Si2 0.624884 0.813258 0.610791
Si Si3 0.829912 0.076530 0.190401
Si Si4 0.312450 0.659596 0.696114
Si Si5 0.500000 0.000000 0.000000
Si Si6 0.371454 0.612099 0.121841
Si Si7 0.968539 0.743626 0.867508
Si Si8 0.000000 0.500000 0.000000
O O1 0.843592 0.757770 0.574629
O O2 0.841334 0.638230 0.415229
O O3 0.500000 0.852345 0.500000
O O4 0.691166 0.885618 0.702018
O O5 0.451603 0.741446 0.653338
O O6 0.980105 0.156745 0.153116
O O7 0.662605 0.052483 0.086009
O O8 0.000000 0.000000 0.217027
O O9 0.470898 0.594737 0.767408
O O10 0.143974 0.693187 0.792717
O O11 0.274702 0.704865 0.154522
O O12 0.500000 0.615826 0.000000
O O13 0.163453 0.552084 0.086817
O O14 0.000000 0.725149 0.000000
#
# Coordination Sequence:
#
# PCOD9310163 Si02
#       8
#     2   4   4   4   1   4   4   1
#     4  10  20  42  65 102 136 171 250 302 340 429
#     4  10  23  41  70  93 129 180 238 305 364 414
#     4  12  27  44  63  92 136 186 244 303 357 424
#     4  11  21  39  69 102 136 190 232 295 364 419
#     4  12  30  44  62  90 132 186 238 294 360 438
#     4  12  23  40  67 104 148 199 225 282 367 444
#     4  12  23  39  67  99 136 186 239 290 358 432
#     4  12  26  44  60 110 166 190 230 272 356 476
#
# _framework density 22.078174000000001
#
# number of rings (size 3 to 8) (size 9 to 14) (size 15 to 20)
#    0.000    0.667    5.833    1.500    5.833    0.000 
#    0.000    2.500    0.000    0.000    0.000    0.000 
#    0.000  508.667    0.000    0.000    0.000    0.000 
#
# Total GULP energy -133994.210215 kJ/mol
# GULP energy per Si atom -5583.092092 kJ/mol
# Density = 2.202792 g / cm^3
# Si number density = 22.078174 Si / 1000 Ang^3
#
#
#
# Elastic Constant Matrix: (Units=GPa)
#
#
# Indices 1 2 3 4 5 6 
#
# 1 107.8201 39.1785 66.8478 0.0000 0.0000 0.0000
# 2 39.1785 85.8250 36.1611 0.0000 0.0000 0.0000
# 3 66.8478 36.1611 161.0784 0.0000 0.0000 0.0000
# 4 0.0000 0.0000 0.0000 -10.6719 0.0000 0.0000
# 5 0.0000 0.0000 0.0000 0.0000 54.7889 0.0000
# 6 0.0000 0.0000 0.0000 0.0000 0.0000 -22.7005
#
#
#
# Elastic Compliance Matrix: (Units=1/GPa)
#
#
# Indices 1 2 3 4 5 6 
#
# 1 0.013782 -0.004287 -0.004757 0.000000 0.000000 0.000000
# 2 -0.004287 0.014202 -0.001409 0.000000 0.000000 0.000000
# 3 -0.004757 -0.001409 0.008499 0.000000 0.000000 0.000000
# 4 0.000000 0.000000 0.000000 -0.093704 0.000000 0.000000
# 5 0.000000 0.000000 0.000000 0.000000 0.018252 0.000000
# 6 0.000000 0.000000 0.000000 0.000000 0.000000 -0.044052
#
#
# Mechanical properties :
#
#
# Convention : Reuss Voigt Hill
#
# Bulk Modulus (GPa) = 64.20007 71.01093 67.60550
# Shear Modulus (GPa) = -87.83859 18.45237 -34.69311
#
# Velocity S-wave (km/s) = -6.31440 2.89411 -3.96836
# Velocity P-wave (km/s) = 4.90107 6.58795 3.11292
#
# Compressibility (1/GPa) = 0.01557631
#
# Stress axis : x y z
#
# Youngs Moduli (GPa) = 72.55924 70.41082 117.66480
#
# Poissons Ratio (x) = 0.30185 0.55974
# Poissons Ratio (y) = 0.31106 0.16582
# Poissons Ratio (z) = 0.34517 0.09923
#
# Static dielectric constant tensor:
#      x y z
#    x 1.881140 0.000000 0.000000 
#    y 0.000000 1.786200 0.000000 
#    z 0.000000 0.000000 1.934760 
# 
# From -- ./inp_files/6020.got.cif
#   From: 2010.05.17/outbox.cif.g08.bks.cpg/sg16_4_cif.got.tgz:6020.got - 2010.06.03 22:28:35.
