data_PCOD9310687
_publ_section_title
;
Structure prediction by ZEFSAII (Michael W. Deem and Ramdas Pophale) SiO2 
 PCOD9310687
Probable space group: P 2 2 21
;
_chemical_formula_sum "Si O2"
_cell_formula_units_Z 26
_cell_length_a 5.136284
_cell_length_b 10.047685
_cell_length_c 24.595580
_cell_angle_alpha 90.000000
_cell_angle_beta 90.000000
_cell_angle_gamma 90.000000
_cell_volume 1269.322881
_symmetry_space_group_name_H-M "P 2 2 21"
_symmetry_group_IT_number 17
_symmetry_cell_setting 'orthorhombic'
loop_
_space_group_symop_operation_xyz
x,y,z
-x,-y,1/2+z
x,-y,-z
-x,y,1/2-z
loop_
_atom_site_type_symbol
_atom_site_label
_atom_site_fract_x
_atom_site_fract_y
_atom_site_fract_z
Si Si1 0.709563 0.262688 0.414921
Si Si2 0.754918 0.423624 0.835657
Si Si3 0.254013 0.424942 0.197865
Si Si4 0.528288 0.984897 0.647026
Si Si5 0.782480 0.412734 0.052633
Si Si6 0.026477 0.870501 0.316438
Si Si7 0.500000 0.795812 0.750000
O O1 0.703660 0.337974 0.356851
O O2 0.625428 0.110434 0.402090
O O3 0.489712 0.334299 0.450905
O O4 0.993672 0.302153 0.436973
O O5 0.481968 0.463926 0.808152
O O6 0.759821 0.483598 0.896784
O O7 0.985721 0.501704 0.806812
O O8 0.844421 0.272247 0.828251
O O9 0.275529 0.313847 0.244826
O O10 0.230223 0.033985 0.651313
O O11 0.531224 0.890063 0.699479
O O12 0.740602 0.100455 0.658677
O O13 0.840409 0.500000 0.000000
O O14 0.000000 0.891162 0.250000
#
# Coordination Sequence:
#
# PCOD9310687 Si02
#       7
#     4   4   4   4   4   4   2
#     4   9  19  35  56  85 109 140 181 236 277 330
#     4  10  22  37  51  83 110 143 183 227 287 330
#     4   9  20  32  53  74 107 136 175 231 274 316
#     4  11  22  38  54  78 113 152 195 223 265 325
#     4  10  19  37  63  87 110 140 182 239 305 346
#     4  12  23  36  54  76 113 157 191 220 263 339
#     4  10  20  34  52  76 102 142 188 222 266 312
#
# _framework density 20.483362
#
# number of rings (size 3 to 8) (size 9 to 14) (size 15 to 20)
#    0.000    1.846    1.538    2.308    2.154    4.923 
#    0.000    0.000    0.000    5.538    0.000    0.000 
#    0.000    0.000    0.000    0.000    0.000    0.000 
#
# Total GULP energy -144819.015754 kJ/mol
# GULP energy per Si atom -5569.962144 kJ/mol
# Density = 2.043674 g / cm^3
# Si number density = 20.483362 Si / 1000 Ang^3
#
#
#
# Elastic Constant Matrix: (Units=GPa)
#
#
# Indices 1 2 3 4 5 6 
#
# 1 91.1778 -8.2555 -2.6897 0.0000 0.0000 0.0000
# 2 -8.2555 47.0974 -7.3394 0.0000 0.0000 0.0000
# 3 -2.6897 -7.3394 44.7644 0.0000 0.0000 0.0000
# 4 0.0000 0.0000 0.0000 35.7407 0.0000 0.0000
# 5 0.0000 0.0000 0.0000 0.0000 15.5852 0.0000
# 6 0.0000 0.0000 0.0000 0.0000 0.0000 24.0890
#
#
#
# Elastic Compliance Matrix: (Units=1/GPa)
#
#
# Indices 1 2 3 4 5 6 
#
# 1 0.011190 0.002120 0.001020 0.000000 0.000000 0.000000
# 2 0.002120 0.022191 0.003766 0.000000 0.000000 0.000000
# 3 0.001020 0.003766 0.023018 0.000000 0.000000 0.000000
# 4 0.000000 0.000000 0.000000 0.027979 0.000000 0.000000
# 5 0.000000 0.000000 0.000000 0.000000 0.064164 0.000000
# 6 0.000000 0.000000 0.000000 0.000000 0.000000 0.041513
#
#
# Mechanical properties :
#
#
# Convention : Reuss Voigt Hill
#
# Bulk Modulus (GPa) = 14.24282 16.27448 15.25865
# Shear Modulus (GPa) = 25.04438 28.50460 26.77449
#
# Velocity S-wave (km/s) = 3.50046 3.73446 3.61935
# Velocity P-wave (km/s) = 4.82764 5.15339 4.99317
#
# Compressibility (1/GPa) = 0.07021081
#
# Stress axis : x y z
#
# Youngs Moduli (GPa) = 89.36826 45.06310 43.44450
#
# Poissons Ratio (x) = -0.09555 -0.04431
# Poissons Ratio (y) = -0.18949 -0.16360
# Poissons Ratio (z) = -0.09115 -0.16970
#
# Static dielectric constant tensor:
#      x y z
#    x 1.790080 0.000000 0.000000 
#    y 0.000000 1.764130 0.000000 
#    z 0.000000 0.000000 1.733760 
# 
# From -- ./inp_files/10871.got.cif
#   From: 2010.05.17/outbox.cif.g08.bks.cpg/sg17_6_cif.got.tgz:10871.got - 2010.06.03 22:34:06.
