data_PCOD9310700
_publ_section_title
;
Structure prediction by ZEFSAII (Michael W. Deem and Ramdas Pophale) SiO2 
 PCOD9310700
Probable space group: P 2 2 21
;
_chemical_formula_sum "Si O2"
_cell_formula_units_Z 32
_cell_length_a 11.400694
_cell_length_b 15.189351
_cell_length_c 9.330026
_cell_angle_alpha 90.000000
_cell_angle_beta 90.000000
_cell_angle_gamma 90.000000
_cell_volume 1615.672605
_symmetry_space_group_name_H-M "P 2 2 21"
_symmetry_group_IT_number 17
_symmetry_cell_setting 'orthorhombic'
loop_
_space_group_symop_operation_xyz
x,y,z
-x,-y,1/2+z
x,-y,-z
-x,y,1/2-z
loop_
_atom_site_type_symbol
_atom_site_label
_atom_site_fract_x
_atom_site_fract_y
_atom_site_fract_z
Si Si1 0.876030 0.484569 0.173065
Si Si2 0.197835 0.860988 0.129877
Si Si3 0.179128 0.295762 0.401071
Si Si4 0.462299 0.091499 0.916389
Si Si5 0.017583 0.864631 0.590365
Si Si6 0.228950 0.983204 0.642181
Si Si7 0.141963 0.673603 0.267941
Si Si8 0.387543 0.167124 0.343188
O O1 0.820286 0.388306 0.179893
O O2 0.820390 0.570881 0.249887
O O3 0.000000 0.475094 0.250000
O O4 0.889530 0.500000 0.000000
O O5 0.330783 0.869053 0.076934
O O6 0.180719 0.760255 0.181997
O O7 0.190154 0.936600 0.255681
O O8 0.092552 0.876752 0.014277
O O9 0.061482 0.235607 0.391710
O O10 0.183307 0.309341 0.570760
O O11 0.289037 0.240677 0.349068
O O12 0.500000 0.081568 0.750000
O O13 0.557258 0.151024 0.999527
O O14 0.453122 0.000000 0.000000
O O15 0.132171 0.922149 0.558156
O O16 0.000000 0.899561 0.750000
O O17 0.315784 0.916178 0.723547
O O18 0.305126 0.000000 0.500000
O O19 0.000000 0.672256 0.250000
O O20 0.500000 0.187769 0.250000
#
# Coordination Sequence:
#
# PCOD9310700 Si02
#       8
#     4   4   4   4   4   4   4   4
#     4   9  19  36  65  95 126 161 198 251 320 399
#     4  12  25  40  62  93 130 173 217 271 325 384
#     4  10  20  40  64  88 124 160 200 264 327 378
#     4  12  25  42  65  88 124 173 230 278 309 369
#     4  11  26  37  55  89 130 166 206 255 325 397
#     4  11  25  39  60  87 125 173 212 265 321 380
#     4  10  19  38  63  94 124 162 203 248 317 405
#     4  11  24  44  63  88 121 171 231 268 316 375
#
# _framework density 19.805993999999998
#
# number of rings (size 3 to 8) (size 9 to 14) (size 15 to 20)
#    0.000    1.250    1.250    5.625    7.000    0.000 
#    0.000    0.000    0.000    5.250    0.000    0.000 
#    0.000    0.000    0.000    0.000    0.000    0.000 
#
# Total GULP energy -178220.228794 kJ/mol
# GULP energy per Si atom -5569.382150 kJ/mol
# Density = 1.976091 g / cm^3
# Si number density = 19.805994 Si / 1000 Ang^3
#
#
#
# Elastic Constant Matrix: (Units=GPa)
#
#
# Indices 1 2 3 4 5 6 
#
# 1 115.8985 68.4687 38.3149 0.0000 0.0000 0.0000
# 2 68.4687 157.7474 47.4964 0.0000 0.0000 0.0000
# 3 38.3149 47.4964 87.9577 0.0000 0.0000 0.0000
# 4 0.0000 0.0000 0.0000 11.3705 0.0000 0.0000
# 5 0.0000 0.0000 0.0000 0.0000 25.1868 0.0000
# 6 0.0000 0.0000 0.0000 0.0000 0.0000 21.0885
#
#
#
# Elastic Compliance Matrix: (Units=1/GPa)
#
#
# Indices 1 2 3 4 5 6 
#
# 1 0.012206 -0.004415 -0.002933 0.000000 0.000000 0.000000
# 2 -0.004415 0.009167 -0.003027 0.000000 0.000000 0.000000
# 3 -0.002933 -0.003027 0.014281 0.000000 0.000000 0.000000
# 4 0.000000 0.000000 0.000000 0.087947 0.000000 0.000000
# 5 0.000000 0.000000 0.000000 0.000000 0.039703 0.000000
# 6 0.000000 0.000000 0.000000 0.000000 0.000000 0.047419
#
#
# Mechanical properties :
#
#
# Convention : Reuss Voigt Hill
#
# Bulk Modulus (GPa) = 67.09344 74.46264 70.77804
# Shear Modulus (GPa) = 21.14692 25.35073 23.24883
#
# Velocity S-wave (km/s) = 3.27112 3.58152 3.42983
# Velocity P-wave (km/s) = 6.94376 7.40140 7.17623
#
# Compressibility (1/GPa) = 0.01490459
#
# Stress axis : x y z
#
# Youngs Moduli (GPa) = 81.92713 109.08925 70.02183
#
# Poissons Ratio (x) = 0.48160 0.20538
# Poissons Ratio (y) = 0.36169 0.21195
# Poissons Ratio (z) = 0.24030 0.33020
#
# Static dielectric constant tensor:
#      x y z
#    x 2.270500 0.000000 0.000000 
#    y 0.000000 1.826610 0.000000 
#    z 0.000000 0.000000 1.723550 
# 
# From -- ./inp_files/4928.got.cif
#   From: 2010.05.17/outbox.cif.g08.bks.cpg/sg17_3_cif.got.tgz:4928.got - 2010.06.03 22:34:06.
