data_PCOD9310150
_publ_section_title
;
Structure prediction by ZEFSAII (Michael W. Deem and Ramdas Pophale) SiO2 
 PCOD9310150
Probable space group: P 2 2 2
;
_chemical_formula_sum "Si O2"
_cell_formula_units_Z 32
_cell_length_a 8.386285
_cell_length_b 11.622429
_cell_length_c 15.451085
_cell_angle_alpha 90.000000
_cell_angle_beta 90.000000
_cell_angle_gamma 90.000000
_cell_volume 1506.001835
_symmetry_space_group_name_H-M "P 2 2 2"
_symmetry_group_IT_number 16
_symmetry_cell_setting 'orthorhombic'
loop_
_space_group_symop_operation_xyz
x,y,z
-x,-y,z
x,-y,-z
-x,y,-z
loop_
_atom_site_type_symbol
_atom_site_label
_atom_site_fract_x
_atom_site_fract_y
_atom_site_fract_z
Si Si1 0.316549 0.159450 0.973762
Si Si2 0.832480 0.399268 0.052549
Si Si3 0.181753 0.958559 0.863667
Si Si4 0.684085 0.195789 0.531283
Si Si5 0.589157 0.387885 0.649040
Si Si6 0.276719 0.233130 0.661468
Si Si7 0.688919 0.975731 0.313879
Si Si8 0.165579 0.541032 0.251610
O O1 0.207342 0.129610 0.057377
O O2 0.500000 0.151609 0.000000
O O3 0.267677 0.284311 0.943780
O O4 0.281981 0.067489 0.898873
O O5 0.849620 0.444168 0.149393
O O6 0.746539 0.500000 0.000000
O O7 0.000000 0.379926 0.000000
O O8 0.251222 0.913486 0.772969
O O9 0.000000 0.000000 0.855808
O O10 0.500000 0.172078 0.500000
O O11 0.692940 0.316561 0.581543
O O12 0.766055 0.216012 0.439447
O O13 0.730053 0.094490 0.598499
O O14 0.500000 0.500000 0.609729
O O15 0.457503 0.288276 0.671631
O O16 0.695251 0.450397 0.722372
O O17 0.246292 0.105483 0.695886
O O18 0.185447 0.332450 0.709582
O O19 0.500000 0.000000 0.315737
O O20 0.000000 0.500000 0.289406
#
# Coordination Sequence:
#
# PCOD9310150 Si02
#       8
#     4   4   4   4   4   4   4   4
#     4  11  23  45  70 101 134 170 229 295 327 402
#     4  11  23  45  66  94 129 183 218 264 345 418
#     4  11  24  43  67  97 137 187 226 264 345 411
#     4  10  20  38  66  99 131 176 219 276 352 408
#     4   9  20  38  62  93 125 166 221 282 330 397
#     4  10  22  39  65  98 130 173 220 281 343 402
#     4  12  21  38  67 105 137 172 228 286 339 408
#     4  11  23  44  65  91 131 172 234 275 326 407
#
# _framework density 21.248314000000001
#
# number of rings (size 3 to 8) (size 9 to 14) (size 15 to 20)
#    0.000    1.375    3.750    4.125    0.000    7.000 
#   13.500    1.250    0.000    0.750    0.000    0.000 
#    0.000    0.000    0.000    0.000    0.000    0.000 
#
# Total GULP energy -178444.356997 kJ/mol
# GULP energy per Si atom -5576.386156 kJ/mol
# Density = 2.119995 g / cm^3
# Si number density = 21.248314 Si / 1000 Ang^3
#
#
#
# Elastic Constant Matrix: (Units=GPa)
#
#
# Indices 1 2 3 4 5 6 
#
# 1 50.0599 10.9855 20.3393 0.0000 0.0000 0.0000
# 2 10.9855 99.8194 27.7477 0.0000 0.0000 0.0000
# 3 20.3393 27.7477 136.6573 0.0000 0.0000 0.0000
# 4 0.0000 0.0000 0.0000 -19.1492 0.0000 0.0000
# 5 0.0000 0.0000 0.0000 0.0000 28.5929 0.0000
# 6 0.0000 0.0000 0.0000 0.0000 0.0000 0.1614
#
#
#
# Elastic Compliance Matrix: (Units=1/GPa)
#
#
# Indices 1 2 3 4 5 6 
#
# 1 0.021490 -0.001564 -0.002881 0.000000 0.000000 0.000000
# 2 -0.001564 0.010731 -0.001946 0.000000 0.000000 0.000000
# 3 -0.002881 -0.001946 0.008141 0.000000 0.000000 0.000000
# 4 0.000000 0.000000 0.000000 -0.052221 0.000000 0.000000
# 5 0.000000 0.000000 0.000000 0.000000 0.034974 0.000000
# 6 0.000000 0.000000 0.000000 0.000000 0.000000 6.194327
#
#
# Mechanical properties :
#
#
# Convention : Reuss Voigt Hill
#
# Bulk Modulus (GPa) = 36.25789 44.96463 40.61126
# Shear Modulus (GPa) = 0.80136 17.08529 8.94332
#
# Velocity S-wave (km/s) = 0.61478 2.83870 2.05380
# Velocity P-wave (km/s) = 4.19582 5.65259 4.97778
#
# Compressibility (1/GPa) = 0.02758020
#
# Stress axis : x y z
#
# Youngs Moduli (GPa) = 46.53363 93.18607 122.82759
#
# Poissons Ratio (x) = 0.14576 0.35384
# Poissons Ratio (y) = 0.07279 0.23904
# Poissons Ratio (z) = 0.13406 0.18135
#
# Static dielectric constant tensor:
#      x y z
#    x 1.834890 0.000000 0.000000 
#    y 0.000000 1.781700 0.000000 
#    z 0.000000 0.000000 1.776720 
# 
# From -- ./inp_files/7990.got.cif
#   From: 2010.05.17/outbox.cif.g08.bks.cpg/sg16_4_cif.got.tgz:7990.got - 2010.06.03 22:28:35.
