data_PCOD9310646
_publ_section_title
;
Structure prediction by ZEFSAII (Michael W. Deem and Ramdas Pophale) SiO2 
 PCOD9310646
Probable space group: P 2 2 21
;
_chemical_formula_sum "Si O2"
_cell_formula_units_Z 30
_cell_length_a 13.863559
_cell_length_b 19.538764
_cell_length_c 5.612517
_cell_angle_alpha 90.000000
_cell_angle_beta 90.000000
_cell_angle_gamma 90.000000
_cell_volume 1520.300687
_symmetry_space_group_name_H-M "P 2 2 21"
_symmetry_group_IT_number 17
_symmetry_cell_setting 'orthorhombic'
loop_
_space_group_symop_operation_xyz
x,y,z
-x,-y,1/2+z
x,-y,-z
-x,y,1/2-z
loop_
_atom_site_type_symbol
_atom_site_label
_atom_site_fract_x
_atom_site_fract_y
_atom_site_fract_z
Si Si1 0.890468 0.458308 0.747684
Si Si2 0.892597 0.282149 0.242985
Si Si3 0.454660 0.764919 0.996301
Si Si4 0.756140 0.774791 0.371810
Si Si5 0.529289 0.607711 0.997123
Si Si6 0.942688 0.000000 0.000000
Si Si7 0.100388 0.148592 0.600314
Si Si8 0.746215 0.355092 0.933583
O O1 0.882643 0.500000 0.500000
O O2 0.805386 0.402880 0.754715
O O3 0.000000 0.428934 0.750000
O O4 0.880678 0.500000 0.000000
O O5 0.845371 0.258152 0.486919
O O6 0.000000 0.310331 0.250000
O O7 0.898854 0.213477 0.078861
O O8 0.820962 0.338900 0.142055
O O9 0.500000 0.791099 0.750000
O O10 0.475381 0.682587 0.996373
O O11 0.500000 0.789166 0.250000
O O12 0.341364 0.782269 0.981823
O O13 0.804547 0.841191 0.260276
O O14 0.725416 0.719414 0.175297
O O15 0.500000 0.573968 0.750000
O O16 0.500000 0.576893 0.250000
O O17 0.644325 0.615381 0.992857
O O18 0.892608 0.925883 0.982704
O O19 0.000000 0.995573 0.250000
O O20 0.000000 0.152632 0.750000
#
# Coordination Sequence:
#
# PCOD9310646 Si02
#       8
#     4   4   4   4   4   2   4   4
#     4  10  25  45  63  85 119 161 211 252 287 360
#     4  11  22  33  55  88 129 154 195 255 312 372
#     4  10  19  35  53  81 119 154 190 236 299 364
#     4  11  22  35  57  91 125 159 196 253 312 371
#     4  10  19  35  56  86 116 148 189 238 297 365
#     4  10  22  38  62  80 118 184 222 244 294 358
#     4  10  21  37  53  86 128 168 207 252 298 361
#     4  11  24  36  62  89 115 163 201 248 318 366
#
# _framework density 19.732939999999999
#
# number of rings (size 3 to 8) (size 9 to 14) (size 15 to 20)
#    0.000    1.600    4.000    2.000    7.467    0.533 
#    0.000    0.000    0.000    1.600    0.000    0.000 
#    4.000    0.000    0.000    0.000    0.000    0.000 
#
# Total GULP energy -167301.317386 kJ/mol
# GULP energy per Si atom -5576.710580 kJ/mol
# Density = 1.968803 g / cm^3
# Si number density = 19.732940 Si / 1000 Ang^3
#
#
#
# Elastic Constant Matrix: (Units=GPa)
#
#
# Indices 1 2 3 4 5 6 
#
# 1 136.2989 40.2208 31.4766 0.0000 0.0000 0.0000
# 2 40.2208 62.8797 19.8710 0.0000 0.0000 0.0000
# 3 31.4766 19.8710 113.0851 0.0000 0.0000 0.0000
# 4 0.0000 0.0000 0.0000 18.6039 0.0000 0.0000
# 5 0.0000 0.0000 0.0000 0.0000 35.0199 0.0000
# 6 0.0000 0.0000 0.0000 0.0000 0.0000 -1.4486
#
#
#
# Elastic Compliance Matrix: (Units=1/GPa)
#
#
# Indices 1 2 3 4 5 6 
#
# 1 0.009322 -0.005445 -0.001638 0.000000 0.000000 0.000000
# 2 -0.005445 0.020019 -0.002002 0.000000 0.000000 0.000000
# 3 -0.001638 -0.002002 0.009651 0.000000 0.000000 0.000000
# 4 0.000000 0.000000 0.000000 0.053752 0.000000 0.000000
# 5 0.000000 0.000000 0.000000 0.000000 0.028555 0.000000
# 6 0.000000 0.000000 0.000000 0.000000 0.000000 -0.690344
#
#
# Mechanical properties :
#
#
# Convention : Reuss Voigt Hill
#
# Bulk Modulus (GPa) = 48.02762 55.04448 51.53605
# Shear Modulus (GPa) = -9.19228 25.14806 7.97789
#
# Velocity S-wave (km/s) = -2.16066 3.57378 2.01289
# Velocity P-wave (km/s) = 4.26228 6.70704 5.61923
#
# Compressibility (1/GPa) = 0.02082135
#
# Stress axis : x y z
#
# Youngs Moduli (GPa) = 107.27453 49.95247 103.62054
#
# Poissons Ratio (x) = 0.27200 0.16972
# Poissons Ratio (y) = 0.58412 0.20746
# Poissons Ratio (z) = 0.17570 0.10001
#
# Static dielectric constant tensor:
#      x y z
#    x 1.745470 0.000000 0.000000 
#    y 0.000000 1.697040 0.000000 
#    z 0.000000 0.000000 1.896970 
# 
# From -- ./inp_files/1855.got.cif
#   From: 2010.05.17/outbox.cif.g08.bks.cpg/sg17_1_cif.got.tgz:1855.got - 2010.06.03 22:34:06.
