data_PCOD9310170
_publ_section_title
;
Structure prediction by ZEFSAII (Michael W. Deem and Ramdas Pophale) SiO2 
 PCOD9310170
Probable space group: P 2 2 2
;
_chemical_formula_sum "Si O2"
_cell_formula_units_Z 18
_cell_length_a 8.195365
_cell_length_b 17.120993
_cell_length_c 5.569529
_cell_angle_alpha 90.000000
_cell_angle_beta 90.000000
_cell_angle_gamma 90.000000
_cell_volume 781.476135
_symmetry_space_group_name_H-M "P 2 2 2"
_symmetry_group_IT_number 16
_symmetry_cell_setting 'orthorhombic'
loop_
_space_group_symop_operation_xyz
x,y,z
-x,-y,z
x,-y,-z
-x,y,-z
loop_
_atom_site_type_symbol
_atom_site_label
_atom_site_fract_x
_atom_site_fract_y
_atom_site_fract_z
Si Si1 0.251649 0.768327 0.343633
Si Si2 0.500000 0.500000 0.500000
Si Si3 0.000000 0.500000 0.500000
Si Si4 0.185725 0.918811 0.602712
Si Si5 0.000000 0.152106 0.000000
Si Si6 0.255243 0.385541 0.373517
Si Si7 0.500000 0.317695 0.000000
O O1 0.283974 0.845711 0.499314
O O2 0.098242 0.792065 0.179688
O O3 0.209699 0.697470 0.519607
O O4 0.401218 0.737450 0.184345
O O5 0.364000 0.434332 0.569505
O O6 0.896266 0.558515 0.334956
O O7 0.000000 0.915491 0.500000
O O8 0.252864 0.000000 0.500000
O O9 0.140546 0.902248 0.879769
O O10 0.368700 0.369764 0.144386
#
# Coordination Sequence:
#
# PCOD9310170 Si02
#       7
#     4   1   1   4   2   4   2
#     4  11  23  40  69 101 140 185 237 286 349 436
#     4  10  20  48  64  90 136 182 232 292 340 426
#     4  10  28  46  74 102 146 172 248 332 336 402
#     4   9  20  38  65 102 143 180 235 295 344 416
#     4  10  22  39  72 103 138 188 234 289 366 410
#     4  11  24  46  68  99 139 187 236 299 352 425
#     4  12  24  43  74  95 144 198 234 268 383 433
#
# _framework density 23.033334
#
# number of rings (size 3 to 8) (size 9 to 14) (size 15 to 20)
#    0.000    1.556    2.222    1.333    7.778    7.556 
#    0.000    1.111    0.000   18.667    0.000    0.000 
#    0.000    0.000    0.000    0.000    0.000    0.000 
#
# Total GULP energy -100290.844916 kJ/mol
# GULP energy per Si atom -5571.713606 kJ/mol
# Density = 2.298091 g / cm^3
# Si number density = 23.033334 Si / 1000 Ang^3
#
#
#
# Elastic Constant Matrix: (Units=GPa)
#
#
# Indices 1 2 3 4 5 6 
#
# 1 82.9126 71.8812 43.3553 0.0000 0.0000 0.0000
# 2 71.8812 224.4404 68.8124 0.0000 0.0000 0.0000
# 3 43.3553 68.8124 98.2514 0.0000 0.0000 0.0000
# 4 0.0000 0.0000 0.0000 -7.6703 0.0000 0.0000
# 5 0.0000 0.0000 0.0000 0.0000 27.1902 0.0000
# 6 0.0000 0.0000 0.0000 0.0000 0.0000 28.9712
#
#
#
# Elastic Compliance Matrix: (Units=1/GPa)
#
#
# Indices 1 2 3 4 5 6 
#
# 1 0.018518 -0.004362 -0.005116 0.000000 0.000000 0.000000
# 2 -0.004362 0.006701 -0.002769 0.000000 0.000000 0.000000
# 3 -0.005116 -0.002769 0.014375 0.000000 0.000000 0.000000
# 4 0.000000 0.000000 0.000000 -0.130373 0.000000 0.000000
# 5 0.000000 0.000000 0.000000 0.000000 0.036778 0.000000
# 6 0.000000 0.000000 0.000000 0.000000 0.000000 0.034517
#
#
# Mechanical properties :
#
#
# Convention : Reuss Voigt Hill
#
# Bulk Modulus (GPa) = 66.22508 85.96692 76.09600
# Shear Modulus (GPa) = 497.84519 24.46858 261.15689
#
# Velocity S-wave (km/s) = 14.71769 3.26285 10.65966
# Velocity P-wave (km/s) = 17.82212 7.18323 13.58725
#
# Compressibility (1/GPa) = 0.01510002
#
# Stress axis : x y z
#
# Youngs Moduli (GPa) = 54.00170 149.22231 69.56658
#
# Poissons Ratio (x) = 0.65092 0.35593
# Poissons Ratio (y) = 0.23556 0.19260
# Poissons Ratio (z) = 0.27629 0.41314
#
# Static dielectric constant tensor:
#      x y z
#    x 1.905030 0.000000 0.000000 
#    y 0.000000 1.859670 0.000000 
#    z 0.000000 0.000000 2.034760 
# 
# From -- ./inp_files/793.got.cif
#   From: 2010.05.17/outbox.cif.g08.bks.cpg/sg16_1_cif.got.tgz:793.got - 2010.06.03 22:28:35.
