data_PCOD9310280
_publ_section_title
;
Structure prediction by ZEFSAII (Michael W. Deem and Ramdas Pophale) SiO2 
 PCOD9310280
Probable space group: P 2 2 2
;
_chemical_formula_sum "Si O2"
_cell_formula_units_Z 19
_cell_length_a 8.807815
_cell_length_b 11.981174
_cell_length_c 7.837123
_cell_angle_alpha 90.000000
_cell_angle_beta 90.000000
_cell_angle_gamma 90.000000
_cell_volume 827.035634
_symmetry_space_group_name_H-M "P 2 2 2"
_symmetry_group_IT_number 16
_symmetry_cell_setting 'orthorhombic'
loop_
_space_group_symop_operation_xyz
x,y,z
-x,-y,z
x,-y,-z
-x,y,-z
loop_
_atom_site_type_symbol
_atom_site_label
_atom_site_fract_x
_atom_site_fract_y
_atom_site_fract_z
Si Si1 0.500000 0.000000 0.500000
Si Si2 0.000000 0.000000 0.500000
Si Si3 0.000000 0.000000 0.000000
Si Si4 0.943961 0.614747 0.693960
Si Si5 0.492709 0.161982 0.195146
Si Si6 0.141910 0.830439 0.756351
Si Si7 0.583236 0.611358 0.684326
O O1 0.438261 0.913402 0.351255
O O2 0.103526 0.087183 0.399470
O O3 0.110254 0.084753 0.092620
O O4 0.763802 0.600916 0.673042
O O5 0.000000 0.500000 0.778979
O O6 0.000000 0.618609 0.500000
O O7 0.026774 0.725501 0.768079
O O8 0.319467 0.192041 0.245848
O O9 0.570508 0.281364 0.197493
O O10 0.500000 0.118579 0.000000
O O11 0.500000 0.500000 0.750187
O O12 0.500000 0.631831 0.500000
#
# Coordination Sequence:
#
# PCOD9310280 Si02
#       7
#     1   1   1   4   4   4   4
#     4  12  28  48  74 108 146 204 252 302 382 442
#     4  10  22  42  78 100 142 198 250 304 372 444
#     4  10  28  42  72  90 156 178 238 288 352 430
#     4  11  22  40  74 107 141 187 247 307 370 451
#     4  12  28  46  76 108 154 194 253 313 376 449
#     4  11  24  45  69 106 141 192 244 299 368 436
#     4  11  23  44  74 109 151 195 246 310 382 449
#
# _framework density 22.973617999999998
#
# number of rings (size 3 to 8) (size 9 to 14) (size 15 to 20)
#    0.000    0.842    2.105    6.000    5.895    2.105 
#    0.000    0.526    0.000    0.000    0.000    0.000 
#    0.000    0.000    0.000    0.000    0.000    0.000 
#
# Total GULP energy -105868.382566 kJ/mol
# GULP energy per Si atom -5572.020135 kJ/mol
# Density = 2.292133 g / cm^3
# Si number density = 22.973618 Si / 1000 Ang^3
#
#
#
# Elastic Constant Matrix: (Units=GPa)
#
#
# Indices 1 2 3 4 5 6 
#
# 1 184.2331 43.9720 7.4784 0.0000 0.0000 0.0000
# 2 43.9720 188.9696 43.8337 0.0000 0.0000 0.0000
# 3 7.4784 43.8337 95.7077 0.0000 0.0000 0.0000
# 4 0.0000 0.0000 0.0000 49.7180 0.0000 0.0000
# 5 0.0000 0.0000 0.0000 0.0000 53.9320 0.0000
# 6 0.0000 0.0000 0.0000 0.0000 0.0000 12.0126
#
#
#
# Elastic Compliance Matrix: (Units=1/GPa)
#
#
# Indices 1 2 3 4 5 6 
#
# 1 0.005750 -0.001380 0.000183 0.000000 0.000000 0.000000
# 2 -0.001380 0.006252 -0.002756 0.000000 0.000000 0.000000
# 3 0.000183 -0.002756 0.011696 0.000000 0.000000 0.000000
# 4 0.000000 0.000000 0.000000 0.020113 0.000000 0.000000
# 5 0.000000 0.000000 0.000000 0.000000 0.018542 0.000000
# 6 0.000000 0.000000 0.000000 0.000000 0.000000 0.083246
#
#
# Mechanical properties :
#
#
# Convention : Reuss Voigt Hill
#
# Bulk Modulus (GPa) = 63.32227 73.27538 68.29883
# Shear Modulus (GPa) = 31.49205 48.04095 39.76650
#
# Velocity S-wave (km/s) = 3.70644 4.57785 4.16500
# Velocity P-wave (km/s) = 6.77789 7.73996 7.27485
#
# Compressibility (1/GPa) = 0.01579223
#
# Stress axis : x y z
#
# Youngs Moduli (GPa) = 173.91455 159.94184 85.49742
#
# Poissons Ratio (x) = 0.22078 -0.01564
# Poissons Ratio (y) = 0.24007 0.23560
# Poissons Ratio (z) = -0.03181 0.44074
#
# Static dielectric constant tensor:
#      x y z
#    x 2.068350 0.000000 0.000000 
#    y 0.000000 1.772310 0.000000 
#    z 0.000000 0.000000 1.943560 
# 
# From -- ./inp_files/3881.got.cif
#   From: 2010.05.17/outbox.cif.g08.bks.cpg/sg16_2_cif.got.tgz:3881.got - 2010.06.03 22:28:35.
