data_PCOD9310931
_publ_section_title
;
Structure prediction by ZEFSAII (Michael W. Deem and Ramdas Pophale) SiO2 
 PCOD9310931
Probable space group: P 2 2 21
;
_chemical_formula_sum "Si O2"
_cell_formula_units_Z 24
_cell_length_a 5.893840
_cell_length_b 16.943537
_cell_length_c 10.709146
_cell_angle_alpha 90.000000
_cell_angle_beta 90.000000
_cell_angle_gamma 90.000000
_cell_volume 1069.442051
_symmetry_space_group_name_H-M "P 2 2 21"
_symmetry_group_IT_number 17
_symmetry_cell_setting 'orthorhombic'
loop_
_space_group_symop_operation_xyz
x,y,z
-x,-y,1/2+z
x,-y,-z
-x,y,1/2-z
loop_
_atom_site_type_symbol
_atom_site_label
_atom_site_fract_x
_atom_site_fract_y
_atom_site_fract_z
Si Si1 0.191849 0.116433 0.943676
Si Si2 0.500000 0.509819 0.750000
Si Si3 0.199415 0.767625 0.468278
Si Si4 0.500000 0.804274 0.250000
Si Si5 0.762128 0.500000 0.500000
Si Si6 0.401891 0.924628 0.588666
Si Si7 0.113482 0.380955 0.372870
Si Si8 0.000000 0.006217 0.250000
O O1 0.381675 0.137380 0.844677
O O2 0.053003 0.197414 0.957754
O O3 0.049024 0.051393 0.868890
O O4 0.324959 0.089781 0.066870
O O5 0.619237 0.472692 0.624371
O O6 0.695594 0.561491 0.816725
O O7 0.317677 0.758480 0.333406
O O8 0.312582 0.839593 0.544019
O O9 0.213762 0.686615 0.541112
O O10 0.925998 0.430607 0.449350
O O11 0.227931 0.947898 0.700913
O O12 0.372846 0.000000 0.500000
O O13 0.000000 0.343202 0.250000
#
# Coordination Sequence:
#
# PCOD9310931 Si02
#       8
#     4   2   4   2   2   4   4   2
#     4  11  22  44  65  88 134 181 240 308 369 429
#     4  10  22  48  77 107 156 200 240 302 364 439
#     4  11  23  44  67  99 141 180 243 304 371 441
#     4  10  20  40  67  95 126 188 230 298 374 431
#     4  10  22  46  78 112 150 200 244 294 366 442
#     4  11  25  40  65  98 127 186 244 296 370 436
#     4  10  24  45  73 108 150 193 240 298 363 441
#     4  12  22  46  68  90 138 180 246 318 360 440
#
# _framework density 22.441610000000001
#
# number of rings (size 3 to 8) (size 9 to 14) (size 15 to 20)
#    0.000    1.333    3.333    1.500    3.500    5.333 
#    0.000   17.500    0.000    0.000    0.000    0.000 
#    0.000    0.000    0.000    0.000    0.000    0.000 
#
# Total GULP energy -133647.865460 kJ/mol
# GULP energy per Si atom -5568.661061 kJ/mol
# Density = 2.239053 g / cm^3
# Si number density = 22.441610 Si / 1000 Ang^3
#
#
#
# Elastic Constant Matrix: (Units=GPa)
#
#
# Indices 1 2 3 4 5 6 
#
# 1 90.1845 8.6743 62.2139 0.0000 0.0000 0.0000
# 2 8.6743 54.5802 50.3576 0.0000 0.0000 0.0000
# 3 62.2139 50.3576 167.2397 0.0000 0.0000 0.0000
# 4 0.0000 0.0000 0.0000 -173.9641 0.0000 0.0000
# 5 0.0000 0.0000 0.0000 0.0000 56.9939 0.0000
# 6 0.0000 0.0000 0.0000 0.0000 0.0000 -8.6704
#
#
#
# Elastic Compliance Matrix: (Units=1/GPa)
#
#
# Indices 1 2 3 4 5 6 
#
# 1 0.015510 0.003958 -0.006962 0.000000 0.000000 0.000000
# 2 0.003958 0.026380 -0.009416 0.000000 0.000000 0.000000
# 3 -0.006962 -0.009416 0.011404 0.000000 0.000000 0.000000
# 4 0.000000 0.000000 0.000000 -0.005748 0.000000 0.000000
# 5 0.000000 0.000000 0.000000 0.000000 0.017546 0.000000
# 6 0.000000 0.000000 0.000000 0.000000 0.000000 -0.115335
#
#
# Mechanical properties :
#
#
# Convention : Reuss Voigt Hill
#
# Bulk Modulus (GPa) = 35.14207 61.61065 48.37636
# Shear Modulus (GPa) = -314.09393 -12.41089 -163.25241
#
# Velocity S-wave (km/s) = -11.84333 -2.35421 -8.53834
# Velocity P-wave (km/s) = 13.08915 4.48593 8.69489
#
# Compressibility (1/GPa) = 0.02845592
#
# Stress axis : x y z
#
# Youngs Moduli (GPa) = 64.47364 37.90772 87.68562
#
# Poissons Ratio (x) = -0.15004 0.61044
# Poissons Ratio (y) = -0.25519 0.82562
# Poissons Ratio (z) = 0.44885 0.35693
#
# Static dielectric constant tensor:
#      x y z
#    x 2.014750 0.000000 0.000000 
#    y 0.000000 1.761020 0.000000 
#    z 0.000000 0.000000 1.986380 
# 
# From -- ./inp_files/6054.got.cif
#   From: 2010.05.17/outbox.cif.g08.bks.cpg/sg17_4_cif.got.tgz:6054.got - 2010.06.03 22:34:06.
