data_PCOD9310676
_publ_section_title
;
Structure prediction by ZEFSAII (Michael W. Deem and Ramdas Pophale) SiO2 
 PCOD9310676
Probable space group: P 2 2 21
;
_chemical_formula_sum "Si O2"
_cell_formula_units_Z 24
_cell_length_a 15.672077
_cell_length_b 5.168330
_cell_length_c 16.401876
_cell_angle_alpha 90.000000
_cell_angle_beta 90.000000
_cell_angle_gamma 90.000000
_cell_volume 1328.526791
_symmetry_space_group_name_H-M "P 2 2 21"
_symmetry_group_IT_number 17
_symmetry_cell_setting 'orthorhombic'
loop_
_space_group_symop_operation_xyz
x,y,z
-x,-y,1/2+z
x,-y,-z
-x,y,1/2-z
loop_
_atom_site_type_symbol
_atom_site_label
_atom_site_fract_x
_atom_site_fract_y
_atom_site_fract_z
Si Si1 0.498160 0.047007 0.848289
Si Si2 0.728395 0.541155 0.264928
Si Si3 0.128212 0.013350 0.405615
Si Si4 0.086272 0.487538 0.698987
Si Si5 0.398059 0.453632 0.095299
Si Si6 0.312993 0.956999 0.662383
O O1 0.500000 0.018000 0.750000
O O2 0.438053 0.826508 0.886052
O O3 0.595401 0.006956 0.876827
O O4 0.463036 0.328018 0.871280
O O5 0.830117 0.512174 0.257144
O O6 0.688006 0.491345 0.352676
O O7 0.689310 0.323722 0.204628
O O8 0.701879 0.822378 0.231182
O O9 0.093572 0.265635 0.359815
O O10 0.231242 0.020968 0.395914
O O11 0.105105 0.000000 0.500000
O O12 0.094842 0.765661 0.356742
O O13 0.000000 0.489539 0.750000
O O14 0.385280 0.500000 0.000000
#
# Coordination Sequence:
#
# PCOD9310676 Si02
#       6
#     4   4   4   4   4   4
#     4  12  21  37  60  79 112 157 196 230 272 338
#     4  10  19  37  56  80 107 149 184 228 275 341
#     4  10  21  37  58  87 120 143 180 242 289 321
#     4  10  21  38  63  86 111 150 192 222 279 357
#     4  12  24  36  53  83 116 148 191 242 280 317
#     4  10  20  34  59  80 106 151 192 217 278 343
#
# _framework density 18.065124000000001
#
# number of rings (size 3 to 8) (size 9 to 14) (size 15 to 20)
#    0.000    1.333    3.333    3.000    0.000    1.333 
#    0.000    1.667    0.000    0.000    0.000    0.000 
#    0.000    0.000    0.000    0.000    0.000    0.000 
#
# Total GULP energy -134112.501692 kJ/mol
# GULP energy per Si atom -5588.020904 kJ/mol
# Density = 1.802401 g / cm^3
# Si number density = 18.065124 Si / 1000 Ang^3
#
#
#
# Elastic Constant Matrix: (Units=GPa)
#
#
# Indices 1 2 3 4 5 6 
#
# 1 124.6031 22.9516 50.4546 0.0000 0.0000 0.0000
# 2 22.9516 94.3562 15.0198 0.0000 0.0000 0.0000
# 3 50.4546 15.0198 100.8623 0.0000 0.0000 0.0000
# 4 0.0000 0.0000 0.0000 16.7186 0.0000 0.0000
# 5 0.0000 0.0000 0.0000 0.0000 16.3505 0.0000
# 6 0.0000 0.0000 0.0000 0.0000 0.0000 34.0360
#
#
#
# Elastic Compliance Matrix: (Units=1/GPa)
#
#
# Indices 1 2 3 4 5 6 
#
# 1 0.010333 -0.001732 -0.004911 0.000000 0.000000 0.000000
# 2 -0.001732 0.011146 -0.000793 0.000000 0.000000 0.000000
# 3 -0.004911 -0.000793 0.012489 0.000000 0.000000 0.000000
# 4 0.000000 0.000000 0.000000 0.059814 0.000000 0.000000
# 5 0.000000 0.000000 0.000000 0.000000 0.061160 0.000000
# 6 0.000000 0.000000 0.000000 0.000000 0.000000 0.029381
#
#
# Mechanical properties :
#
#
# Convention : Reuss Voigt Hill
#
# Bulk Modulus (GPa) = 52.36816 55.18594 53.77705
# Shear Modulus (GPa) = 24.32374 28.84739 26.58556
#
# Velocity S-wave (km/s) = 3.67338 4.00040 3.84037
# Velocity P-wave (km/s) = 6.85880 7.20779 7.03546
#
# Compressibility (1/GPa) = 0.01909557
#
# Stress axis : x y z
#
# Youngs Moduli (GPa) = 96.77682 89.72090 80.06834
#
# Poissons Ratio (x) = 0.15537 0.39322
# Poissons Ratio (y) = 0.16759 0.06353
# Poissons Ratio (z) = 0.47528 0.07119
#
# Static dielectric constant tensor:
#      x y z
#    x 1.618480 0.000000 0.000000 
#    y 0.000000 1.578250 0.000000 
#    z 0.000000 0.000000 1.591120 
# 
# From -- ./inp_files/8613.got.cif
#   From: 2010.05.17/outbox.cif.g08.bks.cpg/sg17_5_cif.got.tgz:8613.got - 2010.06.03 22:34:06.
