data_PCOD9310747
_publ_section_title
;
Structure prediction by ZEFSAII (Michael W. Deem and Ramdas Pophale) SiO2 
 PCOD9310747
Probable space group: P 2 2 21
;
_chemical_formula_sum "Si O2"
_cell_formula_units_Z 16
_cell_length_a 14.542681
_cell_length_b 12.737639
_cell_length_c 5.091705
_cell_angle_alpha 90.000000
_cell_angle_beta 90.000000
_cell_angle_gamma 90.000000
_cell_volume 943.184484
_symmetry_space_group_name_H-M "P 2 2 21"
_symmetry_group_IT_number 17
_symmetry_cell_setting 'orthorhombic'
loop_
_space_group_symop_operation_xyz
x,y,z
-x,-y,1/2+z
x,-y,-z
-x,y,1/2-z
loop_
_atom_site_type_symbol
_atom_site_label
_atom_site_fract_x
_atom_site_fract_y
_atom_site_fract_z
Si Si1 0.188829 0.874301 0.472877
Si Si2 0.000000 0.927704 0.250000
Si Si3 0.298564 0.189052 0.034718
Si Si4 0.437695 0.000000 0.000000
Si Si5 0.564682 0.377599 0.498787
O O1 0.220151 0.821887 0.743837
O O2 0.084319 0.862771 0.371074
O O3 0.200091 0.000000 0.500000
O O4 0.255108 0.834123 0.246583
O O5 0.967822 0.000000 0.500000
O O6 0.373746 0.097540 0.083315
O O7 0.350339 0.299375 0.024173
O O8 0.500000 0.970311 0.250000
O O9 0.592875 0.500000 0.500000
O O10 0.500000 0.360400 0.250000
O O11 0.500000 0.356771 0.750000
#
# Coordination Sequence:
#
# PCOD9310747 Si02
#       5
#     4   2   4   2   4
#     4  11  20  35  51  79 110 140 173 218 263 328
#     4  10  20  34  54  76 108 148 178 210 270 320
#     4  12  21  34  53  77 108 142 178 221 264 313
#     4  12  22  32  46  70 108 144 172 204 262 320
#     4  10  21  38  56  75 103 142 189 231 262 300
#
# _framework density 16.963808
#
# number of rings (size 3 to 8) (size 9 to 14) (size 15 to 20)
#    0.000    1.000    2.500    7.500    0.000    0.000 
#    0.000    0.000    0.000    0.000    0.000    3.500 
#    0.000    2.000    0.000    0.000    0.000    0.000 
#
# Total GULP energy -89375.431000 kJ/mol
# GULP energy per Si atom -5585.964437 kJ/mol
# Density = 1.692520 g / cm^3
# Si number density = 16.963808 Si / 1000 Ang^3
#
#
#
# Elastic Constant Matrix: (Units=GPa)
#
#
# Indices 1 2 3 4 5 6 
#
# 1 65.1212 41.4881 7.7325 0.0000 0.0000 0.0000
# 2 41.4881 72.1672 18.1513 0.0000 0.0000 0.0000
# 3 7.7325 18.1513 96.9834 0.0000 0.0000 0.0000
# 4 0.0000 0.0000 0.0000 25.7660 0.0000 0.0000
# 5 0.0000 0.0000 0.0000 0.0000 315.3530 0.0000
# 6 0.0000 0.0000 0.0000 0.0000 0.0000 23.9172
#
#
#
# Elastic Compliance Matrix: (Units=1/GPa)
#
#
# Indices 1 2 3 4 5 6 
#
# 1 0.024277 -0.014135 0.000710 0.000000 0.000000 0.000000
# 2 -0.014135 0.022771 -0.003135 0.000000 0.000000 0.000000
# 3 0.000710 -0.003135 0.010841 0.000000 0.000000 0.000000
# 4 0.000000 0.000000 0.000000 0.038811 0.000000 0.000000
# 5 0.000000 0.000000 0.000000 0.000000 0.003171 0.000000
# 6 0.000000 0.000000 0.000000 0.000000 0.000000 0.041811
#
#
# Mechanical properties :
#
#
# Convention : Reuss Voigt Hill
#
# Bulk Modulus (GPa) = 40.37253 41.00175 40.68714
# Shear Modulus (GPa) = 27.31357 84.13389 55.72373
#
# Velocity S-wave (km/s) = 4.01697 7.05009 5.73759
# Velocity P-wave (km/s) = 6.73540 9.51285 8.24196
#
# Compressibility (1/GPa) = 0.02476932
#
# Stress axis : x y z
#
# Youngs Moduli (GPa) = 41.19107 43.91478 92.24100
#
# Poissons Ratio (x) = 0.62074 -0.06548
# Poissons Ratio (y) = 0.58224 0.28916
# Poissons Ratio (z) = -0.02924 0.13767
#
# Static dielectric constant tensor:
#      x y z
#    x 1.583200 0.000000 0.000000 
#    y 0.000000 1.178600 0.000000 
#    z 0.000000 0.000000 1.572330 
# 
# From -- ./inp_files/1230.got.cif
#   From: 2010.05.17/outbox.cif.g08.bks.cpg/sg17_1_cif.got.tgz:1230.got - 2010.06.03 22:34:06.
