data_PCOD9310012
_publ_section_title
;
Structure prediction by ZEFSAII (Michael W. Deem and Ramdas Pophale) SiO2 
 PCOD9310012
Probable space group: P 2 2 2
;
_chemical_formula_sum "Si O2"
_cell_formula_units_Z 25
_cell_length_a 5.311305
_cell_length_b 7.186808
_cell_length_c 29.185928
_cell_angle_alpha 90.000000
_cell_angle_beta 90.000000
_cell_angle_gamma 90.000000
_cell_volume 1114.065668
_symmetry_space_group_name_H-M "P 2 2 2"
_symmetry_group_IT_number 16
_symmetry_cell_setting 'orthorhombic'
loop_
_space_group_symop_operation_xyz
x,y,z
-x,-y,z
x,-y,-z
-x,y,-z
loop_
_atom_site_type_symbol
_atom_site_label
_atom_site_fract_x
_atom_site_fract_y
_atom_site_fract_z
Si Si1 0.007401 0.221225 0.262183
Si Si2 0.501695 0.773668 0.893727
Si Si3 0.011929 0.718537 0.630585
Si Si4 0.518671 0.273250 0.419980
Si Si5 0.500000 0.000000 0.500000
Si Si6 0.000556 0.226536 0.947147
Si Si7 0.494989 0.772762 0.211900
O O1 0.054299 0.253162 0.315775
O O2 0.740170 0.288323 0.242934
O O3 0.242278 0.291920 0.233076
O O4 0.000000 0.000000 0.255818
O O5 0.244844 0.715794 0.918617
O O6 0.525455 0.716534 0.840947
O O7 0.744579 0.714475 0.922260
O O8 0.500000 0.000000 0.893628
O O9 0.730612 0.777384 0.617330
O O10 0.000000 0.500000 0.621950
O O11 0.243486 0.786244 0.599060
O O12 0.500000 0.500000 0.427955
O O13 0.606488 0.153298 0.463931
O O14 0.000000 0.000000 0.947261
O O15 0.000000 0.284922 0.000000
O O16 0.500000 0.000000 0.212492
#
# Coordination Sequence:
#
# PCOD9310012 Si02
#       7
#     4   4   4   4   1   4   4
#     4  10  19  30  51  74 101 128 176 219 256 321
#     4   9  15  23  34  47  77 112 151 205 263 306
#     4  10  22  41  60  83 118 151 183 229 280 329
#     4  10  24  42  62  91 122 154 195 238 282 341
#     4  12  26  42  72  92 124 162 198 238 292 336
#     4   9  15  21  30  46  68 108 162 209 247 305
#     4   9  17  28  41  67  93 125 163 217 270 316
#
# _framework density 22.440328000000001
#
# number of rings (size 3 to 8) (size 9 to 14) (size 15 to 20)
#    0.000    2.400    0.000    2.640    2.240    7.040 
#    0.000    2.400    0.000    0.000    0.000    0.000 
#    0.000    0.000    0.000    0.000    0.000   56.000 
#
# Total GULP energy -139535.437585 kJ/mol
# GULP energy per Si atom -5581.417503 kJ/mol
# Density = 2.238925 g / cm^3
# Si number density = 22.440328 Si / 1000 Ang^3
#
#
#
# Elastic Constant Matrix: (Units=GPa)
#
#
# Indices 1 2 3 4 5 6 
#
# 1 146.7202 -6.7695 38.3389 0.0000 0.0000 0.0000
# 2 -6.7695 102.9229 -14.6740 0.0000 0.0000 0.0000
# 3 38.3389 -14.6740 119.8648 0.0000 0.0000 0.0000
# 4 0.0000 0.0000 0.0000 -818.5636 0.0000 0.0000
# 5 0.0000 0.0000 0.0000 0.0000 19.5639 0.0000
# 6 0.0000 0.0000 0.0000 0.0000 0.0000 -25.2703
#
#
#
# Elastic Compliance Matrix: (Units=1/GPa)
#
#
# Indices 1 2 3 4 5 6 
#
# 1 0.007440 0.000153 -0.002361 0.000000 0.000000 0.000000
# 2 0.000153 0.009892 0.001162 0.000000 0.000000 0.000000
# 3 -0.002361 0.001162 0.009240 0.000000 0.000000 0.000000
# 4 0.000000 0.000000 0.000000 -0.001222 0.000000 0.000000
# 5 0.000000 0.000000 0.000000 0.000000 0.051115 0.000000
# 6 0.000000 0.000000 0.000000 0.000000 0.000000 -0.039572
#
#
# Mechanical properties :
#
#
# Convention : Reuss Voigt Hill
#
# Bulk Modulus (GPa) = 40.85064 44.81098 42.83081
# Shear Modulus (GPa) = 106.05787 -141.34649 -17.64431
#
# Velocity S-wave (km/s) = 6.88221 -7.94509 -2.80710
# Velocity P-wave (km/s) = 9.02201 8.00960 2.93624
#
# Compressibility (1/GPa) = 0.02447942
#
# Stress axis : x y z
#
# Youngs Moduli (GPa) = 134.41489 101.09445 108.22357
#
# Poissons Ratio (x) = -0.01544 0.25550
# Poissons Ratio (y) = -0.02053 -0.12577
# Poissons Ratio (z) = 0.31734 -0.11748
#
# Static dielectric constant tensor:
#      x y z
#    x 1.977470 0.000000 0.000000 
#    y 0.000000 1.868650 0.000000 
#    z 0.000000 0.000000 1.805040 
# 
# From -- ./inp_files/9622.got.cif
#   From: 2010.05.17/outbox.cif.g08.bks.cpg/sg16_5_cif.got.tgz:9622.got - 2010.06.03 22:28:35.
