data_PCOD9310490
_publ_section_title
;
Structure prediction by ZEFSAII (Michael W. Deem and Ramdas Pophale) SiO2 
 PCOD9310490
Probable space group: P 2 2 21
;
_chemical_formula_sum "Si O2"
_cell_formula_units_Z 28
_cell_length_a 9.357093
_cell_length_b 17.409069
_cell_length_c 7.501444
_cell_angle_alpha 90.000000
_cell_angle_beta 90.000000
_cell_angle_gamma 90.000000
_cell_volume 1221.972308
_symmetry_space_group_name_H-M "P 2 2 21"
_symmetry_group_IT_number 17
_symmetry_cell_setting 'orthorhombic'
loop_
_space_group_symop_operation_xyz
x,y,z
-x,-y,1/2+z
x,-y,-z
-x,y,1/2-z
loop_
_atom_site_type_symbol
_atom_site_label
_atom_site_fract_x
_atom_site_fract_y
_atom_site_fract_z
Si Si1 0.653246 0.230757 0.495966
Si Si2 0.235264 0.603072 0.638482
Si Si3 0.843090 0.085667 0.040549
Si Si4 0.490455 0.500000 0.500000
Si Si5 0.017701 0.500000 0.000000
Si Si6 0.831128 0.085112 0.467331
Si Si7 0.324333 0.764374 0.558276
Si Si8 0.743664 0.607642 0.436657
O O1 0.731321 0.151588 0.543099
O O2 0.667772 0.233562 0.277306
O O3 0.483559 0.235551 0.519276
O O4 0.723207 0.302609 0.600988
O O5 0.380012 0.555985 0.599394
O O6 0.246726 0.683045 0.532892
O O7 0.234726 0.612032 0.849843
O O8 0.092011 0.560161 0.584559
O O9 0.844265 0.092687 0.254491
O O10 0.755249 0.160600 0.985747
O O11 0.004905 0.089023 0.966816
O O12 0.785857 0.000000 0.000000
O O13 0.600785 0.558306 0.402658
O O14 0.125256 0.446870 0.880185
O O15 0.773347 0.000000 0.500000
#
# Coordination Sequence:
#
# PCOD9310490 Si02
#       8
#     4   4   4   2   2   4   4   4
#     4   9  17  30  51  77  99 124 164 214 262 302
#     4  10  19  33  50  74 104 132 170 220 259 303
#     4   9  18  32  52  78 104 134 169 209 256 310
#     4  10  18  30  52  76  94 134 168 202 266 316
#     4  10  22  30  48  76  98 134 172 206 266 312
#     4   9  18  32  52  78 104 134 169 209 256 310
#     4   9  17  30  51  77  99 124 164 214 262 302
#     4  10  19  33  50  74 104 132 170 220 259 303
#
# _framework density 22.913777
#
# number of rings (size 3 to 8) (size 9 to 14) (size 15 to 20)
#    0.000    2.571    1.429    0.857    2.000    0.571 
#    0.000    0.000    0.000   10.286    0.000    0.000 
#    0.000    0.000    0.000    0.000    0.000    0.000 
#
# Total GULP energy -156304.445198 kJ/mol
# GULP energy per Si atom -5582.301614 kJ/mol
# Density = 2.286162 g / cm^3
# Si number density = 22.913777 Si / 1000 Ang^3
#
#
#
# Elastic Constant Matrix: (Units=GPa)
#
#
# Indices 1 2 3 4 5 6 
#
# 1 149.1450 104.8138 14.9058 0.0000 0.0000 0.0000
# 2 104.8138 252.2380 11.4627 0.0000 0.0000 0.0000
# 3 14.9058 11.4627 50.9928 0.0000 0.0000 0.0000
# 4 0.0000 0.0000 0.0000 23.9837 0.0000 0.0000
# 5 0.0000 0.0000 0.0000 0.0000 17.7904 0.0000
# 6 0.0000 0.0000 0.0000 0.0000 0.0000 31.9127
#
#
#
# Elastic Compliance Matrix: (Units=1/GPa)
#
#
# Indices 1 2 3 4 5 6 
#
# 1 0.009657 -0.003925 -0.001941 0.000000 0.000000 0.000000
# 2 -0.003925 0.005600 -0.000112 0.000000 0.000000 0.000000
# 3 -0.001941 -0.000112 0.020203 0.000000 0.000000 0.000000
# 4 0.000000 0.000000 0.000000 0.041695 0.000000 0.000000
# 5 0.000000 0.000000 0.000000 0.000000 0.056210 0.000000
# 6 0.000000 0.000000 0.000000 0.000000 0.000000 0.031336
#
#
# Mechanical properties :
#
#
# Convention : Reuss Voigt Hill
#
# Bulk Modulus (GPa) = 42.54153 79.41561 60.97857
# Shear Modulus (GPa) = 27.10173 36.15025 31.62599
#
# Velocity S-wave (km/s) = 3.44287 3.97629 3.71916
# Velocity P-wave (km/s) = 5.86607 7.47094 6.71661
#
# Compressibility (1/GPa) = 0.02350644
#
# Stress axis : x y z
#
# Youngs Moduli (GPa) = 103.55288 178.55880 49.49761
#
# Poissons Ratio (x) = 0.70077 0.09606
# Poissons Ratio (y) = 0.40640 0.00553
# Poissons Ratio (z) = 0.20096 0.01995
#
# Static dielectric constant tensor:
#      x y z
#    x 1.805980 0.000000 0.000000 
#    y 0.000000 1.872360 0.000000 
#    z 0.000000 0.000000 1.987650 
# 
# From -- ./inp_files/6683.got.cif
#   From: 2010.05.17/outbox.cif.g08.bks.cpg/sg17_4_cif.got.tgz:6683.got - 2010.06.03 22:34:06.
