data_PCOD9310791
_publ_section_title
;
Structure prediction by ZEFSAII (Michael W. Deem and Ramdas Pophale) SiO2 
 PCOD9310791
Probable space group: P 2 2 21
;
_chemical_formula_sum "Si O2"
_cell_formula_units_Z 32
_cell_length_a 9.961180
_cell_length_b 13.488580
_cell_length_c 11.813551
_cell_angle_alpha 90.000000
_cell_angle_beta 90.000000
_cell_angle_gamma 90.000000
_cell_volume 1587.294387
_symmetry_space_group_name_H-M "P 2 2 21"
_symmetry_group_IT_number 17
_symmetry_cell_setting 'orthorhombic'
loop_
_space_group_symop_operation_xyz
x,y,z
-x,-y,1/2+z
x,-y,-z
-x,y,1/2-z
loop_
_atom_site_type_symbol
_atom_site_label
_atom_site_fract_x
_atom_site_fract_y
_atom_site_fract_z
Si Si1 0.257601 0.606558 0.049513
Si Si2 0.291964 0.226103 0.294232
Si Si3 0.573950 0.195801 0.867422
Si Si4 0.822943 0.887005 0.002999
Si Si5 0.269301 0.388890 0.692343
Si Si6 0.030780 0.307023 0.558841
Si Si7 0.563963 0.246771 0.419837
Si Si8 0.125083 0.586871 0.669885
O O1 0.312207 0.602019 0.177036
O O2 0.125185 0.672251 0.065538
O O3 0.219260 0.500000 0.000000
O O4 0.359259 0.656379 0.962371
O O5 0.231662 0.145916 0.379362
O O6 0.420900 0.269098 0.361935
O O7 0.347610 0.191505 0.174066
O O8 0.188905 0.315367 0.273984
O O9 0.500000 0.173925 0.750000
O O10 0.702277 0.131328 0.906321
O O11 0.628643 0.310569 0.864816
O O12 0.467512 0.185744 0.967998
O O13 0.935761 0.806589 0.032413
O O14 0.865483 0.000000 0.000000
O O15 0.124294 0.338779 0.664003
O O16 0.236953 0.501613 0.656532
O O17 0.079597 0.375208 0.453110
O O18 0.000000 0.553760 0.750000
#
# Coordination Sequence:
#
# PCOD9310791 Si02
#       8
#     4   4   4   4   4   4   4   4
#     4  12  22  33  55  87 122 165 208 245 292 362
#     4   9  20  37  58  85 121 155 197 256 305 356
#     4  10  20  39  56  84 120 157 193 244 303 360
#     4   9  20  40  66  87 109 153 197 252 316 372
#     4  11  21  34  55  80 121 160 205 246 294 366
#     4  10  21  35  57  82 116 153 197 259 306 358
#     4  10  20  36  55  81 122 159 198 240 301 355
#     4  11  20  35  56  84 118 159 213 246 297 361
#
# _framework density 20.160091999999999
#
# number of rings (size 3 to 8) (size 9 to 14) (size 15 to 20)
#    0.000    1.750    1.250    5.250    0.000    1.000 
#    6.750    0.000    0.000   21.000    0.000    0.000 
#    0.000    0.000    0.000    0.000    0.000    0.000 
#
# Total GULP energy -178505.383625 kJ/mol
# GULP energy per Si atom -5578.293238 kJ/mol
# Density = 2.011421 g / cm^3
# Si number density = 20.160092 Si / 1000 Ang^3
#
#
#
# Elastic Constant Matrix: (Units=GPa)
#
#
# Indices 1 2 3 4 5 6 
#
# 1 29.8257 2.9110 0.4954 0.0000 0.0000 0.0000
# 2 2.9110 87.6698 6.9664 0.0000 0.0000 0.0000
# 3 0.4954 6.9664 90.9243 0.0000 0.0000 0.0000
# 4 0.0000 0.0000 0.0000 5.3707 0.0000 0.0000
# 5 0.0000 0.0000 0.0000 0.0000 15.2771 0.0000
# 6 0.0000 0.0000 0.0000 0.0000 0.0000 9.7594
#
#
#
# Elastic Compliance Matrix: (Units=1/GPa)
#
#
# Indices 1 2 3 4 5 6 
#
# 1 0.033638 -0.001109 -0.000098 0.000000 0.000000 0.000000
# 2 -0.001109 0.011513 -0.000876 0.000000 0.000000 0.000000
# 3 -0.000098 -0.000876 0.011066 0.000000 0.000000 0.000000
# 4 0.000000 0.000000 0.000000 0.186197 0.000000 0.000000
# 5 0.000000 0.000000 0.000000 0.000000 0.065457 0.000000
# 6 0.000000 0.000000 0.000000 0.000000 0.000000 0.102466
#
#
# Mechanical properties :
#
#
# Convention : Reuss Voigt Hill
#
# Bulk Modulus (GPa) = 19.21240 25.46285 22.33763
# Shear Modulus (GPa) = 11.57801 19.28457 15.43129
#
# Velocity S-wave (km/s) = 2.39906 3.09620 2.76966
# Velocity P-wave (km/s) = 4.15025 5.04378 4.61868
#
# Compressibility (1/GPa) = 0.05204971
#
# Stress axis : x y z
#
# Youngs Moduli (GPa) = 29.72831 86.85930 90.36839
#
# Poissons Ratio (x) = 0.09634 0.00888
# Poissons Ratio (y) = 0.03297 0.07917
# Poissons Ratio (z) = 0.00292 0.07609
#
# Static dielectric constant tensor:
#      x y z
#    x 1.734330 0.000000 0.000000 
#    y 0.000000 1.678820 0.000000 
#    z 0.000000 0.000000 1.764900 
# 
# From -- ./inp_files/7083.got.cif
#   From: 2010.05.17/outbox.cif.g08.bks.cpg/sg17_4_cif.got.tgz:7083.got - 2010.06.03 22:34:06.
