data_PCOD9310393
_publ_section_title
;
Structure prediction by ZEFSAII (Michael W. Deem and Ramdas Pophale) SiO2 
 PCOD9310393
Probable space group: P 2 2 2
;
_chemical_formula_sum "Si O2"
_cell_formula_units_Z 30
_cell_length_a 15.677738
_cell_length_b 7.694599
_cell_length_c 11.185757
_cell_angle_alpha 90.000000
_cell_angle_beta 90.000000
_cell_angle_gamma 90.000000
_cell_volume 1349.381571
_symmetry_space_group_name_H-M "P 2 2 2"
_symmetry_group_IT_number 16
_symmetry_cell_setting 'orthorhombic'
loop_
_space_group_symop_operation_xyz
x,y,z
-x,-y,z
x,-y,-z
-x,y,-z
loop_
_atom_site_type_symbol
_atom_site_label
_atom_site_fract_x
_atom_site_fract_y
_atom_site_fract_z
Si Si1 0.928730 0.392870 0.210598
Si Si2 0.764210 0.513027 0.127849
Si Si3 0.230656 0.092448 0.375615
Si Si4 0.743924 0.903021 0.121714
Si Si5 0.681291 0.547100 0.374024
Si Si6 0.542343 0.823511 0.129244
Si Si7 0.500000 0.500000 0.297859
Si Si8 0.051246 0.717472 0.624359
O O1 0.844814 0.385522 0.134023
O O2 0.978881 0.237679 0.275309
O O3 0.913456 0.531181 0.322575
O O4 0.000000 0.500000 0.139051
O O5 0.790820 0.716218 0.134605
O O6 0.714378 0.472756 0.248357
O O7 0.718229 0.500000 0.000000
O O8 0.239218 0.997751 0.246997
O O9 0.299363 0.248457 0.364651
O O10 0.133915 0.163773 0.384973
O O11 0.249213 0.000000 0.500000
O O12 0.643206 0.855651 0.114261
O O13 0.767309 0.000000 0.000000
O O14 0.724457 0.500000 0.500000
O O15 0.584825 0.481882 0.375007
O O16 0.520527 0.664302 0.214266
O O17 0.500000 0.000000 0.177622
O O18 0.500000 0.792696 0.000000
O O19 0.000000 0.708932 0.500000
#
# Coordination Sequence:
#
# PCOD9310393 Si02
#       8
#     4   4   4   4   4   4   2   4
#     4   8  16  34  60  93 132 161 217 286 353 407
#     4  11  23  38  65 105 130 178 239 290 361 436
#     4  11  24  44  70 106 141 187 243 297 367 449
#     4  11  22  46  64  96 146 183 238 301 359 443
#     4  11  25  43  67  98 143 180 241 304 365 432
#     4  11  23  40  70 103 138 196 254 307 372 433
#     4  12  24  44  68  98 149 184 249 316 365 446
#     4   9  18  35  66  97 132 178 225 289 353 434
#
# _framework density 22.232406000000001
#
# number of rings (size 3 to 8) (size 9 to 14) (size 15 to 20)
#    0.800    0.667    6.667    1.200    3.733    2.667 
#    0.000    0.000    0.000    0.000    0.000    0.000 
#    0.000    0.000    0.000    0.000    0.000    0.000 
#
# Total GULP energy -167096.301658 kJ/mol
# GULP energy per Si atom -5569.876722 kJ/mol
# Density = 2.218180 g / cm^3
# Si number density = 22.232406 Si / 1000 Ang^3
#
#
#
# Elastic Constant Matrix: (Units=GPa)
#
#
# Indices 1 2 3 4 5 6 
#
# 1 89.5005 -5.8420 24.5587 0.0000 0.0000 0.0000
# 2 -5.8420 34.4051 10.9774 0.0000 0.0000 0.0000
# 3 24.5587 10.9774 178.9623 0.0000 0.0000 0.0000
# 4 0.0000 0.0000 0.0000 28.4883 0.0000 0.0000
# 5 0.0000 0.0000 0.0000 0.0000 70.3336 0.0000
# 6 0.0000 0.0000 0.0000 0.0000 0.0000 21.0603
#
#
#
# Elastic Compliance Matrix: (Units=1/GPa)
#
#
# Indices 1 2 3 4 5 6 
#
# 1 0.011830 0.002577 -0.001782 0.000000 0.000000 0.000000
# 2 0.002577 0.030207 -0.002207 0.000000 0.000000 0.000000
# 3 -0.001782 -0.002207 0.005968 0.000000 0.000000 0.000000
# 4 0.000000 0.000000 0.000000 0.035102 0.000000 0.000000
# 5 0.000000 0.000000 0.000000 0.000000 0.014218 0.000000
# 6 0.000000 0.000000 0.000000 0.000000 0.000000 0.047483
#
#
# Mechanical properties :
#
#
# Convention : Reuss Voigt Hill
#
# Bulk Modulus (GPa) = 22.13214 40.25067 31.19141
# Shear Modulus (GPa) = 30.73320 42.18802 36.46061
#
# Velocity S-wave (km/s) = 3.72204 4.36086 4.05405
# Velocity P-wave (km/s) = 5.33367 6.59545 5.99783
#
# Compressibility (1/GPa) = 0.04518315
#
# Stress axis : x y z
#
# Youngs Moduli (GPa) = 84.52956 33.10478 167.57178
#
# Poissons Ratio (x) = -0.08532 0.29853
# Poissons Ratio (y) = -0.21785 0.36975
# Poissons Ratio (z) = 0.15059 0.07305
#
# Static dielectric constant tensor:
#      x y z
#    x 1.888290 0.000000 0.000000 
#    y 0.000000 1.861360 0.000000 
#    z 0.000000 0.000000 1.914010 
# 
# From -- ./inp_files/7140.got.cif
#   From: 2010.05.17/outbox.cif.g08.bks.cpg/sg16_4_cif.got.tgz:7140.got - 2010.06.03 22:28:35.
