data_PCOD9310100
_publ_section_title
;
Structure prediction by ZEFSAII (Michael W. Deem and Ramdas Pophale) SiO2 
 PCOD9310100
Probable space group: P 2 2 2
;
_chemical_formula_sum "Si O2"
_cell_formula_units_Z 24
_cell_length_a 16.735328
_cell_length_b 8.034198
_cell_length_c 7.474095
_cell_angle_alpha 90.000000
_cell_angle_beta 90.000000
_cell_angle_gamma 90.000000
_cell_volume 1004.928985
_symmetry_space_group_name_H-M "P 2 2 2"
_symmetry_group_IT_number 16
_symmetry_cell_setting 'orthorhombic'
loop_
_space_group_symop_operation_xyz
x,y,z
-x,-y,z
x,-y,-z
-x,y,-z
loop_
_atom_site_type_symbol
_atom_site_label
_atom_site_fract_x
_atom_site_fract_y
_atom_site_fract_z
Si Si1 0.666568 0.456938 0.201099
Si Si2 0.087994 0.953298 0.713566
Si Si3 0.512414 0.283249 0.217950
Si Si4 0.613266 0.960660 0.213078
Si Si5 0.810700 0.655822 0.386650
Si Si6 0.237357 0.136911 0.726690
O O1 0.576327 0.424487 0.278518
O O2 0.733102 0.575953 0.289202
O O3 0.713347 0.281423 0.178680
O O4 0.648974 0.500000 0.000000
O O5 0.123969 0.764991 0.722214
O O6 0.086727 0.000000 0.500000
O O7 0.153368 0.075671 0.800352
O O8 0.000000 0.000000 0.779454
O O9 0.562096 0.118196 0.279434
O O10 0.424274 0.215609 0.268688
O O11 0.500000 0.295536 0.000000
O O12 0.703268 0.981835 0.272369
O O13 0.609613 0.000000 0.000000
O O14 0.847286 0.500000 0.500000
O O15 0.778900 0.782028 0.535976
#
# Coordination Sequence:
#
# PCOD9310100 Si02
#       6
#     4   4   4   4   4   4
#     4  10  20  34  54  84 117 153 198 244 295 350
#     4   9  18  35  59  87 113 143 192 240 282 353
#     4   8  15  28  47  80 109 137 188 248 283 322
#     4   8  14  27  51  82 108 138 191 245 286 334
#     4   9  19  36  57  87 120 151 189 241 303 360
#     4   9  18  34  57  85 113 150 192 239 300 359
#
# _framework density 23.882283999999999
#
# number of rings (size 3 to 8) (size 9 to 14) (size 15 to 20)
#    0.000    3.167    0.000    1.000    0.000    4.333 
#    0.000   14.167    0.000    5.500    0.000  438.667 
#    0.000    0.000    0.000    0.000    0.000    0.000 
#
# Total GULP energy -133666.532493 kJ/mol
# GULP energy per Si atom -5569.438854 kJ/mol
# Density = 2.382793 g / cm^3
# Si number density = 23.882284 Si / 1000 Ang^3
#
#
#
# Elastic Constant Matrix: (Units=GPa)
#
#
# Indices 1 2 3 4 5 6 
#
# 1 222.9441 101.2610 10.2161 0.0000 0.0000 0.0000
# 2 101.2610 147.5553 25.2728 0.0000 0.0000 0.0000
# 3 10.2161 25.2728 34.4441 0.0000 0.0000 0.0000
# 4 0.0000 0.0000 0.0000 26.7829 0.0000 0.0000
# 5 0.0000 0.0000 0.0000 0.0000 23.6138 0.0000
# 6 0.0000 0.0000 0.0000 0.0000 0.0000 40.5892
#
#
#
# Elastic Compliance Matrix: (Units=1/GPa)
#
#
# Indices 1 2 3 4 5 6 
#
# 1 0.006589 -0.004789 0.001559 0.000000 0.000000 0.000000
# 2 -0.004789 0.011232 -0.006821 0.000000 0.000000 0.000000
# 3 0.001559 -0.006821 0.033575 0.000000 0.000000 0.000000
# 4 0.000000 0.000000 0.000000 0.037337 0.000000 0.000000
# 5 0.000000 0.000000 0.000000 0.000000 0.042348 0.000000
# 6 0.000000 0.000000 0.000000 0.000000 0.000000 0.024637
#
#
# Mechanical properties :
#
#
# Convention : Reuss Voigt Hill
#
# Bulk Modulus (GPa) = 31.95387 75.38258 53.66823
# Shear Modulus (GPa) = 26.84561 36.07674 31.46118
#
# Velocity S-wave (km/s) = 3.35637 3.89087 3.63346
# Velocity P-wave (km/s) = 5.33189 7.19847 6.33431
#
# Compressibility (1/GPa) = 0.03129512
#
# Stress axis : x y z
#
# Youngs Moduli (GPa) = 151.76604 89.03296 29.78437
#
# Poissons Ratio (x) = 0.42637 -0.04645
# Poissons Ratio (y) = 0.72680 0.20315
# Poissons Ratio (z) = -0.23668 0.60727
#
# Static dielectric constant tensor:
#      x y z
#    x 1.970240 0.000000 0.000000 
#    y 0.000000 2.050880 0.000000 
#    z 0.000000 0.000000 1.952170 
# 
# From -- ./inp_files/5457.got.cif
#   From: 2010.05.17/outbox.cif.g08.bks.cpg/sg16_3_cif.got.tgz:5457.got - 2010.06.03 22:28:35.
