data_PCOD9310228
_publ_section_title
;
Structure prediction by ZEFSAII (Michael W. Deem and Ramdas Pophale) SiO2 
 PCOD9310228
Probable space group: P 2 2 2
;
_chemical_formula_sum "Si O2"
_cell_formula_units_Z 24
_cell_length_a 12.075925
_cell_length_b 11.831252
_cell_length_c 7.311071
_cell_angle_alpha 90.000000
_cell_angle_beta 90.000000
_cell_angle_gamma 90.000000
_cell_volume 1044.556927
_symmetry_space_group_name_H-M "P 2 2 2"
_symmetry_group_IT_number 16
_symmetry_cell_setting 'orthorhombic'
loop_
_space_group_symop_operation_xyz
x,y,z
-x,-y,z
x,-y,-z
-x,y,-z
loop_
_atom_site_type_symbol
_atom_site_label
_atom_site_fract_x
_atom_site_fract_y
_atom_site_fract_z
Si Si1 0.814279 0.107231 0.092127
Si Si2 0.228883 0.710908 0.807107
Si Si3 0.199720 0.536617 0.289334
Si Si4 0.025221 0.721421 0.284987
Si Si5 0.604761 0.058130 0.303623
Si Si6 0.618586 0.696237 0.552885
O O1 0.897025 0.176598 0.221195
O O2 0.719373 0.044744 0.204629
O O3 0.748214 0.199542 0.966678
O O4 0.873037 0.000000 0.000000
O O5 0.231082 0.574412 0.825096
O O6 0.304824 0.727809 0.625128
O O7 0.096907 0.732142 0.793174
O O8 0.171983 0.500000 0.500000
O O9 0.094423 0.609886 0.227561
O O10 0.305461 0.616853 0.321293
O O11 0.000000 0.718384 0.500000
O O12 0.587890 0.190296 0.340152
O O13 0.500000 0.000000 0.211208
O O14 0.614678 0.000000 0.500000
O O15 0.500000 0.643300 0.500000
#
# Coordination Sequence:
#
# PCOD9310228 Si02
#       6
#     4   4   4   4   4   4
#     4  12  28  47  68 109 156 194 249 317 396 442
#     4  11  25  42  70 110 156 190 236 315 385 448
#     4  10  21  40  76 108 144 189 248 302 368 459
#     4  12  22  45  77 103 141 197 257 298 363 467
#     4  11  22  44  76 101 135 198 262 309 361 456
#     4  11  21  42  73 112 142 193 262 309 364 448
#
# _framework density 22.976247000000001
#
# number of rings (size 3 to 8) (size 9 to 14) (size 15 to 20)
#    0.000    0.833    6.667    2.000    0.000    5.333 
#    0.000    2.500    0.000    0.000    8.667    0.000 
#    0.000    0.000    0.000    0.000    0.000    0.000 
#
# Total GULP energy -134093.832352 kJ/mol
# GULP energy per Si atom -5587.243015 kJ/mol
# Density = 2.292395 g / cm^3
# Si number density = 22.976247 Si / 1000 Ang^3
#
#
#
# Elastic Constant Matrix: (Units=GPa)
#
#
# Indices 1 2 3 4 5 6 
#
# 1 158.8332 40.7919 18.3262 0.0000 0.0000 0.0000
# 2 40.7919 116.0863 41.8477 0.0000 0.0000 0.0000
# 3 18.3262 41.8477 54.2389 0.0000 0.0000 0.0000
# 4 0.0000 0.0000 0.0000 29.1362 0.0000 0.0000
# 5 0.0000 0.0000 0.0000 0.0000 425.2185 0.0000
# 6 0.0000 0.0000 0.0000 0.0000 0.0000 35.5413
#
#
#
# Elastic Compliance Matrix: (Units=1/GPa)
#
#
# Indices 1 2 3 4 5 6 
#
# 1 0.006937 -0.002206 -0.000642 0.000000 0.000000 0.000000
# 2 -0.002206 0.012635 -0.009003 0.000000 0.000000 0.000000
# 3 -0.000642 -0.009003 0.025600 0.000000 0.000000 0.000000
# 4 0.000000 0.000000 0.000000 0.034322 0.000000 0.000000
# 5 0.000000 0.000000 0.000000 0.000000 0.002352 0.000000
# 6 0.000000 0.000000 0.000000 0.000000 0.000000 0.028136
#
#
# Mechanical properties :
#
#
# Convention : Reuss Voigt Hill
#
# Bulk Modulus (GPa) = 46.57667 59.01001 52.79334
# Shear Modulus (GPa) = 35.50147 113.19204 74.34675
#
# Velocity S-wave (km/s) = 3.93509 7.02650 5.69459
# Velocity P-wave (km/s) = 6.40017 9.56911 8.14033
#
# Compressibility (1/GPa) = 0.02146998
#
# Stress axis : x y z
#
# Youngs Moduli (GPa) = 144.16427 79.14519 39.06251
#
# Poissons Ratio (x) = 0.17461 0.02506
# Poissons Ratio (y) = 0.31805 0.35168
# Poissons Ratio (z) = 0.09249 0.71255
#
# Static dielectric constant tensor:
#      x y z
#    x 1.929850 0.000000 0.000000 
#    y 0.000000 1.778500 0.000000 
#    z 0.000000 0.000000 2.057040 
# 
# From -- ./inp_files/4682.got.cif
#   From: 2010.05.17/outbox.cif.g08.bks.cpg/sg16_3_cif.got.tgz:4682.got - 2010.06.03 22:28:35.
