data_PCOD9310116
_publ_section_title
;
Structure prediction by ZEFSAII (Michael W. Deem and Ramdas Pophale) SiO2 
 PCOD9310116
Probable space group: P 2 2 2
;
_chemical_formula_sum "Si O2"
_cell_formula_units_Z 32
_cell_length_a 8.966429
_cell_length_b 11.936413
_cell_length_c 15.317419
_cell_angle_alpha 90.000000
_cell_angle_beta 90.000000
_cell_angle_gamma 90.000000
_cell_volume 1639.377398
_symmetry_space_group_name_H-M "P 2 2 2"
_symmetry_group_IT_number 16
_symmetry_cell_setting 'orthorhombic'
loop_
_space_group_symop_operation_xyz
x,y,z
-x,-y,z
x,-y,-z
-x,y,-z
loop_
_atom_site_type_symbol
_atom_site_label
_atom_site_fract_x
_atom_site_fract_y
_atom_site_fract_z
Si Si1 0.164921 0.886175 0.772727
Si Si2 0.178296 0.862115 0.272339
Si Si3 0.601921 0.777268 0.579514
Si Si4 0.147314 0.681726 0.124350
Si Si5 0.333980 0.318949 0.309389
Si Si6 0.837314 0.369970 0.523197
Si Si7 0.340512 0.541000 0.860304
Si Si8 0.165462 0.736777 0.927466
O O1 0.280323 0.796662 0.734485
O O2 0.155715 0.852055 0.874668
O O3 0.004654 0.866872 0.724035
O O4 0.213396 0.013779 0.762713
O O5 0.283497 0.845139 0.357392
O O6 0.202249 0.760655 0.203303
O O7 0.500000 0.831031 0.500000
O O8 0.485683 0.710258 0.640145
O O9 0.710378 0.691631 0.530903
O O10 0.227844 0.562319 0.125912
O O11 0.968197 0.667408 0.121430
O O12 0.160565 0.745325 0.031264
O O13 0.205576 0.353238 0.376888
O O14 0.348692 0.417566 0.239715
O O15 0.835940 0.500000 0.500000
O O16 0.000000 0.323561 0.500000
O O17 0.500000 0.500000 0.889242
O O18 0.302290 0.654954 0.910304
#
# Coordination Sequence:
#
# PCOD9310116 Si02
#       8
#     4   4   4   4   4   4   4   4
#     4   9  20  39  60  84 118 151 193 245 292 347
#     4  10  20  37  62  87 112 152 199 244 291 351
#     4  10  22  39  60  84 117 155 194 244 291 350
#     4  10  20  35  59  85 115 151 194 237 292 352
#     4  10  22  38  56  82 116 153 191 237 291 351
#     4  10  22  38  58  85 115 148 187 240 292 351
#     4  11  22  34  54  82 116 156 193 236 284 350
#     4   9  20  38  55  84 119 152 189 239 293 347
#
# _framework density 19.519606
#
# number of rings (size 3 to 8) (size 9 to 14) (size 15 to 20)
#    0.000    2.125    0.000    2.250    3.500    4.750 
#    4.500    6.875    0.000    6.750    0.000    3.500 
#    0.000    0.000    0.000    0.000    0.000    0.000 
#
# Total GULP energy -178230.550690 kJ/mol
# GULP energy per Si atom -5569.704709 kJ/mol
# Density = 1.947518 g / cm^3
# Si number density = 19.519606 Si / 1000 Ang^3
#
#
#
# Elastic Constant Matrix: (Units=GPa)
#
#
# Indices 1 2 3 4 5 6 
#
# 1 69.4333 13.9681 19.3091 0.0000 0.0000 0.0000
# 2 13.9681 73.6009 22.1903 0.0000 0.0000 0.0000
# 3 19.3091 22.1903 80.3486 0.0000 0.0000 0.0000
# 4 0.0000 0.0000 0.0000 20.0949 0.0000 0.0000
# 5 0.0000 0.0000 0.0000 0.0000 33.6803 0.0000
# 6 0.0000 0.0000 0.0000 0.0000 0.0000 4.8050
#
#
#
# Elastic Compliance Matrix: (Units=1/GPa)
#
#
# Indices 1 2 3 4 5 6 
#
# 1 0.015702 -0.002010 -0.003218 0.000000 0.000000 0.000000
# 2 -0.002010 0.015078 -0.003681 0.000000 0.000000 0.000000
# 3 -0.003218 -0.003681 0.014236 0.000000 0.000000 0.000000
# 4 0.000000 0.000000 0.000000 0.049764 0.000000 0.000000
# 5 0.000000 0.000000 0.000000 0.000000 0.029691 0.000000
# 6 0.000000 0.000000 0.000000 0.000000 0.000000 0.208118
#
#
# Mechanical properties :
#
#
# Convention : Reuss Voigt Hill
#
# Bulk Modulus (GPa) = 36.76855 37.14642 36.95749
# Shear Modulus (GPa) = 13.90927 22.91038 18.40983
#
# Velocity S-wave (km/s) = 2.67231 3.42966 3.07440
# Velocity P-wave (km/s) = 5.32910 5.89534 5.61936
#
# Compressibility (1/GPa) = 0.02719716
#
# Stress axis : x y z
#
# Youngs Moduli (GPa) = 63.68783 66.32161 70.24509
#
# Poissons Ratio (x) = 0.13328 0.22607
# Poissons Ratio (y) = 0.12798 0.25859
# Poissons Ratio (z) = 0.20497 0.24415
#
# Static dielectric constant tensor:
#      x y z
#    x 1.739400 0.000000 0.000000 
#    y 0.000000 1.641860 0.000000 
#    z 0.000000 0.000000 1.751760 
# 
# From -- ./inp_files/7971.got.cif
#   From: 2010.05.17/outbox.cif.g08.bks.cpg/sg16_4_cif.got.tgz:7971.got - 2010.06.03 22:28:35.
