data_PCOD9310411
_publ_section_title
;
Structure prediction by ZEFSAII (Michael W. Deem and Ramdas Pophale) SiO2 
 PCOD9310411
Probable space group: P 2 2 2
;
_chemical_formula_sum "Si O2"
_cell_formula_units_Z 18
_cell_length_a 5.145213
_cell_length_b 12.404970
_cell_length_c 12.479926
_cell_angle_alpha 90.000000
_cell_angle_beta 90.000000
_cell_angle_gamma 90.000000
_cell_volume 796.546414
_symmetry_space_group_name_H-M "P 2 2 2"
_symmetry_group_IT_number 16
_symmetry_cell_setting 'orthorhombic'
loop_
_space_group_symop_operation_xyz
x,y,z
-x,-y,z
x,-y,-z
-x,y,-z
loop_
_atom_site_type_symbol
_atom_site_label
_atom_site_fract_x
_atom_site_fract_y
_atom_site_fract_z
Si Si1 0.812561 0.816135 0.598066
Si Si2 0.420173 0.256918 0.884921
Si Si3 0.941553 0.128373 0.823017
Si Si4 0.646689 0.387106 0.327387
Si Si5 0.000000 0.500000 0.500000
Si Si6 0.500000 0.000000 0.500000
O O1 0.585024 0.728463 0.619334
O O2 0.000000 0.793294 0.500000
O O3 0.982705 0.828552 0.704690
O O4 0.676431 0.927869 0.574671
O O5 0.655616 0.176016 0.848941
O O6 0.354332 0.349343 0.796689
O O7 0.161108 0.185787 0.895081
O O8 0.500000 0.303048 0.000000
O O9 0.000000 0.000000 0.828589
O O10 0.500000 0.500000 0.330880
O O11 0.872413 0.420018 0.411790
#
# Coordination Sequence:
#
# PCOD9310411 Si02
#       6
#     4   4   4   4   1   1
#     4  11  26  43  68 107 155 197 250 303 391 462
#     4  11  27  49  76 108 151 202 256 318 385 455
#     4  11  25  44  75 111 152 200 258 316 380 457
#     4  11  28  45  77 105 152 194 257 320 378 454
#     4  12  26  48  76 122 140 208 246 330 388 452
#     4  12  26  40  70 106 158 212 230 310 374 482
#
# _framework density 22.597553000000001
#
# number of rings (size 3 to 8) (size 9 to 14) (size 15 to 20)
#    0.000    0.889    1.111    3.333   21.778    3.111 
#    0.000    0.000    0.000    0.000    0.000    0.000 
#    0.000    0.000    0.000    0.000    0.000    0.000 
#
# Total GULP energy -100226.510199 kJ/mol
# GULP energy per Si atom -5568.139456 kJ/mol
# Density = 2.254612 g / cm^3
# Si number density = 22.597553 Si / 1000 Ang^3
#
#
#
# Elastic Constant Matrix: (Units=GPa)
#
#
# Indices 1 2 3 4 5 6 
#
# 1 100.5501 44.5859 42.0671 0.0000 0.0000 0.0000
# 2 44.5859 129.7053 35.1188 0.0000 0.0000 0.0000
# 3 42.0671 35.1188 176.2866 0.0000 0.0000 0.0000
# 4 0.0000 0.0000 0.0000 20.4044 0.0000 0.0000
# 5 0.0000 0.0000 0.0000 0.0000 37.4763 0.0000
# 6 0.0000 0.0000 0.0000 0.0000 0.0000 159.9463
#
#
#
# Elastic Compliance Matrix: (Units=1/GPa)
#
#
# Indices 1 2 3 4 5 6 
#
# 1 0.012527 -0.003696 -0.002253 0.000000 0.000000 0.000000
# 2 -0.003696 0.009240 -0.000959 0.000000 0.000000 0.000000
# 3 -0.002253 -0.000959 0.006401 0.000000 0.000000 0.000000
# 4 0.000000 0.000000 0.000000 0.049009 0.000000 0.000000
# 5 0.000000 0.000000 0.000000 0.000000 0.026684 0.000000
# 6 0.000000 0.000000 0.000000 0.000000 0.000000 0.006252
#
#
# Mechanical properties :
#
#
# Convention : Reuss Voigt Hill
#
# Bulk Modulus (GPa) = 69.67481 72.23173 70.95327
# Shear Modulus (GPa) = 38.84637 62.55007 50.69822
#
# Velocity S-wave (km/s) = 4.15064 5.26689 4.74173
# Velocity P-wave (km/s) = 7.33964 8.30786 7.83871
#
# Compressibility (1/GPa) = 0.01435239
#
# Stress axis : x y z
#
# Youngs Moduli (GPa) = 79.82920 108.22656 156.22088
#
# Poissons Ratio (x) = 0.40001 0.35196
# Poissons Ratio (y) = 0.29505 0.14977
# Poissons Ratio (z) = 0.17985 0.10376
#
# Static dielectric constant tensor:
#      x y z
#    x 1.912720 0.000000 0.000000 
#    y 0.000000 1.859680 0.000000 
#    z 0.000000 0.000000 1.561050 
# 
# From -- ./inp_files/5807.got.cif
#   From: 2010.05.17/outbox.cif.g08.bks.cpg/sg16_3_cif.got.tgz:5807.got - 2010.06.03 22:28:35.
