data_PCOD9310347
_publ_section_title
;
Structure prediction by ZEFSAII (Michael W. Deem and Ramdas Pophale) SiO2 
 PCOD9310347
Probable space group: P 2 2 2
;
_chemical_formula_sum "Si O2"
_cell_formula_units_Z 15
_cell_length_a 5.647319
_cell_length_b 5.138561
_cell_length_c 20.411613
_cell_angle_alpha 90.000000
_cell_angle_beta 90.000000
_cell_angle_gamma 90.000000
_cell_volume 592.326499
_symmetry_space_group_name_H-M "P 2 2 2"
_symmetry_group_IT_number 16
_symmetry_cell_setting 'orthorhombic'
loop_
_space_group_symop_operation_xyz
x,y,z
-x,-y,z
x,-y,-z
-x,y,-z
loop_
_atom_site_type_symbol
_atom_site_label
_atom_site_fract_x
_atom_site_fract_y
_atom_site_fract_z
Si Si1 0.829219 0.751947 0.750169
Si Si2 0.500000 0.000000 0.853446
Si Si3 0.500000 0.500000 0.500000
Si Si4 0.244756 0.396598 0.074816
Si Si5 0.166324 0.751034 0.396811
O O1 0.726073 0.763507 0.676327
O O2 0.000000 0.500000 0.755542
O O3 0.623642 0.798599 0.802879
O O4 0.000000 0.000000 0.757121
O O5 0.708954 0.100225 0.902742
O O6 0.350989 0.689229 0.453107
O O7 0.500000 0.500000 0.095802
O O8 0.000000 0.500000 0.103855
O O9 0.235573 0.500000 0.000000
O O10 0.000000 0.500000 0.396231
O O11 0.000000 0.000000 0.407921
#
# Coordination Sequence:
#
# PCOD9310347 Si02
#       5
#     4   2   1   4   4
#     4  10  26  49  76 113 163 208 265 336 407 487
#     4  12  28  45  84 117 156 210 274 330 414 493
#     4  12  26  46  84 108 156 214 268 322 416 468
#     4  10  26  51  78 115 164 208 269 336 413 493
#     4  10  25  49  72 111 158 205 266 332 397 481
#
# _framework density 25.323868000000001
#
# number of rings (size 3 to 8) (size 9 to 14) (size 15 to 20)
#    0.000    1.600    0.000    0.400    7.467   12.800 
#    0.000   13.333    0.000    0.000    0.000    0.000 
#    0.000    0.000    0.000    0.000    0.000    0.000 
#
# Total GULP energy -83833.346632 kJ/mol
# GULP energy per Si atom -5588.889775 kJ/mol
# Density = 2.526623 g / cm^3
# Si number density = 25.323868 Si / 1000 Ang^3
#
#
#
# Elastic Constant Matrix: (Units=GPa)
#
#
# Indices 1 2 3 4 5 6 
#
# 1 152.6879 61.7816 85.4357 0.0000 0.0000 0.0000
# 2 61.7816 169.9464 71.3205 0.0000 0.0000 0.0000
# 3 85.4357 71.3205 255.9699 0.0000 0.0000 0.0000
# 4 0.0000 0.0000 0.0000 54.6583 0.0000 0.0000
# 5 0.0000 0.0000 0.0000 0.0000 82.9794 0.0000
# 6 0.0000 0.0000 0.0000 0.0000 0.0000 49.8494
#
#
#
# Elastic Compliance Matrix: (Units=1/GPa)
#
#
# Indices 1 2 3 4 5 6 
#
# 1 0.008729 -0.002209 -0.002298 0.000000 0.000000 0.000000
# 2 -0.002209 0.007222 -0.001275 0.000000 0.000000 0.000000
# 3 -0.002298 -0.001275 0.005029 0.000000 0.000000 0.000000
# 4 0.000000 0.000000 0.000000 0.018295 0.000000 0.000000
# 5 0.000000 0.000000 0.000000 0.000000 0.012051 0.000000
# 6 0.000000 0.000000 0.000000 0.000000 0.000000 0.020060
#
#
# Mechanical properties :
#
#
# Convention : Reuss Voigt Hill
#
# Bulk Modulus (GPa) = 106.19897 112.85329 109.52613
# Shear Modulus (GPa) = 58.07874 61.50185 59.79030
#
# Velocity S-wave (km/s) = 4.79418 4.93344 4.86431
# Velocity P-wave (km/s) = 8.52484 8.78137 8.65406
#
# Compressibility (1/GPa) = 0.00941629
#
# Stress axis : x y z
#
# Youngs Moduli (GPa) = 114.56173 138.45969 198.84677
#
# Poissons Ratio (x) = 0.30584 0.45695
# Poissons Ratio (y) = 0.25305 0.25355
# Poissons Ratio (z) = 0.26326 0.17655
#
# Static dielectric constant tensor:
#      x y z
#    x 1.955270 0.000000 0.000000 
#    y 0.000000 2.028000 0.000000 
#    z 0.000000 0.000000 2.101770 
# 
# From -- ./inp_files/9132.got.cif
#   From: 2010.05.17/outbox.cif.g08.bks.cpg/sg16_5_cif.got.tgz:9132.got - 2010.06.03 22:28:35.
