data_PCOD9310496
_publ_section_title
;
Structure prediction by ZEFSAII (Michael W. Deem and Ramdas Pophale) SiO2 
 PCOD9310496
Probable space group: P 2 2 21
;
_chemical_formula_sum "Si O2"
_cell_formula_units_Z 24
_cell_length_a 10.455009
_cell_length_b 24.011534
_cell_length_c 5.241644
_cell_angle_alpha 90.000000
_cell_angle_beta 90.000000
_cell_angle_gamma 90.000000
_cell_volume 1315.866524
_symmetry_space_group_name_H-M "P 2 2 21"
_symmetry_group_IT_number 17
_symmetry_cell_setting 'orthorhombic'
loop_
_space_group_symop_operation_xyz
x,y,z
-x,-y,1/2+z
x,-y,-z
-x,y,1/2-z
loop_
_atom_site_type_symbol
_atom_site_label
_atom_site_fract_x
_atom_site_fract_y
_atom_site_fract_z
Si Si1 0.845685 0.661337 0.746952
Si Si2 0.844073 0.732113 0.246739
Si Si3 0.645360 0.084750 0.201089
Si Si4 0.173600 0.000000 0.500000
Si Si5 0.000000 0.089733 0.750000
Si Si6 0.156157 0.466119 0.250120
Si Si7 0.743228 0.146376 0.685026
O O1 0.812492 0.694759 0.492304
O O2 0.798646 0.597759 0.750820
O O3 0.000000 0.657615 0.750000
O O4 0.811900 0.697072 0.994853
O O5 0.763198 0.788877 0.255919
O O6 0.000000 0.742753 0.250000
O O7 0.500000 0.067596 0.250000
O O8 0.673270 0.128478 0.426911
O O9 0.733521 0.029140 0.206201
O O10 0.679378 0.114005 0.927350
O O11 0.078550 0.049415 0.568858
O O12 0.111137 0.126219 0.868810
O O13 0.195672 0.500000 0.500000
O O14 0.000000 0.464831 0.250000
O O15 0.195595 0.500000 0.000000
#
# Coordination Sequence:
#
# PCOD9310496 Si02
#       7
#     4   4   4   2   2   4   4
#     4   9  17  26  41  63  96 131 174 221 259 304
#     4  10  18  31  47  73  99 131 170 218 271 313
#     4  11  25  41  59  81 105 141 178 212 259 323
#     4  10  22  38  62  82 112 136 166 218 262 322
#     4  10  20  36  56  88 106 134 166 210 272 316
#     4   9  15  23  35  54  84 129 179 220 249 285
#     4  11  22  38  59  80 109 137 174 222 267 320
#
# _framework density 18.238932999999999
#
# number of rings (size 3 to 8) (size 9 to 14) (size 15 to 20)
#    0.000    2.000    0.833    3.500    0.000   10.667 
#    0.000    0.000    0.000    0.000    0.000    0.000 
#    0.000    0.000    0.000    0.000    0.000  210.000 
#
# Total GULP energy -133751.522065 kJ/mol
# GULP energy per Si atom -5572.980086 kJ/mol
# Density = 1.819742 g / cm^3
# Si number density = 18.238933 Si / 1000 Ang^3
#
#
#
# Elastic Constant Matrix: (Units=GPa)
#
#
# Indices 1 2 3 4 5 6 
#
# 1 59.4937 4.4897 13.3277 0.0000 0.0000 0.0000
# 2 4.4897 109.2156 47.6490 0.0000 0.0000 0.0000
# 3 13.3277 47.6490 137.0415 0.0000 0.0000 0.0000
# 4 0.0000 0.0000 0.0000 28.4345 0.0000 0.0000
# 5 0.0000 0.0000 0.0000 0.0000 10.6502 0.0000
# 6 0.0000 0.0000 0.0000 0.0000 0.0000 6.9841
#
#
#
# Elastic Compliance Matrix: (Units=1/GPa)
#
#
# Indices 1 2 3 4 5 6 
#
# 1 0.017183 0.000027 -0.001680 0.000000 0.000000 0.000000
# 2 0.000027 0.010794 -0.003755 0.000000 0.000000 0.000000
# 3 -0.001680 -0.003755 0.008766 0.000000 0.000000 0.000000
# 4 0.000000 0.000000 0.000000 0.035169 0.000000 0.000000
# 5 0.000000 0.000000 0.000000 0.000000 0.093895 0.000000
# 6 0.000000 0.000000 0.000000 0.000000 0.000000 0.143183
#
#
# Mechanical properties :
#
#
# Convention : Reuss Voigt Hill
#
# Bulk Modulus (GPa) = 38.57358 48.52041 43.54699
# Shear Modulus (GPa) = 15.22304 25.23269 20.22787
#
# Velocity S-wave (km/s) = 2.89216 3.72351 3.33385
# Velocity P-wave (km/s) = 5.68750 6.71911 6.22472
#
# Compressibility (1/GPa) = 0.02592448
#
# Stress axis : x y z
#
# Youngs Moduli (GPa) = 58.19730 92.64781 114.07369
#
# Poissons Ratio (x) = -0.00248 0.19169
# Poissons Ratio (y) = -0.00156 0.42840
# Poissons Ratio (z) = 0.09779 0.34794
#
# Static dielectric constant tensor:
#      x y z
#    x 1.568830 0.000000 0.000000 
#    y 0.000000 1.647470 0.000000 
#    z 0.000000 0.000000 1.648290 
# 
# From -- ./inp_files/1031.got.cif
#   From: 2010.05.17/outbox.cif.g08.bks.cpg/sg17_1_cif.got.tgz:1031.got - 2010.06.03 22:34:06.
