data_PCOD9310874
_publ_section_title
;
Structure prediction by ZEFSAII (Michael W. Deem and Ramdas Pophale) SiO2 
 PCOD9310874
Probable space group: P 2 2 21
;
_chemical_formula_sum "Si O2"
_cell_formula_units_Z 18
_cell_length_a 9.059460
_cell_length_b 19.212401
_cell_length_c 4.769621
_cell_angle_alpha 90.000000
_cell_angle_beta 90.000000
_cell_angle_gamma 90.000000
_cell_volume 830.171510
_symmetry_space_group_name_H-M "P 2 2 21"
_symmetry_group_IT_number 17
_symmetry_cell_setting 'orthorhombic'
loop_
_space_group_symop_operation_xyz
x,y,z
-x,-y,1/2+z
x,-y,-z
-x,y,1/2-z
loop_
_atom_site_type_symbol
_atom_site_label
_atom_site_fract_x
_atom_site_fract_y
_atom_site_fract_z
Si Si1 0.331049 0.299554 0.817844
Si Si2 0.843189 0.053012 0.253572
Si Si3 0.599347 0.847375 0.492150
Si Si4 0.827933 0.363493 0.190965
Si Si5 0.897008 0.500000 0.500000
O O1 0.500000 0.318295 0.750000
O O2 0.221246 0.343674 0.620964
O O3 0.324476 0.215551 0.819026
O O4 0.283733 0.318122 0.129131
O O5 0.712658 0.102288 0.353443
O O6 0.000000 0.093953 0.250000
O O7 0.875165 0.000000 0.500000
O O8 0.806368 0.000000 0.000000
O O9 0.500000 0.818752 0.750000
O O10 0.500000 0.883401 0.250000
O O11 0.812505 0.441512 0.321264
O O12 0.000000 0.346761 0.250000
O O13 0.000000 0.467747 0.750000
#
# Coordination Sequence:
#
# PCOD9310874 Si02
#       5
#     4   4   4   4   2
#     4  11  23  41  62  92 134 170 206 266 328 376
#     4  10  22  41  65  95 130 165 209 270 327 373
#     4  11  23  41  64  92 129 174 216 260 319 386
#     4  11  22  40  66  94 123 168 219 262 317 386
#     4  10  20  38  64  96 130 162 208 274 326 374
#
# _framework density 21.682269000000002
#
# number of rings (size 3 to 8) (size 9 to 14) (size 15 to 20)
#    0.000    1.333    0.000    8.000    0.000    2.667 
#    0.000   11.111    0.000    1.333    0.000    0.000 
#    0.000    0.000    0.000    0.000    0.000    0.000 
#
# Total GULP energy -100297.138526 kJ/mol
# GULP energy per Si atom -5572.063251 kJ/mol
# Density = 2.163292 g / cm^3
# Si number density = 21.682269 Si / 1000 Ang^3
#
#
#
# Elastic Constant Matrix: (Units=GPa)
#
#
# Indices 1 2 3 4 5 6 
#
# 1 100.8942 61.5125 18.4060 0.0000 0.0000 0.0000
# 2 61.5125 74.3735 14.0064 0.0000 0.0000 0.0000
# 3 18.4060 14.0064 105.2892 0.0000 0.0000 0.0000
# 4 0.0000 0.0000 0.0000 38.8551 0.0000 0.0000
# 5 0.0000 0.0000 0.0000 0.0000 47.3197 0.0000
# 6 0.0000 0.0000 0.0000 0.0000 0.0000 38.8261
#
#
#
# Elastic Compliance Matrix: (Units=1/GPa)
#
#
# Indices 1 2 3 4 5 6 
#
# 1 0.020175 -0.016434 -0.001341 0.000000 0.000000 0.000000
# 2 -0.016434 0.027178 -0.000743 0.000000 0.000000 0.000000
# 3 -0.001341 -0.000743 0.009831 0.000000 0.000000 0.000000
# 4 0.000000 0.000000 0.000000 0.025737 0.000000 0.000000
# 5 0.000000 0.000000 0.000000 0.000000 0.021133 0.000000
# 6 0.000000 0.000000 0.000000 0.000000 0.000000 0.025756
#
#
# Mechanical properties :
#
#
# Convention : Reuss Voigt Hill
#
# Bulk Modulus (GPa) = 49.62959 52.04519 50.83739
# Shear Modulus (GPa) = 28.80846 37.44233 33.12539
#
# Velocity S-wave (km/s) = 3.64904 4.16006 3.91290
# Velocity P-wave (km/s) = 6.37912 6.86517 6.62660
#
# Compressibility (1/GPa) = 0.02014927
#
# Stress axis : x y z
#
# Youngs Moduli (GPa) = 49.56545 36.79490 101.72113
#
# Poissons Ratio (x) = 0.60469 0.13638
# Poissons Ratio (y) = 0.81456 0.07553
# Poissons Ratio (z) = 0.06645 0.02732
#
# Static dielectric constant tensor:
#      x y z
#    x 1.913190 0.000000 0.000000 
#    y 0.000000 1.804240 0.000000 
#    z 0.000000 0.000000 1.800320 
# 
# From -- ./inp_files/835.got.cif
#   From: 2010.05.17/outbox.cif.g08.bks.cpg/sg17_1_cif.got.tgz:835.got - 2010.06.03 22:34:06.
