data_PCOD9310461
_publ_section_title
;
Structure prediction by ZEFSAII (Michael W. Deem and Ramdas Pophale) SiO2 
 PCOD9310461
Probable space group: P 2 2 21
;
_chemical_formula_sum "Si O2"
_cell_formula_units_Z 32
_cell_length_a 15.817454
_cell_length_b 7.725527
_cell_length_c 11.883337
_cell_angle_alpha 90.000000
_cell_angle_beta 90.000000
_cell_angle_gamma 90.000000
_cell_volume 1452.122011
_symmetry_space_group_name_H-M "P 2 2 21"
_symmetry_group_IT_number 17
_symmetry_cell_setting 'orthorhombic'
loop_
_space_group_symop_operation_xyz
x,y,z
-x,-y,1/2+z
x,-y,-z
-x,y,1/2-z
loop_
_atom_site_type_symbol
_atom_site_label
_atom_site_fract_x
_atom_site_fract_y
_atom_site_fract_z
Si Si1 0.156682 0.265399 0.906755
Si Si2 0.657043 0.754548 0.322795
Si Si3 0.650310 0.693095 0.969963
Si Si4 0.901188 0.977189 0.750845
Si Si5 0.462323 0.288067 0.016113
Si Si6 0.255325 0.101127 0.612674
Si Si7 0.850667 0.633454 0.655989
Si Si8 0.343368 0.357968 0.214293
O O1 0.258024 0.269033 0.896770
O O2 0.131058 0.081448 0.858295
O O3 0.128197 0.430686 0.830819
O O4 0.124747 0.305588 0.030848
O O5 0.585328 0.799926 0.411332
O O6 0.684384 0.883033 0.221992
O O7 0.635009 0.563344 0.274264
O O8 0.558074 0.778525 0.986827
O O9 0.668997 0.716315 0.838795
O O10 0.625598 0.500000 0.000000
O O11 0.730847 0.715491 0.052949
O O12 0.837522 0.046337 0.848016
O O13 0.000000 0.016105 0.750000
O O14 0.888305 0.771754 0.741314
O O15 0.412602 0.267478 0.134708
O O16 0.453917 0.500000 0.000000
O O17 0.285411 0.000000 0.500000
O O18 0.749194 0.651373 0.659795
#
# Coordination Sequence:
#
# PCOD9310461 Si02
#       8
#     4   4   4   4   4   4   4   4
#     4   9  19  37  66  97 127 161 211 274 339 401
#     4   9  17  35  60  90 128 168 219 274 327 388
#     4  11  21  35  60  94 131 178 221 270 333 404
#     4  11  25  43  66  95 131 172 224 283 342 418
#     4   9  18  31  60  96 128 170 231 284 321 377
#     4  11  24  42  61  86 131 179 222 269 344 415
#     4  10  19  37  68  96 122 167 214 276 342 400
#     4  10  17  33  60  96 128 167 222 276 330 395
#
# _framework density 22.036716999999999
#
# number of rings (size 3 to 8) (size 9 to 14) (size 15 to 20)
#    0.000    2.000    2.500    1.500    0.000    2.000 
#    0.000    0.000   16.500    0.000    0.000    0.000 
#    0.000    0.000    0.000    0.000    0.000    0.000 
#
# Total GULP energy -178186.308455 kJ/mol
# GULP energy per Si atom -5568.322139 kJ/mol
# Density = 2.198656 g / cm^3
# Si number density = 22.036717 Si / 1000 Ang^3
#
#
#
# Elastic Constant Matrix: (Units=GPa)
#
#
# Indices 1 2 3 4 5 6 
#
# 1 85.8816 19.3709 31.2739 0.0000 0.0000 0.0000
# 2 19.3709 41.0760 12.4374 0.0000 0.0000 0.0000
# 3 31.2739 12.4374 114.0808 0.0000 0.0000 0.0000
# 4 0.0000 0.0000 0.0000 30.9637 0.0000 0.0000
# 5 0.0000 0.0000 0.0000 0.0000 11.5499 0.0000
# 6 0.0000 0.0000 0.0000 0.0000 0.0000 9.9924
#
#
#
# Elastic Compliance Matrix: (Units=1/GPa)
#
#
# Indices 1 2 3 4 5 6 
#
# 1 0.014106 -0.005668 -0.003249 0.000000 0.000000 0.000000
# 2 -0.005668 0.027454 -0.001439 0.000000 0.000000 0.000000
# 3 -0.003249 -0.001439 0.009813 0.000000 0.000000 0.000000
# 4 0.000000 0.000000 0.000000 0.032296 0.000000 0.000000
# 5 0.000000 0.000000 0.000000 0.000000 0.086581 0.000000
# 6 0.000000 0.000000 0.000000 0.000000 0.000000 0.100076
#
#
# Mechanical properties :
#
#
# Convention : Reuss Voigt Hill
#
# Bulk Modulus (GPa) = 32.61575 40.80029 36.70802
# Shear Modulus (GPa) = 16.59708 22.36496 19.48102
#
# Velocity S-wave (km/s) = 2.74735 3.18920 2.97648
# Velocity P-wave (km/s) = 4.98965 5.66712 5.33914
#
# Compressibility (1/GPa) = 0.03066003
#
# Stress axis : x y z
#
# Youngs Moduli (GPa) = 70.89427 36.42466 101.90282
#
# Poissons Ratio (x) = 0.20646 0.33107
# Poissons Ratio (y) = 0.40184 0.14666
# Poissons Ratio (z) = 0.23033 0.05242
#
# Static dielectric constant tensor:
#      x y z
#    x 1.795930 0.000000 0.000000 
#    y 0.000000 1.168140 0.000000 
#    z 0.000000 0.000000 1.841240 
# 
# From -- ./inp_files/7322.got.cif
#   From: 2010.05.17/outbox.cif.g08.bks.cpg/sg17_4_cif.got.tgz:7322.got - 2010.06.03 22:34:06.
