data_PCOD9310928
_publ_section_title
;
Structure prediction by ZEFSAII (Michael W. Deem and Ramdas Pophale) SiO2 
 PCOD9310928
Probable space group: P 2 2 21
;
_chemical_formula_sum "Si O2"
_cell_formula_units_Z 32
_cell_length_a 9.447238
_cell_length_b 12.426191
_cell_length_c 13.917488
_cell_angle_alpha 90.000000
_cell_angle_beta 90.000000
_cell_angle_gamma 90.000000
_cell_volume 1633.818227
_symmetry_space_group_name_H-M "P 2 2 21"
_symmetry_group_IT_number 17
_symmetry_cell_setting 'orthorhombic'
loop_
_space_group_symop_operation_xyz
x,y,z
-x,-y,1/2+z
x,-y,-z
-x,y,1/2-z
loop_
_atom_site_type_symbol
_atom_site_label
_atom_site_fract_x
_atom_site_fract_y
_atom_site_fract_z
Si Si1 0.762681 0.221665 0.364305
Si Si2 0.789555 0.069466 0.188544
Si Si3 0.476383 0.107201 0.436333
Si Si4 0.688142 0.682375 0.982451
Si Si5 0.872398 0.167983 0.813259
Si Si6 0.957594 0.806056 0.976557
Si Si7 0.644800 0.642885 0.189791
Si Si8 0.665955 0.587293 0.768611
O O1 0.814357 0.147256 0.277220
O O2 0.620627 0.164974 0.404077
O O3 0.730971 0.335404 0.312528
O O4 0.885412 0.223036 0.443529
O O5 0.627144 0.077418 0.152094
O O6 0.885758 0.114684 0.101492
O O7 0.821527 0.948834 0.219703
O O8 0.386616 0.200283 0.489833
O O9 0.497661 0.000000 0.500000
O O10 0.856569 0.701569 0.986403
O O11 0.670470 0.638283 0.875171
O O12 0.627246 0.620074 0.074705
O O13 0.745024 0.252933 0.809130
O O14 0.000000 0.210928 0.750000
O O15 0.938445 0.145783 0.918248
O O16 0.500000 0.661053 0.250000
O O17 0.719207 0.535383 0.230759
O O18 0.500000 0.578848 0.750000
#
# Coordination Sequence:
#
# PCOD9310928 Si02
#       8
#     4   4   4   4   4   4   4   4
#     4  12  22  37  63 101 125 165 210 266 323 381
#     4  11  21  38  63  87 126 167 208 252 322 389
#     4  11  22  36  59  95 134 163 207 263 318 387
#     4  10  20  40  65  88 124 167 214 256 320 385
#     4  11  24  43  60  87 130 173 211 267 327 399
#     4  10  22  38  61  90 121 163 212 254 317 385
#     4  10  24  41  65  90 122 169 219 264 322 384
#     4  11  20  41  66  95 125 158 214 276 319 381
#
# _framework density 19.586020999999999
#
# number of rings (size 3 to 8) (size 9 to 14) (size 15 to 20)
#    0.000    1.250    3.750    4.500    0.000    5.000 
#    2.250    0.000    0.000    0.000    0.000    0.000 
#    0.000    0.000    0.000    0.000    0.000    0.000 
#
# Total GULP energy -178470.203798 kJ/mol
# GULP energy per Si atom -5577.193869 kJ/mol
# Density = 1.954144 g / cm^3
# Si number density = 19.586021 Si / 1000 Ang^3
#
#
#
# Elastic Constant Matrix: (Units=GPa)
#
#
# Indices 1 2 3 4 5 6 
#
# 1 100.0903 22.3164 33.7885 0.0000 0.0000 0.0000
# 2 22.3164 101.6078 6.4431 0.0000 0.0000 0.0000
# 3 33.7885 6.4431 33.4605 0.0000 0.0000 0.0000
# 4 0.0000 0.0000 0.0000 21.7859 0.0000 0.0000
# 5 0.0000 0.0000 0.0000 0.0000 30.6650 0.0000
# 6 0.0000 0.0000 0.0000 0.0000 0.0000 -21.6870
#
#
#
# Elastic Compliance Matrix: (Units=1/GPa)
#
#
# Indices 1 2 3 4 5 6 
#
# 1 0.015753 -0.002481 -0.015430 0.000000 0.000000 0.000000
# 2 -0.002481 0.010354 0.000512 0.000000 0.000000 0.000000
# 3 -0.015430 0.000512 0.045368 0.000000 0.000000 0.000000
# 4 0.000000 0.000000 0.000000 0.045901 0.000000 0.000000
# 5 0.000000 0.000000 0.000000 0.000000 0.032610 0.000000
# 6 0.000000 0.000000 0.000000 0.000000 0.000000 -0.046111
#
#
# Mechanical properties :
#
#
# Convention : Reuss Voigt Hill
#
# Bulk Modulus (GPa) = 27.26474 40.02827 33.64650
# Shear Modulus (GPa) = 33.13445 17.66016 25.39730
#
# Velocity S-wave (km/s) = 4.11754 3.00604 3.60489
# Velocity P-wave (km/s) = 6.04617 5.70350 5.87734
#
# Compressibility (1/GPa) = 0.03667741
#
# Stress axis : x y z
#
# Youngs Moduli (GPa) = 63.48015 96.57811 22.04188
#
# Poissons Ratio (x) = 0.23965 0.34010
# Poissons Ratio (y) = 0.15752 -0.01128
# Poissons Ratio (z) = 0.97947 -0.04945
#
# Static dielectric constant tensor:
#      x y z
#    x 1.697780 0.000000 0.000000 
#    y 0.000000 1.721020 0.000000 
#    z 0.000000 0.000000 1.776740 
# 
# From -- ./inp_files/8302.got.cif
#   From: 2010.05.17/outbox.cif.g08.bks.cpg/sg17_5_cif.got.tgz:8302.got - 2010.06.03 22:34:06.
