data_PCOD9310021
_publ_section_title
;
Structure prediction by ZEFSAII (Michael W. Deem and Ramdas Pophale) SiO2 
 PCOD9310021
Probable space group: P 2 2 2
;
_chemical_formula_sum "Si O2"
_cell_formula_units_Z 28
_cell_length_a 11.981270
_cell_length_b 11.520507
_cell_length_c 11.613859
_cell_angle_alpha 90.000000
_cell_angle_beta 90.000000
_cell_angle_gamma 90.000000
_cell_volume 1603.064499
_symmetry_space_group_name_H-M "P 2 2 2"
_symmetry_group_IT_number 16
_symmetry_cell_setting 'orthorhombic'
loop_
_space_group_symop_operation_xyz
x,y,z
-x,-y,z
x,-y,-z
-x,y,-z
loop_
_atom_site_type_symbol
_atom_site_label
_atom_site_fract_x
_atom_site_fract_y
_atom_site_fract_z
Si Si1 0.871562 0.516190 0.250915
Si Si2 0.212125 0.500000 0.000000
Si Si3 0.365462 0.114962 0.796184
Si Si4 0.371078 0.146692 0.239608
Si Si5 0.700873 0.665009 0.677243
Si Si6 0.370147 0.281834 0.007658
Si Si7 0.500000 0.500000 0.680837
Si Si8 0.698050 0.662530 0.403207
O O1 0.856855 0.535468 0.113790
O O2 0.808355 0.396185 0.272726
O O3 0.800720 0.606369 0.330576
O O4 0.000000 0.500000 0.282302
O O5 0.291756 0.389211 0.977018
O O6 0.495457 0.128431 0.760954
O O7 0.303027 0.202241 0.712518
O O8 0.327534 0.982433 0.786569
O O9 0.355858 0.172190 0.922487
O O10 0.346768 0.236371 0.136149
O O11 0.327220 0.209505 0.353849
O O12 0.591376 0.594890 0.728121
O O13 0.708989 0.655941 0.539777
O O14 0.500000 0.317805 0.000000
O O15 0.587548 0.414488 0.620636
#
# Coordination Sequence:
#
# PCOD9310021 Si02
#       8
#     4   2   4   4   4   4   2   4
#     4  11  24  40  58  83 113 143 185 237 289 333
#     4  12  20  36  62  88 108 141 181 234 288 332
#     4  10  20  34  53  81 120 157 186 221 268 331
#     4  10  20  34  53  81 120 157 186 221 268 331
#     4  11  21  34  56  82 114 153 185 226 279 335
#     4  10  20  33  54  86 119 147 181 222 282 343
#     4  10  19  32  50  79 116 143 180 226 279 334
#     4  11  21  34  56  82 114 153 185 226 279 335
#
# _framework density 17.466546000000001
#
# number of rings (size 3 to 8) (size 9 to 14) (size 15 to 20)
#    0.000    1.429    4.286    3.429    0.000    3.429 
#    0.000    1.429    0.000    0.857    0.000    4.000 
#    0.000    0.000    0.000    0.000    0.000    0.000 
#
# Total GULP energy -156044.681442 kJ/mol
# GULP energy per Si atom -5573.024337 kJ/mol
# Density = 1.742679 g / cm^3
# Si number density = 17.466546 Si / 1000 Ang^3
#
#
#
# Elastic Constant Matrix: (Units=GPa)
#
#
# Indices 1 2 3 4 5 6 
#
# 1 86.0723 17.1467 26.3581 0.0000 0.0000 0.0000
# 2 17.1467 72.8754 0.0300 0.0000 0.0000 0.0000
# 3 26.3581 0.0300 64.1395 0.0000 0.0000 0.0000
# 4 0.0000 0.0000 0.0000 16.0068 0.0000 0.0000
# 5 0.0000 0.0000 0.0000 0.0000 8.3424 0.0000
# 6 0.0000 0.0000 0.0000 0.0000 0.0000 9.5667
#
#
#
# Elastic Compliance Matrix: (Units=1/GPa)
#
#
# Indices 1 2 3 4 5 6 
#
# 1 0.014043 -0.003302 -0.005769 0.000000 0.000000 0.000000
# 2 -0.003302 0.014498 0.001350 0.000000 0.000000 0.000000
# 3 -0.005769 0.001350 0.017961 0.000000 0.000000 0.000000
# 4 0.000000 0.000000 0.000000 0.062473 0.000000 0.000000
# 5 0.000000 0.000000 0.000000 0.000000 0.119869 0.000000
# 6 0.000000 0.000000 0.000000 0.000000 0.000000 0.104529
#
#
# Mechanical properties :
#
#
# Convention : Reuss Voigt Hill
#
# Bulk Modulus (GPa) = 32.19533 34.46187 33.32860
# Shear Modulus (GPa) = 13.92102 18.75335 16.33719
#
# Velocity S-wave (km/s) = 2.82620 3.28025 3.06165
# Velocity P-wave (km/s) = 5.39652 5.84121 5.62327
#
# Compressibility (1/GPa) = 0.03106041
#
# Stress axis : x y z
#
# Youngs Moduli (GPa) = 71.21184 68.97343 55.67538
#
# Poissons Ratio (x) = 0.22773 0.32121
# Poissons Ratio (y) = 0.23512 -0.07516
# Poissons Ratio (z) = 0.41084 -0.09312
#
# Static dielectric constant tensor:
#      x y z
#    x 1.575120 0.000000 0.000000 
#    y 0.000000 1.605760 0.000000 
#    z 0.000000 0.000000 1.657770 
# 
# From -- ./inp_files/6919.got.cif
#   From: 2010.05.17/outbox.cif.g08.bks.cpg/sg16_4_cif.got.tgz:6919.got - 2010.06.03 22:28:35.
