data_PCOD9310127
_publ_section_title
;
Structure prediction by ZEFSAII (Michael W. Deem and Ramdas Pophale) SiO2 
 PCOD9310127
Probable space group: P 2 2 2
;
_chemical_formula_sum "Si O2"
_cell_formula_units_Z 25
_cell_length_a 7.339573
_cell_length_b 13.333905
_cell_length_c 12.159888
_cell_angle_alpha 90.000000
_cell_angle_beta 90.000000
_cell_angle_gamma 90.000000
_cell_volume 1190.029496
_symmetry_space_group_name_H-M "P 2 2 2"
_symmetry_group_IT_number 16
_symmetry_cell_setting 'orthorhombic'
loop_
_space_group_symop_operation_xyz
x,y,z
-x,-y,z
x,-y,-z
-x,y,-z
loop_
_atom_site_type_symbol
_atom_site_label
_atom_site_fract_x
_atom_site_fract_y
_atom_site_fract_z
Si Si1 0.783310 0.846439 0.982333
Si Si2 0.296699 0.381321 0.368308
Si Si3 0.818312 0.793310 0.755801
Si Si4 0.761827 0.821081 0.231609
Si Si5 0.734261 0.397241 0.379216
Si Si6 0.223074 0.989572 0.372377
Si Si7 0.500000 0.000000 0.000000
O O1 0.760358 0.770529 0.881457
O O2 0.706923 0.819830 0.103055
O O3 0.650869 0.934174 0.937256
O O4 0.000000 0.870849 0.000000
O O5 0.267348 0.283783 0.294235
O O6 0.515198 0.390021 0.373920
O O7 0.221789 0.491241 0.335751
O O8 0.222815 0.375132 0.493076
O O9 0.817866 0.690919 0.690506
O O10 0.021399 0.832609 0.771523
O O11 0.728835 0.882380 0.683483
O O12 0.699158 0.917931 0.300531
O O13 0.279375 0.000000 0.500000
O O14 0.000000 0.000000 0.374002
#
# Coordination Sequence:
#
# PCOD9310127 Si02
#       7
#     4   4   4   4   4   4   1
#     4  10  23  39  56  87 120 154 204 247 286 346
#     4   9  19  36  57  82 114 150 190 241 294 348
#     4  10  20  36  56  79 116 152 187 242 290 341
#     4  10  20  36  56  79 116 152 187 242 290 341
#     4   9  19  36  57  82 114 150 190 241 294 348
#     4   9  17  29  49  78 108 141 178 222 285 344
#     4  12  22  36  64  82 108 168 202 232 292 346
#
# _framework density 21.007883
#
# number of rings (size 3 to 8) (size 9 to 14) (size 15 to 20)
#    0.000    2.400    0.000    3.120    2.240    5.120 
#    0.000    2.400    0.000    7.680    0.000    0.000 
#    0.000    0.000    0.000    0.000    0.000    0.000 
#
# Total GULP energy -139173.957129 kJ/mol
# GULP energy per Si atom -5566.958285 kJ/mol
# Density = 2.096007 g / cm^3
# Si number density = 21.007883 Si / 1000 Ang^3
#
#
#
# Elastic Constant Matrix: (Units=GPa)
#
#
# Indices 1 2 3 4 5 6 
#
# 1 61.1095 -15.6382 -6.6472 0.0000 0.0000 0.0000
# 2 -15.6382 134.8785 92.9569 0.0000 0.0000 0.0000
# 3 -6.6472 92.9569 159.7354 0.0000 0.0000 0.0000
# 4 0.0000 0.0000 0.0000 5.3901 0.0000 0.0000
# 5 0.0000 0.0000 0.0000 0.0000 3.1252 0.0000
# 6 0.0000 0.0000 0.0000 0.0000 0.0000 20.6733
#
#
#
# Elastic Compliance Matrix: (Units=1/GPa)
#
#
# Indices 1 2 3 4 5 6 
#
# 1 0.016915 0.002465 -0.000730 0.000000 0.000000 0.000000
# 2 0.002465 0.012738 -0.007310 0.000000 0.000000 0.000000
# 3 -0.000730 -0.007310 0.010484 0.000000 0.000000 0.000000
# 4 0.000000 0.000000 0.000000 0.185524 0.000000 0.000000
# 5 0.000000 0.000000 0.000000 0.000000 0.319984 0.000000
# 6 0.000000 0.000000 0.000000 0.000000 0.000000 0.048371
#
#
# Mechanical properties :
#
#
# Convention : Reuss Voigt Hill
#
# Bulk Modulus (GPa) = 34.50015 55.22960 44.86488
# Shear Modulus (GPa) = 8.13232 24.84119 16.48676
#
# Velocity S-wave (km/s) = 1.96964 3.44244 2.80445
# Velocity P-wave (km/s) = 4.65089 6.49211 5.64705
#
# Compressibility (1/GPa) = 0.02898538
#
# Stress axis : x y z
#
# Youngs Moduli (GPa) = 59.11804 78.50571 95.38279
#
# Poissons Ratio (x) = -0.19348 0.06966
# Poissons Ratio (y) = -0.14570 0.69727
# Poissons Ratio (z) = 0.04317 0.57389
#
# Static dielectric constant tensor:
#      x y z
#    x 1.824000 0.000000 0.000000 
#    y 0.000000 1.762350 0.000000 
#    z 0.000000 0.000000 1.830340 
# 
# From -- ./inp_files/6533.got.cif
#   From: 2010.05.17/outbox.cif.g08.bks.cpg/sg16_4_cif.got.tgz:6533.got - 2010.06.03 22:28:35.
