data_PCOD9310097
_publ_section_title
;
Structure prediction by ZEFSAII (Michael W. Deem and Ramdas Pophale) SiO2 
 PCOD9310097
Probable space group: P 2 2 2
;
_chemical_formula_sum "Si O2"
_cell_formula_units_Z 32
_cell_length_a 11.904418
_cell_length_b 21.486658
_cell_length_c 8.017696
_cell_angle_alpha 90.000000
_cell_angle_beta 90.000000
_cell_angle_gamma 90.000000
_cell_volume 2050.815658
_symmetry_space_group_name_H-M "P 2 2 2"
_symmetry_group_IT_number 16
_symmetry_cell_setting 'orthorhombic'
loop_
_space_group_symop_operation_xyz
x,y,z
-x,-y,z
x,-y,-z
-x,y,-z
loop_
_atom_site_type_symbol
_atom_site_label
_atom_site_fract_x
_atom_site_fract_y
_atom_site_fract_z
Si Si1 0.363083 0.635515 0.314720
Si Si2 1.000000 0.924574 0.806928
Si Si3 0.363239 0.717197 1.000000
Si Si4 0.636917 0.364485 0.685280
Si Si5 0.365430 0.861536 0.000000
Si Si6 0.636426 0.500000 0.194391
Si Si7 0.754276 0.924799 0.688193
Si Si8 0.245724 0.924799 0.688193
O O1 0.327897 0.654992 0.500000
O O2 0.500000 0.635617 0.311915
O O3 0.327604 0.564358 0.278929
O O4 0.326057 0.680317 0.165333
O O5 0.115529 0.906444 0.718165
O O6 0.884471 0.906444 0.718165
O O7 0.000000 0.000000 0.808747
O O8 0.000000 0.903921 0.000000
O O9 0.326057 0.680317 0.834667
O O10 0.500000 0.715627 0.000000
O O11 0.330381 0.789125 0.000000
O O12 0.672396 0.435642 0.721071
O O13 0.317529 0.894526 0.164970
O O14 0.500000 0.864942 0.000000
O O15 0.317529 0.894526 0.835030
O O16 0.500000 0.500000 0.199703
O O17 0.668421 0.500000 0.000000
O O18 0.719508 0.907741 0.500000
O O19 0.747538 0.000000 0.702472
#
# Coordination Sequence:
#
# PCOD9310097 Si02
#       8
#     4   4   4   4   4   4   4   4
#     4   9  15  23  36  52  70  95 131 178 228 266
#     4   9  15  29  55  80  97 111 132 175 239 297
#     4   9  18  30  39  50  72 109 153 190 214 245
#     4   9  15  23  36  52  70  95 131 178 228 266
#     4  11  23  35  46  62  91 130 169 197 220 260
#     4   9  13  19  33  52  73  91 118 171 231 273
#     4  10  20  34  53  75  95 115 144 189 242 288
#     4  10  20  34  53  75  95 115 144 189 242 288
#
# _framework density 15.603548
#
# number of rings (size 3 to 8) (size 9 to 14) (size 15 to 20)
#    0.000    2.500    2.500    1.125    0.000    5.500 
#    0.000    3.750    0.000    0.000    0.000    0.000 
#    0.000    0.000    0.000    0.000    0.000   10.000 
#
# Total GULP energy -178245.405797 kJ/mol
# GULP energy per Si atom -5570.168931 kJ/mol
# Density = 1.556803 g / cm^3
# Si number density = 15.603548 Si / 1000 Ang^3
#
#
#
# Elastic Constant Matrix: (Units=GPa)
#
#
# Indices 1 2 3 4 5 6 
#
# 1 39.4555 23.2970 31.4478 0.0000 0.0000 0.0000
# 2 23.2970 76.4655 70.5726 0.0000 0.0000 0.0000
# 3 31.4478 70.5726 174.0973 0.0000 0.0000 0.0000
# 4 0.0000 0.0000 0.0000 5.2272 0.0000 0.0000
# 5 0.0000 0.0000 0.0000 0.0000 7.0231 0.0000
# 6 0.0000 0.0000 0.0000 0.0000 0.0000 -2.4761
#
#
#
# Elastic Compliance Matrix: (Units=1/GPa)
#
#
# Indices 1 2 3 4 5 6 
#
# 1 0.031797 -0.007009 -0.002902 0.000000 0.000000 0.000000
# 2 -0.007009 0.022440 -0.007830 0.000000 0.000000 0.000000
# 3 -0.002902 -0.007830 0.009442 0.000000 0.000000 0.000000
# 4 0.000000 0.000000 0.000000 0.191308 0.000000 0.000000
# 5 0.000000 0.000000 0.000000 0.000000 0.142388 0.000000
# 6 0.000000 0.000000 0.000000 0.000000 0.000000 -0.403854
#
#
# Mechanical properties :
#
#
# Convention : Reuss Voigt Hill
#
# Bulk Modulus (GPa) = 35.46608 60.07257 47.76932
# Shear Modulus (GPa) = 130.19834 12.93487 71.56661
#
# Velocity S-wave (km/s) = 9.14454 2.88231 6.77976
# Velocity P-wave (km/s) = 11.58774 7.04697 9.58998
#
# Compressibility (1/GPa) = 0.02819595
#
# Stress axis : x y z
#
# Youngs Moduli (GPa) = 31.44960 44.56296 105.90606
#
# Poissons Ratio (x) = 0.31234 0.30738
# Poissons Ratio (y) = 0.22043 0.82928
# Poissons Ratio (z) = 0.09128 0.34894
#
# Static dielectric constant tensor:
#      x y z
#    x 1.495070 0.000000 0.000000 
#    y 0.000000 1.517520 0.000000 
#    z 0.000000 0.000000 1.540170 
# 
# From -- ./inp_files/4914.got.cif
#   From: 2010.05.17/outbox.cif.g08.bks.cpg/sg16_3_cif.got.tgz:4914.got - 2010.06.03 22:28:35.
