data_PCOD9310039
_publ_section_title
;
Structure prediction by ZEFSAII (Michael W. Deem and Ramdas Pophale) SiO2 
 PCOD9310039
Probable space group: P 2 2 2
;
_chemical_formula_sum "Si O2"
_cell_formula_units_Z 32
_cell_length_a 22.783659
_cell_length_b 12.229091
_cell_length_c 5.338500
_cell_angle_alpha 90.000000
_cell_angle_beta 90.000000
_cell_angle_gamma 90.000000
_cell_volume 1487.431230
_symmetry_space_group_name_H-M "P 2 2 2"
_symmetry_group_IT_number 16
_symmetry_cell_setting 'orthorhombic'
loop_
_space_group_symop_operation_xyz
x,y,z
-x,-y,z
x,-y,-z
-x,y,-z
loop_
_atom_site_type_symbol
_atom_site_label
_atom_site_fract_x
_atom_site_fract_y
_atom_site_fract_z
Si Si1 0.689687 0.172025 0.231932
Si Si2 0.355463 0.262302 0.262011
Si Si3 0.864966 0.390041 0.075440
Si Si4 0.935250 0.347939 0.584777
Si Si5 0.180780 0.152674 0.918926
Si Si6 0.891770 0.889720 0.414189
Si Si7 0.591179 0.023166 0.749361
Si Si8 0.526411 0.624599 0.252997
O O1 0.685927 0.239256 0.495182
O O2 0.752278 0.125604 0.142630
O O3 0.645924 0.066314 0.248459
O O4 0.673879 0.257141 0.010473
O O5 0.403464 0.359521 0.272728
O O6 0.390682 0.148419 0.255743
O O7 0.891966 0.383189 0.355842
O O8 0.826326 0.282606 0.035066
O O9 0.831259 0.500000 0.000000
O O10 0.915315 0.388712 0.858301
O O11 0.931560 0.216525 0.613159
O O12 0.000000 0.379091 0.500000
O O13 0.148033 0.131571 0.657757
O O14 0.148535 0.101207 0.163112
O O15 0.923946 0.000000 0.500000
O O16 0.558742 0.000000 0.500000
O O17 0.559164 0.000000 0.000000
O O18 0.500000 0.500000 0.252535
O O19 0.500000 0.678871 0.500000
O O20 0.500000 0.674855 0.000000
#
# Coordination Sequence:
#
# PCOD9310039 Si02
#       8
#     4   4   4   4   4   4   4   4
#     4  10  19  33  55  81 116 144 178 229 276 325
#     4  10  19  33  56  83 110 142 184 225 273 325
#     4  10  21  37  57  78 111 150 185 247 303 357
#     4  10  21  36  55  83 109 143 197 249 301 355
#     4  10  21  36  55  82 116 152 195 233 287 357
#     4  10  21  35  53  80 116 156 195 236 286 356
#     4   8  16  28  46  74 107 139 165 209 266 310
#     4  10  21  38  61  82 106 147 186 230 279 327
#
# _framework density 21.513598999999999
#
# number of rings (size 3 to 8) (size 9 to 14) (size 15 to 20)
#    0.000    2.250    0.000    2.625    0.000    6.250 
#    0.000    0.000    8.250   24.750    0.000    0.000 
#    0.000    0.000    0.000    0.000    0.000    0.000 
#
# Total GULP energy -178140.849561 kJ/mol
# GULP energy per Si atom -5566.901549 kJ/mol
# Density = 2.146463 g / cm^3
# Si number density = 21.513599 Si / 1000 Ang^3
#
#
#
# Elastic Constant Matrix: (Units=GPa)
#
#
# Indices 1 2 3 4 5 6 
#
# 1 62.2905 10.6014 6.0925 0.0000 0.0000 0.0000
# 2 10.6014 85.5172 15.4545 0.0000 0.0000 0.0000
# 3 6.0925 15.4545 177.0360 0.0000 0.0000 0.0000
# 4 0.0000 0.0000 0.0000 15.2541 0.0000 0.0000
# 5 0.0000 0.0000 0.0000 0.0000 25.1945 0.0000
# 6 0.0000 0.0000 0.0000 0.0000 0.0000 -13.9403
#
#
#
# Elastic Compliance Matrix: (Units=1/GPa)
#
#
# Indices 1 2 3 4 5 6 
#
# 1 0.016427 -0.001965 -0.000394 0.000000 0.000000 0.000000
# 2 -0.001965 0.012116 -0.000990 0.000000 0.000000 0.000000
# 3 -0.000394 -0.000990 0.005749 0.000000 0.000000 0.000000
# 4 0.000000 0.000000 0.000000 0.065556 0.000000 0.000000
# 5 0.000000 0.000000 0.000000 0.000000 0.039691 0.000000
# 6 0.000000 0.000000 0.000000 0.000000 0.000000 -0.071734
#
#
# Mechanical properties :
#
#
# Convention : Reuss Voigt Hill
#
# Bulk Modulus (GPa) = 36.24062 43.23784 39.73923
# Shear Modulus (GPa) = 59.73669 24.81466 42.27567
#
# Velocity S-wave (km/s) = 5.27515 3.39992 4.43772
# Velocity P-wave (km/s) = 7.34745 5.96273 6.69101
#
# Compressibility (1/GPa) = 0.02759335
#
# Stress axis : x y z
#
# Youngs Moduli (GPa) = 60.87614 82.53476 173.95697
#
# Poissons Ratio (x) = 0.16220 0.06850
# Poissons Ratio (y) = 0.11964 0.17223
# Poissons Ratio (z) = 0.02397 0.08171
#
# Static dielectric constant tensor:
#      x y z
#    x 1.780460 0.000000 0.000000 
#    y 0.000000 1.858720 0.000000 
#    z 0.000000 0.000000 1.927480 
# 
# From -- ./inp_files/2787.got.cif
#   From: 2010.05.17/outbox.cif.g08.bks.cpg/sg16_2_cif.got.tgz:2787.got - 2010.06.03 22:28:35.
