data_PCOD9310971
_publ_section_title
;
Structure prediction by ZEFSAII (Michael W. Deem and Ramdas Pophale) SiO2 
 PCOD9310971
Probable space group: P 2 2 21
;
_chemical_formula_sum "Si O2"
_cell_formula_units_Z 18
_cell_length_a 5.000875
_cell_length_b 5.777883
_cell_length_c 24.502326
_cell_angle_alpha 90.000000
_cell_angle_beta 90.000000
_cell_angle_gamma 90.000000
_cell_volume 707.981739
_symmetry_space_group_name_H-M "P 2 2 21"
_symmetry_group_IT_number 17
_symmetry_cell_setting 'orthorhombic'
loop_
_space_group_symop_operation_xyz
x,y,z
-x,-y,1/2+z
x,-y,-z
-x,y,1/2-z
loop_
_atom_site_type_symbol
_atom_site_label
_atom_site_fract_x
_atom_site_fract_y
_atom_site_fract_z
Si Si1 0.926343 0.871624 0.807315
Si Si2 0.758392 0.764851 0.106614
Si Si3 0.419673 0.604709 0.842014
Si Si4 0.849593 0.616974 0.553022
Si Si5 0.772491 0.000000 0.000000
O O1 0.139605 0.663373 0.814217
O O2 0.000000 0.987450 0.750000
O O3 0.638484 0.753886 0.810864
O O4 0.922556 0.050594 0.857454
O O5 0.960811 0.567106 0.084615
O O6 0.538546 0.649274 0.146568
O O7 0.634068 0.872916 0.051146
O O8 0.372074 0.693073 0.904026
O O9 0.723845 0.500000 0.500000
O O10 0.036282 0.816228 0.529900
#
# Coordination Sequence:
#
# PCOD9310971 Si02
#       5
#     4   4   4   4   2
#     4  12  29  51  76 110 154 204 266 332 388 459
#     4  11  24  46  80 111 159 202 264 322 397 470
#     4  12  25  50  76 111 154 200 259 318 395 466
#     4  10  23  43  74 116 156 202 252 314 395 476
#     4  10  20  46  76 114 164 202 252 326 396 476
#
# _framework density 25.424382000000001
#
# number of rings (size 3 to 8) (size 9 to 14) (size 15 to 20)
#    0.000    0.889    4.444    0.667    3.111    5.333 
#    4.000    2.222    0.000    0.000    0.000    0.000 
#    0.000    0.000    0.000    0.000    0.000    0.000 
#
# Total GULP energy -100733.875012 kJ/mol
# GULP energy per Si atom -5596.326390 kJ/mol
# Density = 2.536652 g / cm^3
# Si number density = 25.424382 Si / 1000 Ang^3
#
#
#
# Elastic Constant Matrix: (Units=GPa)
#
#
# Indices 1 2 3 4 5 6 
#
# 1 96.1589 16.8219 18.5327 0.0000 0.0000 0.0000
# 2 16.8219 76.3644 36.1150 0.0000 0.0000 0.0000
# 3 18.5327 36.1150 132.9943 0.0000 0.0000 0.0000
# 4 0.0000 0.0000 0.0000 33.1501 0.0000 0.0000
# 5 0.0000 0.0000 0.0000 0.0000 34.6422 0.0000
# 6 0.0000 0.0000 0.0000 0.0000 0.0000 22.5721
#
#
#
# Elastic Compliance Matrix: (Units=1/GPa)
#
#
# Indices 1 2 3 4 5 6 
#
# 1 0.010930 -0.001936 -0.000997 0.000000 0.000000 0.000000
# 2 -0.001936 0.015368 -0.003903 0.000000 0.000000 0.000000
# 3 -0.000997 -0.003903 0.008718 0.000000 0.000000 0.000000
# 4 0.000000 0.000000 0.000000 0.030166 0.000000 0.000000
# 5 0.000000 0.000000 0.000000 0.000000 0.028866 0.000000
# 6 0.000000 0.000000 0.000000 0.000000 0.000000 0.044302
#
#
# Mechanical properties :
#
#
# Convention : Reuss Voigt Hill
#
# Bulk Modulus (GPa) = 46.85506 49.82853 48.34180
# Shear Modulus (GPa) = 31.41916 33.67609 32.54763
#
# Velocity S-wave (km/s) = 3.51919 3.64340 3.58183
# Velocity P-wave (km/s) = 5.91457 6.11068 6.01342
#
# Compressibility (1/GPa) = 0.02134241
#
# Stress axis : x y z
#
# Youngs Moduli (GPa) = 91.48816 65.07204 114.70439
#
# Poissons Ratio (x) = 0.12599 0.11441
# Poissons Ratio (y) = 0.17713 0.44773
# Poissons Ratio (z) = 0.09125 0.25400
#
# Static dielectric constant tensor:
#      x y z
#    x 1.998320 0.000000 0.000000 
#    y 0.000000 2.050690 0.000000 
#    z 0.000000 0.000000 2.047850 
# 
# From -- ./inp_files/10339.got.cif
#   From: 2010.05.17/outbox.cif.g08.bks.cpg/sg17_6_cif.got.tgz:10339.got - 2010.06.03 22:34:06.
