data_PCOD9310789
_publ_section_title
;
Structure prediction by ZEFSAII (Michael W. Deem and Ramdas Pophale) SiO2 
 PCOD9310789
Probable space group: P 2 2 21
;
_chemical_formula_sum "Si O2"
_cell_formula_units_Z 30
_cell_length_a 8.824647
_cell_length_b 9.312926
_cell_length_c 15.060539
_cell_angle_alpha 90.000000
_cell_angle_beta 90.000000
_cell_angle_gamma 90.000000
_cell_volume 1237.724561
_symmetry_space_group_name_H-M "P 2 2 21"
_symmetry_group_IT_number 17
_symmetry_cell_setting 'orthorhombic'
loop_
_space_group_symop_operation_xyz
x,y,z
-x,-y,1/2+z
x,-y,-z
-x,y,1/2-z
loop_
_atom_site_type_symbol
_atom_site_label
_atom_site_fract_x
_atom_site_fract_y
_atom_site_fract_z
Si Si1 0.307947 0.159580 0.779839
Si Si2 0.771031 0.135932 0.337358
Si Si3 0.346850 0.432059 0.094860
Si Si4 0.068847 0.628190 0.161077
Si Si5 0.122625 0.153985 0.362117
Si Si6 0.640219 0.924552 0.081241
Si Si7 0.500000 0.562635 0.250000
Si Si8 0.802133 0.655302 0.017074
O O1 0.139053 0.218154 0.806153
O O2 0.378238 0.102805 0.686400
O O3 0.373584 0.320770 0.775529
O O4 0.316385 0.016595 0.840638
O O5 0.695763 0.263720 0.393708
O O6 0.794023 0.177062 0.232495
O O7 0.947033 0.113938 0.360233
O O8 0.192014 0.518634 0.120719
O O9 0.483630 0.461762 0.164435
O O10 0.385402 0.500000 0.000000
O O11 0.000000 0.559221 0.250000
O O12 0.935851 0.654481 0.089906
O O13 0.134301 0.291807 0.423465
O O14 0.213009 0.026963 0.410026
O O15 0.674937 0.765146 0.048066
O O16 0.549750 0.000000 0.000000
O O17 0.740184 0.500000 0.000000
#
# Coordination Sequence:
#
# PCOD9310789 Si02
#       8
#     4   4   4   4   4   4   2   4
#     4  10  21  41  62  87 119 177 225 271 338 389
#     4  10  20  35  65  93 129 166 216 266 328 403
#     4  11  25  46  68  97 136 178 228 286 339 403
#     4  11  21  34  61  91 137 177 207 264 343 413
#     4   9  19  32  53  92 135 166 196 257 322 403
#     4   9  18  34  53  82 126 162 206 269 322 390
#     4  10  26  48  68  86 128 176 234 290 340 388
#     4  11  20  29  49  86 128 170 210 240 311 409
#
# _framework density 24.238025
#
# number of rings (size 3 to 8) (size 9 to 14) (size 15 to 20)
#    0.000    1.867    1.333    2.800    5.600    0.533 
#    0.000   11.333    0.000    0.000    0.000    0.000 
#    0.000    0.000    0.000    0.000    0.000    0.000 
#
# Total GULP energy -167014.160746 kJ/mol
# GULP energy per Si atom -5567.138692 kJ/mol
# Density = 2.418286 g / cm^3
# Si number density = 24.238025 Si / 1000 Ang^3
#
#
#
# Elastic Constant Matrix: (Units=GPa)
#
#
# Indices 1 2 3 4 5 6 
#
# 1 32.6848 23.5300 20.2530 0.0000 0.0000 0.0000
# 2 23.5300 97.6184 3.8510 0.0000 0.0000 0.0000
# 3 20.2530 3.8510 81.0313 0.0000 0.0000 0.0000
# 4 0.0000 0.0000 0.0000 143.1975 0.0000 0.0000
# 5 0.0000 0.0000 0.0000 0.0000 30.4820 0.0000
# 6 0.0000 0.0000 0.0000 0.0000 0.0000 4.5495
#
#
#
# Elastic Compliance Matrix: (Units=1/GPa)
#
#
# Indices 1 2 3 4 5 6 
#
# 1 0.044651 -0.010342 -0.010669 0.000000 0.000000 0.000000
# 2 -0.010342 0.012659 0.001983 0.000000 0.000000 0.000000
# 3 -0.010669 0.001983 0.014913 0.000000 0.000000 0.000000
# 4 0.000000 0.000000 0.000000 0.006983 0.000000 0.000000
# 5 0.000000 0.000000 0.000000 0.000000 0.032806 0.000000
# 6 0.000000 0.000000 0.000000 0.000000 0.000000 0.219803
#
#
# Mechanical properties :
#
#
# Convention : Reuss Voigt Hill
#
# Bulk Modulus (GPa) = 29.26677 34.06692 31.66685
# Shear Modulus (GPa) = 13.11444 46.55918 29.83681
#
# Velocity S-wave (km/s) = 2.32861 4.38758 3.51236
# Velocity P-wave (km/s) = 4.39669 6.30504 5.43527
#
# Compressibility (1/GPa) = 0.03416844
#
# Stress axis : x y z
#
# Youngs Moduli (GPa) = 22.39581 78.99803 67.05481
#
# Poissons Ratio (x) = 0.81699 0.71538
# Poissons Ratio (y) = 0.23161 -0.13299
# Poissons Ratio (z) = 0.23893 -0.15667
#
# Static dielectric constant tensor:
#      x y z
#    x 1.675370 0.000000 0.000000 
#    y 0.000000 1.978480 0.000000 
#    z 0.000000 0.000000 2.059020 
# 
# From -- ./inp_files/8524.got.cif
#   From: 2010.05.17/outbox.cif.g08.bks.cpg/sg17_5_cif.got.tgz:8524.got - 2010.06.03 22:34:06.
