data_PCOD9310749
_publ_section_title
;
Structure prediction by ZEFSAII (Michael W. Deem and Ramdas Pophale) SiO2 
 PCOD9310749
Probable space group: P 2 2 21
;
_chemical_formula_sum "Si O2"
_cell_formula_units_Z 26
_cell_length_a 10.294222
_cell_length_b 13.539752
_cell_length_c 8.575954
_cell_angle_alpha 90.000000
_cell_angle_beta 90.000000
_cell_angle_gamma 90.000000
_cell_volume 1195.326870
_symmetry_space_group_name_H-M "P 2 2 21"
_symmetry_group_IT_number 17
_symmetry_cell_setting 'orthorhombic'
loop_
_space_group_symop_operation_xyz
x,y,z
-x,-y,1/2+z
x,-y,-z
-x,y,1/2-z
loop_
_atom_site_type_symbol
_atom_site_label
_atom_site_fract_x
_atom_site_fract_y
_atom_site_fract_z
Si Si1 0.089582 0.585381 0.884409
Si Si2 0.295713 0.714109 0.694270
Si Si3 0.251607 0.585015 0.402290
Si Si4 0.112405 0.275397 0.847805
Si Si5 0.585028 0.094554 0.095430
Si Si6 0.611398 0.752328 0.478254
Si Si7 0.500000 0.588363 0.250000
O O1 0.179348 0.654274 0.775599
O O2 0.000000 0.539651 0.750000
O O3 0.145549 0.500000 0.000000
O O4 0.042324 0.666043 0.010741
O O5 0.308406 0.661603 0.527941
O O6 0.301201 0.830379 0.649268
O O7 0.389869 0.714121 0.844096
O O8 0.179781 0.500000 0.500000
O O9 0.173572 0.644836 0.272950
O O10 0.377014 0.532680 0.321480
O O11 0.240982 0.223688 0.921094
O O12 0.000000 0.220387 0.750000
O O13 0.500000 0.069146 0.250000
O O14 0.487383 0.156602 0.982343
O O15 0.630275 0.000000 0.000000
O O16 0.563737 0.662278 0.374061
#
# Coordination Sequence:
#
# PCOD9310749 Si02
#       7
#     4   4   4   4   4   4   2
#     4  11  22  37  60  89 128 175 231 280 329 404
#     4  10  21  38  58  87 132 167 213 279 341 398
#     4  11  22  35  55  81 116 164 216 258 323 396
#     4  10  21  36  55  84 116 161 217 266 328 387
#     4  10  21  37  63  93 124 165 219 278 348 419
#     4   9  20  37  57  84 122 158 208 267 330 406
#     4  10  20  34  54  78 118 164 200 266 320 402
#
# _framework density 21.751373000000001
#
# number of rings (size 3 to 8) (size 9 to 14) (size 15 to 20)
#    0.000    1.846    1.538    2.308    1.077    2.462 
#    0.000    1.538    0.000    0.000    0.000   34.462 
#    0.000    0.000    0.000    0.000    0.000    0.615 
#
# Total GULP energy -144748.209039 kJ/mol
# GULP energy per Si atom -5567.238809 kJ/mol
# Density = 2.170187 g / cm^3
# Si number density = 21.751373 Si / 1000 Ang^3
#
#
#
# Elastic Constant Matrix: (Units=GPa)
#
#
# Indices 1 2 3 4 5 6 
#
# 1 73.6180 13.4120 42.8668 0.0000 0.0000 0.0000
# 2 13.4120 81.8712 46.7172 0.0000 0.0000 0.0000
# 3 42.8668 46.7172 127.3542 0.0000 0.0000 0.0000
# 4 0.0000 0.0000 0.0000 22.5875 0.0000 0.0000
# 5 0.0000 0.0000 0.0000 0.0000 48.2524 0.0000
# 6 0.0000 0.0000 0.0000 0.0000 0.0000 27.2301
#
#
#
# Elastic Compliance Matrix: (Units=1/GPa)
#
#
# Indices 1 2 3 4 5 6 
#
# 1 0.016919 0.000604 -0.005916 0.000000 0.000000 0.000000
# 2 0.000604 0.015469 -0.005878 0.000000 0.000000 0.000000
# 3 -0.005916 -0.005878 0.012000 0.000000 0.000000 0.000000
# 4 0.000000 0.000000 0.000000 0.044272 0.000000 0.000000
# 5 0.000000 0.000000 0.000000 0.000000 0.020724 0.000000
# 6 0.000000 0.000000 0.000000 0.000000 0.000000 0.036724
#
#
# Mechanical properties :
#
#
# Convention : Reuss Voigt Hill
#
# Bulk Modulus (GPa) = 45.43870 54.31505 49.87687
# Shear Modulus (GPa) = 28.43743 31.60383 30.02063
#
# Velocity S-wave (km/s) = 3.61970 3.81590 3.71910
# Velocity P-wave (km/s) = 6.19718 6.66633 6.43603
#
# Compressibility (1/GPa) = 0.02200767
#
# Stress axis : x y z
#
# Youngs Moduli (GPa) = 59.10657 64.64364 83.33458
#
# Poissons Ratio (x) = -0.03907 0.49305
# Poissons Ratio (y) = -0.03573 0.48985
# Poissons Ratio (z) = 0.34970 0.37998
#
# Static dielectric constant tensor:
#      x y z
#    x 2.064380 0.000000 0.000000 
#    y 0.000000 1.793250 0.000000 
#    z 0.000000 0.000000 1.838730 
# 
# From -- ./inp_files/4885.got.cif
#   From: 2010.05.17/outbox.cif.g08.bks.cpg/sg17_3_cif.got.tgz:4885.got - 2010.06.03 22:34:06.
