data_PCOD9310270
_publ_section_title
;
Structure prediction by ZEFSAII (Michael W. Deem and Ramdas Pophale) SiO2 
 PCOD9310270
Probable space group: P 2 2 2
;
_chemical_formula_sum "Si O2"
_cell_formula_units_Z 24
_cell_length_a 12.189674
_cell_length_b 12.046758
_cell_length_c 6.896417
_cell_angle_alpha 90.000000
_cell_angle_beta 90.000000
_cell_angle_gamma 90.000000
_cell_volume 1012.711615
_symmetry_space_group_name_H-M "P 2 2 2"
_symmetry_group_IT_number 16
_symmetry_cell_setting 'orthorhombic'
loop_
_space_group_symop_operation_xyz
x,y,z
-x,-y,z
x,-y,-z
-x,y,-z
loop_
_atom_site_type_symbol
_atom_site_label
_atom_site_fract_x
_atom_site_fract_y
_atom_site_fract_z
Si Si1 0.823712 0.110279 0.080801
Si Si2 0.209599 0.709272 0.746916
Si Si3 0.224232 0.533782 0.273405
Si Si4 0.033011 0.704884 0.226840
Si Si5 0.602998 0.062450 0.295467
Si Si6 0.609700 0.692621 0.587434
O O1 0.896332 0.182187 0.230146
O O2 0.715729 0.064818 0.182994
O O3 0.789459 0.195056 0.908285
O O4 0.880704 0.000000 0.000000
O O5 0.225609 0.584601 0.833601
O O6 0.301580 0.722258 0.581782
O O7 0.084019 0.708085 0.665392
O O8 0.233255 0.500000 0.500000
O O9 0.111435 0.600501 0.257773
O O10 0.326690 0.617070 0.256825
O O11 0.000000 0.698010 0.000000
O O12 0.573178 0.191025 0.323341
O O13 0.500000 0.000000 0.205850
O O14 0.620607 0.000000 0.500000
O O15 0.500000 0.638565 0.500000
#
# Coordination Sequence:
#
# PCOD9310270 Si02
#       6
#     4   4   4   4   4   4
#     4  11  24  43  67 101 141 181 235 290 358 414
#     4  10  24  40  67 102 143 180 229 282 353 425
#     4  10  22  41  70 104 139 186 235 285 350 430
#     4  10  22  42  68 101 143 183 227 285 354 423
#     4  11  22  42  70  97 131 182 236 295 350 418
#     4  11  22  43  69 102 138 183 238 294 350 409
#
# _framework density 23.698751000000001
#
# number of rings (size 3 to 8) (size 9 to 14) (size 15 to 20)
#    0.000    1.500    3.333    1.500    0.000   15.667 
#    0.000    0.000    0.000    0.000   17.333    0.000 
#    0.000    0.000    0.000    0.000    0.000    0.000 
#
# Total GULP energy -134221.412892 kJ/mol
# GULP energy per Si atom -5592.558870 kJ/mol
# Density = 2.364481 g / cm^3
# Si number density = 23.698751 Si / 1000 Ang^3
#
#
#
# Elastic Constant Matrix: (Units=GPa)
#
#
# Indices 1 2 3 4 5 6 
#
# 1 164.6224 60.5319 30.1717 0.0000 0.0000 0.0000
# 2 60.5319 183.0876 32.5184 0.0000 0.0000 0.0000
# 3 30.1717 32.5184 49.0484 0.0000 0.0000 0.0000
# 4 0.0000 0.0000 0.0000 25.1492 0.0000 0.0000
# 5 0.0000 0.0000 0.0000 0.0000 -5.5787 0.0000
# 6 0.0000 0.0000 0.0000 0.0000 0.0000 43.8630
#
#
#
# Elastic Compliance Matrix: (Units=1/GPa)
#
#
# Indices 1 2 3 4 5 6 
#
# 1 0.007359 -0.001846 -0.003303 0.000000 0.000000 0.000000
# 2 -0.001846 0.006654 -0.003276 0.000000 0.000000 0.000000
# 3 -0.003303 -0.003276 0.024591 0.000000 0.000000 0.000000
# 4 0.000000 0.000000 0.000000 0.039763 0.000000 0.000000
# 5 0.000000 0.000000 0.000000 0.000000 -0.179253 0.000000
# 6 0.000000 0.000000 0.000000 0.000000 0.000000 0.022798
#
#
# Mechanical properties :
#
#
# Convention : Reuss Voigt Hill
#
# Bulk Modulus (GPa) = 45.96690 71.46693 58.71691
# Shear Modulus (GPa) = -92.61437 30.92247 -30.84595
#
# Velocity S-wave (km/s) = -6.25817 3.61614 -3.61166
# Velocity P-wave (km/s) = 5.72548 6.90342 2.72727
#
# Compressibility (1/GPa) = 0.02175479
#
# Stress axis : x y z
#
# Youngs Moduli (GPa) = 135.89365 150.28276 40.66463
#
# Poissons Ratio (x) = 0.27747 0.13430
# Poissons Ratio (y) = 0.25091 0.13321
# Poissons Ratio (z) = 0.44879 0.49230
#
# Static dielectric constant tensor:
#      x y z
#    x 1.948170 0.000000 0.000000 
#    y 0.000000 1.949580 0.000000 
#    z 0.000000 0.000000 1.967020 
# 
# From -- ./inp_files/4683.got.cif
#   From: 2010.05.17/outbox.cif.g08.bks.cpg/sg16_3_cif.got.tgz:4683.got - 2010.06.03 22:28:35.
