data_PCOD9310524
_publ_section_title
;
Structure prediction by ZEFSAII (Michael W. Deem and Ramdas Pophale) SiO2 
 PCOD9310524
Probable space group: P 2 2 21
;
_chemical_formula_sum "Si O2"
_cell_formula_units_Z 32
_cell_length_a 10.608689
_cell_length_b 17.893622
_cell_length_c 7.745229
_cell_angle_alpha 90.000000
_cell_angle_beta 90.000000
_cell_angle_gamma 90.000000
_cell_volume 1470.260331
_symmetry_space_group_name_H-M "P 2 2 21"
_symmetry_group_IT_number 17
_symmetry_cell_setting 'orthorhombic'
loop_
_space_group_symop_operation_xyz
x,y,z
-x,-y,1/2+z
x,-y,-z
-x,y,1/2-z
loop_
_atom_site_type_symbol
_atom_site_label
_atom_site_fract_x
_atom_site_fract_y
_atom_site_fract_z
Si Si1 0.361523 0.974502 0.300595
Si Si2 0.147862 0.507703 0.293290
Si Si3 0.147679 0.342890 0.289802
Si Si4 0.950956 0.090400 0.006687
Si Si5 0.644715 0.775711 0.771534
Si Si6 0.148323 0.670124 0.294293
Si Si7 0.204811 0.097297 0.145755
Si Si8 0.264168 0.180826 0.656747
O O1 0.500000 0.000021 0.250000
O O2 0.348988 0.886168 0.272201
O O3 0.339099 0.000000 0.500000
O O4 0.260458 0.016066 0.182193
O O5 0.164397 0.500000 0.500000
O O6 0.185289 0.426048 0.225826
O O7 0.196201 0.588516 0.230825
O O8 0.000000 0.511832 0.250000
O O9 0.249295 0.284695 0.221314
O O10 0.154320 0.336541 0.497538
O O11 0.000000 0.328514 0.250000
O O12 0.098817 0.107940 0.003107
O O13 0.880338 0.112428 0.183726
O O14 0.868379 0.137857 0.875747
O O15 0.943612 0.000000 0.000000
O O16 0.500000 0.752745 0.750000
O O17 0.678279 0.847147 0.654015
O O18 0.672690 0.797635 0.971517
O O19 0.231340 0.742225 0.246634
O O20 0.000000 0.680122 0.250000
#
# Coordination Sequence:
#
# PCOD9310524 Si02
#       8
#     4   4   4   4   4   4   4   4
#     4  12  23  41  58  73 102 144 188 225 266 320
#     4   8  14  28  48  78 108 136 169 211 259 320
#     4   9  18  31  55  84 108 135 179 227 263 313
#     4  10  18  33  52  76 107 136 170 218 284 314
#     4  10  20  34  52  75 113 142 178 223 277 313
#     4   9  18  31  52  78 112 143 167 211 275 324
#     4  10  20  32  54  75 104 139 171 223 271 324
#     4  10  20  36  53  77 110 142 175 228 269 323
#
# _framework density 21.764851
#
# number of rings (size 3 to 8) (size 9 to 14) (size 15 to 20)
#    0.000    2.250    3.750    0.375    5.250    1.500 
#    0.000    1.250    0.000    0.750    0.000   35.000 
#    0.000    0.000    0.000    0.000    0.000    0.000 
#
# Total GULP energy -178486.116548 kJ/mol
# GULP energy per Si atom -5577.691142 kJ/mol
# Density = 2.171531 g / cm^3
# Si number density = 21.764851 Si / 1000 Ang^3
#
#
#
# Elastic Constant Matrix: (Units=GPa)
#
#
# Indices 1 2 3 4 5 6 
#
# 1 112.5404 38.0428 15.7196 0.0000 0.0000 0.0000
# 2 38.0428 154.1843 7.1787 0.0000 0.0000 0.0000
# 3 15.7196 7.1787 60.4281 0.0000 0.0000 0.0000
# 4 0.0000 0.0000 0.0000 3.8697 0.0000 0.0000
# 5 0.0000 0.0000 0.0000 0.0000 15.7265 0.0000
# 6 0.0000 0.0000 0.0000 0.0000 0.0000 44.5163
#
#
#
# Elastic Compliance Matrix: (Units=1/GPa)
#
#
# Indices 1 2 3 4 5 6 
#
# 1 0.010008 -0.002361 -0.002323 0.000000 0.000000 0.000000
# 2 -0.002361 0.007079 -0.000227 0.000000 0.000000 0.000000
# 3 -0.002323 -0.000227 0.017180 0.000000 0.000000 0.000000
# 4 0.000000 0.000000 0.000000 0.258419 0.000000 0.000000
# 5 0.000000 0.000000 0.000000 0.000000 0.063587 0.000000
# 6 0.000000 0.000000 0.000000 0.000000 0.000000 0.022464
#
#
# Mechanical properties :
#
#
# Convention : Reuss Voigt Hill
#
# Bulk Modulus (GPa) = 40.90799 49.89278 45.40038
# Shear Modulus (GPa) = 12.60377 30.56995 21.58686
#
# Velocity S-wave (km/s) = 2.40904 3.75181 3.15274
# Velocity P-wave (km/s) = 5.15501 6.46076 5.84447
#
# Compressibility (1/GPa) = 0.02444510
#
# Stress axis : x y z
#
# Youngs Moduli (GPa) = 99.91634 141.26470 58.20779
#
# Poissons Ratio (x) = 0.33356 0.13522
# Poissons Ratio (y) = 0.23593 0.01320
# Poissons Ratio (z) = 0.23211 0.03203
#
# Static dielectric constant tensor:
#      x y z
#    x 1.745870 0.000000 0.000000 
#    y 0.000000 1.874090 0.000000 
#    z 0.000000 0.000000 1.828140 
# 
# From -- ./inp_files/6756.got.cif
#   From: 2010.05.17/outbox.cif.g08.bks.cpg/sg17_4_cif.got.tgz:6756.got - 2010.06.03 22:34:06.
