data_PCOD9310703
_publ_section_title
;
Structure prediction by ZEFSAII (Michael W. Deem and Ramdas Pophale) SiO2 
 PCOD9310703
Probable space group: P 2 2 21
;
_chemical_formula_sum "Si O2"
_cell_formula_units_Z 20
_cell_length_a 8.885703
_cell_length_b 11.881144
_cell_length_c 10.180309
_cell_angle_alpha 90.000000
_cell_angle_beta 90.000000
_cell_angle_gamma 90.000000
_cell_volume 1074.758808
_symmetry_space_group_name_H-M "P 2 2 21"
_symmetry_group_IT_number 17
_symmetry_cell_setting 'orthorhombic'
loop_
_space_group_symop_operation_xyz
x,y,z
-x,-y,1/2+z
x,-y,-z
-x,y,1/2-z
loop_
_atom_site_type_symbol
_atom_site_label
_atom_site_fract_x
_atom_site_fract_y
_atom_site_fract_z
Si Si1 0.151959 0.490565 0.661569
Si Si2 0.677807 0.263646 0.756010
Si Si3 0.812802 0.135421 0.507466
Si Si4 0.174201 0.869310 0.486768
Si Si5 0.182645 0.734085 0.743356
O O1 0.128409 0.500000 0.500000
O O2 0.247723 0.381974 0.701716
O O3 0.228162 0.605791 0.714137
O O4 0.000000 0.480231 0.750000
O O5 0.500000 0.276146 0.750000
O O6 0.735396 0.205997 0.622459
O O7 0.734094 0.178771 0.866937
O O8 0.769876 0.199957 0.373401
O O9 0.993710 0.146928 0.528929
O O10 0.781129 0.000000 0.500000
O O11 0.223997 0.806493 0.617597
O O12 0.200218 0.000000 0.500000
O O13 0.000000 0.731113 0.750000
#
# Coordination Sequence:
#
# PCOD9310703 Si02
#       5
#     4   4   4   4   4
#     4  11  23  42  68  93 121 160 218 271 314 365
#     4  12  26  41  59  91 136 173 203 250 318 388
#     4  10  21  40  67  96 121 157 216 266 313 368
#     4  10  19  38  67  93 120 159 209 268 310 361
#     4   9  19  35  61  93 118 149 205 269 319 356
#
# _framework density 18.608827000000002
#
# number of rings (size 3 to 8) (size 9 to 14) (size 15 to 20)
#    0.000    1.600    2.000    3.000    5.600    4.000 
#    3.600    1.000    0.000    0.000    0.000    0.000 
#    0.000    0.000    0.000    0.000    0.000    0.000 
#
# Total GULP energy -111544.225379 kJ/mol
# GULP energy per Si atom -5577.211269 kJ/mol
# Density = 1.856647 g / cm^3
# Si number density = 18.608827 Si / 1000 Ang^3
#
#
#
# Elastic Constant Matrix: (Units=GPa)
#
#
# Indices 1 2 3 4 5 6 
#
# 1 105.1231 109.6373 138.2126 0.0000 0.0000 0.0000
# 2 109.6373 181.6192 135.8903 0.0000 0.0000 0.0000
# 3 138.2126 135.8903 311.0357 0.0000 0.0000 0.0000
# 4 0.0000 0.0000 0.0000 34.1536 0.0000 0.0000
# 5 0.0000 0.0000 0.0000 0.0000 343.7281 0.0000
# 6 0.0000 0.0000 0.0000 0.0000 0.0000 0.5211
#
#
#
# Elastic Compliance Matrix: (Units=1/GPa)
#
#
# Indices 1 2 3 4 5 6 
#
# 1 0.041905 -0.016883 -0.011245 0.000000 0.000000 0.000000
# 2 -0.016883 0.014982 0.000957 0.000000 0.000000 0.000000
# 3 -0.011245 0.000957 0.007794 0.000000 0.000000 0.000000
# 4 0.000000 0.000000 0.000000 0.029279 0.000000 0.000000
# 5 0.000000 0.000000 0.000000 0.000000 0.002909 0.000000
# 6 0.000000 0.000000 0.000000 0.000000 0.000000 1.918932
#
#
# Mechanical properties :
#
#
# Convention : Reuss Voigt Hill
#
# Bulk Modulus (GPa) = 96.72712 151.69537 124.21124
# Shear Modulus (GPa) = 2.41128 89.94975 46.18051
#
# Velocity S-wave (km/s) = 1.13955 6.96003 4.98702
# Velocity P-wave (km/s) = 7.33645 12.09481 10.00270
#
# Compressibility (1/GPa) = 0.01033836
#
# Stress axis : x y z
#
# Youngs Moduli (GPa) = 23.86328 66.74658 128.30456
#
# Poissons Ratio (x) = 1.12689 1.44278
# Poissons Ratio (y) = 0.40289 -0.12274
# Poissons Ratio (z) = 0.26834 -0.06385
#
# Static dielectric constant tensor:
#      x y z
#    x 1.620100 0.000000 0.000000 
#    y 0.000000 1.361940 0.000000 
#    z 0.000000 0.000000 1.562120 
# 
# From -- ./inp_files/3996.got.cif
#   From: 2010.05.17/outbox.cif.g08.bks.cpg/sg17_2_cif.got.tgz:3996.got - 2010.06.03 22:34:06.
