data_PCOD9310434
_publ_section_title
;
Structure prediction by ZEFSAII (Michael W. Deem and Ramdas Pophale) SiO2 
 PCOD9310434
Probable space group: P 2 2 21
;
_chemical_formula_sum "Si O2"
_cell_formula_units_Z 18
_cell_length_a 7.248512
_cell_length_b 20.235119
_cell_length_c 5.455533
_cell_angle_alpha 90.000000
_cell_angle_beta 90.000000
_cell_angle_gamma 90.000000
_cell_volume 800.187591
_symmetry_space_group_name_H-M "P 2 2 21"
_symmetry_group_IT_number 17
_symmetry_cell_setting 'orthorhombic'
loop_
_space_group_symop_operation_xyz
x,y,z
-x,-y,1/2+z
x,-y,-z
-x,y,1/2-z
loop_
_atom_site_type_symbol
_atom_site_label
_atom_site_fract_x
_atom_site_fract_y
_atom_site_fract_z
Si Si1 0.197502 0.921758 0.504948
Si Si2 0.780004 0.867516 0.488927
Si Si3 0.699948 0.659363 0.969249
Si Si4 0.719194 0.712710 0.474537
Si Si5 0.500000 0.462172 0.250000
O O1 0.290335 0.895201 0.752050
O O2 0.998027 0.885661 0.498051
O O3 0.166247 0.000000 0.500000
O O4 0.293941 0.903266 0.252109
O O5 0.748520 0.790248 0.448579
O O6 0.797424 0.692959 0.739345
O O7 0.654062 0.585630 0.874301
O O8 0.785381 0.671969 0.235962
O O9 0.498048 0.693979 0.000068
O O10 0.566835 0.500000 0.500000
#
# Coordination Sequence:
#
# PCOD9310434 Si02
#       5
#     4   4   4   4   2
#     4  10  19  30  42  66  87 102 137 186 227 271
#     4  10  17  27  45  61  81 113 139 169 220 273
#     4   9  18  29  41  64  91 111 142 177 192 239
#     4   9  16  28  42  60  83 116 144 167 208 248
#     4  10  16  26  44  64  88 122 144 164 210 248
#
# _framework density 22.494724000000001
#
# number of rings (size 3 to 8) (size 9 to 14) (size 15 to 20)
#    0.000    2.667    0.000    7.333    0.000    0.000 
#    0.000    0.000    0.000    0.000    0.000  105.778 
#    0.000    0.000    0.000 1440.000    0.000    1.778 
#
# Total GULP energy -100288.701250 kJ/mol
# GULP energy per Si atom -5571.594514 kJ/mol
# Density = 2.244353 g / cm^3
# Si number density = 22.494724 Si / 1000 Ang^3
#
#
#
# Elastic Constant Matrix: (Units=GPa)
#
#
# Indices 1 2 3 4 5 6 
#
# 1 92.0305 15.2158 16.9223 0.0000 0.0000 0.0000
# 2 15.2158 143.9185 63.9730 0.0000 0.0000 0.0000
# 3 16.9223 63.9730 287.9659 0.0000 0.0000 0.0000
# 4 0.0000 0.0000 0.0000 48.7249 0.0000 0.0000
# 5 0.0000 0.0000 0.0000 0.0000 -22.5196 0.0000
# 6 0.0000 0.0000 0.0000 0.0000 0.0000 23.2127
#
#
#
# Elastic Compliance Matrix: (Units=1/GPa)
#
#
# Indices 1 2 3 4 5 6 
#
# 1 0.011108 -0.000981 -0.000435 0.000000 0.000000 0.000000
# 2 -0.000981 0.007796 -0.001674 0.000000 0.000000 0.000000
# 3 -0.000435 -0.001674 0.003870 0.000000 0.000000 0.000000
# 4 0.000000 0.000000 0.000000 0.020523 0.000000 0.000000
# 5 0.000000 0.000000 0.000000 0.000000 -0.044406 0.000000
# 6 0.000000 0.000000 0.000000 0.000000 0.000000 0.043080
#
#
# Mechanical properties :
#
#
# Convention : Reuss Voigt Hill
#
# Bulk Modulus (GPa) = 60.26249 79.57080 69.91664
# Shear Modulus (GPa) = 93.13729 38.40384 65.77056
#
# Velocity S-wave (km/s) = 6.44158 4.13636 5.41310
# Velocity P-wave (km/s) = 9.06493 7.63299 8.37960
#
# Compressibility (1/GPa) = 0.01659407
#
# Stress axis : x y z
#
# Youngs Moduli (GPa) = 90.02420 128.26489 258.38806
#
# Poissons Ratio (x) = 0.12585 0.11235
# Poissons Ratio (y) = 0.08833 0.43263
# Poissons Ratio (z) = 0.03914 0.21476
#
# Static dielectric constant tensor:
#      x y z
#    x 1.699750 0.000000 0.000000 
#    y 0.000000 1.812220 0.000000 
#    z 0.000000 0.000000 1.895430 
# 
# From -- ./inp_files/845.got.cif
#   From: 2010.05.17/outbox.cif.g08.bks.cpg/sg17_1_cif.got.tgz:845.got - 2010.06.03 22:34:06.
