data_PCOD9310264
_publ_section_title
;
Structure prediction by ZEFSAII (Michael W. Deem and Ramdas Pophale) SiO2 
 PCOD9310264
Probable space group: P 2 2 2
;
_chemical_formula_sum "Si O2"
_cell_formula_units_Z 32
_cell_length_a 15.735560
_cell_length_b 11.528839
_cell_length_c 8.734231
_cell_angle_alpha 90.000000
_cell_angle_beta 90.000000
_cell_angle_gamma 90.000000
_cell_volume 1584.500758
_symmetry_space_group_name_H-M "P 2 2 2"
_symmetry_group_IT_number 16
_symmetry_cell_setting 'orthorhombic'
loop_
_space_group_symop_operation_xyz
x,y,z
-x,-y,z
x,-y,-z
-x,y,-z
loop_
_atom_site_type_symbol
_atom_site_label
_atom_site_fract_x
_atom_site_fract_y
_atom_site_fract_z
Si Si1 0.322407 0.883151 0.386884
Si Si2 0.402942 0.515703 0.817445
Si Si3 0.480617 0.132690 0.833855
Si Si4 0.009453 0.866060 0.818157
Si Si5 0.359344 0.236276 0.319099
Si Si6 0.847849 0.236996 0.349524
Si Si7 0.767036 0.476981 0.317980
Si Si8 0.175104 0.263624 0.287658
O O1 0.389187 0.869336 0.248067
O O2 0.345188 0.776875 0.500863
O O3 0.227483 0.858178 0.326697
O O4 0.328404 0.000000 0.500000
O O5 0.500000 0.500000 0.765928
O O6 0.376091 0.639935 0.753477
O O7 0.325411 0.442850 0.748940
O O8 0.401509 0.500000 0.000000
O O9 0.554809 0.170986 0.720181
O O10 0.500000 0.000000 0.856744
O O11 0.500000 0.192837 0.000000
O O12 0.098925 0.802336 0.792033
O O13 0.935002 0.801157 0.726677
O O14 0.000000 0.000000 0.767203
O O15 0.000000 0.864354 0.000000
O O16 0.266125 0.200635 0.256682
O O17 0.823699 0.364535 0.288685
O O18 0.848970 0.252077 0.533114
O O19 0.757777 0.500000 0.500000
O O20 0.807102 0.598834 0.255733
#
# Coordination Sequence:
#
# PCOD9310264 Si02
#       8
#     4   4   4   4   4   4   4   4
#     4  11  23  41  65  95 130 174 228 278 328 405
#     4  10  23  39  59  90 129 174 220 272 329 394
#     4  11  24  38  58  91 130 173 219 269 333 401
#     4  11  26  43  63  95 131 168 211 266 332 404
#     4  10  22  40  64  90 126 177 218 276 329 384
#     4  10  23  39  69  96 121 169 212 271 330 387
#     4   9  20  42  63  96 127 161 218 271 327 386
#     4   9  21  43  66  92 128 161 217 270 321 391
#
# _framework density 20.195637000000001
#
# number of rings (size 3 to 8) (size 9 to 14) (size 15 to 20)
#    0.000    1.875    1.250    1.500    7.000    4.250 
#    4.500    5.000    0.000    0.000    0.000    0.000 
#    0.000    0.000    0.000    0.000    0.000    0.000 
#
# Total GULP energy -178157.887396 kJ/mol
# GULP energy per Si atom -5567.433981 kJ/mol
# Density = 2.014967 g / cm^3
# Si number density = 20.195637 Si / 1000 Ang^3
#
#
#
# Elastic Constant Matrix: (Units=GPa)
#
#
# Indices 1 2 3 4 5 6 
#
# 1 130.8571 33.3726 19.0812 0.0000 0.0000 0.0000
# 2 33.3726 71.4187 12.6722 0.0000 0.0000 0.0000
# 3 19.0812 12.6722 26.4077 0.0000 0.0000 0.0000
# 4 0.0000 0.0000 0.0000 10.4427 0.0000 0.0000
# 5 0.0000 0.0000 0.0000 0.0000 18.1163 0.0000
# 6 0.0000 0.0000 0.0000 0.0000 0.0000 31.2708
#
#
#
# Elastic Compliance Matrix: (Units=1/GPa)
#
#
# Indices 1 2 3 4 5 6 
#
# 1 0.009251 -0.003429 -0.005039 0.000000 0.000000 0.000000
# 2 -0.003429 0.016576 -0.005477 0.000000 0.000000 0.000000
# 3 -0.005039 -0.005477 0.044137 0.000000 0.000000 0.000000
# 4 0.000000 0.000000 0.000000 0.095761 0.000000 0.000000
# 5 0.000000 0.000000 0.000000 0.000000 0.055199 0.000000
# 6 0.000000 0.000000 0.000000 0.000000 0.000000 0.031979
#
#
# Mechanical properties :
#
#
# Convention : Reuss Voigt Hill
#
# Bulk Modulus (GPa) = 23.76727 39.88171 31.82449
# Shear Modulus (GPa) = 16.95970 22.86980 19.91475
#
# Velocity S-wave (km/s) = 2.90102 3.36878 3.14362
# Velocity P-wave (km/s) = 4.79743 5.90950 5.38226
#
# Compressibility (1/GPa) = 0.04207467
#
# Stress axis : x y z
#
# Youngs Moduli (GPa) = 108.09454 60.32862 22.65675
#
# Poissons Ratio (x) = 0.20685 0.11417
# Poissons Ratio (y) = 0.37063 0.12408
# Poissons Ratio (z) = 0.54471 0.33040
#
# Static dielectric constant tensor:
#      x y z
#    x 1.635320 0.000000 0.000000 
#    y 0.000000 1.772320 0.000000 
#    z 0.000000 0.000000 1.886580 
# 
# From -- ./inp_files/5214.got.cif
#   From: 2010.05.17/outbox.cif.g08.bks.cpg/sg16_3_cif.got.tgz:5214.got - 2010.06.03 22:28:35.
