data_PCOD9310319
_publ_section_title
;
Structure prediction by ZEFSAII (Michael W. Deem and Ramdas Pophale) SiO2 
 PCOD9310319
Probable space group: P 2 2 2
;
_chemical_formula_sum "Si O2"
_cell_formula_units_Z 12
_cell_length_a 18.091662
_cell_length_b 4.860034
_cell_length_c 5.568802
_cell_angle_alpha 90.000000
_cell_angle_beta 90.000000
_cell_angle_gamma 90.000000
_cell_volume 489.642999
_symmetry_space_group_name_H-M "P 2 2 2"
_symmetry_group_IT_number 16
_symmetry_cell_setting 'orthorhombic'
loop_
_space_group_symop_operation_xyz
x,y,z
-x,-y,z
x,-y,-z
-x,y,-z
loop_
_atom_site_type_symbol
_atom_site_label
_atom_site_fract_x
_atom_site_fract_y
_atom_site_fract_z
Si Si1 0.500000 0.500000 0.000000
Si Si2 0.126559 0.833086 0.752918
Si Si3 0.402559 0.000000 0.000000
Si Si4 0.000000 0.500000 0.000000
Si Si5 0.716165 0.735980 0.340737
O O1 0.448991 0.256327 0.878047
O O2 0.053021 0.670361 0.823058
O O3 0.201506 0.650393 0.740004
O O4 0.116173 0.000000 0.500000
O O5 0.140707 0.000000 0.000000
O O6 0.346132 0.830072 0.838625
O O7 0.683394 0.500000 0.500000
O O8 0.732046 0.000000 0.500000
#
# Coordination Sequence:
#
# PCOD9310319 Si02
#       5
#     1   4   2   1   4
#     4  10  24  40  78 114 156 198 252 314 410 476
#     4  11  28  51  73 114 154 209 277 337 407 482
#     4  11  22  48  72 111 156 202 252 327 392 490
#     4  12  30  48  80 104 164 216 262 350 410 488
#     4  11  25  46  77 108 149 207 269 326 393 476
#
# _framework density 24.507649000000001
#
# number of rings (size 3 to 8) (size 9 to 14) (size 15 to 20)
#    0.000    1.000    1.667    2.500    9.333    5.333 
#    0.000   12.500    0.000    0.000    0.000    0.000 
#    0.000    0.000    0.000    0.000    0.000    0.000 
#
# Total GULP energy -66840.090605 kJ/mol
# GULP energy per Si atom -5570.007550 kJ/mol
# Density = 2.445187 g / cm^3
# Si number density = 24.507649 Si / 1000 Ang^3
#
#
#
# Elastic Constant Matrix: (Units=GPa)
#
#
# Indices 1 2 3 4 5 6 
#
# 1 145.5228 57.1079 49.5147 0.0000 0.0000 0.0000
# 2 57.1079 138.8160 62.4325 0.0000 0.0000 0.0000
# 3 49.5147 62.4325 141.2824 0.0000 0.0000 0.0000
# 4 0.0000 0.0000 0.0000 45.9085 0.0000 0.0000
# 5 0.0000 0.0000 0.0000 0.0000 15.4443 0.0000
# 6 0.0000 0.0000 0.0000 0.0000 0.0000 114.2888
#
#
#
# Elastic Compliance Matrix: (Units=1/GPa)
#
#
# Indices 1 2 3 4 5 6 
#
# 1 0.008546 -0.002707 -0.001799 0.000000 0.000000 0.000000
# 2 -0.002707 0.009848 -0.003403 0.000000 0.000000 0.000000
# 3 -0.001799 -0.003403 0.009212 0.000000 0.000000 0.000000
# 4 0.000000 0.000000 0.000000 0.021782 0.000000 0.000000
# 5 0.000000 0.000000 0.000000 0.000000 0.064749 0.000000
# 6 0.000000 0.000000 0.000000 0.000000 0.000000 0.008750
#
#
# Mechanical properties :
#
#
# Convention : Reuss Voigt Hill
#
# Bulk Modulus (GPa) = 84.82790 84.85906 84.84348
# Shear Modulus (GPa) = 35.05465 52.23274 43.64369
#
# Velocity S-wave (km/s) = 3.78611 4.62159 4.22455
# Velocity P-wave (km/s) = 7.33490 7.94855 7.64788
#
# Compressibility (1/GPa) = 0.01178857
#
# Stress axis : x y z
#
# Youngs Moduli (GPa) = 117.01247 101.54488 108.54964
#
# Poissons Ratio (x) = 0.27485 0.19529
# Poissons Ratio (y) = 0.31672 0.36941
# Poissons Ratio (z) = 0.21051 0.34557
#
# Static dielectric constant tensor:
#      x y z
#    x 2.144120 0.000000 0.000000 
#    y 0.000000 1.978660 0.000000 
#    z 0.000000 0.000000 1.979340 
# 
# From -- ./inp_files/2157.got.cif
#   From: 2010.05.17/outbox.cif.g08.bks.cpg/sg16_2_cif.got.tgz:2157.got - 2010.06.03 22:28:35.
