data_PCOD9310526
_publ_section_title
;
Structure prediction by ZEFSAII (Michael W. Deem and Ramdas Pophale) SiO2 
 PCOD9310526
Probable space group: P 2 2 21
;
_chemical_formula_sum "Si O2"
_cell_formula_units_Z 26
_cell_length_a 6.325523
_cell_length_b 9.744590
_cell_length_c 21.875989
_cell_angle_alpha 90.000000
_cell_angle_beta 90.000000
_cell_angle_gamma 90.000000
_cell_volume 1348.427828
_symmetry_space_group_name_H-M "P 2 2 21"
_symmetry_group_IT_number 17
_symmetry_cell_setting 'orthorhombic'
loop_
_space_group_symop_operation_xyz
x,y,z
-x,-y,1/2+z
x,-y,-z
-x,y,1/2-z
loop_
_atom_site_type_symbol
_atom_site_label
_atom_site_fract_x
_atom_site_fract_y
_atom_site_fract_z
Si Si1 0.000000 0.395663 0.750000
Si Si2 0.620047 0.729056 0.186487
Si Si3 0.301393 0.507177 0.143157
Si Si4 0.132425 0.705714 0.047336
Si Si5 0.605279 0.234792 0.422507
Si Si6 0.250523 0.854785 0.497166
Si Si7 0.404680 0.929302 0.103211
O O1 0.139957 0.304399 0.703422
O O2 0.160154 0.477923 0.795110
O O3 0.500000 0.726236 0.250000
O O4 0.508112 0.605581 0.148874
O O5 0.554616 0.873119 0.156742
O O6 0.175809 0.567554 0.084404
O O7 0.367077 0.353555 0.126774
O O8 0.212746 0.825213 0.093223
O O9 0.891350 0.738423 0.032549
O O10 0.261948 0.722485 0.983521
O O11 0.362140 0.207407 0.443167
O O12 0.670605 0.085209 0.397434
O O13 0.443818 0.900875 0.454496
O O14 0.123395 0.000000 0.500000
#
# Coordination Sequence:
#
# PCOD9310526 Si02
#       7
#     2   4   4   4   4   4   4
#     4  10  20  38  60  78 104 146 200 242 276 324
#     4   9  19  36  56  76  98 136 185 229 270 321
#     4  10  21  35  54  79 111 148 186 230 278 331
#     4  10  18  33  55  81 112 147 183 221 272 340
#     4  10  20  33  51  82 115 142 175 224 289 344
#     4   9  17  30  51  78 108 142 177 216 268 331
#     4   9  18  33  54  78 108 140 176 225 276 329
#
# _framework density 19.281715999999999
#
# number of rings (size 3 to 8) (size 9 to 14) (size 15 to 20)
#    0.000    2.462    0.000    3.692    0.000    1.231 
#    0.000    6.923    0.000    9.231    0.000    0.000 
#    0.000    0.000    0.000    0.000    0.000    0.000 
#
# Total GULP energy -144766.979106 kJ/mol
# GULP energy per Si atom -5567.960735 kJ/mol
# Density = 1.923783 g / cm^3
# Si number density = 19.281716 Si / 1000 Ang^3
#
#
#
# Elastic Constant Matrix: (Units=GPa)
#
#
# Indices 1 2 3 4 5 6 
#
# 1 55.6426 21.2428 16.8926 0.0000 0.0000 0.0000
# 2 21.2428 114.7742 42.4873 0.0000 0.0000 0.0000
# 3 16.8926 42.4873 58.1984 0.0000 0.0000 0.0000
# 4 0.0000 0.0000 0.0000 25.0714 0.0000 0.0000
# 5 0.0000 0.0000 0.0000 0.0000 28.4861 0.0000
# 6 0.0000 0.0000 0.0000 0.0000 0.0000 9.3858
#
#
#
# Elastic Compliance Matrix: (Units=1/GPa)
#
#
# Indices 1 2 3 4 5 6 
#
# 1 0.020084 -0.002137 -0.004270 0.000000 0.000000 0.000000
# 2 -0.002137 0.012167 -0.008262 0.000000 0.000000 0.000000
# 3 -0.004270 -0.008262 0.024454 0.000000 0.000000 0.000000
# 4 0.000000 0.000000 0.000000 0.039886 0.000000 0.000000
# 5 0.000000 0.000000 0.000000 0.000000 0.035105 0.000000
# 6 0.000000 0.000000 0.000000 0.000000 0.000000 0.106544
#
#
# Mechanical properties :
#
#
# Convention : Reuss Voigt Hill
#
# Bulk Modulus (GPa) = 36.53985 43.31784 39.92884
# Shear Modulus (GPa) = 18.07025 22.45484 20.26254
#
# Velocity S-wave (km/s) = 3.06464 3.41628 3.24523
# Velocity P-wave (km/s) = 5.61377 6.17056 5.89874
#
# Compressibility (1/GPa) = 0.02736738
#
# Stress axis : x y z
#
# Youngs Moduli (GPa) = 49.79147 82.19173 40.89384
#
# Poissons Ratio (x) = 0.17561 0.17460
# Poissons Ratio (y) = 0.10639 0.33787
# Poissons Ratio (z) = 0.21259 0.67907
#
# Static dielectric constant tensor:
#      x y z
#    x 1.734630 0.000000 0.000000 
#    y 0.000000 1.734210 0.000000 
#    z 0.000000 0.000000 1.736460 
# 
# From -- ./inp_files/10865.got.cif
#   From: 2010.05.17/outbox.cif.g08.bks.cpg/sg17_6_cif.got.tgz:10865.got - 2010.06.03 22:34:06.
