data_PCOD9310260
_publ_section_title
;
Structure prediction by ZEFSAII (Michael W. Deem and Ramdas Pophale) SiO2 
 PCOD9310260
Probable space group: P 2 2 2
;
_chemical_formula_sum "Si O2"
_cell_formula_units_Z 32
_cell_length_a 13.908172
_cell_length_b 9.918507
_cell_length_c 12.018921
_cell_angle_alpha 90.000000
_cell_angle_beta 90.000000
_cell_angle_gamma 90.000000
_cell_volume 1657.989736
_symmetry_space_group_name_H-M "P 2 2 2"
_symmetry_group_IT_number 16
_symmetry_cell_setting 'orthorhombic'
loop_
_space_group_symop_operation_xyz
x,y,z
-x,-y,z
x,-y,-z
-x,y,-z
loop_
_atom_site_type_symbol
_atom_site_label
_atom_site_fract_x
_atom_site_fract_y
_atom_site_fract_z
Si Si1 0.694155 0.257503 0.731901
Si Si2 0.615639 0.490541 0.134204
Si Si3 0.111447 0.838691 0.212970
Si Si4 0.385867 0.654142 0.500111
Si Si5 0.307400 0.237858 0.728947
Si Si6 0.615183 0.989999 0.128597
Si Si7 0.884903 0.654092 0.999708
Si Si8 0.112505 0.839765 0.788019
O O1 0.673486 0.393531 0.800788
O O2 0.644852 0.273309 0.612994
O O3 0.648038 0.146097 0.812392
O O4 0.803994 0.212519 0.707856
O O5 0.500000 0.500000 0.159126
O O6 0.660540 0.355749 0.186121
O O7 0.624244 0.500000 0.000000
O O8 0.194186 0.787282 0.294546
O O9 0.135997 0.746844 0.106138
O O10 0.999326 0.816175 0.243027
O O11 0.121521 0.999423 0.190808
O O12 0.346998 0.500000 0.500000
O O13 0.500000 0.645653 0.500000
O O14 0.354731 0.729481 0.388616
O O15 0.343829 0.106268 0.793047
O O16 0.500000 0.000000 0.126643
O O17 0.649027 0.000000 0.000000
O O18 0.845960 0.500000 0.000000
O O19 0.863468 0.748035 0.104776
O O20 0.000000 0.639883 0.000000
#
# Coordination Sequence:
#
# PCOD9310260 Si02
#       8
#     4   4   4   4   4   4   4   4
#     4  12  24  41  68  96 129 175 223 265 329 387
#     4  11  24  41  64  96 133 173 217 269 339 406
#     4  10  22  40  60  89 132 176 218 266 327 392
#     4  11  24  45  70  95 130 172 221 275 324 391
#     4  12  24  41  68  96 129 175 223 265 329 387
#     4  11  24  41  62  96 137 169 211 275 337 394
#     4   9  19  33  57  91 126 167 218 271 320 381
#     4  10  22  40  60  89 132 176 218 266 327 392
#
# _framework density 19.300481000000001
#
# number of rings (size 3 to 8) (size 9 to 14) (size 15 to 20)
#    0.000    1.250    2.500    3.375    5.250    4.000 
#    0.000    1.875    0.000    2.250    0.000    0.000 
#    0.000    0.000    0.000    0.000    0.000    0.000 
#
# Total GULP energy -178543.255500 kJ/mol
# GULP energy per Si atom -5579.476734 kJ/mol
# Density = 1.925655 g / cm^3
# Si number density = 19.300481 Si / 1000 Ang^3
#
#
#
# Elastic Constant Matrix: (Units=GPa)
#
#
# Indices 1 2 3 4 5 6 
#
# 1 121.0340 15.0213 21.9663 0.0000 0.0000 0.0000
# 2 15.0213 49.0574 -2.3010 0.0000 0.0000 0.0000
# 3 21.9663 -2.3010 96.1891 0.0000 0.0000 0.0000
# 4 0.0000 0.0000 0.0000 15.4251 0.0000 0.0000
# 5 0.0000 0.0000 0.0000 0.0000 17.8249 0.0000
# 6 0.0000 0.0000 0.0000 0.0000 0.0000 26.1867
#
#
#
# Elastic Compliance Matrix: (Units=1/GPa)
#
#
# Indices 1 2 3 4 5 6 
#
# 1 0.009002 -0.002856 -0.002124 0.000000 0.000000 0.000000
# 2 -0.002856 0.021313 0.001162 0.000000 0.000000 0.000000
# 3 -0.002124 0.001162 0.010909 0.000000 0.000000 0.000000
# 4 0.000000 0.000000 0.000000 0.064829 0.000000 0.000000
# 5 0.000000 0.000000 0.000000 0.000000 0.056101 0.000000
# 6 0.000000 0.000000 0.000000 0.000000 0.000000 0.038187
#
#
# Mechanical properties :
#
#
# Convention : Reuss Voigt Hill
#
# Bulk Modulus (GPa) = 29.77226 37.29485 33.53355
# Shear Modulus (GPa) = 22.81284 27.32693 25.06989
#
# Velocity S-wave (km/s) = 3.44173 3.76688 3.60797
# Velocity P-wave (km/s) = 5.59045 6.18744 5.89651
#
# Compressibility (1/GPa) = 0.03358832
#
# Stress axis : x y z
#
# Youngs Moduli (GPa) = 111.08525 46.91905 91.66697
#
# Poissons Ratio (x) = 0.13400 0.19471
# Poissons Ratio (y) = 0.31726 -0.10652
# Poissons Ratio (z) = 0.23596 -0.05452
#
# Static dielectric constant tensor:
#      x y z
#    x 1.733960 0.000000 0.000000 
#    y 0.000000 1.664600 0.000000 
#    z 0.000000 0.000000 1.637400 
# 
# From -- ./inp_files/7163.got.cif
#   From: 2010.05.17/outbox.cif.g08.bks.cpg/sg16_4_cif.got.tgz:7163.got - 2010.06.03 22:28:35.
