data_PCOD9310737
_publ_section_title
;
Structure prediction by ZEFSAII (Michael W. Deem and Ramdas Pophale) SiO2 
 PCOD9310737
Probable space group: P 2 2 21
;
_chemical_formula_sum "Si O2"
_cell_formula_units_Z 24
_cell_length_a 9.756068
_cell_length_b 13.176660
_cell_length_c 9.532647
_cell_angle_alpha 90.000000
_cell_angle_beta 90.000000
_cell_angle_gamma 90.000000
_cell_volume 1225.444564
_symmetry_space_group_name_H-M "P 2 2 21"
_symmetry_group_IT_number 17
_symmetry_cell_setting 'orthorhombic'
loop_
_space_group_symop_operation_xyz
x,y,z
-x,-y,1/2+z
x,-y,-z
-x,y,1/2-z
loop_
_atom_site_type_symbol
_atom_site_label
_atom_site_fract_x
_atom_site_fract_y
_atom_site_fract_z
Si Si1 0.352281 0.754004 0.952033
Si Si2 0.612516 0.032248 0.348395
Si Si3 0.806578 0.865588 0.319008
Si Si4 0.094145 0.122710 0.518953
Si Si5 0.848284 0.704700 0.785775
Si Si6 0.419569 0.594113 0.604245
O O1 0.387158 0.848122 0.850202
O O2 0.221808 0.712203 0.867884
O O3 0.480508 0.680250 0.959558
O O4 0.305350 0.798860 0.100362
O O5 0.500000 0.986650 0.250000
O O6 0.566728 0.000000 0.500000
O O7 0.758872 0.982940 0.323014
O O8 0.819845 0.840824 0.155411
O O9 0.941448 0.860885 0.416444
O O10 0.126099 0.192294 0.381764
O O11 0.113201 0.000000 0.500000
O O12 0.732534 0.638428 0.866106
O O13 0.000000 0.663740 0.750000
O O14 0.412717 0.500000 0.500000
O O15 0.500000 0.567976 0.750000
#
# Coordination Sequence:
#
# PCOD9310737 Si02
#       6
#     4   4   4   4   4   4
#     4  10  20  40  62  88 124 160 208 258 319 374
#     4  10  20  33  52  80 122 167 208 253 297 362
#     4  10  22  35  54  88 129 174 215 256 304 361
#     4  11  22  34  56  91 134 176 215 252 305 366
#     4  11  22  39  67  92 124 164 208 256 310 382
#     4  10  24  45  70  97 120 159 208 268 341 393
#
# _framework density 19.584727999999998
#
# number of rings (size 3 to 8) (size 9 to 14) (size 15 to 20)
#    0.000    1.667    1.667    4.000    2.333    6.000 
#    0.000    4.167    3.667    0.000    0.000    0.000 
#    0.000    0.000    0.000    0.000    0.000    0.000 
#
# Total GULP energy -133608.117148 kJ/mol
# GULP energy per Si atom -5567.004881 kJ/mol
# Density = 1.954015 g / cm^3
# Si number density = 19.584728 Si / 1000 Ang^3
#
#
#
# Elastic Constant Matrix: (Units=GPa)
#
#
# Indices 1 2 3 4 5 6 
#
# 1 127.4395 55.6793 43.1099 0.0000 0.0000 0.0000
# 2 55.6793 81.7777 12.0777 0.0000 0.0000 0.0000
# 3 43.1099 12.0777 51.9784 0.0000 0.0000 0.0000
# 4 0.0000 0.0000 0.0000 2.0611 0.0000 0.0000
# 5 0.0000 0.0000 0.0000 0.0000 14.5819 0.0000
# 6 0.0000 0.0000 0.0000 0.0000 0.0000 21.6527
#
#
#
# Elastic Compliance Matrix: (Units=1/GPa)
#
#
# Indices 1 2 3 4 5 6 
#
# 1 0.015318 -0.008857 -0.010646 0.000000 0.000000 0.000000
# 2 -0.008857 0.017784 0.003214 0.000000 0.000000 0.000000
# 3 -0.010646 0.003214 0.027322 0.000000 0.000000 0.000000
# 4 0.000000 0.000000 0.000000 0.485169 0.000000 0.000000
# 5 0.000000 0.000000 0.000000 0.000000 0.068578 0.000000
# 6 0.000000 0.000000 0.000000 0.000000 0.000000 0.046184
#
#
# Mechanical properties :
#
#
# Convention : Reuss Voigt Hill
#
# Bulk Modulus (GPa) = 35.91402 53.65882 44.78642
# Shear Modulus (GPa) = 7.12031 17.68105 12.40068
#
# Velocity S-wave (km/s) = 1.90881 3.00792 2.51904
# Velocity P-wave (km/s) = 4.82033 6.28659 5.60164
#
# Compressibility (1/GPa) = 0.02784428
#
# Stress axis : x y z
#
# Youngs Moduli (GPa) = 65.28235 56.22988 36.60044
#
# Poissons Ratio (x) = 0.49803 0.38967
# Poissons Ratio (y) = 0.57821 -0.11762
# Poissons Ratio (z) = 0.69503 -0.18070
#
# Static dielectric constant tensor:
#      x y z
#    x 1.856890 0.000000 0.000000 
#    y 0.000000 1.827620 0.000000 
#    z 0.000000 0.000000 1.666660 
# 
# From -- ./inp_files/6538.got.cif
#   From: 2010.05.17/outbox.cif.g08.bks.cpg/sg17_4_cif.got.tgz:6538.got - 2010.06.03 22:34:06.
