data_PCOD9310341
_publ_section_title
;
Structure prediction by ZEFSAII (Michael W. Deem and Ramdas Pophale) SiO2 
 PCOD9310341
Probable space group: P 2 2 2
;
_chemical_formula_sum "Si O2"
_cell_formula_units_Z 12
_cell_length_a 4.948993
_cell_length_b 18.057429
_cell_length_c 5.369809
_cell_angle_alpha 90.000000
_cell_angle_beta 90.000000
_cell_angle_gamma 90.000000
_cell_volume 479.878833
_symmetry_space_group_name_H-M "P 2 2 2"
_symmetry_group_IT_number 16
_symmetry_cell_setting 'orthorhombic'
loop_
_space_group_symop_operation_xyz
x,y,z
-x,-y,z
x,-y,-z
-x,y,-z
loop_
_atom_site_type_symbol
_atom_site_label
_atom_site_fract_x
_atom_site_fract_y
_atom_site_fract_z
Si Si1 0.000000 0.000000 0.500000
Si Si2 0.500000 0.897486 0.500000
Si Si3 0.345237 0.609031 0.249108
Si Si4 0.825275 0.778367 0.753449
Si Si5 0.000000 0.500000 0.000000
O O1 0.235845 0.943418 0.600943
O O2 0.612443 0.843998 0.714129
O O3 0.500000 0.591673 0.500000
O O4 0.304312 0.697061 0.235277
O O5 0.500000 0.584016 0.000000
O O6 0.079319 0.562575 0.208460
O O7 0.000000 0.778462 0.500000
O O8 0.000000 0.789029 0.000000
#
# Coordination Sequence:
#
# PCOD9310341 Si02
#       5
#     1   2   4   4   1
#     4  10  24  50  82 130 174 220 270 350 434 498
#     4  11  24  48  88 120 179 216 284 341 426 510
#     4  12  28  49  76 114 156 211 280 346 421 492
#     4  12  26  49  84 119 160 215 281 345 414 507
#     4  12  30  50  72 108 176 212 282 354 424 488
#
# _framework density 25.006312999999999
#
# number of rings (size 3 to 8) (size 9 to 14) (size 15 to 20)
#    0.000    0.333    5.000    2.500    0.000    4.000 
#    0.000    0.833    7.333    0.000    0.000    0.000 
#    0.000    0.000    0.000    0.000    0.000    0.000 
#
# Total GULP energy -66936.720682 kJ/mol
# GULP energy per Si atom -5578.060057 kJ/mol
# Density = 2.494940 g / cm^3
# Si number density = 25.006313 Si / 1000 Ang^3
#
#
#
# Elastic Constant Matrix: (Units=GPa)
#
#
# Indices 1 2 3 4 5 6 
#
# 1 89.4764 27.9534 53.3408 0.0000 0.0000 0.0000
# 2 27.9534 156.9629 29.6756 0.0000 0.0000 0.0000
# 3 53.3408 29.6756 210.9905 0.0000 0.0000 0.0000
# 4 0.0000 0.0000 0.0000 -11.2622 0.0000 0.0000
# 5 0.0000 0.0000 0.0000 0.0000 43.6684 0.0000
# 6 0.0000 0.0000 0.0000 0.0000 0.0000 143.1395
#
#
#
# Elastic Compliance Matrix: (Units=1/GPa)
#
#
# Indices 1 2 3 4 5 6 
#
# 1 0.013651 -0.001827 -0.003194 0.000000 0.000000 0.000000
# 2 -0.001827 0.006790 -0.000493 0.000000 0.000000 0.000000
# 3 -0.003194 -0.000493 0.005616 0.000000 0.000000 0.000000
# 4 0.000000 0.000000 0.000000 -0.088793 0.000000 0.000000
# 5 0.000000 0.000000 0.000000 0.000000 0.022900 0.000000
# 6 0.000000 0.000000 0.000000 0.000000 0.000000 0.006986
#
#
# Mechanical properties :
#
#
# Convention : Reuss Voigt Hill
#
# Bulk Modulus (GPa) = 66.54104 75.48550 71.01327
# Shear Modulus (GPa) = -297.41918 58.20648 -119.60635
#
# Velocity S-wave (km/s) = -10.91768 4.82983 -6.92346
# Velocity P-wave (km/s) = 11.50045 7.83295 5.95421
#
# Compressibility (1/GPa) = 0.01502832
#
# Stress axis : x y z
#
# Youngs Moduli (GPa) = 73.25385 147.28518 178.04964
#
# Poissons Ratio (x) = 0.26912 0.56872
# Poissons Ratio (y) = 0.13385 0.08778
# Poissons Ratio (z) = 0.23399 0.07261
#
# Static dielectric constant tensor:
#      x y z
#    x 2.472630 0.000000 0.000000 
#    y 0.000000 2.018310 0.000000 
#    z 0.000000 0.000000 1.955980 
# 
# From -- ./inp_files/128.got.cif
#   From: 2010.05.17/outbox.cif.g08.bks.cpg/sg16_1_cif.got.tgz:128.got - 2010.06.03 22:28:35.
