data_PCOD9310114
_publ_section_title
;
Structure prediction by ZEFSAII (Michael W. Deem and Ramdas Pophale) SiO2 
 PCOD9310114
Probable space group: P 2 2 2
;
_chemical_formula_sum "Si O2"
_cell_formula_units_Z 21
_cell_length_a 9.425064
_cell_length_b 8.250201
_cell_length_c 13.810559
_cell_angle_alpha 90.000000
_cell_angle_beta 90.000000
_cell_angle_gamma 90.000000
_cell_volume 1073.890733
_symmetry_space_group_name_H-M "P 2 2 2"
_symmetry_group_IT_number 16
_symmetry_cell_setting 'orthorhombic'
loop_
_space_group_symop_operation_xyz
x,y,z
-x,-y,z
x,-y,-z
-x,y,-z
loop_
_atom_site_type_symbol
_atom_site_label
_atom_site_fract_x
_atom_site_fract_y
_atom_site_fract_z
Si Si1 0.576142 0.164226 0.100826
Si Si2 0.000000 0.000000 0.500000
Si Si3 0.362152 0.414527 0.731491
Si Si4 0.841195 0.973619 0.135373
Si Si5 0.132051 0.819622 0.324591
Si Si6 0.894689 0.366245 0.804481
O O1 0.583527 0.311706 0.175052
O O2 0.500000 0.000000 0.141029
O O3 0.734397 0.096581 0.084490
O O4 0.500000 0.203962 0.000000
O O5 0.089153 0.889138 0.427205
O O6 0.500000 0.500000 0.688253
O O7 0.273164 0.287409 0.668570
O O8 0.240719 0.541758 0.761710
O O9 0.826704 0.780491 0.134328
O O10 0.836400 0.036953 0.247410
O O11 0.000000 0.000000 0.102369
O O12 0.002642 0.716836 0.274422
O O13 0.000000 0.500000 0.853027
#
# Coordination Sequence:
#
# PCOD9310114 Si02
#       6
#     4   1   4   4   4   4
#     4  10  21  36  55  86 116 153 204 254 295 348
#     4  12  16  36  66  98 120 142 214 278 284 356
#     4  10  20  35  57  87 120 164 197 236 300 380
#     4   9  16  34  57  83 113 154 201 238 289 370
#     4   9  19  32  61  91 115 156 203 244 302 354
#     4   9  16  31  54  87 116 149 205 235 292 364
#
# _framework density 19.555060999999998
#
# number of rings (size 3 to 8) (size 9 to 14) (size 15 to 20)
#    0.000    2.476    2.857    2.286    0.000    0.381 
#    0.000    7.143    0.000    3.429    0.000   28.000 
#    0.000    0.000    0.000    0.000    0.000    0.000 
#
# Total GULP energy -116993.047489 kJ/mol
# GULP energy per Si atom -5571.097499 kJ/mol
# Density = 1.951055 g / cm^3
# Si number density = 19.555061 Si / 1000 Ang^3
#
#
#
# Elastic Constant Matrix: (Units=GPa)
#
#
# Indices 1 2 3 4 5 6 
#
# 1 126.2255 35.6834 23.0145 0.0000 0.0000 0.0000
# 2 35.6834 103.6586 30.9442 0.0000 0.0000 0.0000
# 3 23.0145 30.9442 97.1306 0.0000 0.0000 0.0000
# 4 0.0000 0.0000 0.0000 64.8048 0.0000 0.0000
# 5 0.0000 0.0000 0.0000 0.0000 17.5438 0.0000
# 6 0.0000 0.0000 0.0000 0.0000 0.0000 28.6221
#
#
#
# Elastic Compliance Matrix: (Units=1/GPa)
#
#
# Indices 1 2 3 4 5 6 
#
# 1 0.008912 -0.002694 -0.001254 0.000000 0.000000 0.000000
# 2 -0.002694 0.011475 -0.003018 0.000000 0.000000 0.000000
# 3 -0.001254 -0.003018 0.011554 0.000000 0.000000 0.000000
# 4 0.000000 0.000000 0.000000 0.015431 0.000000 0.000000
# 5 0.000000 0.000000 0.000000 0.000000 0.057000 0.000000
# 6 0.000000 0.000000 0.000000 0.000000 0.000000 0.034938
#
#
# Mechanical properties :
#
#
# Convention : Reuss Voigt Hill
#
# Bulk Modulus (GPa) = 55.51971 56.25543 55.88757
# Shear Modulus (GPa) = 31.39831 38.01897 34.70864
#
# Velocity S-wave (km/s) = 4.01139 4.41409 4.21755
# Velocity P-wave (km/s) = 7.06456 7.40332 7.23592
#
# Compressibility (1/GPa) = 0.01801162
#
# Stress axis : x y z
#
# Youngs Moduli (GPa) = 112.20306 87.14482 86.55185
#
# Poissons Ratio (x) = 0.23475 0.10850
# Poissons Ratio (y) = 0.30225 0.26117
# Poissons Ratio (z) = 0.14065 0.26296
#
# Static dielectric constant tensor:
#      x y z
#    x 1.653390 0.000000 0.000000 
#    y 0.000000 1.777580 0.000000 
#    z 0.000000 0.000000 1.691320 
# 
# From -- ./inp_files/5047.got.cif
#   From: 2010.05.17/outbox.cif.g08.bks.cpg/sg16_3_cif.got.tgz:5047.got - 2010.06.03 22:28:35.
