data_PCOD9310110
_publ_section_title
;
Structure prediction by ZEFSAII (Michael W. Deem and Ramdas Pophale) SiO2 
 PCOD9310110
Probable space group: P 2 2 2
;
_chemical_formula_sum "Si O2"
_cell_formula_units_Z 22
_cell_length_a 8.547463
_cell_length_b 7.117425
_cell_length_c 15.183115
_cell_angle_alpha 90.000000
_cell_angle_beta 90.000000
_cell_angle_gamma 90.000000
_cell_volume 923.678873
_symmetry_space_group_name_H-M "P 2 2 2"
_symmetry_group_IT_number 16
_symmetry_cell_setting 'orthorhombic'
loop_
_space_group_symop_operation_xyz
x,y,z
-x,-y,z
x,-y,-z
-x,y,-z
loop_
_atom_site_type_symbol
_atom_site_label
_atom_site_fract_x
_atom_site_fract_y
_atom_site_fract_z
Si Si1 0.807423 0.723712 0.682623
Si Si2 0.644493 0.726601 0.861942
Si Si3 0.319378 0.271478 0.495703
Si Si4 0.210282 0.000000 0.000000
Si Si5 0.725687 0.303763 0.876001
Si Si6 0.162313 0.270737 0.313538
O O1 0.682630 0.765918 0.759267
O O2 0.759864 0.790065 0.586121
O O3 0.823243 0.497441 0.680387
O O4 0.983447 0.788451 0.699748
O O5 0.738911 0.531314 0.880929
O O6 0.462205 0.712907 0.887484
O O7 0.704115 0.892753 0.922020
O O8 0.313605 0.500000 0.500000
O O9 0.500000 0.217948 0.500000
O O10 0.236989 0.208258 0.405712
O O11 0.161454 0.814592 0.941595
O O12 0.752471 0.228355 0.777404
#
# Coordination Sequence:
#
# PCOD9310110 Si02
#       6
#     4   4   4   2   4   4
#     4   9  17  30  49  76 112 150 185 224 273 329
#     4  10  20  35  56  82 111 144 185 232 279 328
#     4   9  15  25  47  80 113 146 186 227 269 324
#     4  12  23  38  61  84 107 142 189 238 285 332
#     4  10  20  35  56  82 111 144 185 232 279 328
#     4   9  17  30  49  76 112 150 185 224 273 329
#
# _framework density 23.817805
#
# number of rings (size 3 to 8) (size 9 to 14) (size 15 to 20)
#    0.000    2.364    0.000    3.818    0.000    8.000 
#    0.000    2.727    0.000    5.455    0.000    6.364 
#    0.000    0.000    0.000    0.000    0.000    2.545 
#
# Total GULP energy -122664.518492 kJ/mol
# GULP energy per Si atom -5575.659931 kJ/mol
# Density = 2.376359 g / cm^3
# Si number density = 23.817805 Si / 1000 Ang^3
#
#
#
# Elastic Constant Matrix: (Units=GPa)
#
#
# Indices 1 2 3 4 5 6 
#
# 1 44.4333 2.1144 12.5548 0.0000 0.0000 0.0000
# 2 2.1144 125.1243 28.0192 0.0000 0.0000 0.0000
# 3 12.5548 28.0192 141.8906 0.0000 0.0000 0.0000
# 4 0.0000 0.0000 0.0000 -557.2305 0.0000 0.0000
# 5 0.0000 0.0000 0.0000 0.0000 20.7303 0.0000
# 6 0.0000 0.0000 0.0000 0.0000 0.0000 -18.2249
#
#
#
# Elastic Compliance Matrix: (Units=1/GPa)
#
#
# Indices 1 2 3 4 5 6 
#
# 1 0.023083 0.000070 -0.002056 0.000000 0.000000 0.000000
# 2 0.000070 0.008362 -0.001657 0.000000 0.000000 0.000000
# 3 -0.002056 -0.001657 0.007557 0.000000 0.000000 0.000000
# 4 0.000000 0.000000 0.000000 -0.001795 0.000000 0.000000
# 5 0.000000 0.000000 0.000000 0.000000 0.048239 0.000000
# 6 0.000000 0.000000 0.000000 0.000000 0.000000 -0.054870
#
#
# Mechanical properties :
#
#
# Convention : Reuss Voigt Hill
#
# Bulk Modulus (GPa) = 31.53039 44.09166 37.81102
# Shear Modulus (GPa) = 103.23120 -93.02770 5.10175
#
# Velocity S-wave (km/s) = 6.59061 -6.25642 1.46514
# Velocity P-wave (km/s) = 8.43693 5.79985 4.33264
#
# Compressibility (1/GPa) = 0.03171544
#
# Stress axis : x y z
#
# Youngs Moduli (GPa) = 43.32127 119.58826 132.32875
#
# Poissons Ratio (x) = -0.00842 0.27212
# Poissons Ratio (y) = -0.00305 0.21933
# Poissons Ratio (z) = 0.08908 0.19822
#
# Static dielectric constant tensor:
#      x y z
#    x 2.234740 0.000000 0.000000 
#    y 0.000000 1.925490 0.000000 
#    z 0.000000 0.000000 1.885550 
# 
# From -- ./inp_files/7847.got.cif
#   From: 2010.05.17/outbox.cif.g08.bks.cpg/sg16_4_cif.got.tgz:7847.got - 2010.06.03 22:28:35.
