data_PCOD9310804
_publ_section_title
;
Structure prediction by ZEFSAII (Michael W. Deem and Ramdas Pophale) SiO2 
 PCOD9310804
Probable space group: P 2 2 21
;
_chemical_formula_sum "Si O2"
_cell_formula_units_Z 32
_cell_length_a 5.496762
_cell_length_b 8.723171
_cell_length_c 30.355459
_cell_angle_alpha 90.000000
_cell_angle_beta 90.000000
_cell_angle_gamma 90.000000
_cell_volume 1455.519819
_symmetry_space_group_name_H-M "P 2 2 21"
_symmetry_group_IT_number 17
_symmetry_cell_setting 'orthorhombic'
loop_
_space_group_symop_operation_xyz
x,y,z
-x,-y,1/2+z
x,-y,-z
-x,y,1/2-z
loop_
_atom_site_type_symbol
_atom_site_label
_atom_site_fract_x
_atom_site_fract_y
_atom_site_fract_z
Si Si1 0.924346 0.486567 0.633347
Si Si2 0.047986 0.244336 0.701940
Si Si3 0.505069 0.829006 0.506198
Si Si4 0.641445 0.223451 0.590860
Si Si5 0.272367 0.312772 0.418741
Si Si6 0.465995 0.922377 0.179737
Si Si7 0.352824 0.235782 0.153527
Si Si8 0.912428 0.060842 0.425674
O O1 0.073957 0.370974 0.663896
O O2 0.712860 0.384132 0.611786
O O3 0.818297 0.621445 0.664448
O O4 0.066837 0.565456 0.592945
O O5 0.799058 0.149200 0.691484
O O6 0.000000 0.313848 0.750000
O O7 0.295364 0.145168 0.703173
O O8 0.520910 0.769064 0.456490
O O9 0.412275 0.685160 0.535451
O O10 0.751984 0.878270 0.533140
O O11 0.383920 0.000000 0.500000
O O12 0.499591 0.127287 0.628233
O O13 0.881999 0.119681 0.580156
O O14 0.431655 0.307802 0.375009
O O15 0.170637 0.139708 0.425314
O O16 0.448891 0.105655 0.185994
O O17 0.203743 0.135761 0.117991
#
# Coordination Sequence:
#
# PCOD9310804 Si02
#       8
#     4   4   4   4   4   4   4   4
#     4  10  23  39  65  97 133 180 217 281 356 428
#     4  11  25  47  76 104 135 170 227 285 350 418
#     4   9  18  36  55  87 124 173 235 288 322 380
#     4   9  19  38  59  89 129 169 229 273 338 396
#     4  10  20  36  62  88 128 178 231 275 342 401
#     4  10  23  43  73 101 129 176 226 279 334 415
#     4   9  20  38  62  92 131 172 217 273 334 405
#     4   8  17  35  55  85 118 169 226 281 314 381
#
# _framework density 21.985272999999999
#
# number of rings (size 3 to 8) (size 9 to 14) (size 15 to 20)
#    0.000    2.500    0.000    1.125   10.500    1.500 
#    4.500    7.500    2.750    0.000    0.000    0.000 
#    0.000    0.000    0.000    0.000    0.000    0.000 
#
# Total GULP energy -178186.827533 kJ/mol
# GULP energy per Si atom -5568.338360 kJ/mol
# Density = 2.193523 g / cm^3
# Si number density = 21.985273 Si / 1000 Ang^3
#
#
#
# Elastic Constant Matrix: (Units=GPa)
#
#
# Indices 1 2 3 4 5 6 
#
# 1 39.7441 23.9228 -3.8536 0.0000 0.0000 0.0000
# 2 23.9228 108.6445 9.2732 0.0000 0.0000 0.0000
# 3 -3.8536 9.2732 53.0422 0.0000 0.0000 0.0000
# 4 0.0000 0.0000 0.0000 14.0526 0.0000 0.0000
# 5 0.0000 0.0000 0.0000 0.0000 31.5936 0.0000
# 6 0.0000 0.0000 0.0000 0.0000 0.0000 124.0519
#
#
#
# Elastic Compliance Matrix: (Units=1/GPa)
#
#
# Indices 1 2 3 4 5 6 
#
# 1 0.029576 -0.006797 0.003337 0.000000 0.000000 0.000000
# 2 -0.006797 0.010906 -0.002400 0.000000 0.000000 0.000000
# 3 0.003337 -0.002400 0.019515 0.000000 0.000000 0.000000
# 4 0.000000 0.000000 0.000000 0.071161 0.000000 0.000000
# 5 0.000000 0.000000 0.000000 0.000000 0.031652 0.000000
# 6 0.000000 0.000000 0.000000 0.000000 0.000000 0.008061
#
#
# Mechanical properties :
#
#
# Convention : Reuss Voigt Hill
#
# Bulk Modulus (GPa) = 20.71438 28.90171 24.80805
# Shear Modulus (GPa) = 25.16554 45.41219 35.28887
#
# Velocity S-wave (km/s) = 3.38694 4.54979 4.01073
# Velocity P-wave (km/s) = 4.97369 6.38555 5.72332
#
# Compressibility (1/GPa) = 0.04827564
#
# Stress axis : x y z
#
# Youngs Moduli (GPa) = 33.81122 91.69316 51.24260
#
# Poissons Ratio (x) = 0.62326 -0.17100
# Poissons Ratio (y) = 0.22982 0.12301
# Poissons Ratio (z) = -0.11283 0.22011
#
# Static dielectric constant tensor:
#      x y z
#    x 2.056550 0.000000 0.000000 
#    y 0.000000 1.806010 0.000000 
#    z 0.000000 0.000000 1.907860 
# 
# From -- ./inp_files/11193.got.cif
#   From: 2010.05.17/outbox.cif.g08.bks.cpg/sg17_6_cif.got.tgz:11193.got - 2010.06.03 22:34:06.
