data_PCOD9310792
_publ_section_title
;
Structure prediction by ZEFSAII (Michael W. Deem and Ramdas Pophale) SiO2 
 PCOD9310792
Probable space group: P 2 2 21
;
_chemical_formula_sum "Si O2"
_cell_formula_units_Z 16
_cell_length_a 13.419150
_cell_length_b 13.830864
_cell_length_c 5.078413
_cell_angle_alpha 90.000000
_cell_angle_beta 90.000000
_cell_angle_gamma 90.000000
_cell_volume 942.545524
_symmetry_space_group_name_H-M "P 2 2 21"
_symmetry_group_IT_number 17
_symmetry_cell_setting 'orthorhombic'
loop_
_space_group_symop_operation_xyz
x,y,z
-x,-y,1/2+z
x,-y,-z
-x,y,1/2-z
loop_
_atom_site_type_symbol
_atom_site_label
_atom_site_fract_x
_atom_site_fract_y
_atom_site_fract_z
Si Si1 0.382923 0.704618 0.180761
Si Si2 0.884853 0.069137 0.249905
Si Si3 0.431747 0.000000 0.500000
Si Si4 0.693442 0.812837 0.828711
Si Si5 0.430515 0.500000 0.000000
O O1 0.500000 0.714443 0.250000
O O2 0.320481 0.736907 0.434722
O O3 0.369893 0.593333 0.093890
O O4 0.356100 0.771532 0.934526
O O5 0.805921 0.155040 0.232420
O O6 0.000000 0.101858 0.250000
O O7 0.866505 0.000000 0.500000
O O8 0.871299 0.000000 0.000000
O O9 0.364543 0.909136 0.579902
O O10 0.500000 0.025317 0.750000
O O11 0.500000 0.471328 0.250000
#
# Coordination Sequence:
#
# PCOD9310792 Si02
#       5
#     4   4   2   4   2
#     4  11  22  36  53  79 110 143 181 220 264 320
#     4  10  21  38  56  75 103 142 187 231 265 306
#     4  12  24  32  46  72 112 150 174 198 252 322
#     4  12  22  35  53  78 108 146 180 219 265 318
#     4  10  20  36  56  76 106 146 186 228 268 304
#
# _framework density 16.975306
#
# number of rings (size 3 to 8) (size 9 to 14) (size 15 to 20)
#    0.000    1.000    1.250    9.000    1.750    0.000 
#    0.000    0.000    0.000    0.000    0.000    3.500 
#    0.000    2.000    0.000    0.000    0.000    0.000 
#
# Total GULP energy -89459.702573 kJ/mol
# GULP energy per Si atom -5591.231411 kJ/mol
# Density = 1.693667 g / cm^3
# Si number density = 16.975306 Si / 1000 Ang^3
#
#
#
# Elastic Constant Matrix: (Units=GPa)
#
#
# Indices 1 2 3 4 5 6 
#
# 1 99.8550 66.6095 49.7068 0.0000 0.0000 0.0000
# 2 66.6095 94.6529 41.4746 0.0000 0.0000 0.0000
# 3 49.7068 41.4746 142.3875 0.0000 0.0000 0.0000
# 4 0.0000 0.0000 0.0000 31.7661 0.0000 0.0000
# 5 0.0000 0.0000 0.0000 0.0000 25.2690 0.0000
# 6 0.0000 0.0000 0.0000 0.0000 0.0000 9.2908
#
#
#
# Elastic Compliance Matrix: (Units=1/GPa)
#
#
# Indices 1 2 3 4 5 6 
#
# 1 0.020165 -0.012731 -0.003331 0.000000 0.000000 0.000000
# 2 -0.012731 0.020148 -0.001424 0.000000 0.000000 0.000000
# 3 -0.003331 -0.001424 0.008601 0.000000 0.000000 0.000000
# 4 0.000000 0.000000 0.000000 0.031480 0.000000 0.000000
# 5 0.000000 0.000000 0.000000 0.000000 0.039574 0.000000
# 6 0.000000 0.000000 0.000000 0.000000 0.000000 0.107634
#
#
# Mechanical properties :
#
#
# Convention : Reuss Voigt Hill
#
# Bulk Modulus (GPa) = 71.73169 72.49749 72.11459
# Shear Modulus (GPa) = 18.71098 25.20547 21.95822
#
# Velocity S-wave (km/s) = 3.32361 3.85753 3.60048
# Velocity P-wave (km/s) = 7.55492 7.91461 7.73685
#
# Compressibility (1/GPa) = 0.01394084
#
# Stress axis : x y z
#
# Youngs Moduli (GPa) = 49.59043 49.63227 116.26649
#
# Poissons Ratio (x) = 0.63187 0.38732
# Poissons Ratio (y) = 0.63134 0.16561
# Poissons Ratio (z) = 0.16520 0.07070
#
# Static dielectric constant tensor:
#      x y z
#    x 1.584590 0.000000 0.000000 
#    y 0.000000 1.577370 0.000000 
#    z 0.000000 0.000000 1.581950 
# 
# From -- ./inp_files/1227.got.cif
#   From: 2010.05.17/outbox.cif.g08.bks.cpg/sg17_1_cif.got.tgz:1227.got - 2010.06.03 22:34:06.
