data_PCOD9310551
_publ_section_title
;
Structure prediction by ZEFSAII (Michael W. Deem and Ramdas Pophale) SiO2 
 PCOD9310551
Probable space group: P 2 2 21
;
_chemical_formula_sum "Si O2"
_cell_formula_units_Z 20
_cell_length_a 11.466637
_cell_length_b 15.587201
_cell_length_c 5.955827
_cell_angle_alpha 90.000000
_cell_angle_beta 90.000000
_cell_angle_gamma 90.000000
_cell_volume 1064.501491
_symmetry_space_group_name_H-M "P 2 2 21"
_symmetry_group_IT_number 17
_symmetry_cell_setting 'orthorhombic'
loop_
_space_group_symop_operation_xyz
x,y,z
-x,-y,1/2+z
x,-y,-z
-x,y,1/2-z
loop_
_atom_site_type_symbol
_atom_site_label
_atom_site_fract_x
_atom_site_fract_y
_atom_site_fract_z
Si Si1 0.375590 0.417426 0.637295
Si Si2 0.378036 0.748367 0.670534
Si Si3 0.941834 0.000000 0.000000
Si Si4 0.165000 0.184431 0.568071
Si Si5 0.000000 0.700904 0.750000
Si Si6 0.796206 0.317587 0.548178
O O1 0.336493 0.500000 0.500000
O O2 0.500000 0.438587 0.750000
O O3 0.400719 0.336806 0.475813
O O4 0.272307 0.386595 0.801653
O O5 0.500000 0.785798 0.750000
O O6 0.296645 0.808814 0.522470
O O7 0.300948 0.718548 0.879954
O O8 0.874334 0.086912 0.935528
O O9 0.000000 0.979717 0.750000
O O10 0.081941 0.239029 0.402831
O O11 0.161834 0.237069 0.800394
O O12 0.908573 0.650936 0.591784
#
# Coordination Sequence:
#
# PCOD9310551 Si02
#       6
#     4   4   2   4   2   4
#     4  11  22  35  59  96 123 155 207 271 323 379
#     4  10  20  38  60  89 124 166 204 250 318 387
#     4  12  24  40  66  98 132 160 220 286 336 378
#     4  10  22  36  63  94 122 164 209 261 316 383
#     4  10  18  38  58  92 116 166 204 252 310 388
#     4  10  21  36  61  92 122 160 211 254 318 385
#
# _framework density 18.788136000000002
#
# number of rings (size 3 to 8) (size 9 to 14) (size 15 to 20)
#    0.000    1.600    3.000    2.400    2.800    0.000 
#    0.000    0.000    4.400    0.000  187.200    0.000 
#    0.000    0.000    0.000    0.000    0.000    0.000 
#
# Total GULP energy -111522.938795 kJ/mol
# GULP energy per Si atom -5576.146940 kJ/mol
# Density = 1.874537 g / cm^3
# Si number density = 18.788136 Si / 1000 Ang^3
#
#
#
# Elastic Constant Matrix: (Units=GPa)
#
#
# Indices 1 2 3 4 5 6 
#
# 1 119.8156 27.5044 47.6508 0.0000 0.0000 0.0000
# 2 27.5044 66.7156 22.9340 0.0000 0.0000 0.0000
# 3 47.6508 22.9340 94.9959 0.0000 0.0000 0.0000
# 4 0.0000 0.0000 0.0000 3.2032 0.0000 0.0000
# 5 0.0000 0.0000 0.0000 0.0000 22.9829 0.0000
# 6 0.0000 0.0000 0.0000 0.0000 0.0000 -126.4675
#
#
#
# Elastic Compliance Matrix: (Units=1/GPa)
#
#
# Indices 1 2 3 4 5 6 
#
# 1 0.010902 -0.002851 -0.004780 0.000000 0.000000 0.000000
# 2 -0.002851 0.017091 -0.002696 0.000000 0.000000 0.000000
# 3 -0.004780 -0.002696 0.013575 0.000000 0.000000 0.000000
# 4 0.000000 0.000000 0.000000 0.312186 0.000000 0.000000
# 5 0.000000 0.000000 0.000000 0.000000 0.043511 0.000000
# 6 0.000000 0.000000 0.000000 0.000000 0.000000 -0.007907
#
#
# Mechanical properties :
#
#
# Convention : Reuss Voigt Hill
#
# Bulk Modulus (GPa) = 47.81532 53.07838 50.44685
# Shear Modulus (GPa) = 11.99089 -7.82710 2.08190
#
# Velocity S-wave (km/s) = 2.52903 -2.04329 1.05380
# Velocity P-wave (km/s) = 5.83378 4.76924 5.32816
#
# Compressibility (1/GPa) = 0.02091380
#
# Stress axis : x y z
#
# Youngs Moduli (GPa) = 91.72885 58.50958 73.66289
#
# Poissons Ratio (x) = 0.16682 0.35211
# Poissons Ratio (y) = 0.26154 0.19859
# Poissons Ratio (z) = 0.43847 0.15774
#
# Static dielectric constant tensor:
#      x y z
#    x 1.677450 0.000000 0.000000 
#    y 0.000000 1.599020 0.000000 
#    z 0.000000 0.000000 1.809020 
# 
# From -- ./inp_files/1545.got.cif
#   From: 2010.05.17/outbox.cif.g08.bks.cpg/sg17_1_cif.got.tgz:1545.got - 2010.06.03 22:34:06.
