data_PCOD9310026
_publ_section_title
;
Structure prediction by ZEFSAII (Michael W. Deem and Ramdas Pophale) SiO2 
 PCOD9310026
Probable space group: P 2 2 2
;
_chemical_formula_sum "Si O2"
_cell_formula_units_Z 32
_cell_length_a 24.935724
_cell_length_b 5.046843
_cell_length_c 12.883788
_cell_angle_alpha 90.000000
_cell_angle_beta 90.000000
_cell_angle_gamma 90.000000
_cell_volume 1621.381999
_symmetry_space_group_name_H-M "P 2 2 2"
_symmetry_group_IT_number 16
_symmetry_cell_setting 'orthorhombic'
loop_
_space_group_symop_operation_xyz
x,y,z
-x,-y,z
x,-y,-z
-x,y,-z
loop_
_atom_site_type_symbol
_atom_site_label
_atom_site_fract_x
_atom_site_fract_y
_atom_site_fract_z
Si Si1 0.775186 0.249771 0.432055
Si Si2 0.559258 0.419290 0.836478
Si Si3 0.885808 0.512975 0.623167
Si Si4 0.060107 0.239397 0.050191
Si Si5 0.670846 0.005648 0.329381
Si Si6 0.060605 0.017708 0.284032
Si Si7 0.373860 0.070567 0.888871
Si Si8 0.602727 0.490286 0.615085
O O1 0.754384 0.500000 0.500000
O O2 0.824641 0.384968 0.372272
O O3 0.727591 0.114456 0.367693
O O4 0.796440 0.000000 0.500000
O O5 0.500000 0.500000 0.868452
O O6 0.602728 0.633956 0.877077
O O7 0.564315 0.422197 0.711076
O O8 0.576249 0.130629 0.874409
O O9 0.900054 0.500000 0.500000
O O10 0.899198 0.218250 0.659816
O O11 0.917830 0.720978 0.696075
O O12 0.055337 0.155797 0.169936
O O13 0.084892 0.500000 0.000000
O O14 0.000000 0.244753 0.000000
O O15 0.091873 0.000000 0.000000
O O16 0.665967 0.002328 0.205164
O O17 0.627236 0.221779 0.364314
O O18 0.650828 0.726816 0.375946
O O19 0.000000 0.000000 0.326409
O O20 0.350043 0.000000 0.000000
O O21 0.579227 0.500000 0.500000
#
# Coordination Sequence:
#
# PCOD9310026 Si02
#       8
#     4   4   4   4   4   4   4   4
#     4  11  21  38  62  85 115 153 190 233 295 353
#     4  10  21  34  50  76 110 150 195 233 281 351
#     4  11  25  40  55  85 125 158 194 234 282 358
#     4  10  19  34  58  86 111 137 194 248 285 324
#     4  10  20  34  57  84 106 138 187 241 285 344
#     4  12  23  38  62  87 117 162 198 237 290 338
#     4  10  21  36  54  79 109 144 190 242 295 336
#     4  10  19  32  51  80 112 139 183 239 288 342
#
# _framework density 19.736248
#
# number of rings (size 3 to 8) (size 9 to 14) (size 15 to 20)
#    0.000    1.500    1.250    6.000    1.750    3.250 
#    0.000    0.000    0.000    6.750    0.000    1.750 
#    0.000    0.000    0.000    0.000    0.000    0.000 
#
# Total GULP energy -178317.470607 kJ/mol
# GULP energy per Si atom -5572.420956 kJ/mol
# Density = 1.969133 g / cm^3
# Si number density = 19.736248 Si / 1000 Ang^3
#
#
#
# Elastic Constant Matrix: (Units=GPa)
#
#
# Indices 1 2 3 4 5 6 
#
# 1 57.8728 -2.1227 -0.8493 0.0000 0.0000 0.0000
# 2 -2.1227 108.4887 7.4504 0.0000 0.0000 0.0000
# 3 -0.8493 7.4504 100.5431 0.0000 0.0000 0.0000
# 4 0.0000 0.0000 0.0000 41.7334 0.0000 0.0000
# 5 0.0000 0.0000 0.0000 0.0000 -2.0264 0.0000
# 6 0.0000 0.0000 0.0000 0.0000 0.0000 14.9623
#
#
#
# Elastic Compliance Matrix: (Units=1/GPa)
#
#
# Indices 1 2 3 4 5 6 
#
# 1 0.017293 0.000330 0.000122 0.000000 0.000000 0.000000
# 2 0.000330 0.009271 -0.000684 0.000000 0.000000 0.000000
# 3 0.000122 -0.000684 0.009998 0.000000 0.000000 0.000000
# 4 0.000000 0.000000 0.000000 0.023962 0.000000 0.000000
# 5 0.000000 0.000000 0.000000 0.000000 -0.493483 0.000000
# 6 0.000000 0.000000 0.000000 0.000000 0.000000 0.066835
#
#
# Mechanical properties :
#
#
# Convention : Reuss Voigt Hill
#
# Bulk Modulus (GPa) = 27.70334 30.65126 29.17730
# Shear Modulus (GPa) = -14.13916 28.42894 7.14489
#
# Velocity S-wave (km/s) = -2.67948 3.79943 1.90474
# Velocity P-wave (km/s) = 2.12001 5.90015 4.43318
#
# Compressibility (1/GPa) = 0.03609673
#
# Stress axis : x y z
#
# Youngs Moduli (GPa) = 57.82632 107.86335 100.02288
#
# Poissons Ratio (x) = -0.03560 -0.01216
# Poissons Ratio (y) = -0.01908 0.06844
# Poissons Ratio (z) = -0.00703 0.07380
#
# Static dielectric constant tensor:
#      x y z
#    x 1.612940 0.000000 0.000000 
#    y 0.000000 1.678340 0.000000 
#    z 0.000000 0.000000 1.885230 
# 
# From -- ./inp_files/7366.got.cif
#   From: 2010.05.17/outbox.cif.g08.bks.cpg/sg16_4_cif.got.tgz:7366.got - 2010.06.03 22:28:35.
