data_PCOD9310894
_publ_section_title
;
Structure prediction by ZEFSAII (Michael W. Deem and Ramdas Pophale) SiO2 
 PCOD9310894
Probable space group: P 2 2 21
;
_chemical_formula_sum "Si O2"
_cell_formula_units_Z 24
_cell_length_a 10.000492
_cell_length_b 12.413130
_cell_length_c 9.649007
_cell_angle_alpha 90.000000
_cell_angle_beta 90.000000
_cell_angle_gamma 90.000000
_cell_volume 1197.802712
_symmetry_space_group_name_H-M "P 2 2 21"
_symmetry_group_IT_number 17
_symmetry_cell_setting 'orthorhombic'
loop_
_space_group_symop_operation_xyz
x,y,z
-x,-y,1/2+z
x,-y,-z
-x,y,1/2-z
loop_
_atom_site_type_symbol
_atom_site_label
_atom_site_fract_x
_atom_site_fract_y
_atom_site_fract_z
Si Si1 0.155004 0.976740 0.784115
Si Si2 0.498371 0.765408 0.405514
Si Si3 0.593373 0.917210 0.886085
Si Si4 0.799777 0.185067 0.532300
Si Si5 0.108858 0.585475 0.127570
Si Si6 0.408241 0.541052 0.151639
O O1 0.262421 0.957527 0.663332
O O2 0.000000 0.978501 0.750000
O O3 0.185484 0.092230 0.852637
O O4 0.172050 0.877868 0.890948
O O5 0.500000 0.816547 0.250000
O O6 0.397943 0.811434 0.518282
O O7 0.645428 0.780600 0.467766
O O8 0.487906 0.639241 0.378344
O O9 0.500000 0.906958 0.750000
O O10 0.531811 0.000000 0.000000
O O11 0.884404 0.292428 0.565297
O O12 0.257253 0.569089 0.196032
O O13 0.000000 0.575587 0.250000
O O14 0.088407 0.500000 0.000000
O O15 0.500000 0.467341 0.250000
O O16 0.382390 0.500000 0.000000
#
# Coordination Sequence:
#
# PCOD9310894 Si02
#       6
#     4   4   4   4   4   4
#     4  11  24  39  58  89 127 168 206 248 312 380
#     4  10  20  39  62  89 120 160 210 257 314 371
#     4  12  23  37  61  90 118 162 207 258 303 369
#     4  10  21  42  62  85 131 166 202 260 315 372
#     4  10  22  42  68  93 123 166 211 259 314 374
#     4   9  20  39  61  90 122 157 203 258 318 376
#
# _framework density 20.036688999999999
#
# number of rings (size 3 to 8) (size 9 to 14) (size 15 to 20)
#    0.000    1.667    1.667    3.000    2.333    2.000 
#   12.000    0.000    0.000    0.000    0.000    0.000 
#    0.000    0.000    0.000    0.000    0.000    0.000 
#
# Total GULP energy -133648.337849 kJ/mol
# GULP energy per Si atom -5568.680744 kJ/mol
# Density = 1.999108 g / cm^3
# Si number density = 20.036689 Si / 1000 Ang^3
#
#
#
# Elastic Constant Matrix: (Units=GPa)
#
#
# Indices 1 2 3 4 5 6 
#
# 1 78.1119 11.2477 38.6514 0.0000 0.0000 0.0000
# 2 11.2477 70.8526 31.7649 0.0000 0.0000 0.0000
# 3 38.6514 31.7649 99.0932 0.0000 0.0000 0.0000
# 4 0.0000 0.0000 0.0000 29.7144 0.0000 0.0000
# 5 0.0000 0.0000 0.0000 0.0000 30.4296 0.0000
# 6 0.0000 0.0000 0.0000 0.0000 0.0000 14.6679
#
#
#
# Elastic Compliance Matrix: (Units=1/GPa)
#
#
# Indices 1 2 3 4 5 6 
#
# 1 0.015869 0.000299 -0.006286 0.000000 0.000000 0.000000
# 2 0.000299 0.016488 -0.005402 0.000000 0.000000 0.000000
# 3 -0.006286 -0.005402 0.014275 0.000000 0.000000 0.000000
# 4 0.000000 0.000000 0.000000 0.033654 0.000000 0.000000
# 5 0.000000 0.000000 0.000000 0.000000 0.032863 0.000000
# 6 0.000000 0.000000 0.000000 0.000000 0.000000 0.068176
#
#
# Mechanical properties :
#
#
# Convention : Reuss Voigt Hill
#
# Bulk Modulus (GPa) = 41.92023 45.70954 43.81489
# Shear Modulus (GPa) = 23.57889 26.05530 24.81710
#
# Velocity S-wave (km/s) = 3.43415 3.60999 3.52317
# Velocity P-wave (km/s) = 6.05737 6.34338 6.20202
#
# Compressibility (1/GPa) = 0.02385483
#
# Stress axis : x y z
#
# Youngs Moduli (GPa) = 63.01433 60.64948 70.05320
#
# Poissons Ratio (x) = -0.01812 0.44033
# Poissons Ratio (y) = -0.01883 0.37842
# Poissons Ratio (z) = 0.39609 0.32762
#
# Static dielectric constant tensor:
#      x y z
#    x 1.689620 0.000000 0.000000 
#    y 0.000000 1.893180 0.000000 
#    z 0.000000 0.000000 1.737950 
# 
# From -- ./inp_files/4784.got.cif
#   From: 2010.05.17/outbox.cif.g08.bks.cpg/sg17_3_cif.got.tgz:4784.got - 2010.06.03 22:34:06.
