data_PCOD9310506
_publ_section_title
;
Structure prediction by ZEFSAII (Michael W. Deem and Ramdas Pophale) SiO2 
 PCOD9310506
Probable space group: P 2 2 21
;
_chemical_formula_sum "Si O2"
_cell_formula_units_Z 22
_cell_length_a 16.519571
_cell_length_b 15.677394
_cell_length_c 5.341932
_cell_angle_alpha 90.000000
_cell_angle_beta 90.000000
_cell_angle_gamma 90.000000
_cell_volume 1383.473973
_symmetry_space_group_name_H-M "P 2 2 21"
_symmetry_group_IT_number 17
_symmetry_cell_setting 'orthorhombic'
loop_
_space_group_symop_operation_xyz
x,y,z
-x,-y,1/2+z
x,-y,-z
-x,y,1/2-z
loop_
_atom_site_type_symbol
_atom_site_label
_atom_site_fract_x
_atom_site_fract_y
_atom_site_fract_z
Si Si1 0.902746 0.248094 0.213208
Si Si2 0.404799 0.588703 0.750938
Si Si3 0.336173 0.603320 0.251215
Si Si4 0.849218 0.655475 0.295978
Si Si5 0.045215 0.500000 0.000000
Si Si6 0.901668 0.048412 0.247355
O O1 0.858519 0.288501 0.453570
O O2 0.881447 0.147901 0.219122
O O3 0.000000 0.254944 0.250000
O O4 0.879587 0.294869 0.952425
O O5 0.500000 0.569574 0.750000
O O6 0.377923 0.636380 0.501976
O O7 0.356592 0.498378 0.749912
O O8 0.378550 0.636185 0.000797
O O9 0.241888 0.623304 0.247387
O O10 0.903130 0.573483 0.365820
O O11 0.000000 0.536776 0.750000
O O12 0.000000 0.044476 0.250000
O O13 0.874498 0.000000 0.500000
O O14 0.873026 0.000000 0.000000
#
# Coordination Sequence:
#
# PCOD9310506 Si02
#       6
#     4   4   4   4   2   4
#     4  11  22  36  51  69  95 127 166 209 253 294
#     4  10  18  32  50  68  86 113 160 204 242 285
#     4  10  19  30  45  65  88 115 150 195 237 282
#     4  12  23  35  47  66  95 130 169 210 249 279
#     4  12  24  36  48  60  84 130 188 228 244 264
#     4   9  17  31  52  74  91 111 148 200 252 304
#
# _framework density 15.901998000000001
#
# number of rings (size 3 to 8) (size 9 to 14) (size 15 to 20)
#    0.000    1.455    0.000    9.273    0.000    5.818 
#    0.000    0.000    0.000    0.000    0.000    0.000 
#    0.000    0.000    0.000    0.000    0.000  374.545 
#
# Total GULP energy -122622.729032 kJ/mol
# GULP energy per Si atom -5573.760411 kJ/mol
# Density = 1.586580 g / cm^3
# Si number density = 15.901998 Si / 1000 Ang^3
#
#
#
# Elastic Constant Matrix: (Units=GPa)
#
#
# Indices 1 2 3 4 5 6 
#
# 1 95.8699 39.1972 53.4458 0.0000 0.0000 0.0000
# 2 39.1972 96.3231 58.7098 0.0000 0.0000 0.0000
# 3 53.4458 58.7098 195.4309 0.0000 0.0000 0.0000
# 4 0.0000 0.0000 0.0000 24.6552 0.0000 0.0000
# 5 0.0000 0.0000 0.0000 0.0000 21.8880 0.0000
# 6 0.0000 0.0000 0.0000 0.0000 0.0000 13.0412
#
#
#
# Elastic Compliance Matrix: (Units=1/GPa)
#
#
# Indices 1 2 3 4 5 6 
#
# 1 0.013432 -0.003950 -0.002487 0.000000 0.000000 0.000000
# 2 -0.003950 0.013871 -0.003087 0.000000 0.000000 0.000000
# 3 -0.002487 -0.003087 0.006724 0.000000 0.000000 0.000000
# 4 0.000000 0.000000 0.000000 0.040559 0.000000 0.000000
# 5 0.000000 0.000000 0.000000 0.000000 0.045687 0.000000
# 6 0.000000 0.000000 0.000000 0.000000 0.000000 0.076680
#
#
# Mechanical properties :
#
#
# Convention : Reuss Voigt Hill
#
# Bulk Modulus (GPa) = 66.75671 76.70328 71.73000
# Shear Modulus (GPa) = 22.62507 27.66828 25.14668
#
# Velocity S-wave (km/s) = 3.77607 4.17577 3.98094
# Velocity P-wave (km/s) = 7.81555 8.46103 8.14469
#
# Compressibility (1/GPa) = 0.01497977
#
# Stress axis : x y z
#
# Youngs Moduli (GPa) = 74.44780 72.09512 148.71716
#
# Poissons Ratio (x) = 0.28480 0.36981
# Poissons Ratio (y) = 0.29410 0.45902
# Poissons Ratio (z) = 0.18513 0.22252
#
# Static dielectric constant tensor:
#      x y z
#    x 1.524870 0.000000 0.000000 
#    y 0.000000 1.641290 0.000000 
#    z 0.000000 0.000000 1.411520 
# 
# From -- ./inp_files/2139.got.cif
#   From: 2010.05.17/outbox.cif.g08.bks.cpg/sg17_2_cif.got.tgz:2139.got - 2010.06.03 22:34:06.
