data_PCOD9310808
_publ_section_title
;
Structure prediction by ZEFSAII (Michael W. Deem and Ramdas Pophale) SiO2 
 PCOD9310808
Probable space group: P 2 2 21
;
_chemical_formula_sum "Si O2"
_cell_formula_units_Z 32
_cell_length_a 11.305221
_cell_length_b 9.776715
_cell_length_c 13.940523
_cell_angle_alpha 90.000000
_cell_angle_beta 90.000000
_cell_angle_gamma 90.000000
_cell_volume 1540.817063
_symmetry_space_group_name_H-M "P 2 2 21"
_symmetry_group_IT_number 17
_symmetry_cell_setting 'orthorhombic'
loop_
_space_group_symop_operation_xyz
x,y,z
-x,-y,1/2+z
x,-y,-z
-x,y,1/2-z
loop_
_atom_site_type_symbol
_atom_site_label
_atom_site_fract_x
_atom_site_fract_y
_atom_site_fract_z
Si Si1 0.944915 0.201143 0.907478
Si Si2 0.496167 0.622092 0.935468
Si Si3 0.173292 0.634031 0.067849
Si Si4 0.326252 0.490894 0.224796
Si Si5 0.728505 0.391175 0.933707
Si Si6 0.191055 0.209616 0.224115
Si Si7 0.321587 0.143975 0.050002
Si Si8 0.955208 0.105531 0.125347
O O1 0.817410 0.273186 0.900195
O O2 0.049526 0.309814 0.890276
O O3 0.962835 0.056444 0.854737
O O4 0.955998 0.149517 0.016384
O O5 0.440689 0.571423 0.832676
O O6 0.625401 0.359971 0.012916
O O7 0.440170 0.769481 0.950981
O O8 0.443091 0.500000 0.000000
O O9 0.263551 0.599472 0.154137
O O10 0.157629 0.500000 0.000000
O O11 0.228611 0.755106 0.002893
O O12 0.330253 0.548735 0.334684
O O13 0.235528 0.363617 0.228035
O O14 0.801534 0.500000 0.000000
O O15 0.282863 0.126896 0.159919
O O16 0.167378 0.155754 0.329458
O O17 0.066672 0.183690 0.171202
O O18 0.326058 0.000000 0.000000
#
# Coordination Sequence:
#
# PCOD9310808 Si02
#       8
#     4   4   4   4   4   4   4   4
#     4  11  23  39  59  96 141 179 210 270 336 405
#     4  10  21  45  65  93 122 172 225 272 331 380
#     4  12  20  38  69 101 134 168 222 277 332 394
#     4  11  22  41  70 100 125 169 228 286 321 389
#     4  11  26  42  64  97 133 175 223 277 343 398
#     4  10  20  36  63  93 128 176 223 259 321 409
#     4  11  20  37  65  99 126 165 228 283 326 384
#     4  10  21  38  58  89 140 189 211 253 340 410
#
# _framework density 20.768203
#
# number of rings (size 3 to 8) (size 9 to 14) (size 15 to 20)
#    0.000    1.250    5.000    1.875    0.000    7.500 
#    2.250    0.000    0.000    0.000    6.500    0.000 
#    0.000    0.000    0.000    0.000    0.000    0.000 
#
# Total GULP energy -178144.993750 kJ/mol
# GULP energy per Si atom -5567.031055 kJ/mol
# Density = 2.072093 g / cm^3
# Si number density = 20.768203 Si / 1000 Ang^3
#
#
#
# Elastic Constant Matrix: (Units=GPa)
#
#
# Indices 1 2 3 4 5 6 
#
# 1 104.9729 44.2087 35.6017 0.0000 0.0000 0.0000
# 2 44.2087 99.4808 32.6604 0.0000 0.0000 0.0000
# 3 35.6017 32.6604 91.7304 0.0000 0.0000 0.0000
# 4 0.0000 0.0000 0.0000 8.9645 0.0000 0.0000
# 5 0.0000 0.0000 0.0000 0.0000 26.2791 0.0000
# 6 0.0000 0.0000 0.0000 0.0000 0.0000 -33.4700
#
#
#
# Elastic Compliance Matrix: (Units=1/GPa)
#
#
# Indices 1 2 3 4 5 6 
#
# 1 0.012525 -0.004496 -0.003261 0.000000 0.000000 0.000000
# 2 -0.004496 0.012996 -0.002882 0.000000 0.000000 0.000000
# 3 -0.003261 -0.002882 0.013193 0.000000 0.000000 0.000000
# 4 0.000000 0.000000 0.000000 0.111551 0.000000 0.000000
# 5 0.000000 0.000000 0.000000 0.000000 0.038053 0.000000
# 6 0.000000 0.000000 0.000000 0.000000 0.000000 -0.029877
#
#
# Mechanical properties :
#
#
# Convention : Reuss Voigt Hill
#
# Bulk Modulus (GPa) = 57.34765 57.90287 57.62526
# Shear Modulus (GPa) = 26.94953 12.60227 19.77590
#
# Velocity S-wave (km/s) = 3.60618 2.46602 3.08915
# Velocity P-wave (km/s) = 6.70913 6.00411 6.36639
#
# Compressibility (1/GPa) = 0.01743751
#
# Stress axis : x y z
#
# Youngs Moduli (GPa) = 79.83737 76.94418 75.79618
#
# Poissons Ratio (x) = 0.34592 0.24714
# Poissons Ratio (y) = 0.35893 0.21848
# Poissons Ratio (z) = 0.26032 0.22179
#
# Static dielectric constant tensor:
#      x y z
#    x 1.826890 0.000000 0.000000 
#    y 0.000000 1.761090 0.000000 
#    z 0.000000 0.000000 1.835660 
# 
# From -- ./inp_files/8555.got.cif
#   From: 2010.05.17/outbox.cif.g08.bks.cpg/sg17_5_cif.got.tgz:8555.got - 2010.06.03 22:34:06.
