data_PCOD9310165
_publ_section_title
;
Structure prediction by ZEFSAII (Michael W. Deem and Ramdas Pophale) SiO2 
 PCOD9310165
Probable space group: P 2 2 2
;
_chemical_formula_sum "Si O2"
_cell_formula_units_Z 19
_cell_length_a 16.962830
_cell_length_b 6.434636
_cell_length_c 7.706464
_cell_angle_alpha 90.000000
_cell_angle_beta 90.000000
_cell_angle_gamma 90.000000
_cell_volume 841.157745
_symmetry_space_group_name_H-M "P 2 2 2"
_symmetry_group_IT_number 16
_symmetry_cell_setting 'orthorhombic'
loop_
_space_group_symop_operation_xyz
x,y,z
-x,-y,z
x,-y,-z
-x,y,-z
loop_
_atom_site_type_symbol
_atom_site_label
_atom_site_fract_x
_atom_site_fract_y
_atom_site_fract_z
Si Si1 0.855015 0.500000 0.000000
Si Si2 0.500000 0.000000 0.500000
Si Si3 0.500000 0.000000 0.000000
Si Si4 0.200398 0.000000 0.500000
Si Si5 0.568771 0.327284 0.754028
Si Si6 0.000000 0.500000 0.500000
Si Si7 0.257989 0.387710 0.321193
Si Si8 0.930072 0.829166 0.763363
O O1 0.801429 0.436430 0.835018
O O2 0.904463 0.702302 0.936221
O O3 0.554080 0.162623 0.601326
O O4 0.441771 0.166336 0.089148
O O5 0.254434 0.154387 0.390435
O O6 0.142804 0.075381 0.655894
O O7 0.500000 0.500000 0.756169
O O8 0.653122 0.435139 0.737716
O O9 0.955712 0.650829 0.629972
O O10 0.234782 0.500000 0.500000
O O11 0.000000 0.000000 0.783390
#
# Coordination Sequence:
#
# PCOD9310165 Si02
#       8
#     2   1   1   2   4   1   4   4
#     4  12  30  51  79 122 154 196 274 320 401 480
#     4  10  20  42  68 114 144 190 280 302 370 480
#     4  10  26  42  68 108 160 186 284 310 376 460
#     4  12  24  52  78 108 158 208 254 322 412 462
#     4  11  24  44  75 109 151 210 260 320 388 458
#     4  12  22  50  84 110 150 200 264 318 384 470
#     4  12  27  50  78 111 164 206 258 328 397 468
#     4  12  26  51  81 114 152 207 262 326 394 481
#
# _framework density 22.587917000000001
#
# number of rings (size 3 to 8) (size 9 to 14) (size 15 to 20)
#    0.000    0.421    4.211    3.789    2.947    4.632 
#    3.789    0.000    0.000    0.000    0.000    0.000 
#    0.000    0.000    0.000    0.000    0.000    0.000 
#
# Total GULP energy -106062.748137 kJ/mol
# GULP energy per Si atom -5582.249902 kJ/mol
# Density = 2.253651 g / cm^3
# Si number density = 22.587917 Si / 1000 Ang^3
#
#
#
# Elastic Constant Matrix: (Units=GPa)
#
#
# Indices 1 2 3 4 5 6 
#
# 1 129.4695 56.8527 54.5039 0.0000 0.0000 0.0000
# 2 56.8527 116.7251 47.6952 0.0000 0.0000 0.0000
# 3 54.5039 47.6952 135.3548 0.0000 0.0000 0.0000
# 4 0.0000 0.0000 0.0000 77.9704 0.0000 0.0000
# 5 0.0000 0.0000 0.0000 0.0000 186.7259 0.0000
# 6 0.0000 0.0000 0.0000 0.0000 0.0000 36.9429
#
#
#
# Elastic Compliance Matrix: (Units=1/GPa)
#
#
# Indices 1 2 3 4 5 6 
#
# 1 0.010714 -0.004037 -0.002892 0.000000 0.000000 0.000000
# 2 -0.004037 0.011529 -0.002437 0.000000 0.000000 0.000000
# 3 -0.002892 -0.002437 0.009411 0.000000 0.000000 0.000000
# 4 0.000000 0.000000 0.000000 0.012825 0.000000 0.000000
# 5 0.000000 0.000000 0.000000 0.000000 0.005355 0.000000
# 6 0.000000 0.000000 0.000000 0.000000 0.000000 0.027069
#
#
# Mechanical properties :
#
#
# Convention : Reuss Voigt Hill
#
# Bulk Modulus (GPa) = 77.38117 77.73923 77.56020
# Shear Modulus (GPa) = 50.02883 75.16100 62.59492
#
# Velocity S-wave (km/s) = 4.71132 5.77470 5.26990
# Velocity P-wave (km/s) = 7.99547 8.88560 8.45226
#
# Compressibility (1/GPa) = 0.01292304
#
# Stress axis : x y z
#
# Youngs Moduli (GPa) = 93.33764 86.73712 106.25673
#
# Poissons Ratio (x) = 0.35013 0.30727
# Poissons Ratio (y) = 0.37678 0.25895
# Poissons Ratio (z) = 0.26991 0.21138
#
# Static dielectric constant tensor:
#      x y z
#    x 1.760520 0.000000 0.000000 
#    y 0.000000 -1.507740 0.000000 
#    z 0.000000 0.000000 1.891800 
# 
# From -- ./inp_files/943.got.cif
#   From: 2010.05.17/outbox.cif.g08.bks.cpg/sg16_1_cif.got.tgz:943.got - 2010.06.03 22:28:35.
