data_PCOD9310885
_publ_section_title
;
Structure prediction by ZEFSAII (Michael W. Deem and Ramdas Pophale) SiO2 
 PCOD9310885
Probable space group: P 2 2 21
;
_chemical_formula_sum "Si O2"
_cell_formula_units_Z 24
_cell_length_a 8.424044
_cell_length_b 8.851843
_cell_length_c 16.250338
_cell_angle_alpha 90.000000
_cell_angle_beta 90.000000
_cell_angle_gamma 90.000000
_cell_volume 1211.760321
_symmetry_space_group_name_H-M "P 2 2 21"
_symmetry_group_IT_number 17
_symmetry_cell_setting 'orthorhombic'
loop_
_space_group_symop_operation_xyz
x,y,z
-x,-y,1/2+z
x,-y,-z
-x,y,1/2-z
loop_
_atom_site_type_symbol
_atom_site_label
_atom_site_fract_x
_atom_site_fract_y
_atom_site_fract_z
Si Si1 0.658675 0.000000 0.000000
Si Si2 0.369423 0.512262 0.145205
Si Si3 0.500000 0.077762 0.250000
Si Si4 0.603507 0.863952 0.381709
Si Si5 0.681592 0.644644 0.820578
Si Si6 0.916889 0.236116 0.057187
Si Si7 0.147693 0.000000 0.000000
Si Si8 0.116569 0.500000 0.000000
O O1 0.766772 0.141653 0.025337
O O2 0.549337 0.930296 0.071226
O O3 0.400902 0.690965 0.145019
O O4 0.315296 0.447021 0.234197
O O5 0.540161 0.434156 0.126935
O O6 0.234034 0.480172 0.077849
O O7 0.389147 0.190664 0.300973
O O8 0.613586 0.971769 0.303244
O O9 0.744050 0.889986 0.446181
O O10 0.848352 0.668769 0.865970
O O11 0.045738 0.101664 0.063113
O O12 0.000212 0.355955 0.996893
#
# Coordination Sequence:
#
# PCOD9310885 Si02
#       8
#     2   4   2   4   4   4   2   2
#     4  10  24  40  70  98 130 174 232 272 326 394
#     4  10  24  42  65 100 127 175 224 272 328 397
#     4  10  20  38  68  96 124 172 222 268 332 378
#     4  11  21  42  69  97 127 176 222 280 321 406
#     4  10  24  43  68  96 131 172 231 274 326 400
#     4  11  24  44  63 100 132 176 219 277 338 398
#     4  10  24  42  68  98 136 168 228 274 344 400
#     4  12  26  40  70  90 138 174 214 272 348 394
#
# _framework density 19.805897000000002
#
# number of rings (size 3 to 8) (size 9 to 14) (size 15 to 20)
#    0.000    1.667    3.333    1.000    9.333    0.667 
#    0.000    0.000    3.667    0.000    0.000    0.000 
#    0.000    0.000    0.000    0.000    0.000    0.000 
#
# Total GULP energy -133795.308096 kJ/mol
# GULP energy per Si atom -5574.804504 kJ/mol
# Density = 1.976082 g / cm^3
# Si number density = 19.805897 Si / 1000 Ang^3
#
#
#
# Elastic Constant Matrix: (Units=GPa)
#
#
# Indices 1 2 3 4 5 6 
#
# 1 101.0063 47.2521 49.3198 0.0000 0.0000 0.0000
# 2 47.2521 144.7553 42.2958 0.0000 0.0000 0.0000
# 3 49.3198 42.2958 67.5723 0.0000 0.0000 0.0000
# 4 0.0000 0.0000 0.0000 28.5015 0.0000 0.0000
# 5 0.0000 0.0000 0.0000 0.0000 24.2802 0.0000
# 6 0.0000 0.0000 0.0000 0.0000 0.0000 -378.7969
#
#
#
# Elastic Compliance Matrix: (Units=1/GPa)
#
#
# Indices 1 2 3 4 5 6 
#
# 1 0.015939 -0.002207 -0.010252 0.000000 0.000000 0.000000
# 2 -0.002207 0.008760 -0.003872 0.000000 0.000000 0.000000
# 3 -0.010252 -0.003872 0.024705 0.000000 0.000000 0.000000
# 4 0.000000 0.000000 0.000000 0.035086 0.000000 0.000000
# 5 0.000000 0.000000 0.000000 0.000000 0.041186 0.000000
# 6 0.000000 0.000000 0.000000 0.000000 0.000000 -0.002640
#
#
# Mechanical properties :
#
#
# Convention : Reuss Voigt Hill
#
# Bulk Modulus (GPa) = 59.73143 65.67436 62.70290
# Shear Modulus (GPa) = 31.00217 -53.57196 -11.28489
#
# Velocity S-wave (km/s) = 3.96068 -5.20646 -2.38958
# Velocity P-wave (km/s) = 7.15121 1.70645 4.91060
#
# Compressibility (1/GPa) = 0.01674160
#
# Stress axis : x y z
#
# Youngs Moduli (GPa) = 62.74001 114.15311 40.47734
#
# Poissons Ratio (x) = 0.25199 0.41496
# Poissons Ratio (y) = 0.13849 0.15673
# Poissons Ratio (z) = 0.64319 0.44201
#
# Static dielectric constant tensor:
#      x y z
#    x 1.711420 0.000000 0.000000 
#    y 0.000000 1.704490 0.000000 
#    z 0.000000 0.000000 1.754500 
# 
# From -- ./inp_files/9450.got.cif
#   From: 2010.05.17/outbox.cif.g08.bks.cpg/sg17_5_cif.got.tgz:9450.got - 2010.06.03 22:34:06.
