data_PCOD9310828
_publ_section_title
;
Structure prediction by ZEFSAII (Michael W. Deem and Ramdas Pophale) SiO2 
 PCOD9310828
Probable space group: P 2 2 21
;
_chemical_formula_sum "Si O2"
_cell_formula_units_Z 18
_cell_length_a 9.594405
_cell_length_b 7.367138
_cell_length_c 14.002880
_cell_angle_alpha 90.000000
_cell_angle_beta 90.000000
_cell_angle_gamma 90.000000
_cell_volume 989.769847
_symmetry_space_group_name_H-M "P 2 2 21"
_symmetry_group_IT_number 17
_symmetry_cell_setting 'orthorhombic'
loop_
_space_group_symop_operation_xyz
x,y,z
-x,-y,1/2+z
x,-y,-z
-x,y,1/2-z
loop_
_atom_site_type_symbol
_atom_site_label
_atom_site_fract_x
_atom_site_fract_y
_atom_site_fract_z
Si Si1 0.844468 0.312660 0.215965
Si Si2 0.742075 0.283737 0.005131
Si Si3 0.647456 0.972173 0.698857
Si Si4 0.149557 0.743562 0.297248
Si Si5 0.492562 0.000000 0.000000
O O1 0.816902 0.250939 0.106693
O O2 0.736941 0.207756 0.282856
O O3 0.825816 0.529498 0.220291
O O4 0.000000 0.269980 0.250000
O O5 0.598781 0.170793 0.003120
O O6 0.715372 0.500000 0.000000
O O7 0.833566 0.231180 0.911881
O O8 0.500000 0.951120 0.750000
O O9 0.606908 0.007919 0.590738
O O10 0.734266 0.134461 0.746747
O O11 0.000000 0.788594 0.250000
#
# Coordination Sequence:
#
# PCOD9310828 Si02
#       5
#     4   4   4   4   2
#     4  10  22  40  63  89 119 156 198 245 296 350
#     4  10  20  37  61  85 119 159 194 238 298 356
#     4  12  23  38  61  87 121 153 197 243 291 349
#     4  10  22  40  63  89 119 156 198 245 296 350
#     4  12  24  38  56  92 120 156 198 240 292 354
#
# _framework density 18.186048
#
# number of rings (size 3 to 8) (size 9 to 14) (size 15 to 20)
#    0.000    1.333    4.444    0.667    0.000    4.444 
#    0.000    2.222    0.000    0.000    0.000    0.000 
#    0.000    0.000    0.000    0.000    0.000    0.000 
#
# Total GULP energy -100513.900641 kJ/mol
# GULP energy per Si atom -5584.105591 kJ/mol
# Density = 1.814466 g / cm^3
# Si number density = 18.186048 Si / 1000 Ang^3
#
#
#
# Elastic Constant Matrix: (Units=GPa)
#
#
# Indices 1 2 3 4 5 6 
#
# 1 99.9868 30.4361 7.0348 0.0000 0.0000 0.0000
# 2 30.4361 52.9702 1.6655 0.0000 0.0000 0.0000
# 3 7.0348 1.6655 65.0857 0.0000 0.0000 0.0000
# 4 0.0000 0.0000 0.0000 16.7804 0.0000 0.0000
# 5 0.0000 0.0000 0.0000 0.0000 33.8132 0.0000
# 6 0.0000 0.0000 0.0000 0.0000 0.0000 -349.2705
#
#
#
# Elastic Compliance Matrix: (Units=1/GPa)
#
#
# Indices 1 2 3 4 5 6 
#
# 1 0.012205 -0.006977 -0.001141 0.000000 0.000000 0.000000
# 2 -0.006977 0.022882 0.000169 0.000000 0.000000 0.000000
# 3 -0.001141 0.000169 0.015483 0.000000 0.000000 0.000000
# 4 0.000000 0.000000 0.000000 0.059593 0.000000 0.000000
# 5 0.000000 0.000000 0.000000 0.000000 0.029574 0.000000
# 6 0.000000 0.000000 0.000000 0.000000 0.000000 -0.002863
#
#
# Mechanical properties :
#
#
# Convention : Reuss Voigt Hill
#
# Bulk Modulus (GPa) = 28.84138 32.92395 30.88266
# Shear Modulus (GPa) = 30.42627 -47.80829 -8.69101
#
# Velocity S-wave (km/s) = 4.09474 -5.13279 -2.18845
# Velocity P-wave (km/s) = 6.18460 4.12118 3.26077
#
# Compressibility (1/GPa) = 0.03467241
#
# Stress axis : x y z
#
# Youngs Moduli (GPa) = 81.93052 43.70187 64.58561
#
# Poissons Ratio (x) = 0.30492 0.07367
# Poissons Ratio (y) = 0.57165 -0.01089
# Poissons Ratio (z) = 0.09346 -0.00737
#
# Static dielectric constant tensor:
#      x y z
#    x 1.573760 0.000000 0.000000 
#    y 0.000000 1.636360 0.000000 
#    z 0.000000 0.000000 1.761720 
# 
# From -- ./inp_files/6372.got.cif
#   From: 2010.05.17/outbox.cif.g08.bks.cpg/sg17_4_cif.got.tgz:6372.got - 2010.06.03 22:34:06.
