data_PCOD9310915
_publ_section_title
;
Structure prediction by ZEFSAII (Michael W. Deem and Ramdas Pophale) SiO2 
 PCOD9310915
Probable space group: P 2 2 21
;
_chemical_formula_sum "Si O2"
_cell_formula_units_Z 32
_cell_length_a 12.598188
_cell_length_b 13.177457
_cell_length_c 8.928601
_cell_angle_alpha 90.000000
_cell_angle_beta 90.000000
_cell_angle_gamma 90.000000
_cell_volume 1482.255629
_symmetry_space_group_name_H-M "P 2 2 21"
_symmetry_group_IT_number 17
_symmetry_cell_setting 'orthorhombic'
loop_
_space_group_symop_operation_xyz
x,y,z
-x,-y,1/2+z
x,-y,-z
-x,y,1/2-z
loop_
_atom_site_type_symbol
_atom_site_label
_atom_site_fract_x
_atom_site_fract_y
_atom_site_fract_z
Si Si1 0.301369 0.932918 0.869843
Si Si2 0.941836 0.290750 0.610325
Si Si3 0.146594 0.616455 0.545048
Si Si4 0.264716 0.318591 0.720964
Si Si5 0.380052 0.882314 0.311319
Si Si6 0.504378 0.811929 0.928701
Si Si7 0.599762 0.615212 0.469278
Si Si8 0.792975 0.277228 0.347157
O O1 0.403218 0.884994 0.955506
O O2 0.248849 0.833041 0.798700
O O3 0.339850 0.010124 0.743653
O O4 0.244368 0.000000 0.000000
O O5 0.845810 0.348336 0.696374
O O6 0.877560 0.243878 0.473822
O O7 0.000000 0.234475 0.750000
O O8 0.033467 0.352353 0.525707
O O9 0.160417 0.500000 0.500000
O O10 0.240652 0.669993 0.452372
O O11 0.157886 0.654009 0.715511
O O12 0.299073 0.202800 0.749044
O O13 0.356949 0.381275 0.799562
O O14 0.500000 0.865535 0.250000
O O15 0.397685 0.863648 0.487663
O O16 0.500000 0.800543 0.750000
O O17 0.487711 0.700766 0.000146
O O18 0.569544 0.500000 0.500000
O O19 0.698526 0.657192 0.573185
#
# Coordination Sequence:
#
# PCOD9310915 Si02
#       8
#     4   4   4   4   4   4   4   4
#     4  11  22  40  68  97 130 175 231 293 348 402
#     4   9  20  39  66  94 134 176 218 275 340 406
#     4  11  23  40  66 104 135 177 227 281 347 418
#     4  10  22  40  62  94 134 170 227 283 334 409
#     4  12  22  43  68  92 129 181 230 285 344 407
#     4  11  25  40  58  94 128 165 234 291 331 405
#     4  10  20  40  60  83 128 186 218 267 352 410
#     4  10  22  39  65 101 141 170 225 293 343 408
#
# _framework density 21.588718
#
# number of rings (size 3 to 8) (size 9 to 14) (size 15 to 20)
#    0.000    1.500    2.500    3.000    3.500    5.000 
#    2.250    0.000    0.000   16.500    0.000    0.000 
#    0.000    0.000    0.000    0.000    0.000    0.000 
#
# Total GULP energy -178355.662435 kJ/mol
# GULP energy per Si atom -5573.614451 kJ/mol
# Density = 2.153958 g / cm^3
# Si number density = 21.588718 Si / 1000 Ang^3
#
#
#
# Elastic Constant Matrix: (Units=GPa)
#
#
# Indices 1 2 3 4 5 6 
#
# 1 47.1040 28.7992 30.5679 0.0000 0.0000 0.0000
# 2 28.7992 140.7837 28.1935 0.0000 0.0000 0.0000
# 3 30.5679 28.1935 114.8135 0.0000 0.0000 0.0000
# 4 0.0000 0.0000 0.0000 24.2554 0.0000 0.0000
# 5 0.0000 0.0000 0.0000 0.0000 33.5453 0.0000
# 6 0.0000 0.0000 0.0000 0.0000 0.0000 7.3598
#
#
#
# Elastic Compliance Matrix: (Units=1/GPa)
#
#
# Indices 1 2 3 4 5 6 
#
# 1 0.028107 -0.004471 -0.006385 0.000000 0.000000 0.000000
# 2 -0.004471 0.008182 -0.000819 0.000000 0.000000 0.000000
# 3 -0.006385 -0.000819 0.010611 0.000000 0.000000 0.000000
# 4 0.000000 0.000000 0.000000 0.041228 0.000000 0.000000
# 5 0.000000 0.000000 0.000000 0.000000 0.029810 0.000000
# 6 0.000000 0.000000 0.000000 0.000000 0.000000 0.135873
#
#
# Mechanical properties :
#
#
# Convention : Reuss Voigt Hill
#
# Bulk Modulus (GPa) = 42.46382 53.09136 47.77759
# Shear Modulus (GPa) = 17.54321 27.37481 22.45901
#
# Velocity S-wave (km/s) = 2.85372 3.56478 3.22889
# Velocity P-wave (km/s) = 5.52906 6.44896 6.00665
#
# Compressibility (1/GPa) = 0.02354946
#
# Stress axis : x y z
#
# Youngs Moduli (GPa) = 35.57855 122.22489 94.24325
#
# Poissons Ratio (x) = 0.54646 0.60177
# Poissons Ratio (y) = 0.15907 0.07716
# Poissons Ratio (z) = 0.22718 0.10007
#
# Static dielectric constant tensor:
#      x y z
#    x 1.837100 0.000000 0.000000 
#    y 0.000000 1.782420 0.000000 
#    z 0.000000 0.000000 1.894970 
# 
# From -- ./inp_files/5251.got.cif
#   From: 2010.05.17/outbox.cif.g08.bks.cpg/sg17_3_cif.got.tgz:5251.got - 2010.06.03 22:34:06.
