data_PCOD9310325
_publ_section_title
;
Structure prediction by ZEFSAII (Michael W. Deem and Ramdas Pophale) SiO2 
 PCOD9310325
Probable space group: P 2 2 2
;
_chemical_formula_sum "Si O2"
_cell_formula_units_Z 20
_cell_length_a 8.635939
_cell_length_b 9.540564
_cell_length_c 11.653647
_cell_angle_alpha 90.000000
_cell_angle_beta 90.000000
_cell_angle_gamma 90.000000
_cell_volume 960.164122
_symmetry_space_group_name_H-M "P 2 2 2"
_symmetry_group_IT_number 16
_symmetry_cell_setting 'orthorhombic'
loop_
_space_group_symop_operation_xyz
x,y,z
-x,-y,z
x,-y,-z
-x,y,-z
loop_
_atom_site_type_symbol
_atom_site_label
_atom_site_fract_x
_atom_site_fract_y
_atom_site_fract_z
Si Si1 0.814067 0.021992 0.369139
Si Si2 0.500000 0.500000 0.500000
Si Si3 0.000000 0.000000 0.000000
Si Si4 0.500000 0.000000 0.000000
Si Si5 0.253194 0.844569 0.846343
Si Si6 0.314067 0.521992 0.869139
Si Si7 0.753194 0.655431 0.653657
Si Si8 0.000000 0.500000 0.500000
O O1 0.765567 0.178552 0.335492
O O2 0.763902 0.000000 0.500000
O O3 0.745271 0.913580 0.278661
O O4 0.000000 0.000000 0.364922
O O5 0.605320 0.597067 0.582580
O O6 0.105320 0.097067 0.082580
O O7 0.396374 0.901415 0.920348
O O8 0.265567 0.678552 0.835492
O O9 0.500000 0.500000 0.864922
O O10 0.245271 0.413580 0.778661
O O11 0.263902 0.500000 0.000000
O O12 0.896374 0.598585 0.579652
#
# Coordination Sequence:
#
# PCOD9310325 Si02
#       8
#     4   1   1   1   4   4   4   1
#     4  11  26  45  71 102 143 183 235 283 350 415
#     4  10  24  46  72 102 140 186 238 288 348 410
#     4  10  24  46  72 102 140 186 238 288 348 410
#     4  10  24  42  72  98 144 194 230 284 352 406
#     4  11  25  45  72 101 145 184 236 289 347 417
#     4  11  26  45  71 102 143 183 235 283 350 415
#     4  11  25  45  72 101 145 184 236 289 347 417
#     4  10  24  42  72  98 144 194 230 284 352 406
#
# _framework density 20.829771000000001
#
# number of rings (size 3 to 8) (size 9 to 14) (size 15 to 20)
#    0.000    1.200    2.000    2.400   16.800    0.000 
#    0.000    0.000    0.000    0.000    0.000    0.000 
#    0.000    0.000    0.000    0.000    0.000    0.000 
#
# Total GULP energy -111963.776862 kJ/mol
# GULP energy per Si atom -5598.188843 kJ/mol
# Density = 2.078236 g / cm^3
# Si number density = 20.829771 Si / 1000 Ang^3
#
#
#
# Elastic Constant Matrix: (Units=GPa)
#
#
# Indices 1 2 3 4 5 6 
#
# 1 75.2906 40.1355 44.5943 0.0000 0.0000 0.0000
# 2 40.1355 220.3934 101.1246 0.0000 0.0000 0.0000
# 3 44.5943 101.1246 211.9330 0.0000 0.0000 0.0000
# 4 0.0000 0.0000 0.0000 -0.2230 0.0000 0.0000
# 5 0.0000 0.0000 0.0000 0.0000 68.0158 0.0000
# 6 0.0000 0.0000 0.0000 0.0000 0.0000 9.7045
#
#
#
# Elastic Compliance Matrix: (Units=1/GPa)
#
#
# Indices 1 2 3 4 5 6 
#
# 1 0.015664 -0.001716 -0.002477 0.000000 0.000000 0.000000
# 2 -0.001716 0.005997 -0.002501 0.000000 0.000000 0.000000
# 3 -0.002477 -0.002501 0.006433 0.000000 0.000000 0.000000
# 4 0.000000 0.000000 0.000000 -4.485016 0.000000 0.000000
# 5 0.000000 0.000000 0.000000 0.000000 0.014702 0.000000
# 6 0.000000 0.000000 0.000000 0.000000 0.000000 0.103045
#
#
# Mechanical properties :
#
#
# Convention : Reuss Voigt Hill
#
# Bulk Modulus (GPa) = 67.99660 97.70286 82.84973
# Shear Modulus (GPa) = -1.15717 36.95030 17.89657
#
# Velocity S-wave (km/s) = -0.74615 4.21636 2.93436
# Velocity P-wave (km/s) = 5.65442 8.40897 7.16531
#
# Compressibility (1/GPa) = 0.01470662
#
# Stress axis : x y z
#
# Youngs Moduli (GPa) = 63.84148 166.74609 155.45232
#
# Poissons Ratio (x) = 0.28612 0.38509
# Poissons Ratio (y) = 0.10954 0.38871
# Poissons Ratio (z) = 0.15815 0.41695
#
# Static dielectric constant tensor:
#      x y z
#    x 1.770070 0.000000 0.000000 
#    y 0.000000 1.596090 0.000000 
#    z 0.000000 0.000000 1.720090 
# 
# From -- ./inp_files/6434.got.cif
#   From: 2010.05.17/outbox.cif.g08.bks.cpg/sg16_4_cif.got.tgz:6434.got - 2010.06.03 22:28:35.
