data_PCOD9310798
_publ_section_title
;
Structure prediction by ZEFSAII (Michael W. Deem and Ramdas Pophale) SiO2 
 PCOD9310798
Probable space group: P 2 2 21
;
_chemical_formula_sum "Si O2"
_cell_formula_units_Z 24
_cell_length_a 15.035287
_cell_length_b 7.731000
_cell_length_c 9.550987
_cell_angle_alpha 90.000000
_cell_angle_beta 90.000000
_cell_angle_gamma 90.000000
_cell_volume 1110.185753
_symmetry_space_group_name_H-M "P 2 2 21"
_symmetry_group_IT_number 17
_symmetry_cell_setting 'orthorhombic'
loop_
_space_group_symop_operation_xyz
x,y,z
-x,-y,1/2+z
x,-y,-z
-x,y,1/2-z
loop_
_atom_site_type_symbol
_atom_site_label
_atom_site_fract_x
_atom_site_fract_y
_atom_site_fract_z
Si Si1 0.788351 0.325644 0.426847
Si Si2 0.236991 0.115570 0.814839
Si Si3 0.063611 0.884360 0.878093
Si Si4 0.571978 0.460669 0.146600
Si Si5 0.229250 0.536885 0.342367
Si Si6 0.589465 0.952077 0.834701
O O1 0.758199 0.500000 0.500000
O O2 0.740820 0.184323 0.527083
O O3 0.892917 0.284885 0.446456
O O4 0.781865 0.374031 0.262649
O O5 0.200566 0.283641 0.729280
O O6 0.153630 0.984365 0.827306
O O7 0.321867 0.031043 0.737935
O O8 0.000000 0.851567 0.750000
O O9 0.021288 0.000000 0.000000
O O10 0.500000 0.530400 0.250000
O O11 0.664505 0.559429 0.147742
O O12 0.590829 0.258078 0.171967
O O13 0.528596 0.500000 0.000000
O O14 0.195810 0.500000 0.500000
O O15 0.500000 0.005774 0.750000
O O16 0.586092 0.000000 0.000000
#
# Coordination Sequence:
#
# PCOD9310798 Si02
#       6
#     4   4   4   4   4   4
#     4   9  20  40  62  86 119 160 201 244 303 369
#     4  10  22  40  62  88 123 161 202 252 307 372
#     4  10  22  40  63  90 120 157 202 252 308 368
#     4  10  22  37  53  78 113 151 197 249 301 361
#     4  10  20  36  59  87 118 157 202 249 300 359
#     4  11  24  39  60  89 121 160 208 260 314 373
#
# _framework density 21.618003000000002
#
# number of rings (size 3 to 8) (size 9 to 14) (size 15 to 20)
#    0.000    2.000    0.000    3.000    0.000   11.333 
#    0.000    8.333    0.000    1.000    0.000    0.000 
#    0.000    0.000    0.000    0.000    0.000    0.000 
#
# Total GULP energy -133713.581630 kJ/mol
# GULP energy per Si atom -5571.399235 kJ/mol
# Density = 2.156880 g / cm^3
# Si number density = 21.618003 Si / 1000 Ang^3
#
#
#
# Elastic Constant Matrix: (Units=GPa)
#
#
# Indices 1 2 3 4 5 6 
#
# 1 41.5202 4.7438 17.1006 0.0000 0.0000 0.0000
# 2 4.7438 80.2958 16.0571 0.0000 0.0000 0.0000
# 3 17.1006 16.0571 137.4135 0.0000 0.0000 0.0000
# 4 0.0000 0.0000 0.0000 25.1128 0.0000 0.0000
# 5 0.0000 0.0000 0.0000 0.0000 43.3631 0.0000
# 6 0.0000 0.0000 0.0000 0.0000 0.0000 4.5450
#
#
#
# Elastic Compliance Matrix: (Units=1/GPa)
#
#
# Indices 1 2 3 4 5 6 
#
# 1 0.025448 -0.000891 -0.003063 0.000000 0.000000 0.000000
# 2 -0.000891 0.012783 -0.001383 0.000000 0.000000 0.000000
# 3 -0.003063 -0.001383 0.007820 0.000000 0.000000 0.000000
# 4 0.000000 0.000000 0.000000 0.039820 0.000000 0.000000
# 5 0.000000 0.000000 0.000000 0.000000 0.023061 0.000000
# 6 0.000000 0.000000 0.000000 0.000000 0.000000 0.220022
#
#
# Mechanical properties :
#
#
# Convention : Reuss Voigt Hill
#
# Bulk Modulus (GPa) = 28.26626 37.22583 32.74605
# Shear Modulus (GPa) = 14.22798 29.35937 21.79368
#
# Velocity S-wave (km/s) = 2.56824 3.68924 3.17854
# Velocity P-wave (km/s) = 4.67955 5.95017 5.35269
#
# Compressibility (1/GPa) = 0.03537787
#
# Stress axis : x y z
#
# Youngs Moduli (GPa) = 39.29592 78.22810 127.87650
#
# Poissons Ratio (x) = 0.06970 0.39166
# Poissons Ratio (y) = 0.03501 0.17684
# Poissons Ratio (z) = 0.12035 0.10818
#
# Static dielectric constant tensor:
#      x y z
#    x 1.759940 0.000000 0.000000 
#    y 0.000000 1.936460 0.000000 
#    z 0.000000 0.000000 1.824960 
# 
# From -- ./inp_files/5110.got.cif
#   From: 2010.05.17/outbox.cif.g08.bks.cpg/sg17_3_cif.got.tgz:5110.got - 2010.06.03 22:34:06.
