data_PCOD9310723
_publ_section_title
;
Structure prediction by ZEFSAII (Michael W. Deem and Ramdas Pophale) SiO2 
 PCOD9310723
Probable space group: P 2 2 21
;
_chemical_formula_sum "Si O2"
_cell_formula_units_Z 24
_cell_length_a 9.290342
_cell_length_b 7.426947
_cell_length_c 15.828786
_cell_angle_alpha 90.000000
_cell_angle_beta 90.000000
_cell_angle_gamma 90.000000
_cell_volume 1092.168468
_symmetry_space_group_name_H-M "P 2 2 21"
_symmetry_group_IT_number 17
_symmetry_cell_setting 'orthorhombic'
loop_
_space_group_symop_operation_xyz
x,y,z
-x,-y,1/2+z
x,-y,-z
-x,y,1/2-z
loop_
_atom_site_type_symbol
_atom_site_label
_atom_site_fract_x
_atom_site_fract_y
_atom_site_fract_z
Si Si1 0.284430 0.105785 0.581467
Si Si2 0.333352 0.599051 0.165654
Si Si3 0.165663 0.277119 0.146457
Si Si4 0.649592 0.511148 0.134074
Si Si5 0.580342 0.996029 0.659306
Si Si6 0.854091 0.195539 0.155171
O O1 0.281828 0.319400 0.585892
O O2 0.447295 0.039342 0.598200
O O3 0.230297 0.000000 0.500000
O O4 0.190558 0.012630 0.654303
O O5 0.203010 0.484520 0.128156
O O6 0.478282 0.522071 0.121507
O O7 0.338752 0.552315 0.265489
O O8 0.336444 0.813645 0.163325
O O9 0.146580 0.253770 0.247387
O O10 0.009402 0.222863 0.112840
O O11 0.306451 0.154103 0.129542
O O12 0.730188 0.324980 0.116242
O O13 0.500000 0.953301 0.750000
#
# Coordination Sequence:
#
# PCOD9310723 Si02
#       6
#     4   4   4   4   4   4
#     4  11  22  36  56  80 109 148 187 223 271 331
#     4   9  16  30  53  83 103 135 174 225 276 311
#     4  10  20  31  56  83 108 137 176 233 276 322
#     4   9  17  32  54  75 105 137 177 222 267 321
#     4  11  18  34  58  82 111 142 182 231 275 316
#     4  10  20  34  51  82 111 140 179 221 280 326
#
# _framework density 21.974633999999998
#
# number of rings (size 3 to 8) (size 9 to 14) (size 15 to 20)
#    0.000    2.000    5.000    1.000    2.333    2.000 
#    0.000    4.167    0.000    4.000    0.000    0.000 
#    0.000    0.000    0.000    0.000    0.000    0.000 
#
# Total GULP energy -133790.319042 kJ/mol
# GULP energy per Si atom -5574.596627 kJ/mol
# Density = 2.192462 g / cm^3
# Si number density = 21.974634 Si / 1000 Ang^3
#
#
#
# Elastic Constant Matrix: (Units=GPa)
#
#
# Indices 1 2 3 4 5 6 
#
# 1 38.8439 19.4759 -8.5906 0.0000 0.0000 0.0000
# 2 19.4759 85.9056 -2.4658 0.0000 0.0000 0.0000
# 3 -8.5906 -2.4658 11.7980 0.0000 0.0000 0.0000
# 4 0.0000 0.0000 0.0000 4.5832 0.0000 0.0000
# 5 0.0000 0.0000 0.0000 0.0000 5.0813 0.0000
# 6 0.0000 0.0000 0.0000 0.0000 0.0000 -193.8812
#
#
#
# Elastic Compliance Matrix: (Units=1/GPa)
#
#
# Indices 1 2 3 4 5 6 
#
# 1 0.034569 -0.007158 0.023675 0.000000 0.000000 0.000000
# 2 -0.007158 0.013193 -0.002454 0.000000 0.000000 0.000000
# 3 0.023675 -0.002454 0.101486 0.000000 0.000000 0.000000
# 4 0.000000 0.000000 0.000000 0.218189 0.000000 0.000000
# 5 0.000000 0.000000 0.000000 0.000000 0.196801 0.000000
# 6 0.000000 0.000000 0.000000 0.000000 0.000000 -0.005158
#
#
# Mechanical properties :
#
#
# Convention : Reuss Voigt Hill
#
# Bulk Modulus (GPa) = 5.63781 17.04293 11.34037
# Shear Modulus (GPa) = 8.47345 -28.30147 -9.91401
#
# Velocity S-wave (km/s) = 1.96580 -3.59265 -2.12635
# Velocity P-wave (km/s) = 2.77915 3.07196 0.92554
#
# Compressibility (1/GPa) = 0.17737397
#
# Stress axis : x y z
#
# Youngs Moduli (GPa) = 28.92790 75.79802 9.85356
#
# Poissons Ratio (x) = 0.54253 -0.23328
# Poissons Ratio (y) = 0.20705 0.02418
# Poissons Ratio (z) = -0.68487 0.18604
#
# Static dielectric constant tensor:
#      x y z
#    x 1.896600 0.000000 0.000000 
#    y 0.000000 1.805120 0.000000 
#    z 0.000000 0.000000 2.627160 
# 
# From -- ./inp_files/10007.got.cif
#   From: 2010.05.17/outbox.cif.g08.bks.cpg/sg17_6_cif.got.tgz:10007.got - 2010.06.03 22:34:06.
