data_PCOD9310467
_publ_section_title
;
Structure prediction by ZEFSAII (Michael W. Deem and Ramdas Pophale) SiO2 
 PCOD9310467
Probable space group: P 2 2 21
;
_chemical_formula_sum "Si O2"
_cell_formula_units_Z 30
_cell_length_a 9.178715
_cell_length_b 9.183157
_cell_length_c 14.656825
_cell_angle_alpha 90.000000
_cell_angle_beta 90.000000
_cell_angle_gamma 90.000000
_cell_volume 1235.417637
_symmetry_space_group_name_H-M "P 2 2 21"
_symmetry_group_IT_number 17
_symmetry_cell_setting 'orthorhombic'
loop_
_space_group_symop_operation_xyz
x,y,z
-x,-y,1/2+z
x,-y,-z
-x,y,1/2-z
loop_
_atom_site_type_symbol
_atom_site_label
_atom_site_fract_x
_atom_site_fract_y
_atom_site_fract_z
Si Si1 0.005845 0.257014 0.936091
Si Si2 0.716376 0.060503 0.899908
Si Si3 0.090994 0.477723 0.335624
Si Si4 0.230632 0.734519 0.214522
Si Si5 0.826114 0.950763 0.751068
Si Si6 0.758994 0.848329 0.555865
Si Si7 0.474333 0.273674 0.925089
Si Si8 0.295828 0.500000 0.500000
O O1 0.114114 0.198018 0.857183
O O2 0.855820 0.171812 0.924415
O O3 0.009657 0.423897 0.902164
O O4 0.088712 0.230132 0.029995
O O5 0.768568 0.907279 0.849133
O O6 0.556310 0.134535 0.885360
O O7 0.684284 0.000000 0.000000
O O8 0.173028 0.605235 0.277004
O O9 0.201126 0.427092 0.416659
O O10 0.000000 0.401981 0.250000
O O11 0.245609 0.885831 0.269960
O O12 0.365219 0.680507 0.155836
O O13 0.000000 0.950344 0.750000
O O14 0.758644 0.878957 0.662808
O O15 0.626902 0.758599 0.512578
O O16 0.760645 0.000000 0.500000
O O17 0.598989 0.385715 0.951144
#
# Coordination Sequence:
#
# PCOD9310467 Si02
#       8
#     4   4   4   4   4   4   4   2
#     4  10  17  36  62  98 131 160 217 288 330 393
#     4  12  23  36  61  97 135 174 226 273 342 415
#     4  10  21  41  73 104 125 167 246 308 335 396
#     4  10  19  37  66  99 124 159 233 285 326 398
#     4  12  19  35  66  99 133 180 218 275 338 402
#     4  11  21  38  65 101 144 169 213 275 349 422
#     4  11  25  43  64  98 139 184 225 282 352 413
#     4  12  24  46  72  94 144 186 234 294 358 400
#
# _framework density 24.283286
#
# number of rings (size 3 to 8) (size 9 to 14) (size 15 to 20)
#    0.000    1.067    6.667    2.000    0.000    2.133 
#    0.000    6.000    8.800    0.000    0.000    0.000 
#    0.000    0.000    0.000    0.000    0.000    0.000 
#
# Total GULP energy -167068.063738 kJ/mol
# GULP energy per Si atom -5568.935458 kJ/mol
# Density = 2.422802 g / cm^3
# Si number density = 24.283286 Si / 1000 Ang^3
#
#
#
# Elastic Constant Matrix: (Units=GPa)
#
#
# Indices 1 2 3 4 5 6 
#
# 1 101.9141 15.7249 36.7013 0.0000 0.0000 0.0000
# 2 15.7249 25.9855 22.6242 0.0000 0.0000 0.0000
# 3 36.7013 22.6242 124.2971 0.0000 0.0000 0.0000
# 4 0.0000 0.0000 0.0000 27.3482 0.0000 0.0000
# 5 0.0000 0.0000 0.0000 0.0000 38.4876 0.0000
# 6 0.0000 0.0000 0.0000 0.0000 0.0000 3.8137
#
#
#
# Elastic Compliance Matrix: (Units=1/GPa)
#
#
# Indices 1 2 3 4 5 6 
#
# 1 0.011450 -0.004736 -0.002519 0.000000 0.000000 0.000000
# 2 -0.004736 0.047689 -0.007282 0.000000 0.000000 0.000000
# 3 -0.002519 -0.007282 0.010114 0.000000 0.000000 0.000000
# 4 0.000000 0.000000 0.000000 0.036565 0.000000 0.000000
# 5 0.000000 0.000000 0.000000 0.000000 0.025982 0.000000
# 6 0.000000 0.000000 0.000000 0.000000 0.000000 0.262209
#
#
# Mechanical properties :
#
#
# Convention : Reuss Voigt Hill
#
# Bulk Modulus (GPa) = 24.88789 44.69973 34.79381
# Shear Modulus (GPa) = 11.45536 25.73966 18.59751
#
# Velocity S-wave (km/s) = 2.17431 3.25926 2.77041
# Velocity P-wave (km/s) = 4.07121 5.71063 4.95913
#
# Compressibility (1/GPa) = 0.04018018
#
# Stress axis : x y z
#
# Youngs Moduli (GPa) = 87.33625 20.96925 98.86892
#
# Poissons Ratio (x) = 0.09931 0.24904
# Poissons Ratio (y) = 0.41361 0.71995
# Poissons Ratio (z) = 0.21999 0.15269
#
# Static dielectric constant tensor:
#      x y z
#    x 1.963740 0.000000 0.000000 
#    y 0.000000 2.236200 0.000000 
#    z 0.000000 0.000000 2.524650 
# 
# From -- ./inp_files/8233.got.cif
#   From: 2010.05.17/outbox.cif.g08.bks.cpg/sg17_5_cif.got.tgz:8233.got - 2010.06.03 22:34:06.
