data_PCOD9310946
_publ_section_title
;
Structure prediction by ZEFSAII (Michael W. Deem and Ramdas Pophale) SiO2 
 PCOD9310946
Probable space group: P 2 2 21
;
_chemical_formula_sum "Si O2"
_cell_formula_units_Z 32
_cell_length_a 12.109717
_cell_length_b 14.001045
_cell_length_c 9.454677
_cell_angle_alpha 90.000000
_cell_angle_beta 90.000000
_cell_angle_gamma 90.000000
_cell_volume 1603.028125
_symmetry_space_group_name_H-M "P 2 2 21"
_symmetry_group_IT_number 17
_symmetry_cell_setting 'orthorhombic'
loop_
_space_group_symop_operation_xyz
x,y,z
-x,-y,1/2+z
x,-y,-z
-x,y,1/2-z
loop_
_atom_site_type_symbol
_atom_site_label
_atom_site_fract_x
_atom_site_fract_y
_atom_site_fract_z
Si Si1 0.209300 0.062422 0.125606
Si Si2 0.210010 0.629661 0.401510
Si Si3 0.464204 0.096536 0.085725
Si Si4 0.052340 0.796780 0.386977
Si Si5 0.756555 0.073749 0.885900
Si Si6 0.129930 0.438727 0.287023
Si Si7 0.097705 0.261036 0.137577
Si Si8 0.583638 0.762286 0.120882
O O1 0.331676 0.095611 0.080305
O O2 0.154402 0.161177 0.167428
O O3 0.213367 0.989568 0.253325
O O4 0.156138 0.000000 0.000000
O O5 0.130720 0.710492 0.338238
O O6 0.198013 0.536673 0.303067
O O7 0.155838 0.606965 0.556785
O O8 0.333211 0.674201 0.414120
O O9 0.500000 0.090268 0.250000
O O10 0.516956 0.189540 0.009883
O O11 0.492358 0.000000 0.000000
O O12 0.138225 0.871513 0.453124
O O13 0.000000 0.843830 0.250000
O O14 0.958974 0.753642 0.486694
O O15 0.667305 0.151738 0.838914
O O16 0.713541 0.000000 0.000000
O O17 0.163338 0.358931 0.170143
O O18 0.000000 0.462653 0.250000
O O19 0.000000 0.270374 0.250000
O O20 0.500000 0.742062 0.250000
#
# Coordination Sequence:
#
# PCOD9310946 Si02
#       8
#     4   4   4   4   4   4   4   4
#     4  11  23  36  55  90 131 171 217 273 319 391
#     4  10  22  40  68  96 122 164 216 279 341 402
#     4  11  22  37  61  90 127 173 233 282 334 397
#     4  11  22  37  56  92 132 169 208 267 338 406
#     4  11  23  36  58  88 126 174 228 261 322 396
#     4  10  20  41  71  97 122 161 216 271 330 413
#     4  11  22  38  63  89 127 172 217 264 329 405
#     4  11  23  41  66  91 126 173 222 280 343 408
#
# _framework density 19.962219000000001
#
# number of rings (size 3 to 8) (size 9 to 14) (size 15 to 20)
#    0.000    1.250    2.500    5.625    3.500    4.000 
#    0.000    0.000    5.500    0.000    0.000    0.000 
#    0.000    0.000    0.000    0.000    0.000    0.000 
#
# Total GULP energy -178364.736931 kJ/mol
# GULP energy per Si atom -5573.898029 kJ/mol
# Density = 1.991678 g / cm^3
# Si number density = 19.962219 Si / 1000 Ang^3
#
#
#
# Elastic Constant Matrix: (Units=GPa)
#
#
# Indices 1 2 3 4 5 6 
#
# 1 57.0528 42.5012 26.4842 0.0000 0.0000 0.0000
# 2 42.5012 122.0810 20.4310 0.0000 0.0000 0.0000
# 3 26.4842 20.4310 90.5205 0.0000 0.0000 0.0000
# 4 0.0000 0.0000 0.0000-4871.3661 0.0000 0.0000
# 5 0.0000 0.0000 0.0000 0.0000 22.8755 0.0000
# 6 0.0000 0.0000 0.0000 0.0000 0.0000 7.6532
#
#
#
# Elastic Compliance Matrix: (Units=1/GPa)
#
#
# Indices 1 2 3 4 5 6 
#
# 1 0.026352 -0.008193 -0.005861 0.000000 0.000000 0.000000
# 2 -0.008193 0.011060 -0.000099 0.000000 0.000000 0.000000
# 3 -0.005861 -0.000099 0.012784 0.000000 0.000000 0.000000
# 4 0.000000 0.000000 0.000000 -0.000205 0.000000 0.000000
# 5 0.000000 0.000000 0.000000 0.000000 0.043715 0.000000
# 6 0.000000 0.000000 0.000000 0.000000 0.000000 0.130664
#
#
# Mechanical properties :
#
#
# Convention : Reuss Voigt Hill
#
# Bulk Modulus (GPa) = 45.68278 49.83190 47.75734
# Shear Modulus (GPa) = 19.23278 -956.15162 -468.45942
#
# Velocity S-wave (km/s) = 3.10733 -21.90937 -15.33566
# Velocity P-wave (km/s) = 5.98400 24.79939 17.01766
#
# Compressibility (1/GPa) = 0.02189009
#
# Stress axis : x y z
#
# Youngs Moduli (GPa) = 37.94828 90.41370 78.22094
#
# Poissons Ratio (x) = 0.74078 0.45842
# Poissons Ratio (y) = 0.31092 0.00776
# Poissons Ratio (z) = 0.22240 0.00897
#
# Static dielectric constant tensor:
#      x y z
#    x 2.843870 0.000000 0.000000 
#    y 0.000000 1.753380 0.000000 
#    z 0.000000 0.000000 1.705340 
# 
# From -- ./inp_files/4977.got.cif
#   From: 2010.05.17/outbox.cif.g08.bks.cpg/sg17_3_cif.got.tgz:4977.got - 2010.06.03 22:34:06.
