data_PCOD9310787
_publ_section_title
;
Structure prediction by ZEFSAII (Michael W. Deem and Ramdas Pophale) SiO2 
 PCOD9310787
Probable space group: P 2 2 21
;
_chemical_formula_sum "Si O2"
_cell_formula_units_Z 18
_cell_length_a 7.940804
_cell_length_b 8.705288
_cell_length_c 13.377613
_cell_angle_alpha 90.000000
_cell_angle_beta 90.000000
_cell_angle_gamma 90.000000
_cell_volume 924.754064
_symmetry_space_group_name_H-M "P 2 2 21"
_symmetry_group_IT_number 17
_symmetry_cell_setting 'orthorhombic'
loop_
_space_group_symop_operation_xyz
x,y,z
-x,-y,1/2+z
x,-y,-z
-x,y,1/2-z
loop_
_atom_site_type_symbol
_atom_site_label
_atom_site_fract_x
_atom_site_fract_y
_atom_site_fract_z
Si Si1 0.102587 0.816220 0.986486
Si Si2 0.243974 0.335831 0.446240
Si Si3 0.188220 0.182582 0.236916
Si Si4 0.448817 0.827493 0.044327
Si Si5 0.500000 0.950109 0.250000
O O1 0.175427 0.765406 0.877780
O O2 0.916739 0.749766 0.995243
O O3 0.258338 0.766196 0.055608
O O4 0.085020 0.000000 0.000000
O O5 0.243870 0.500000 0.500000
O O6 0.216829 0.306386 0.326286
O O7 0.422914 0.261388 0.473929
O O8 0.000000 0.112962 0.250000
O O9 0.336681 0.058945 0.241599
O O10 0.524091 0.846369 0.153420
O O11 0.435383 0.000000 0.000000
#
# Coordination Sequence:
#
# PCOD9310787 Si02
#       5
#     4   4   4   4   2
#     4  10  20  39  65  94 115 158 214 263 307 356
#     4  11  24  40  59  90 131 170 200 242 316 389
#     4  10  20  35  63  88 118 158 204 252 312 356
#     4  11  21  37  64  91 119 156 212 267 303 357
#     4  12  20  36  60 100 116 148 212 272 308 348
#
# _framework density 19.464635999999999
#
# number of rings (size 3 to 8) (size 9 to 14) (size 15 to 20)
#    0.000    1.333    6.667    0.667    3.111    0.889 
#    0.000   10.000    0.000    0.000    0.000    0.000 
#    0.000    0.000    0.000    0.000    0.000    0.000 
#
# Total GULP energy -100207.315748 kJ/mol
# GULP energy per Si atom -5567.073097 kJ/mol
# Density = 1.942033 g / cm^3
# Si number density = 19.464636 Si / 1000 Ang^3
#
#
#
# Elastic Constant Matrix: (Units=GPa)
#
#
# Indices 1 2 3 4 5 6 
#
# 1 104.7965 28.6485 -22.8034 0.0000 0.0000 0.0000
# 2 28.6485 66.0439 14.3903 0.0000 0.0000 0.0000
# 3 -22.8034 14.3903 59.0604 0.0000 0.0000 0.0000
# 4 0.0000 0.0000 0.0000 15.4689 0.0000 0.0000
# 5 0.0000 0.0000 0.0000 0.0000 5.2321 0.0000
# 6 0.0000 0.0000 0.0000 0.0000 0.0000 118.3060
#
#
#
# Elastic Compliance Matrix: (Units=1/GPa)
#
#
# Indices 1 2 3 4 5 6 
#
# 1 0.012939 -0.007077 0.006720 0.000000 0.000000 0.000000
# 2 -0.007077 0.019861 -0.007572 0.000000 0.000000 0.000000
# 3 0.006720 -0.007572 0.021371 0.000000 0.000000 0.000000
# 4 0.000000 0.000000 0.000000 0.064646 0.000000 0.000000
# 5 0.000000 0.000000 0.000000 0.000000 0.191126 0.000000
# 6 0.000000 0.000000 0.000000 0.000000 0.000000 0.008453
#
#
# Mechanical properties :
#
#
# Convention : Reuss Voigt Hill
#
# Bulk Modulus (GPa) = 26.09963 30.04131 28.07047
# Shear Modulus (GPa) = 14.40818 41.77910 28.09364
#
# Velocity S-wave (km/s) = 2.72366 4.63796 3.80322
# Velocity P-wave (km/s) = 4.83000 6.64441 5.80849
#
# Compressibility (1/GPa) = 0.03831472
#
# Stress axis : x y z
#
# Youngs Moduli (GPa) = 77.28400 50.34957 46.79146
#
# Poissons Ratio (x) = 0.35633 -0.31445
# Poissons Ratio (y) = 0.54695 0.35429
# Poissons Ratio (z) = -0.51937 0.38123
#
# Static dielectric constant tensor:
#      x y z
#    x 1.719870 0.000000 0.000000 
#    y 0.000000 1.691670 0.000000 
#    z 0.000000 0.000000 1.194860 
# 
# From -- ./inp_files/6317.got.cif
#   From: 2010.05.17/outbox.cif.g08.bks.cpg/sg17_4_cif.got.tgz:6317.got - 2010.06.03 22:34:06.
