data_PCOD9310342
_publ_section_title
;
Structure prediction by ZEFSAII (Michael W. Deem and Ramdas Pophale) SiO2 
 PCOD9310342
Probable space group: P 2 2 2
;
_chemical_formula_sum "Si O2"
_cell_formula_units_Z 14
_cell_length_a 5.700010
_cell_length_b 5.164341
_cell_length_c 19.797778
_cell_angle_alpha 90.000000
_cell_angle_beta 90.000000
_cell_angle_gamma 90.000000
_cell_volume 582.783139
_symmetry_space_group_name_H-M "P 2 2 2"
_symmetry_group_IT_number 16
_symmetry_cell_setting 'orthorhombic'
loop_
_space_group_symop_operation_xyz
x,y,z
-x,-y,z
x,-y,-z
-x,y,-z
loop_
_atom_site_type_symbol
_atom_site_label
_atom_site_fract_x
_atom_site_fract_y
_atom_site_fract_z
Si Si1 0.249929 0.347174 0.752817
Si Si2 0.500000 0.000000 0.500000
Si Si3 0.159005 0.756391 0.398304
Si Si4 0.655164 0.239538 0.101664
Si Si5 0.000000 0.500000 0.000000
O O1 0.500000 0.500000 0.752160
O O2 0.241539 0.217912 0.679432
O O3 0.257138 0.184071 0.822004
O O4 0.000000 0.500000 0.757114
O O5 0.365874 0.801805 0.450382
O O6 0.000000 0.500000 0.405308
O O7 0.000000 0.000000 0.413361
O O8 0.500000 0.500000 0.104783
O O9 0.500000 0.000000 0.079438
O O10 0.853893 0.314534 0.049217
#
# Coordination Sequence:
#
# PCOD9310342 Si02
#       5
#     4   1   4   4   1
#     4  10  24  51  82 121 156 212 276 341 405 494
#     4  12  30  50  80 116 164 226 260 358 406 506
#     4  11  29  51  78 115 159 208 274 334 413 490
#     4  11  27  48  80 115 158 210 272 333 413 490
#     4  12  26  54  76 120 164 222 260 358 406 510
#
# _framework density 24.022659999999998
#
# number of rings (size 3 to 8) (size 9 to 14) (size 15 to 20)
#    0.000    1.143    1.429    0.857   10.000   12.571 
#    0.000    0.000    0.000    0.000    0.000    0.000 
#    0.000    0.000    0.000    0.000    0.000    0.000 
#
# Total GULP energy -78350.344560 kJ/mol
# GULP energy per Si atom -5596.453183 kJ/mol
# Density = 2.396798 g / cm^3
# Si number density = 24.022660 Si / 1000 Ang^3
#
#
#
# Elastic Constant Matrix: (Units=GPa)
#
#
# Indices 1 2 3 4 5 6 
#
# 1 129.0178 44.2874 80.5684 0.0000 0.0000 0.0000
# 2 44.2874 132.6886 46.1688 0.0000 0.0000 0.0000
# 3 80.5684 46.1688 241.4954 0.0000 0.0000 0.0000
# 4 0.0000 0.0000 0.0000 -120.6748 0.0000 0.0000
# 5 0.0000 0.0000 0.0000 0.0000 88.9946 0.0000
# 6 0.0000 0.0000 0.0000 0.0000 0.0000 30.5667
#
#
#
# Elastic Compliance Matrix: (Units=1/GPa)
#
#
# Indices 1 2 3 4 5 6 
#
# 1 0.010482 -0.002444 -0.003030 0.000000 0.000000 0.000000
# 2 -0.002444 0.008644 -0.000837 0.000000 0.000000 0.000000
# 3 -0.003030 -0.000837 0.005312 0.000000 0.000000 0.000000
# 4 0.000000 0.000000 0.000000 -0.008287 0.000000 0.000000
# 5 0.000000 0.000000 0.000000 0.000000 0.011237 0.000000
# 6 0.000000 0.000000 0.000000 0.000000 0.000000 0.032715
#
#
# Mechanical properties :
#
#
# Convention : Reuss Voigt Hill
#
# Bulk Modulus (GPa) = 84.63790 93.91676 89.27733
# Shear Modulus (GPa) = 65.22082 21.92246 43.57164
#
# Velocity S-wave (km/s) = 5.21619 3.02416 4.26346
# Velocity P-wave (km/s) = 8.46092 7.16757 7.84096
#
# Compressibility (1/GPa) = 0.01181504
#
# Stress axis : x y z
#
# Youngs Moduli (GPa) = 95.40258 115.69368 188.26549
#
# Poissons Ratio (x) = 0.28280 0.57039
# Poissons Ratio (y) = 0.23320 0.15757
# Poissons Ratio (z) = 0.28904 0.09683
#
# Static dielectric constant tensor:
#      x y z
#    x 1.946780 0.000000 0.000000 
#    y 0.000000 1.896220 0.000000 
#    z 0.000000 0.000000 1.946210 
# 
# From -- ./inp_files/9136.got.cif
#   From: 2010.05.17/outbox.cif.g08.bks.cpg/sg16_5_cif.got.tgz:9136.got - 2010.06.03 22:28:35.
