data_PCOD9310313
_publ_section_title
;
Structure prediction by ZEFSAII (Michael W. Deem and Ramdas Pophale) SiO2 
 PCOD9310313
Probable space group: P 2 2 2
;
_chemical_formula_sum "Si O2"
_cell_formula_units_Z 12
_cell_length_a 4.810443
_cell_length_b 18.761327
_cell_length_c 5.259979
_cell_angle_alpha 90.000000
_cell_angle_beta 90.000000
_cell_angle_gamma 90.000000
_cell_volume 474.714652
_symmetry_space_group_name_H-M "P 2 2 2"
_symmetry_group_IT_number 16
_symmetry_cell_setting 'orthorhombic'
loop_
_space_group_symop_operation_xyz
x,y,z
-x,-y,z
x,-y,-z
-x,y,-z
loop_
_atom_site_type_symbol
_atom_site_label
_atom_site_fract_x
_atom_site_fract_y
_atom_site_fract_z
Si Si1 0.000000 0.100489 0.500000
Si Si2 0.690454 0.780028 0.752291
Si Si3 0.500000 0.000000 0.500000
Si Si4 0.685843 0.374077 0.249761
Si Si5 0.000000 0.500000 0.000000
O O1 0.889115 0.152943 0.282439
O O2 0.736465 0.054803 0.606171
O O3 0.500000 0.780308 0.500000
O O4 0.839229 0.702469 0.744943
O O5 0.500000 0.786205 0.000000
O O6 0.500000 0.381233 0.500000
O O7 0.500000 0.367559 0.000000
O O8 0.850413 0.445453 0.191190
#
# Coordination Sequence:
#
# PCOD9310313 Si02
#       5
#     2   4   1   4   1
#     4  11  22  48  82 115 164 204 260 321 394 478
#     4  10  23  46  78 111 149 207 264 322 381 471
#     4  10  24  46  82 122 162 200 258 322 406 462
#     4  10  25  46  70 108 150 198 264 317 383 457
#     4  12  26  46  72 108 156 208 242 338 384 456
#
# _framework density 25.278347
#
# number of rings (size 3 to 8) (size 9 to 14) (size 15 to 20)
#    0.000    1.667    1.667    0.500    0.000   14.667 
#    0.000    4.167    7.333    0.000    0.000    0.000 
#    0.000    0.000    0.000    0.000    0.000    0.000 
#
# Total GULP energy -67038.451316 kJ/mol
# GULP energy per Si atom -5586.537610 kJ/mol
# Density = 2.522081 g / cm^3
# Si number density = 25.278347 Si / 1000 Ang^3
#
#
#
# Elastic Constant Matrix: (Units=GPa)
#
#
# Indices 1 2 3 4 5 6 
#
# 1 125.4997 98.5376 59.9451 0.0000 0.0000 0.0000
# 2 98.5376 252.1311 50.3310 0.0000 0.0000 0.0000
# 3 59.9451 50.3310 199.6295 0.0000 0.0000 0.0000
# 4 0.0000 0.0000 0.0000 -19.2512 0.0000 0.0000
# 5 0.0000 0.0000 0.0000 0.0000 53.5771 0.0000
# 6 0.0000 0.0000 0.0000 0.0000 0.0000 112.3822
#
#
#
# Elastic Compliance Matrix: (Units=1/GPa)
#
#
# Indices 1 2 3 4 5 6 
#
# 1 0.012750 -0.004442 -0.002709 0.000000 0.000000 0.000000
# 2 -0.004442 0.005724 -0.000109 0.000000 0.000000 0.000000
# 3 -0.002709 -0.000109 0.005850 0.000000 0.000000 0.000000
# 4 0.000000 0.000000 0.000000 -0.051945 0.000000 0.000000
# 5 0.000000 0.000000 0.000000 0.000000 0.018665 0.000000
# 6 0.000000 0.000000 0.000000 0.000000 0.000000 0.008898
#
#
# Mechanical properties :
#
#
# Convention : Reuss Voigt Hill
#
# Bulk Modulus (GPa) = 101.99896 110.54309 106.27102
# Shear Modulus (GPa) = 282.00814 53.90471 167.95643
#
# Velocity S-wave (km/s) = 10.57371 4.62285 8.16009
# Velocity P-wave (km/s) = 13.76623 8.50409 11.44178
#
# Compressibility (1/GPa) = 0.00980402
#
# Stress axis : x y z
#
# Youngs Moduli (GPa) = 78.43337 174.70082 170.93563
#
# Poissons Ratio (x) = 0.77604 0.46299
# Poissons Ratio (y) = 0.34841 0.01868
# Poissons Ratio (z) = 0.21244 0.01909
#
# Static dielectric constant tensor:
#      x y z
#    x 2.085870 0.000000 0.000000 
#    y 0.000000 2.085680 0.000000 
#    z 0.000000 0.000000 1.944070 
# 
# From -- ./inp_files/130.got.cif
#   From: 2010.05.17/outbox.cif.g08.bks.cpg/sg16_1_cif.got.tgz:130.got - 2010.06.03 22:28:35.
