data_PCOD9310600
_publ_section_title
;
Structure prediction by ZEFSAII (Michael W. Deem and Ramdas Pophale) SiO2 
 PCOD9310600
Probable space group: P 2 2 21
;
_chemical_formula_sum "Si O2"
_cell_formula_units_Z 16
_cell_length_a 6.844897
_cell_length_b 19.148590
_cell_length_c 5.188423
_cell_angle_alpha 90.000000
_cell_angle_beta 90.000000
_cell_angle_gamma 90.000000
_cell_volume 680.047258
_symmetry_space_group_name_H-M "P 2 2 21"
_symmetry_group_IT_number 17
_symmetry_cell_setting 'orthorhombic'
loop_
_space_group_symop_operation_xyz
x,y,z
-x,-y,1/2+z
x,-y,-z
-x,y,1/2-z
loop_
_atom_site_type_symbol
_atom_site_label
_atom_site_fract_x
_atom_site_fract_y
_atom_site_fract_z
Si Si1 0.861936 0.923616 0.499749
Si Si2 0.720335 0.781463 0.320680
Si Si3 0.733042 0.720598 0.821095
Si Si4 0.639173 0.424371 0.000573
O O1 0.725029 0.857059 0.453883
O O2 0.000000 0.923821 0.250000
O O3 0.761969 0.000000 0.500000
O O4 0.000000 0.917242 0.750000
O O5 0.500000 0.760144 0.250000
O O6 0.812978 0.730351 0.533331
O O7 0.802853 0.777559 0.030828
O O8 0.500000 0.727975 0.750000
O O9 0.762082 0.645340 0.951265
O O10 0.500000 0.416290 0.750000
O O11 0.742882 0.500000 0.000000
O O12 0.500000 0.428083 0.250000
#
# Coordination Sequence:
#
# PCOD9310600 Si02
#       4
#     4   4   4   4
#     4  10  21  38  56  74 100 133 168 209 256 307
#     4  10  19  32  51  74 100 129 162 205 253 299
#     4   9  16  27  43  67  99 129 159 200 248 292
#     4   9  15  23  37  59  92 133 166 192 235 296
#
# _framework density 23.527775999999999
#
# number of rings (size 3 to 8) (size 9 to 14) (size 15 to 20)
#    0.000    2.500    0.000    5.250    0.000    0.000 
#    0.000    7.500    0.000    0.000    0.000    0.000 
#    0.000   20.000    0.000    0.000    0.000    0.000 
#
# Total GULP energy -89160.522501 kJ/mol
# GULP energy per Si atom -5572.532656 kJ/mol
# Density = 2.347423 g / cm^3
# Si number density = 23.527776 Si / 1000 Ang^3
#
#
#
# Elastic Constant Matrix: (Units=GPa)
#
#
# Indices 1 2 3 4 5 6 
#
# 1 37.2094 -7.5549 18.2575 0.0000 0.0000 0.0000
# 2 -7.5549 179.7048 60.2150 0.0000 0.0000 0.0000
# 3 18.2575 60.2150 209.3220 0.0000 0.0000 0.0000
# 4 0.0000 0.0000 0.0000 48.9102 0.0000 0.0000
# 5 0.0000 0.0000 0.0000 0.0000 4.8096 0.0000
# 6 0.0000 0.0000 0.0000 0.0000 0.0000 2.9131
#
#
#
# Elastic Compliance Matrix: (Units=1/GPa)
#
#
# Indices 1 2 3 4 5 6 
#
# 1 0.028896 0.002279 -0.003176 0.000000 0.000000 0.000000
# 2 0.002279 0.006338 -0.002022 0.000000 0.000000 0.000000
# 3 -0.003176 -0.002022 0.005636 0.000000 0.000000 0.000000
# 4 0.000000 0.000000 0.000000 0.020446 0.000000 0.000000
# 5 0.000000 0.000000 0.000000 0.000000 0.207916 0.000000
# 6 0.000000 0.000000 0.000000 0.000000 0.000000 0.343275
#
#
# Mechanical properties :
#
#
# Convention : Reuss Voigt Hill
#
# Bulk Modulus (GPa) = 28.54530 63.11904 45.83217
# Shear Modulus (GPa) = 7.93623 35.01451 21.47537
#
# Velocity S-wave (km/s) = 1.83860 3.86193 3.02448
# Velocity P-wave (km/s) = 4.08243 6.83898 5.63196
#
# Compressibility (1/GPa) = 0.03503204
#
# Stress axis : x y z
#
# Youngs Moduli (GPa) = 34.60691 157.77795 177.43055
#
# Poissons Ratio (x) = -0.35957 0.56351
# Poissons Ratio (y) = -0.07887 0.35877
# Poissons Ratio (z) = 0.10991 0.31903
#
# Static dielectric constant tensor:
#      x y z
#    x 1.925420 0.000000 0.000000 
#    y 0.000000 1.998920 0.000000 
#    z 0.000000 0.000000 1.955020 
# 
# From -- ./inp_files/752.got.cif
#   From: 2010.05.17/outbox.cif.g08.bks.cpg/sg17_1_cif.got.tgz:752.got - 2010.06.03 22:34:06.
