data_PCOD9310879
_publ_section_title
;
Structure prediction by ZEFSAII (Michael W. Deem and Ramdas Pophale) SiO2 
 PCOD9310879
Probable space group: P 2 2 21
;
_chemical_formula_sum "Si O2"
_cell_formula_units_Z 26
_cell_length_a 8.317761
_cell_length_b 8.185278
_cell_length_c 19.399322
_cell_angle_alpha 90.000000
_cell_angle_beta 90.000000
_cell_angle_gamma 90.000000
_cell_volume 1320.767650
_symmetry_space_group_name_H-M "P 2 2 21"
_symmetry_group_IT_number 17
_symmetry_cell_setting 'orthorhombic'
loop_
_space_group_symop_operation_xyz
x,y,z
-x,-y,1/2+z
x,-y,-z
-x,y,1/2-z
loop_
_atom_site_type_symbol
_atom_site_label
_atom_site_fract_x
_atom_site_fract_y
_atom_site_fract_z
Si Si1 0.652228 0.553644 0.882892
Si Si2 0.980042 0.573173 0.667752
Si Si3 0.372469 0.254062 0.513455
Si Si4 0.500000 0.598125 0.250000
Si Si5 0.838591 0.754972 0.298425
Si Si6 0.145804 0.915471 0.884577
Si Si7 0.102080 0.000000 0.500000
Si Si8 0.618008 0.000000 0.500000
O O1 0.636321 0.401541 0.934412
O O2 0.547086 0.514563 0.815570
O O3 0.840198 0.572911 0.863410
O O4 0.598551 0.699109 0.933455
O O5 0.887225 0.401649 0.653317
O O6 0.000000 0.578228 0.750000
O O7 0.886969 0.737886 0.647033
O O8 0.207387 0.158038 0.514024
O O9 0.507863 0.130366 0.537975
O O10 0.665840 0.701545 0.264615
O O11 0.820154 0.932018 0.333929
O O12 0.000000 0.769746 0.250000
O O13 0.279773 0.907486 0.943336
O O14 0.994038 0.967551 0.930506
#
# Coordination Sequence:
#
# PCOD9310879 Si02
#       8
#     4   4   4   2   4   4   2   2
#     4  11  22  41  68  97 130 183 228 279 351 403
#     4  11  22  43  66  96 134 172 228 282 339 414
#     4  10  22  41  66  93 131 178 224 282 338 408
#     4  12  24  42  70 100 140 182 224 292 342 414
#     4  11  24  44  65  97 138 176 227 280 340 417
#     4  11  23  42  64  96 131 177 222 282 345 399
#     4  10  20  38  66  86 126 170 222 276 328 402
#     4  10  24  42  58 100 136 166 226 292 330 412
#
# _framework density 19.685521999999999
#
# number of rings (size 3 to 8) (size 9 to 14) (size 15 to 20)
#    0.000    1.231    4.615    2.308    2.154    0.000 
#    0.000    0.769    0.000    0.000    0.000    0.000 
#    0.000    0.000    0.000    0.000    0.000    0.000 
#
# Total GULP energy -144918.563202 kJ/mol
# GULP energy per Si atom -5573.790892 kJ/mol
# Density = 1.964072 g / cm^3
# Si number density = 19.685522 Si / 1000 Ang^3
#
#
#
# Elastic Constant Matrix: (Units=GPa)
#
#
# Indices 1 2 3 4 5 6 
#
# 1 93.6199 13.6128 11.8225 0.0000 0.0000 0.0000
# 2 13.6128 81.8230 5.4352 0.0000 0.0000 0.0000
# 3 11.8225 5.4352 55.7525 0.0000 0.0000 0.0000
# 4 0.0000 0.0000 0.0000 25.1115 0.0000 0.0000
# 5 0.0000 0.0000 0.0000 0.0000 67.7249 0.0000
# 6 0.0000 0.0000 0.0000 0.0000 0.0000 44.9032
#
#
#
# Elastic Compliance Matrix: (Units=1/GPa)
#
#
# Indices 1 2 3 4 5 6 
#
# 1 0.011210 -0.001718 -0.002210 0.000000 0.000000 0.000000
# 2 -0.001718 0.012565 -0.000861 0.000000 0.000000 0.000000
# 3 -0.002210 -0.000861 0.018489 0.000000 0.000000 0.000000
# 4 0.000000 0.000000 0.000000 0.039822 0.000000 0.000000
# 5 0.000000 0.000000 0.000000 0.000000 0.014766 0.000000
# 6 0.000000 0.000000 0.000000 0.000000 0.000000 0.022270
#
#
# Mechanical properties :
#
#
# Convention : Reuss Voigt Hill
#
# Bulk Modulus (GPa) = 30.59337 32.54848 31.57093
# Shear Modulus (GPa) = 35.81801 40.90289 38.36045
#
# Velocity S-wave (km/s) = 4.27020 4.56325 4.41916
# Velocity P-wave (km/s) = 6.31566 6.65841 6.48930
#
# Compressibility (1/GPa) = 0.03268682
#
# Stress axis : x y z
#
# Youngs Moduli (GPa) = 89.20300 79.58913 54.08658
#
# Poissons Ratio (x) = 0.13676 0.11951
# Poissons Ratio (y) = 0.15328 0.04654
# Poissons Ratio (z) = 0.19711 0.06849
#
# Static dielectric constant tensor:
#      x y z
#    x 1.724110 0.000000 0.000000 
#    y 0.000000 1.765020 0.000000 
#    z 0.000000 0.000000 1.666650 
# 
# From -- ./inp_files/9456.got.cif
#   From: 2010.05.17/outbox.cif.g08.bks.cpg/sg17_5_cif.got.tgz:9456.got - 2010.06.03 22:34:06.
