data_PCOD9310339
_publ_section_title
;
Structure prediction by ZEFSAII (Michael W. Deem and Ramdas Pophale) SiO2 
 PCOD9310339
Probable space group: P 2 2 2
;
_chemical_formula_sum "Si O2"
_cell_formula_units_Z 12
_cell_length_a 8.882177
_cell_length_b 4.708634
_cell_length_c 10.678204
_cell_angle_alpha 90.000000
_cell_angle_beta 90.000000
_cell_angle_gamma 90.000000
_cell_volume 446.593678
_symmetry_space_group_name_H-M "P 2 2 2"
_symmetry_group_IT_number 16
_symmetry_cell_setting 'orthorhombic'
loop_
_space_group_symop_operation_xyz
x,y,z
-x,-y,z
x,-y,-z
-x,y,-z
loop_
_atom_site_type_symbol
_atom_site_label
_atom_site_fract_x
_atom_site_fract_y
_atom_site_fract_z
Si Si1 0.500000 0.500000 0.000000
Si Si2 0.000000 0.000000 0.500000
Si Si3 0.500000 0.000000 0.500000
Si Si4 0.747950 0.695915 0.338240
Si Si5 0.256135 0.808046 0.167393
Si Si6 0.000000 0.000000 0.000000
O O1 0.393717 0.307229 0.912758
O O2 0.893717 0.195017 0.587361
O O3 0.605411 0.796774 0.417499
O O4 0.754341 0.370819 0.296256
O O5 0.731566 0.866105 0.208325
O O6 0.105418 0.805094 0.086405
#
# Coordination Sequence:
#
# PCOD9310339 Si02
#       6
#     1   1   1   4   4   1
#     4  12  28  48  76 112 152 200 256 314 380 454
#     4  10  26  44  72 106 148 196 250 308 376 450
#     4  10  24  48  76 110 152 200 252 316 380 454
#     4  11  26  46  73 108 149 196 251 310 378 450
#     4  12  28  49  75 110 151 200 254 314 380 453
#     4  12  30  52  80 116 156 204 258 318 384 458
#
# _framework density 26.870065
#
# number of rings (size 3 to 8) (size 9 to 14) (size 15 to 20)
#    0.000    0.667    0.000    5.000    0.000   25.333 
#    0.000    0.000    0.000    0.000    0.000    0.000 
#    0.000    0.000    0.000    0.000    0.000    0.000 
#
# Total GULP energy -67527.888705 kJ/mol
# GULP energy per Si atom -5627.324059 kJ/mol
# Density = 2.680891 g / cm^3
# Si number density = 26.870065 Si / 1000 Ang^3
#
#
#
# Elastic Constant Matrix: (Units=GPa)
#
#
# Indices 1 2 3 4 5 6 
#
# 1 207.8280 33.0090 73.1207 0.0000 0.0000 0.0000
# 2 33.0090 95.4548 19.4853 0.0000 0.0000 0.0000
# 3 73.1207 19.4853 116.9687 0.0000 0.0000 0.0000
# 4 0.0000 0.0000 0.0000 46.1599 0.0000 0.0000
# 5 0.0000 0.0000 0.0000 0.0000 69.7859 0.0000
# 6 0.0000 0.0000 0.0000 0.0000 0.0000 18.3232
#
#
#
# Elastic Compliance Matrix: (Units=1/GPa)
#
#
# Indices 1 2 3 4 5 6 
#
# 1 0.006353 -0.001435 -0.003732 0.000000 0.000000 0.000000
# 2 -0.001435 0.011169 -0.000964 0.000000 0.000000 0.000000
# 3 -0.003732 -0.000964 0.011043 0.000000 0.000000 0.000000
# 4 0.000000 0.000000 0.000000 0.021664 0.000000 0.000000
# 5 0.000000 0.000000 0.000000 0.000000 0.014330 0.000000
# 6 0.000000 0.000000 0.000000 0.000000 0.000000 0.054575
#
#
# Mechanical properties :
#
#
# Convention : Reuss Voigt Hill
#
# Bulk Modulus (GPa) = 61.33758 74.60906 67.97332
# Shear Modulus (GPa) = 36.54183 46.49623 41.51903
#
# Velocity S-wave (km/s) = 3.69174 4.16433 3.93514
# Velocity P-wave (km/s) = 6.40695 7.13786 6.78226
#
# Compressibility (1/GPa) = 0.01630322
#
# Stress axis : x y z
#
# Youngs Moduli (GPa) = 157.41328 89.53291 90.55559
#
# Poissons Ratio (x) = 0.12848 0.33797
# Poissons Ratio (y) = 0.22588 0.08726
# Poissons Ratio (z) = 0.58750 0.08627
#
# Static dielectric constant tensor:
#      x y z
#    x 2.025710 0.000000 0.000000 
#    y 0.000000 1.926880 0.000000 
#    z 0.000000 0.000000 2.095330 
# 
# From -- ./inp_files/2977.got.cif
#   From: 2010.05.17/outbox.cif.g08.bks.cpg/sg16_2_cif.got.tgz:2977.got - 2010.06.03 22:28:35.
