data_PCOD9310554
_publ_section_title
;
Structure prediction by ZEFSAII (Michael W. Deem and Ramdas Pophale) SiO2 
 PCOD9310554
Probable space group: P 2 2 21
;
_chemical_formula_sum "Si O2"
_cell_formula_units_Z 24
_cell_length_a 11.379462
_cell_length_b 11.455841
_cell_length_c 8.173494
_cell_angle_alpha 90.000000
_cell_angle_beta 90.000000
_cell_angle_gamma 90.000000
_cell_volume 1065.507363
_symmetry_space_group_name_H-M "P 2 2 21"
_symmetry_group_IT_number 17
_symmetry_cell_setting 'orthorhombic'
loop_
_space_group_symop_operation_xyz
x,y,z
-x,-y,1/2+z
x,-y,-z
-x,y,1/2-z
loop_
_atom_site_type_symbol
_atom_site_label
_atom_site_fract_x
_atom_site_fract_y
_atom_site_fract_z
Si Si1 0.994666 0.366740 0.450225
Si Si2 0.238111 0.260761 0.451015
Si Si3 0.000000 0.039830 0.250000
Si Si4 0.559023 0.875966 0.568181
Si Si5 0.524455 0.372915 0.055952
Si Si6 0.185932 0.799316 0.914396
Si Si7 0.806112 0.000000 0.000000
O O1 0.997980 0.500000 0.500000
O O2 0.875481 0.304397 0.513769
O O3 0.000000 0.359932 0.250000
O O4 0.111098 0.300612 0.512745
O O5 0.339567 0.351431 0.491748
O O6 0.229392 0.259279 0.254365
O O7 0.261148 0.123079 0.487138
O O8 0.105355 0.981108 0.347498
O O9 0.926634 0.119858 0.375745
O O10 0.500000 0.871621 0.750000
O O11 0.529119 0.749231 0.491139
O O12 0.700470 0.873348 0.542634
O O13 0.517406 0.000000 0.500000
O O14 0.500000 0.372164 0.250000
O O15 0.482940 0.500000 0.000000
#
# Coordination Sequence:
#
# PCOD9310554 Si02
#       7
#     4   4   2   4   4   4   2
#     4  10  20  37  63  87 122 160 202 246 313 377
#     4  10  19  39  63  90 119 167 201 252 313 383
#     4  10  20  36  62  88 124 158 196 242 310 382
#     4  11  25  42  69  93 128 168 217 270 320 373
#     4  11  24  44  67  89 126 169 220 264 320 374
#     4  10  18  38  61  88 120 165 198 247 317 372
#     4  10  20  36  66  90 126 160 202 248 320 382
#
# _framework density 22.524481999999999
#
# number of rings (size 3 to 8) (size 9 to 14) (size 15 to 20)
#    0.000    1.667    7.500    0.500    2.333    1.333 
#    1.500    0.000    3.667    0.000    0.000    0.000 
#    0.000    0.000    0.000    0.000    0.000    0.000 
#
# Total GULP energy -133621.577703 kJ/mol
# GULP energy per Si atom -5567.565738 kJ/mol
# Density = 2.247322 g / cm^3
# Si number density = 22.524482 Si / 1000 Ang^3
#
#
#
# Elastic Constant Matrix: (Units=GPa)
#
#
# Indices 1 2 3 4 5 6 
#
# 1 103.6089 59.7696 0.8060 0.0000 0.0000 0.0000
# 2 59.7696 190.3798 26.2733 0.0000 0.0000 0.0000
# 3 0.8060 26.2733 11.1954 0.0000 0.0000 0.0000
# 4 0.0000 0.0000 0.0000 34.2080 0.0000 0.0000
# 5 0.0000 0.0000 0.0000 0.0000 6.3418 0.0000
# 6 0.0000 0.0000 0.0000 0.0000 0.0000 45.5329
#
#
#
# Elastic Compliance Matrix: (Units=1/GPa)
#
#
# Indices 1 2 3 4 5 6 
#
# 1 0.012899 -0.005800 0.012682 0.000000 0.000000 0.000000
# 2 -0.005800 0.010377 -0.023934 0.000000 0.000000 0.000000
# 3 0.012682 -0.023934 0.144578 0.000000 0.000000 0.000000
# 4 0.000000 0.000000 0.000000 0.029233 0.000000 0.000000
# 5 0.000000 0.000000 0.000000 0.000000 0.157683 0.000000
# 6 0.000000 0.000000 0.000000 0.000000 0.000000 0.021962
#
#
# Mechanical properties :
#
#
# Convention : Reuss Voigt Hill
#
# Bulk Modulus (GPa) = 7.47661 53.20910 30.34285
# Shear Modulus (GPa) = 10.97892 31.77222 21.37557
#
# Velocity S-wave (km/s) = 2.21016 3.75982 3.08391
# Velocity P-wave (km/s) = 3.13681 6.52092 5.11674
#
# Compressibility (1/GPa) = 0.13375045
#
# Stress axis : x y z
#
# Youngs Moduli (GPa) = 77.52671 96.37143 6.91667
#
# Poissons Ratio (x) = 0.55893 -0.08772
# Poissons Ratio (y) = 0.44964 0.16554
# Poissons Ratio (z) = -0.98322 2.30656
#
# Static dielectric constant tensor:
#      x y z
#    x 1.933170 0.000000 0.000000 
#    y 0.000000 1.857370 0.000000 
#    z 0.000000 0.000000 1.889630 
# 
# From -- ./inp_files/6951.got.cif
#   From: 2010.05.17/outbox.cif.g08.bks.cpg/sg17_4_cif.got.tgz:6951.got - 2010.06.03 22:34:06.
