data_PCOD9310986
_publ_section_title
;
Structure prediction by ZEFSAII (Michael W. Deem and Ramdas Pophale) SiO2 
 PCOD9310986
Probable space group: P 2 2 21
;
_chemical_formula_sum "Si O2"
_cell_formula_units_Z 26
_cell_length_a 6.654713
_cell_length_b 8.725324
_cell_length_c 25.407935
_cell_angle_alpha 90.000000
_cell_angle_beta 90.000000
_cell_angle_gamma 90.000000
_cell_volume 1475.299729
_symmetry_space_group_name_H-M "P 2 2 21"
_symmetry_group_IT_number 17
_symmetry_cell_setting 'orthorhombic'
loop_
_space_group_symop_operation_xyz
x,y,z
-x,-y,1/2+z
x,-y,-z
-x,y,1/2-z
loop_
_atom_site_type_symbol
_atom_site_label
_atom_site_fract_x
_atom_site_fract_y
_atom_site_fract_z
Si Si1 0.557796 0.817859 0.004657
Si Si2 0.556117 0.613784 0.904052
Si Si3 0.000000 0.955451 0.750000
Si Si4 0.377669 0.119700 0.800708
Si Si5 0.376948 0.188660 0.301903
Si Si6 0.704798 0.678275 0.401651
Si Si7 0.897076 0.396010 0.952987
O O1 0.401219 0.762327 0.049008
O O2 0.769119 0.742688 0.022349
O O3 0.509099 0.738350 0.948985
O O4 0.564638 0.000000 0.000000
O O5 0.607691 0.695602 0.849701
O O6 0.374947 0.494931 0.898615
O O7 0.740209 0.508889 0.924409
O O8 0.851136 0.852962 0.785777
O O9 0.840958 0.058603 0.717665
O O10 0.500000 0.183431 0.750000
O O11 0.353569 0.234351 0.848607
O O12 0.509470 0.970457 0.816628
O O13 0.500000 0.242687 0.250000
O O14 0.939419 0.669515 0.413689
O O15 0.990106 0.500000 0.000000
#
# Coordination Sequence:
#
# PCOD9310986 Si02
#       7
#     4   4   2   4   4   4   4
#     4  10  21  37  57  80 106 139 178 223 267 311
#     4  10  21  36  54  79 112 140 172 220 267 315
#     4   8  18  36  56  78 106 138 180 226 262 302
#     4   9  20  36  56  79 105 140 180 220 262 311
#     4   9  19  37  58  80 106 140 182 221 263 313
#     4  11  21  36  56  79 110 144 176 215 267 322
#     4   9  20  36  53  78 110 142 175 214 265 321
#
# _framework density 17.623539000000001
#
# number of rings (size 3 to 8) (size 9 to 14) (size 15 to 20)
#    0.000    2.769    0.000    3.231    0.000    9.846 
#    0.000    3.077    0.000    0.000    0.000    0.000 
#    0.000    0.000    0.000    0.000    0.000    0.000 
#
# Total GULP energy -144977.425889 kJ/mol
# GULP energy per Si atom -5576.054842 kJ/mol
# Density = 1.758343 g / cm^3
# Si number density = 17.623539 Si / 1000 Ang^3
#
#
#
# Elastic Constant Matrix: (Units=GPa)
#
#
# Indices 1 2 3 4 5 6 
#
# 1 61.9268 16.0392 8.3254 0.0000 0.0000 0.0000
# 2 16.0392 109.4807 49.4592 0.0000 0.0000 0.0000
# 3 8.3254 49.4592 95.0905 0.0000 0.0000 0.0000
# 4 0.0000 0.0000 0.0000 21.0456 0.0000 0.0000
# 5 0.0000 0.0000 0.0000 0.0000 13.5357 0.0000
# 6 0.0000 0.0000 0.0000 0.0000 0.0000 3.7356
#
#
#
# Elastic Compliance Matrix: (Units=1/GPa)
#
#
# Indices 1 2 3 4 5 6 
#
# 1 0.016789 -0.002347 -0.000249 0.000000 0.000000 0.000000
# 2 -0.002347 0.012268 -0.006175 0.000000 0.000000 0.000000
# 3 -0.000249 -0.006175 0.013750 0.000000 0.000000 0.000000
# 4 0.000000 0.000000 0.000000 0.047516 0.000000 0.000000
# 5 0.000000 0.000000 0.000000 0.000000 0.073879 0.000000
# 6 0.000000 0.000000 0.000000 0.000000 0.000000 0.267697
#
#
# Mechanical properties :
#
#
# Convention : Reuss Voigt Hill
#
# Bulk Modulus (GPa) = 39.58188 46.01619 42.79903
# Shear Modulus (GPa) = 10.92030 20.50833 15.71431
#
# Velocity S-wave (km/s) = 2.49196 3.41499 2.98932
# Velocity P-wave (km/s) = 5.54872 6.45886 6.02101
#
# Compressibility (1/GPa) = 0.02526409
#
# Stress axis : x y z
#
# Youngs Moduli (GPa) = 59.56104 81.51539 72.72718
#
# Poissons Ratio (x) = 0.19133 0.01812
# Poissons Ratio (y) = 0.13980 0.44911
# Poissons Ratio (z) = 0.01484 0.50338
#
# Static dielectric constant tensor:
#      x y z
#    x 1.595040 0.000000 0.000000 
#    y 0.000000 1.580430 0.000000 
#    z 0.000000 0.000000 1.598260 
# 
# From -- ./inp_files/10872.got.cif
#   From: 2010.05.17/outbox.cif.g08.bks.cpg/sg17_6_cif.got.tgz:10872.got - 2010.06.03 22:34:06.
