data_PCOD9310976
_publ_section_title
;
Structure prediction by ZEFSAII (Michael W. Deem and Ramdas Pophale) SiO2 
 PCOD9310976
Probable space group: P 2 2 21
;
_chemical_formula_sum "Si O2"
_cell_formula_units_Z 24
_cell_length_a 17.582728
_cell_length_b 7.303381
_cell_length_c 7.737658
_cell_angle_alpha 90.000000
_cell_angle_beta 90.000000
_cell_angle_gamma 90.000000
_cell_volume 993.618675
_symmetry_space_group_name_H-M "P 2 2 21"
_symmetry_group_IT_number 17
_symmetry_cell_setting 'orthorhombic'
loop_
_space_group_symop_operation_xyz
x,y,z
-x,-y,1/2+z
x,-y,-z
-x,y,1/2-z
loop_
_atom_site_type_symbol
_atom_site_label
_atom_site_fract_x
_atom_site_fract_y
_atom_site_fract_z
Si Si1 0.688158 0.286538 0.515100
Si Si2 0.822202 0.788059 0.937086
Si Si3 0.853817 0.783927 0.527604
Si Si4 0.343123 0.696614 0.636134
Si Si5 0.014687 0.782944 0.543239
Si Si6 0.413936 0.710042 0.310840
O O1 0.668469 0.500000 0.500000
O O2 0.777263 0.282281 0.563050
O O3 0.672118 0.213729 0.322672
O O4 0.637230 0.200378 0.662738
O O5 0.839454 0.764199 0.732410
O O6 0.739652 0.698457 0.957871
O O7 0.902205 0.714857 0.015847
O O8 0.814922 0.000000 0.000000
O O9 0.935404 0.708984 0.465672
O O10 0.856881 0.000000 0.500000
O O11 0.400259 0.789194 0.501231
O O12 0.379760 0.496929 0.670988
O O13 0.000000 0.766113 0.750000
O O14 0.017604 0.000000 0.500000
O O15 0.500000 0.703893 0.250000
#
# Coordination Sequence:
#
# PCOD9310976 Si02
#       6
#     4   4   4   4   4   4
#     4   9  19  34  52  77 107 137 172 218 267 314
#     4   9  17  30  50  75 107 142 168 210 265 309
#     4   9  17  29  50  79 104 139 183 218 252 309
#     4   9  20  33  52  80 102 130 170 213 262 313
#     4   8  14  26  45  72 101 136 176 212 243 294
#     4  10  21  34  57  78  98 130 175 223 264 316
#
# _framework density 24.154133999999999
#
# number of rings (size 3 to 8) (size 9 to 14) (size 15 to 20)
#    0.000    3.000    0.000    0.000    9.333    0.000 
#    0.000    0.000    3.667    2.000    0.000    0.000 
#    0.000    0.000    0.000    0.000    0.000    0.000 
#
# Total GULP energy -133711.175035 kJ/mol
# GULP energy per Si atom -5571.298960 kJ/mol
# Density = 2.409916 g / cm^3
# Si number density = 24.154134 Si / 1000 Ang^3
#
#
#
# Elastic Constant Matrix: (Units=GPa)
#
#
# Indices 1 2 3 4 5 6 
#
# 1 205.3287 10.1570 77.9751 0.0000 0.0000 0.0000
# 2 10.1570 77.9573 -2.1127 0.0000 0.0000 0.0000
# 3 77.9751 -2.1127 73.5356 0.0000 0.0000 0.0000
# 4 0.0000 0.0000 0.0000 0.7353 0.0000 0.0000
# 5 0.0000 0.0000 0.0000 0.0000 297.3932 0.0000
# 6 0.0000 0.0000 0.0000 0.0000 0.0000 28.3741
#
#
#
# Elastic Compliance Matrix: (Units=1/GPa)
#
#
# Indices 1 2 3 4 5 6 
#
# 1 0.008287 -0.001319 -0.008825 0.000000 0.000000 0.000000
# 2 -0.001319 0.013047 0.001773 0.000000 0.000000 0.000000
# 3 -0.008825 0.001773 0.023008 0.000000 0.000000 0.000000
# 4 0.000000 0.000000 0.000000 1.360074 0.000000 0.000000
# 5 0.000000 0.000000 0.000000 0.000000 0.003363 0.000000
# 6 0.000000 0.000000 0.000000 0.000000 0.000000 0.035243
#
#
# Mechanical properties :
#
#
# Convention : Reuss Voigt Hill
#
# Bulk Modulus (GPa) = 36.23083 58.76224 47.49653
# Shear Modulus (GPa) = 3.40376 83.35398 43.37887
#
# Velocity S-wave (km/s) = 1.18838 5.88083 4.24243
# Velocity P-wave (km/s) = 4.11283 8.39601 6.61091
#
# Compressibility (1/GPa) = 0.02760081
#
# Stress axis : x y z
#
# Youngs Moduli (GPa) = 120.67312 76.64342 43.46388
#
# Poissons Ratio (x) = 0.10108 0.38357
# Poissons Ratio (y) = 0.15915 -0.07708
# Poissons Ratio (z) = 1.06494 -0.13591
#
# Static dielectric constant tensor:
#      x y z
#    x 1.962130 0.000000 0.000000 
#    y 0.000000 -0.551390 0.000000 
#    z 0.000000 0.000000 2.070940 
# 
# From -- ./inp_files/5443.got.cif
#   From: 2010.05.17/outbox.cif.g08.bks.cpg/sg17_3_cif.got.tgz:5443.got - 2010.06.03 22:34:06.
