data_PCOD9310639
_publ_section_title
;
Structure prediction by ZEFSAII (Michael W. Deem and Ramdas Pophale) SiO2 
 PCOD9310639
Probable space group: P 2 2 21
;
_chemical_formula_sum "Si O2"
_cell_formula_units_Z 28
_cell_length_a 11.264855
_cell_length_b 7.355322
_cell_length_c 15.953864
_cell_angle_alpha 90.000000
_cell_angle_beta 90.000000
_cell_angle_gamma 90.000000
_cell_volume 1321.883499
_symmetry_space_group_name_H-M "P 2 2 21"
_symmetry_group_IT_number 17
_symmetry_cell_setting 'orthorhombic'
loop_
_space_group_symop_operation_xyz
x,y,z
-x,-y,1/2+z
x,-y,-z
-x,y,1/2-z
loop_
_atom_site_type_symbol
_atom_site_label
_atom_site_fract_x
_atom_site_fract_y
_atom_site_fract_z
Si Si1 0.610728 0.307771 0.807846
Si Si2 0.406452 0.254255 0.319965
Si Si3 0.157190 0.797588 0.759393
Si Si4 0.989028 0.648596 0.613660
Si Si5 0.638668 0.713578 0.004363
Si Si6 0.877596 0.186310 0.775846
Si Si7 0.913633 0.261999 0.954577
O O1 0.500000 0.248065 0.750000
O O2 0.598976 0.525535 0.817552
O O3 0.602425 0.225558 0.902003
O O4 0.745878 0.274016 0.773993
O O5 0.500000 0.194946 0.250000
O O6 0.284575 0.188308 0.280874
O O7 0.413106 0.202841 0.418541
O O8 0.137025 0.668890 0.839855
O O9 0.077397 0.720130 0.684460
O O10 0.122936 0.004811 0.779528
O O11 0.997514 0.771602 0.530530
O O12 0.039440 0.453039 0.585195
O O13 0.782613 0.724779 0.004483
O O14 0.608579 0.500000 0.000000
O O15 0.896835 0.137454 0.873842
O O16 0.000000 0.289572 0.750000
#
# Coordination Sequence:
#
# PCOD9310639 Si02
#       7
#     4   4   4   4   4   4   4
#     4   9  20  37  59  83 113 152 204 255 294 357
#     4  10  20  36  60  85 112 156 203 251 302 350
#     4  11  21  36  53  84 127 149 186 242 305 364
#     4  10  19  35  57  85 113 147 194 253 292 347
#     4   9  14  31  56  84 108 138 198 251 284 344
#     4  11  23  36  55  88 119 159 195 244 305 365
#     4  10  19  34  60  85 110 154 205 246 294 345
#
# _framework density 21.181895000000001
#
# number of rings (size 3 to 8) (size 9 to 14) (size 15 to 20)
#    0.000    2.000    4.286    1.714    4.000    1.143 
#    0.000    1.429    6.286    0.000    0.000    0.000 
#    0.000    0.000    0.000    0.000    0.000    0.000 
#
# Total GULP energy -155922.507851 kJ/mol
# GULP energy per Si atom -5568.660995 kJ/mol
# Density = 2.113368 g / cm^3
# Si number density = 21.181895 Si / 1000 Ang^3
#
#
#
# Elastic Constant Matrix: (Units=GPa)
#
#
# Indices 1 2 3 4 5 6 
#
# 1 98.8334 2.2547 68.1708 0.0000 0.0000 0.0000
# 2 2.2547 52.7538 8.6163 0.0000 0.0000 0.0000
# 3 68.1708 8.6163 144.6425 0.0000 0.0000 0.0000
# 4 0.0000 0.0000 0.0000 9.3865 0.0000 0.0000
# 5 0.0000 0.0000 0.0000 0.0000 43.8721 0.0000
# 6 0.0000 0.0000 0.0000 0.0000 0.0000 12.3797
#
#
#
# Elastic Compliance Matrix: (Units=1/GPa)
#
#
# Indices 1 2 3 4 5 6 
#
# 1 0.015006 0.000519 -0.007103 0.000000 0.000000 0.000000
# 2 0.000519 0.019160 -0.001386 0.000000 0.000000 0.000000
# 3 -0.007103 -0.001386 0.010344 0.000000 0.000000 0.000000
# 4 0.000000 0.000000 0.000000 0.106536 0.000000 0.000000
# 5 0.000000 0.000000 0.000000 0.000000 0.022794 0.000000
# 6 0.000000 0.000000 0.000000 0.000000 0.000000 0.080777
#
#
# Mechanical properties :
#
#
# Convention : Reuss Voigt Hill
#
# Bulk Modulus (GPa) = 35.00263 50.47924 42.74094
# Shear Modulus (GPa) = 17.85203 27.60685 22.72944
#
# Velocity S-wave (km/s) = 2.90625 3.61407 3.27931
# Velocity P-wave (km/s) = 5.27469 6.42638 5.87881
#
# Compressibility (1/GPa) = 0.02856928
#
# Stress axis : x y z
#
# Youngs Moduli (GPa) = 66.64164 52.19163 96.67530
#
# Poissons Ratio (x) = -0.02708 0.68670
# Poissons Ratio (y) = -0.03457 0.13398
# Poissons Ratio (z) = 0.47337 0.07233
#
# Static dielectric constant tensor:
#      x y z
#    x 1.842280 0.000000 0.000000 
#    y 0.000000 1.871240 0.000000 
#    z 0.000000 0.000000 1.823960 
# 
# From -- ./inp_files/8481.got.cif
#   From: 2010.05.17/outbox.cif.g08.bks.cpg/sg17_5_cif.got.tgz:8481.got - 2010.06.03 22:34:06.
