data_PCOD9310726
_publ_section_title
;
Structure prediction by ZEFSAII (Michael W. Deem and Ramdas Pophale) SiO2 
 PCOD9310726
Probable space group: P 2 2 21
;
_chemical_formula_sum "Si O2"
_cell_formula_units_Z 24
_cell_length_a 4.218979
_cell_length_b 7.835789
_cell_length_c 23.478897
_cell_angle_alpha 90.000000
_cell_angle_beta 90.000000
_cell_angle_gamma 90.000000
_cell_volume 776.189542
_symmetry_space_group_name_H-M "P 2 2 21"
_symmetry_group_IT_number 17
_symmetry_cell_setting 'orthorhombic'
loop_
_space_group_symop_operation_xyz
x,y,z
-x,-y,1/2+z
x,-y,-z
-x,y,1/2-z
loop_
_atom_site_type_symbol
_atom_site_label
_atom_site_fract_x
_atom_site_fract_y
_atom_site_fract_z
Si Si1 0.500000 0.806201 0.250000
Si Si2 0.464064 0.733143 0.583606
Si Si3 0.460152 0.000000 0.500000
Si Si4 0.964063 0.233143 0.916394
Si Si5 0.948198 0.032954 0.167962
Si Si6 0.039849 0.500000 0.500000
Si Si7 0.551801 0.532953 0.167962
Si Si8 0.000000 0.693798 0.750000
O O1 0.645769 0.667819 0.294437
O O2 0.732798 0.920099 0.211340
O O3 0.257194 0.850306 0.625688
O O4 0.250010 0.617091 0.541864
O O5 0.627619 0.598447 0.626246
O O6 0.637081 0.866829 0.541648
O O7 0.249991 0.117091 0.541864
O O8 0.137080 0.366829 0.958352
O O9 0.757193 0.350306 0.874312
O O10 0.127618 0.098447 0.873754
O O11 0.854231 0.167819 0.294437
O O12 0.767201 0.420099 0.211340
#
# Coordination Sequence:
#
# PCOD9310726 Si02
#       8
#     2   4   2   4   4   2   4   2
#     4  10  20  32  48  66 100 134 160 194 232 272
#     4   8  14  24  42  66  98 118 148 196 246 278
#     4   8  12  22  40  66  96 120 140 192 260 282
#     4   8  14  24  42  66  98 118 148 196 246 278
#     4   9  18  31  46  70 100 129 158 193 232 282
#     4   8  12  22  40  66  96 120 140 192 260 282
#     4   9  18  31  46  70 100 129 158 193 232 282
#     4  10  20  32  48  66 100 134 160 194 232 272
#
# _framework density 30.920278
#
# number of rings (size 3 to 8) (size 9 to 14) (size 15 to 20)
#    0.000    3.333    0.000    0.000    0.000    5.333 
#    0.000    0.000    0.000    0.000    0.000    0.000 
#    0.000 1885.333    0.000    0.000    0.000    0.000 
#
# Total GULP energy -134308.136740 kJ/mol
# GULP energy per Si atom -5596.172364 kJ/mol
# Density = 3.084990 g / cm^3
# Si number density = 30.920278 Si / 1000 Ang^3
#
#
#
# Elastic Constant Matrix: (Units=GPa)
#
#
# Indices 1 2 3 4 5 6 
#
# 1 68.6241 73.5671 77.6180 0.0000 0.0000 0.0000
# 2 73.5671 229.7286 167.2027 0.0000 0.0000 0.0000
# 3 77.6180 167.2027 236.2684 0.0000 0.0000 0.0000
# 4 0.0000 0.0000 0.0000 218.6865 0.0000 0.0000
# 5 0.0000 0.0000 0.0000 0.0000 56.5688 0.0000
# 6 0.0000 0.0000 0.0000 0.0000 0.0000 -74.3350
#
#
#
# Elastic Compliance Matrix: (Units=1/GPa)
#
#
# Indices 1 2 3 4 5 6 
#
# 1 0.024996 -0.004182 -0.005252 0.000000 0.000000 0.000000
# 2 -0.004182 0.009676 -0.005474 0.000000 0.000000 0.000000
# 3 -0.005252 -0.005474 0.009832 0.000000 0.000000 0.000000
# 4 0.000000 0.000000 0.000000 0.004573 0.000000 0.000000
# 5 0.000000 0.000000 0.000000 0.000000 0.017678 0.000000
# 6 0.000000 0.000000 0.000000 0.000000 0.000000 -0.013453
#
#
# Mechanical properties :
#
#
# Convention : Reuss Voigt Hill
#
# Bulk Modulus (GPa) = 68.08345 130.15520 99.11932
# Shear Modulus (GPa) = 56.81020 54.59959 55.70490
#
# Velocity S-wave (km/s) = 4.29104 4.20672 4.24909
# Velocity P-wave (km/s) = 6.82770 8.11052 7.49660
#
# Compressibility (1/GPa) = 0.01468786
#
# Stress axis : x y z
#
# Youngs Moduli (GPa) = 40.00706 103.34705 101.71353
#
# Poissons Ratio (x) = 0.43219 0.53420
# Poissons Ratio (y) = 0.16731 0.55676
# Poissons Ratio (z) = 0.21012 0.56570
#
# Static dielectric constant tensor:
#      x y z
#    x 2.297350 0.000000 0.000000 
#    y 0.000000 2.352090 0.000000 
#    z 0.000000 0.000000 2.376190 
# 
# From -- ./inp_files/10040.got.cif
#   From: 2010.05.17/outbox.cif.g08.bks.cpg/sg17_6_cif.got.tgz:10040.got - 2010.06.03 22:34:06.
