data_PCOD9310981
_publ_section_title
;
Structure prediction by ZEFSAII (Michael W. Deem and Ramdas Pophale) SiO2 
 PCOD9310981
Probable space group: P 2 2 21
;
_chemical_formula_sum "Si O2"
_cell_formula_units_Z 24
_cell_length_a 4.842917
_cell_length_b 11.228028
_cell_length_c 20.994095
_cell_angle_alpha 90.000000
_cell_angle_beta 90.000000
_cell_angle_gamma 90.000000
_cell_volume 1141.583469
_symmetry_space_group_name_H-M "P 2 2 21"
_symmetry_group_IT_number 17
_symmetry_cell_setting 'orthorhombic'
loop_
_space_group_symop_operation_xyz
x,y,z
-x,-y,1/2+z
x,-y,-z
-x,y,1/2-z
loop_
_atom_site_type_symbol
_atom_site_label
_atom_site_fract_x
_atom_site_fract_y
_atom_site_fract_z
Si Si1 0.836860 0.721798 0.390119
Si Si2 0.208257 0.470279 0.065834
Si Si3 0.612208 0.396877 0.181257
Si Si4 0.307520 0.134493 0.012850
Si Si5 0.161067 0.751287 0.576891
Si Si6 0.313020 0.331040 0.688354
O O1 0.934493 0.593346 0.415271
O O2 0.823014 0.814010 0.447555
O O3 0.524590 0.697988 0.368414
O O4 0.037813 0.741216 0.329794
O O5 0.387897 0.426772 0.125903
O O6 0.986484 0.368432 0.051711
O O7 0.366022 0.500000 0.000000
O O8 0.500000 0.361660 0.250000
O O9 0.779305 0.289128 0.149247
O O10 0.751264 0.526809 0.193131
O O11 0.563918 0.211989 0.038946
O O12 0.065268 0.146760 0.065236
O O13 0.395541 0.000000 0.000000
O O14 0.500000 0.302991 0.750000
#
# Coordination Sequence:
#
# PCOD9310981 Si02
#       6
#     4   4   4   4   4   4
#     4  11  21  37  61  90 126 167 204 266 317 390
#     4  11  21  36  63 102 141 168 216 268 350 402
#     4  10  22  39  63 100 145 178 211 263 344 428
#     4  12  27  44  65  91 126 174 225 276 329 386
#     4  12  22  42  64  95 130 171 216 279 334 404
#     4  10  21  35  58  94 132 168 201 250 323 404
#
# _framework density 21.023432
#
# number of rings (size 3 to 8) (size 9 to 14) (size 15 to 20)
#    0.000    1.000    5.000    2.000    0.000    2.667 
#    0.000    0.000    0.000    6.000    0.000    0.000 
#    0.000    0.000    0.000    0.000    0.000    0.000 
#
# Total GULP energy -133852.302053 kJ/mol
# GULP energy per Si atom -5577.179252 kJ/mol
# Density = 2.097558 g / cm^3
# Si number density = 21.023432 Si / 1000 Ang^3
#
#
#
# Elastic Constant Matrix: (Units=GPa)
#
#
# Indices 1 2 3 4 5 6 
#
# 1 93.1749 11.2082 25.8078 0.0000 0.0000 0.0000
# 2 11.2082 66.2849 20.6137 0.0000 0.0000 0.0000
# 3 25.8078 20.6137 118.8546 0.0000 0.0000 0.0000
# 4 0.0000 0.0000 0.0000 14.9673 0.0000 0.0000
# 5 0.0000 0.0000 0.0000 0.0000 31.5506 0.0000
# 6 0.0000 0.0000 0.0000 0.0000 0.0000 18.8037
#
#
#
# Elastic Compliance Matrix: (Units=1/GPa)
#
#
# Indices 1 2 3 4 5 6 
#
# 1 0.011514 -0.001236 -0.002286 0.000000 0.000000 0.000000
# 2 -0.001236 0.016079 -0.002520 0.000000 0.000000 0.000000
# 3 -0.002286 -0.002520 0.009347 0.000000 0.000000 0.000000
# 4 0.000000 0.000000 0.000000 0.066812 0.000000 0.000000
# 5 0.000000 0.000000 0.000000 0.000000 0.031695 0.000000
# 6 0.000000 0.000000 0.000000 0.000000 0.000000 0.053181
#
#
# Mechanical properties :
#
#
# Convention : Reuss Voigt Hill
#
# Bulk Modulus (GPa) = 40.23148 43.73040 41.98094
# Shear Modulus (GPa) = 23.92356 27.77664 25.85010
#
# Velocity S-wave (km/s) = 3.37701 3.63881 3.51035
# Velocity P-wave (km/s) = 5.86375 6.20488 6.03673
#
# Compressibility (1/GPa) = 0.02485616
#
# Stress axis : x y z
#
# Youngs Moduli (GPa) = 86.84828 62.19220 106.98520
#
# Poissons Ratio (x) = 0.07688 0.24455
# Poissons Ratio (y) = 0.10735 0.26964
# Poissons Ratio (z) = 0.19852 0.15674
#
# Static dielectric constant tensor:
#      x y z
#    x 1.849530 0.000000 0.000000 
#    y 0.000000 1.724050 0.000000 
#    z 0.000000 0.000000 1.852560 
# 
# From -- ./inp_files/9884.got.cif
#   From: 2010.05.17/outbox.cif.g08.bks.cpg/sg17_5_cif.got.tgz:9884.got - 2010.06.03 22:34:06.
