data_PCOD9310182
_publ_section_title
;
Structure prediction by ZEFSAII (Michael W. Deem and Ramdas Pophale) SiO2 
 PCOD9310182
Probable space group: P 2 2 2
;
_chemical_formula_sum "Si O2"
_cell_formula_units_Z 19
_cell_length_a 12.921489
_cell_length_b 4.898638
_cell_length_c 15.797142
_cell_angle_alpha 90.000000
_cell_angle_beta 90.000000
_cell_angle_gamma 90.000000
_cell_volume 999.922708
_symmetry_space_group_name_H-M "P 2 2 2"
_symmetry_group_IT_number 16
_symmetry_cell_setting 'orthorhombic'
loop_
_space_group_symop_operation_xyz
x,y,z
-x,-y,z
x,-y,-z
-x,y,-z
loop_
_atom_site_type_symbol
_atom_site_label
_atom_site_fract_x
_atom_site_fract_y
_atom_site_fract_z
Si Si1 0.282152 0.613823 0.682623
Si Si2 0.384563 0.885864 0.237111
Si Si3 0.347972 0.500000 0.500000
Si Si4 0.220619 0.095215 0.904234
Si Si5 0.500000 0.000000 0.500000
Si Si6 0.882127 0.590358 0.176622
O O1 0.367701 0.417646 0.727428
O O2 0.283039 0.572406 0.582934
O O3 0.177335 0.554938 0.734080
O O4 0.317659 0.919924 0.701944
O O5 0.329230 0.913876 0.146052
O O6 0.500000 0.000000 0.236954
O O7 0.417382 0.236208 0.529023
O O8 0.175936 0.396271 0.890793
O O9 0.140674 0.894911 0.855571
O O10 0.230153 0.000000 0.000000
O O11 0.000000 0.500000 0.181637
#
# Coordination Sequence:
#
# PCOD9310182 Si02
#       6
#     4   4   2   4   1   4
#     4  10  22  35  54  77 110 140 180 221 261 315
#     4  10  21  35  53  77 108 148 176 213 264 320
#     4  11  22  36  51  82 112 138 181 220 257 308
#     4  10  21  36  55  82 108 136 180 224 266 320
#     4  10  24  30  52  82 106 142 166 226 256 302
#     4  10  21  38  56  79 107 140 177 224 274 315
#
# _framework density 19.001469
#
# number of rings (size 3 to 8) (size 9 to 14) (size 15 to 20)
#    0.000    1.895    0.000    3.158    8.842    2.947 
#    0.000    0.526    0.000    7.579    0.000   10.316 
#    0.000    0.000    0.000    0.000    0.000    0.000 
#
# Total GULP energy -105892.100574 kJ/mol
# GULP energy per Si atom -5573.268451 kJ/mol
# Density = 1.895822 g / cm^3
# Si number density = 19.001469 Si / 1000 Ang^3
#
#
#
# Elastic Constant Matrix: (Units=GPa)
#
#
# Indices 1 2 3 4 5 6 
#
# 1 28.7050 -24.3211 27.3932 0.0000 0.0000 0.0000
# 2 -24.3211 67.2365 -13.3181 0.0000 0.0000 0.0000
# 3 27.3932 -13.3181 133.1139 0.0000 0.0000 0.0000
# 4 0.0000 0.0000 0.0000 21.7260 0.0000 0.0000
# 5 0.0000 0.0000 0.0000 0.0000 34.8873 0.0000
# 6 0.0000 0.0000 0.0000 0.0000 0.0000 19.7767
#
#
#
# Elastic Compliance Matrix: (Units=1/GPa)
#
#
# Indices 1 2 3 4 5 6 
#
# 1 0.062495 0.020464 -0.010813 0.000000 0.000000 0.000000
# 2 0.020464 0.021875 -0.002023 0.000000 0.000000 0.000000
# 3 -0.010813 -0.002023 0.009535 0.000000 0.000000 0.000000
# 4 0.000000 0.000000 0.000000 0.046028 0.000000 0.000000
# 5 0.000000 0.000000 0.000000 0.000000 0.028664 0.000000
# 6 0.000000 0.000000 0.000000 0.000000 0.000000 0.050565
#
#
# Mechanical properties :
#
#
# Convention : Reuss Voigt Hill
#
# Bulk Modulus (GPa) = 9.16075 23.17371 16.16723
# Shear Modulus (GPa) = 20.80803 31.23142 26.01972
#
# Velocity S-wave (km/s) = 3.31278 4.05857 3.70449
# Velocity P-wave (km/s) = 4.41183 5.84678 5.17924
#
# Compressibility (1/GPa) = 0.10916139
#
# Stress axis : x y z
#
# Youngs Moduli (GPa) = 16.00124 45.71511 104.87434
#
# Poissons Ratio (x) = -0.93552 1.13403
# Poissons Ratio (y) = -0.32745 0.21213
# Poissons Ratio (z) = 0.17303 0.09247
#
# Static dielectric constant tensor:
#      x y z
#    x 1.640280 0.000000 0.000000 
#    y 0.000000 1.662270 0.000000 
#    z 0.000000 0.000000 1.665740 
# 
# From -- ./inp_files/8076.got.cif
#   From: 2010.05.17/outbox.cif.g08.bks.cpg/sg16_5_cif.got.tgz:8076.got - 2010.06.03 22:28:35.
