data_PCOD9310061
_publ_section_title
;
Structure prediction by ZEFSAII (Michael W. Deem and Ramdas Pophale) SiO2 
 PCOD9310061
Probable space group: P 2 2 2
;
_chemical_formula_sum "Si O2"
_cell_formula_units_Z 32
_cell_length_a 15.718499
_cell_length_b 8.886981
_cell_length_c 12.078184
_cell_angle_alpha 90.000000
_cell_angle_beta 90.000000
_cell_angle_gamma 90.000000
_cell_volume 1687.201547
_symmetry_space_group_name_H-M "P 2 2 2"
_symmetry_group_IT_number 16
_symmetry_cell_setting 'orthorhombic'
loop_
_space_group_symop_operation_xyz
x,y,z
-x,-y,z
x,-y,-z
-x,y,-z
loop_
_atom_site_type_symbol
_atom_site_label
_atom_site_fract_x
_atom_site_fract_y
_atom_site_fract_z
Si Si1 0.900705 0.174959 0.745668
Si Si2 0.252379 0.331180 0.858302
Si Si3 0.406133 0.817877 0.276569
Si Si4 0.353321 0.678691 0.503483
Si Si5 0.746910 0.688853 0.118351
Si Si6 0.401722 0.175415 0.263116
Si Si7 0.169199 0.821550 0.501613
Si Si8 0.093504 0.814706 0.264776
O O1 0.832238 0.246871 0.826641
O O2 0.874593 0.209933 0.618924
O O3 0.997194 0.226902 0.765645
O O4 0.897149 0.993677 0.756666
O O5 0.332360 0.260425 0.794033
O O6 0.257474 0.511499 0.855580
O O7 0.166221 0.273352 0.800651
O O8 0.253116 0.286346 0.987068
O O9 0.401945 0.753678 0.400846
O O10 0.500854 0.792602 0.230193
O O11 0.391207 0.996733 0.279517
O O12 0.363242 0.500000 0.500000
O O13 0.383292 0.743784 0.620491
O O14 0.254645 0.725603 0.490210
O O15 0.666391 0.767742 0.174988
O O16 0.109489 0.793639 0.396059
O O17 0.191943 0.000000 0.500000
#
# Coordination Sequence:
#
# PCOD9310061 Si02
#       8
#     4   4   4   4   4   4   4   4
#     4  10  21  38  63  93 124 161 204 250 302 362
#     4  11  25  43  62  87 122 163 205 254 311 364
#     4  11  24  42  65  92 122 159 203 251 304 362
#     4  12  23  36  61  95 129 162 197 241 301 367
#     4  11  25  43  62  87 122 163 205 254 311 364
#     4  11  24  42  65  92 122 159 203 251 304 362
#     4  10  19  35  61  91 125 161 197 243 301 362
#     4  10  21  38  63  93 124 161 204 250 302 362
#
# _framework density 18.966318999999999
#
# number of rings (size 3 to 8) (size 9 to 14) (size 15 to 20)
#    0.000    1.250    2.500    3.375    0.000    8.500 
#    0.000    5.000    0.000    2.250    0.000    0.000 
#    0.000    0.000    0.000    0.000    0.000    0.000 
#
# Total GULP energy -178951.613503 kJ/mol
# GULP energy per Si atom -5592.237922 kJ/mol
# Density = 1.892315 g / cm^3
# Si number density = 18.966319 Si / 1000 Ang^3
#
#
#
# Elastic Constant Matrix: (Units=GPa)
#
#
# Indices 1 2 3 4 5 6 
#
# 1 71.2815 10.8788 0.4716 0.0000 0.0000 0.0000
# 2 10.8788 32.2105 17.4843 0.0000 0.0000 0.0000
# 3 0.4716 17.4843 61.4841 0.0000 0.0000 0.0000
# 4 0.0000 0.0000 0.0000 -128.4201 0.0000 0.0000
# 5 0.0000 0.0000 0.0000 0.0000 -5.3539 0.0000
# 6 0.0000 0.0000 0.0000 0.0000 0.0000 -136.7538
#
#
#
# Elastic Compliance Matrix: (Units=1/GPa)
#
#
# Indices 1 2 3 4 5 6 
#
# 1 0.014917 -0.005884 0.001559 0.000000 0.000000 0.000000
# 2 -0.005884 0.039034 -0.011055 0.000000 0.000000 0.000000
# 3 0.001559 -0.011055 0.019396 0.000000 0.000000 0.000000
# 4 0.000000 0.000000 0.000000 -0.007787 0.000000 0.000000
# 5 0.000000 0.000000 0.000000 0.000000 -0.186781 0.000000
# 6 0.000000 0.000000 0.000000 0.000000 0.000000 -0.007312
#
#
# Mechanical properties :
#
#
# Convention : Reuss Voigt Hill
#
# Bulk Modulus (GPa) = 23.48183 24.73839 24.11011
# Shear Modulus (GPa) = -59.82469 -45.02946 -52.42707
#
# Velocity S-wave (km/s) = -5.62237 -4.87784 -5.26329
# Velocity P-wave (km/s) = 5.45348 4.31889 4.91901
#
# Compressibility (1/GPa) = 0.04258612
#
# Stress axis : x y z
#
# Youngs Moduli (GPa) = 67.03945 25.61875 51.55661
#
# Poissons Ratio (x) = 0.15074 -0.08037
# Poissons Ratio (y) = 0.39447 0.56996
# Poissons Ratio (z) = -0.10451 0.28322
#
# Static dielectric constant tensor:
#      x y z
#    x 1.650420 0.000000 0.000000 
#    y 0.000000 1.637340 0.000000 
#    z 0.000000 0.000000 1.629690 
# 
# From -- ./inp_files/7172.got.cif
#   From: 2010.05.17/outbox.cif.g08.bks.cpg/sg16_4_cif.got.tgz:7172.got - 2010.06.03 22:28:35.
