data_PCOD9310462
_publ_section_title
;
Structure prediction by ZEFSAII (Michael W. Deem and Ramdas Pophale) SiO2 
 PCOD9310462
Probable space group: P 2 2 21
;
_chemical_formula_sum "Si O2"
_cell_formula_units_Z 24
_cell_length_a 15.505268
_cell_length_b 14.278798
_cell_length_c 6.004135
_cell_angle_alpha 90.000000
_cell_angle_beta 90.000000
_cell_angle_gamma 90.000000
_cell_volume 1329.295013
_symmetry_space_group_name_H-M "P 2 2 21"
_symmetry_group_IT_number 17
_symmetry_cell_setting 'orthorhombic'
loop_
_space_group_symop_operation_xyz
x,y,z
-x,-y,1/2+z
x,-y,-z
-x,y,1/2-z
loop_
_atom_site_type_symbol
_atom_site_label
_atom_site_fract_x
_atom_site_fract_y
_atom_site_fract_z
Si Si1 0.043793 0.000000 0.000000
Si Si2 0.271687 0.302937 0.375964
Si Si3 0.500000 0.425020 0.750000
Si Si4 0.815514 0.858620 0.654798
Si Si5 0.660345 0.500000 0.000000
Si Si6 0.325451 0.836054 0.231876
Si Si7 0.726581 0.000000 0.000000
Si Si8 0.437360 0.730814 0.929007
O O1 0.100307 0.906045 0.952337
O O2 0.000000 0.013749 0.750000
O O3 0.190886 0.245190 0.268374
O O4 0.278798 0.411544 0.444343
O O5 0.295465 0.243635 0.595579
O O6 0.349100 0.293834 0.197453
O O7 0.590263 0.476826 0.803843
O O8 0.517522 0.359270 0.536992
O O9 0.746085 0.853485 0.457039
O O10 0.784237 0.933081 0.842590
O O11 0.332272 0.932413 0.358047
O O12 0.411598 0.800434 0.121534
O O13 0.500000 0.774649 0.750000
#
# Coordination Sequence:
#
# PCOD9310462 Si02
#       8
#     2   4   2   4   2   4   2   4
#     4  12  25  40  70 108 141 160 194 250 329 402
#     4  10  22  34  56  81 121 161 212 251 314 373
#     4  12  22  34  52  76 122 142 208 288 330 352
#     4  10  21  38  58  94 126 159 191 248 303 378
#     4  12  20  36  52  84 112 170 208 272 328 368
#     4  10  19  34  57  82 108 163 203 253 309 367
#     4  10  17  34  62  84 111 164 212 238 311 370
#     4  11  19  35  48  82 105 159 204 275 328 364
#
# _framework density 18.054680999999999
#
# number of rings (size 3 to 8) (size 9 to 14) (size 15 to 20)
#    0.000    1.333    5.000    1.500    2.333    0.000 
#    0.000    0.000    0.000    0.000  294.667    0.000 
#    5.000    0.000    0.000    0.000    0.000    0.000 
#
# Total GULP energy -133647.949581 kJ/mol
# GULP energy per Si atom -5568.664566 kJ/mol
# Density = 1.801359 g / cm^3
# Si number density = 18.054681 Si / 1000 Ang^3
#
#
#
# Elastic Constant Matrix: (Units=GPa)
#
#
# Indices 1 2 3 4 5 6 
#
# 1 52.8131 41.7578 31.6132 0.0000 0.0000 0.0000
# 2 41.7578 134.3377 47.8566 0.0000 0.0000 0.0000
# 3 31.6132 47.8566 104.5823 0.0000 0.0000 0.0000
# 4 0.0000 0.0000 0.0000 22.1685 0.0000 0.0000
# 5 0.0000 0.0000 0.0000 0.0000 28.2523 0.0000
# 6 0.0000 0.0000 0.0000 0.0000 0.0000 22.6034
#
#
#
# Elastic Compliance Matrix: (Units=1/GPa)
#
#
# Indices 1 2 3 4 5 6 
#
# 1 0.027298 -0.006626 -0.005220 0.000000 0.000000 0.000000
# 2 -0.006626 0.010502 -0.002803 0.000000 0.000000 0.000000
# 3 -0.005220 -0.002803 0.012422 0.000000 0.000000 0.000000
# 4 0.000000 0.000000 0.000000 0.045109 0.000000 0.000000
# 5 0.000000 0.000000 0.000000 0.000000 0.035395 0.000000
# 6 0.000000 0.000000 0.000000 0.000000 0.000000 0.044241
#
#
# Mechanical properties :
#
#
# Convention : Reuss Voigt Hill
#
# Bulk Modulus (GPa) = 47.78862 59.35424 53.57143
# Shear Modulus (GPa) = 23.66981 25.97190 24.82086
#
# Velocity S-wave (km/s) = 3.62471 3.79689 3.71180
# Velocity P-wave (km/s) = 6.63659 7.22273 6.93586
#
# Compressibility (1/GPa) = 0.02092548
#
# Stress axis : x y z
#
# Youngs Moduli (GPa) = 36.63269 95.21984 80.50106
#
# Poissons Ratio (x) = 0.63092 0.42019
# Poissons Ratio (y) = 0.24273 0.22563
# Poissons Ratio (z) = 0.19121 0.26688
#
# Static dielectric constant tensor:
#      x y z
#    x 1.608940 0.000000 0.000000 
#    y 0.000000 1.654580 0.000000 
#    z 0.000000 0.000000 1.734350 
# 
# From -- ./inp_files/2172.got.cif
#   From: 2010.05.17/outbox.cif.g08.bks.cpg/sg17_2_cif.got.tgz:2172.got - 2010.06.03 22:34:06.
