data_PCOD9310673
_publ_section_title
;
Structure prediction by ZEFSAII (Michael W. Deem and Ramdas Pophale) SiO2 
 PCOD9310673
Probable space group: P 2 2 21
;
_chemical_formula_sum "Si O2"
_cell_formula_units_Z 24
_cell_length_a 8.586602
_cell_length_b 10.605016
_cell_length_c 11.822769
_cell_angle_alpha 90.000000
_cell_angle_beta 90.000000
_cell_angle_gamma 90.000000
_cell_volume 1076.593778
_symmetry_space_group_name_H-M "P 2 2 21"
_symmetry_group_IT_number 17
_symmetry_cell_setting 'orthorhombic'
loop_
_space_group_symop_operation_xyz
x,y,z
-x,-y,1/2+z
x,-y,-z
-x,y,1/2-z
loop_
_atom_site_type_symbol
_atom_site_label
_atom_site_fract_x
_atom_site_fract_y
_atom_site_fract_z
Si Si1 0.886464 0.183781 0.154346
Si Si2 0.424156 0.090501 0.367100
Si Si3 0.318046 0.608558 0.784077
Si Si4 0.551207 0.801241 0.096791
Si Si5 0.899410 0.644689 0.502609
Si Si6 0.735974 0.678843 0.278428
O O1 0.761934 0.078006 0.124348
O O2 0.779429 0.290550 0.212854
O O3 0.000000 0.132528 0.250000
O O4 0.986639 0.255062 0.060834
O O5 0.500000 0.130300 0.250000
O O6 0.452736 0.195935 0.462079
O O7 0.487211 0.948830 0.382315
O O8 0.500000 0.609357 0.750000
O O9 0.253542 0.630793 0.913523
O O10 0.263111 0.468252 0.750433
O O11 0.707304 0.759546 0.164142
O O12 0.417970 0.714366 0.148432
O O13 0.961204 0.500000 0.500000
O O14 0.866676 0.692450 0.375081
#
# Coordination Sequence:
#
# PCOD9310673 Si02
#       6
#     4   4   4   4   4   4
#     4  10  23  39  58  92 132 169 212 254 324 405
#     4  11  23  42  67  94 125 168 225 282 329 374
#     4  10  19  36  63 100 128 165 216 267 320 396
#     4  10  22  40  65  96 124 161 220 287 323 383
#     4   9  21  38  59  91 134 174 208 256 331 408
#     4  10  19  41  64  95 131 165 211 271 332 388
#
# _framework density 22.292532999999999
#
# number of rings (size 3 to 8) (size 9 to 14) (size 15 to 20)
#    0.000    2.000    3.333    0.500    7.000    1.333 
#    0.000    5.833    0.000    0.000    0.000    0.000 
#    0.000    0.000    0.000    0.000    0.000    0.000 
#
# Total GULP energy -133684.163238 kJ/mol
# GULP energy per Si atom -5570.173468 kJ/mol
# Density = 2.224179 g / cm^3
# Si number density = 22.292533 Si / 1000 Ang^3
#
#
#
# Elastic Constant Matrix: (Units=GPa)
#
#
# Indices 1 2 3 4 5 6 
#
# 1 45.9974 -14.0457 0.8171 0.0000 0.0000 0.0000
# 2 -14.0457 31.0971 13.5932 0.0000 0.0000 0.0000
# 3 0.8171 13.5932 125.1226 0.0000 0.0000 0.0000
# 4 0.0000 0.0000 0.0000 30.0669 0.0000 0.0000
# 5 0.0000 0.0000 0.0000 0.0000 28.0035 0.0000
# 6 0.0000 0.0000 0.0000 0.0000 0.0000 3.3453
#
#
#
# Elastic Compliance Matrix: (Units=1/GPa)
#
#
# Indices 1 2 3 4 5 6 
#
# 1 0.025479 0.012158 -0.001487 0.000000 0.000000 0.000000
# 2 0.012158 0.039562 -0.004377 0.000000 0.000000 0.000000
# 3 -0.001487 -0.004377 0.008477 0.000000 0.000000 0.000000
# 4 0.000000 0.000000 0.000000 0.033259 0.000000 0.000000
# 5 0.000000 0.000000 0.000000 0.000000 0.035710 0.000000
# 6 0.000000 0.000000 0.000000 0.000000 0.000000 0.298925
#
#
# Mechanical properties :
#
#
# Convention : Reuss Voigt Hill
#
# Bulk Modulus (GPa) = 11.61347 22.54959 17.08153
# Shear Modulus (GPa) = 10.92830 25.73999 18.33414
#
# Velocity S-wave (km/s) = 2.21650 3.40169 2.87092
# Velocity P-wave (km/s) = 3.43094 5.05628 4.32073
#
# Compressibility (1/GPa) = 0.08610687
#
# Stress axis : x y z
#
# Youngs Moduli (GPa) = 39.24731 25.27650 117.96024
#
# Poissons Ratio (x) = -0.30732 0.17544
# Poissons Ratio (y) = -0.47719 0.51636
# Poissons Ratio (z) = 0.05837 0.11065
#
# Static dielectric constant tensor:
#      x y z
#    x 1.924130 0.000000 0.000000 
#    y 0.000000 1.796050 0.000000 
#    z 0.000000 0.000000 2.035440 
# 
# From -- ./inp_files/6556.got.cif
#   From: 2010.05.17/outbox.cif.g08.bks.cpg/sg17_4_cif.got.tgz:6556.got - 2010.06.03 22:34:06.
