data_PCOD9310476
_publ_section_title
;
Structure prediction by ZEFSAII (Michael W. Deem and Ramdas Pophale) SiO2 
 PCOD9310476
Probable space group: P 2 2 21
;
_chemical_formula_sum "Si O2"
_cell_formula_units_Z 30
_cell_length_a 10.964064
_cell_length_b 21.670790
_cell_length_c 5.592117
_cell_angle_alpha 90.000000
_cell_angle_beta 90.000000
_cell_angle_gamma 90.000000
_cell_volume 1328.686599
_symmetry_space_group_name_H-M "P 2 2 21"
_symmetry_group_IT_number 17
_symmetry_cell_setting 'orthorhombic'
loop_
_space_group_symop_operation_xyz
x,y,z
-x,-y,1/2+z
x,-y,-z
-x,y,1/2-z
loop_
_atom_site_type_symbol
_atom_site_label
_atom_site_fract_x
_atom_site_fract_y
_atom_site_fract_z
Si Si1 0.729388 0.417449 0.340244
Si Si2 0.699433 0.150465 0.330534
Si Si3 0.186895 0.708631 0.363070
Si Si4 0.638033 0.409914 0.838477
Si Si5 0.625369 0.180240 0.828773
Si Si6 0.185968 0.286680 0.136625
Si Si7 0.853387 0.032482 0.250485
Si Si8 0.000000 0.462949 0.250000
O O1 0.700833 0.442145 0.607366
O O2 0.715784 0.342738 0.363519
O O3 0.872124 0.427541 0.282166
O O4 0.650803 0.437391 0.107872
O O5 0.650898 0.136566 0.599172
O O6 0.749112 0.220283 0.357915
O O7 0.803631 0.101770 0.264864
O O8 0.615332 0.150783 0.092445
O O9 0.282884 0.652451 0.365740
O O10 0.265762 0.771161 0.353531
O O11 0.118880 0.707970 0.612707
O O12 0.118818 0.705380 0.113305
O O13 0.500000 0.400937 0.750000
O O14 0.500000 0.212867 0.750000
O O15 0.000000 0.032522 0.250000
O O16 0.814413 0.000000 0.500000
O O17 0.814116 0.000000 0.000000
O O18 0.014081 0.500000 0.500000
#
# Coordination Sequence:
#
# PCOD9310476 Si02
#       8
#     4   4   4   4   4   4   4   2
#     4  10  21  38  59  89 120 151 199 241 283 342
#     4  10  19  33  53  79 109 142 178 219 279 327
#     4   8  15  26  45  76 113 153 182 210 261 332
#     4  10  18  32  58  89 124 154 183 235 299 352
#     4  10  18  29  48  75 111 147 182 217 255 323
#     4   8  16  30  50  80 115 141 175 225 280 333
#     4  10  21  38  59  78  97 130 182 232 274 327
#     4  12  26  46  70  86 110 162 214 246 270 324
#
# _framework density 22.578686000000001
#
# number of rings (size 3 to 8) (size 9 to 14) (size 15 to 20)
#    0.000    2.400    0.000    2.800    0.000    0.000 
#    1.200    8.000    0.000   16.000    0.000    0.000 
#    0.000    0.000    0.000    0.000    0.000    0.000 
#
# Total GULP energy -167042.281201 kJ/mol
# GULP energy per Si atom -5568.076040 kJ/mol
# Density = 2.252730 g / cm^3
# Si number density = 22.578686 Si / 1000 Ang^3
#
#
#
# Elastic Constant Matrix: (Units=GPa)
#
#
# Indices 1 2 3 4 5 6 
#
# 1 70.3082 0.2415 44.5476 0.0000 0.0000 0.0000
# 2 0.2415 56.5214 23.2144 0.0000 0.0000 0.0000
# 3 44.5476 23.2144 294.1233 0.0000 0.0000 0.0000
# 4 0.0000 0.0000 0.0000 24.2472 0.0000 0.0000
# 5 0.0000 0.0000 0.0000 0.0000 39.7294 0.0000
# 6 0.0000 0.0000 0.0000 0.0000 0.0000 0.1889
#
#
#
# Elastic Compliance Matrix: (Units=1/GPa)
#
#
# Indices 1 2 3 4 5 6 
#
# 1 0.015782 0.000945 -0.002465 0.000000 0.000000 0.000000
# 2 0.000945 0.018342 -0.001591 0.000000 0.000000 0.000000
# 3 -0.002465 -0.001591 0.003899 0.000000 0.000000 0.000000
# 4 0.000000 0.000000 0.000000 0.041242 0.000000 0.000000
# 5 0.000000 0.000000 0.000000 0.000000 0.025170 0.000000
# 6 0.000000 0.000000 0.000000 0.000000 0.000000 5.294069
#
#
# Mechanical properties :
#
#
# Convention : Reuss Voigt Hill
#
# Bulk Modulus (GPa) = 31.44583 61.88443 46.66513
# Shear Modulus (GPa) = 0.92331 36.36305 18.64318
#
# Velocity S-wave (km/s) = 0.64017 4.01746 2.87661
# Velocity P-wave (km/s) = 3.80840 6.99913 5.63435
#
# Compressibility (1/GPa) = 0.03180072
#
# Stress axis : x y z
#
# Youngs Moduli (GPa) = 63.36502 54.52047 256.48828
#
# Poissons Ratio (x) = -0.05152 0.63220
# Poissons Ratio (y) = -0.05988 0.40802
# Poissons Ratio (z) = 0.15618 0.08673
#
# Static dielectric constant tensor:
#      x y z
#    x 1.786420 0.000000 0.000000 
#    y 0.000000 1.837960 0.000000 
#    z 0.000000 0.000000 1.973810 
# 
# From -- ./inp_files/1842.got.cif
#   From: 2010.05.17/outbox.cif.g08.bks.cpg/sg17_1_cif.got.tgz:1842.got - 2010.06.03 22:34:06.
