data_PCOD9310861
_publ_section_title
;
Structure prediction by ZEFSAII (Michael W. Deem and Ramdas Pophale) SiO2 
 PCOD9310861
Probable space group: P 2 2 21
;
_chemical_formula_sum "Si O2"
_cell_formula_units_Z 20
_cell_length_a 11.441694
_cell_length_b 5.213059
_cell_length_c 14.781965
_cell_angle_alpha 90.000000
_cell_angle_beta 90.000000
_cell_angle_gamma 90.000000
_cell_volume 881.688423
_symmetry_space_group_name_H-M "P 2 2 21"
_symmetry_group_IT_number 17
_symmetry_cell_setting 'orthorhombic'
loop_
_space_group_symop_operation_xyz
x,y,z
-x,-y,1/2+z
x,-y,-z
-x,y,1/2-z
loop_
_atom_site_type_symbol
_atom_site_label
_atom_site_fract_x
_atom_site_fract_y
_atom_site_fract_z
Si Si1 0.749929 0.957718 0.708475
Si Si2 0.999620 0.697866 0.432255
Si Si3 0.000000 0.797643 0.250000
Si Si4 0.214757 0.000000 0.000000
Si Si5 0.336616 0.500000 0.500000
Si Si6 0.626634 0.536920 0.208094
Si Si7 0.184881 0.000000 0.500000
O O1 0.709645 0.695735 0.757207
O O2 0.726412 0.944097 0.598147
O O3 0.679962 0.195860 0.754096
O O4 0.886378 0.031814 0.723950
O O5 0.054339 0.500000 0.500000
O O6 0.999111 0.598986 0.332980
O O7 0.876237 0.775160 0.473455
O O8 0.089987 0.934417 0.422794
O O9 0.391611 0.454590 0.599287
O O10 0.264973 0.240227 0.483770
O O11 0.500000 0.492990 0.250000
#
# Coordination Sequence:
#
# PCOD9310861 Si02
#       7
#     4   4   2   2   2   4   2
#     4  11  26  46  74 105 145 183 238 289 353 426
#     4  10  20  38  61  96 145 183 229 272 344 427
#     4  10  22  42  64 110 138 186 224 292 348 420
#     4   9  24  40  65 104 140 190 221 289 352 422
#     4  12  24  44  70 100 134 176 236 298 344 402
#     4  12  28  49  73 105 138 188 241 290 348 416
#     4  11  22  40  65  96 134 186 225 281 348 398
#
# _framework density 22.68375
#
# number of rings (size 3 to 8) (size 9 to 14) (size 15 to 20)
#    0.000    1.200    1.000    4.200    5.600    2.400 
#    0.000    0.000    0.000    0.000    0.000    0.000 
#    0.000    0.000    0.000    0.000    0.000    0.000 
#
# Total GULP energy -111426.773576 kJ/mol
# GULP energy per Si atom -5571.338679 kJ/mol
# Density = 2.263212 g / cm^3
# Si number density = 22.683750 Si / 1000 Ang^3
#
#
#
# Elastic Constant Matrix: (Units=GPa)
#
#
# Indices 1 2 3 4 5 6 
#
# 1 70.6121 7.2191 30.2208 0.0000 0.0000 0.0000
# 2 7.2191 100.4289 37.2457 0.0000 0.0000 0.0000
# 3 30.2208 37.2457 242.4537 0.0000 0.0000 0.0000
# 4 0.0000 0.0000 0.0000 20.3778 0.0000 0.0000
# 5 0.0000 0.0000 0.0000 0.0000 -12.2142 0.0000
# 6 0.0000 0.0000 0.0000 0.0000 0.0000 13.6983
#
#
#
# Elastic Compliance Matrix: (Units=1/GPa)
#
#
# Indices 1 2 3 4 5 6 
#
# 1 0.014976 -0.000407 -0.001804 0.000000 0.000000 0.000000
# 2 -0.000407 0.010570 -0.001573 0.000000 0.000000 0.000000
# 3 -0.001804 -0.001573 0.004591 0.000000 0.000000 0.000000
# 4 0.000000 0.000000 0.000000 0.049073 0.000000 0.000000
# 5 0.000000 0.000000 0.000000 0.000000 -0.081872 0.000000
# 6 0.000000 0.000000 0.000000 0.000000 0.000000 0.073002
#
#
# Mechanical properties :
#
#
# Convention : Reuss Voigt Hill
#
# Bulk Modulus (GPa) = 44.31115 62.54066 53.42590
# Shear Modulus (GPa) = 58.52709 26.95966 42.74338
#
# Velocity S-wave (km/s) = 5.08501 3.45120 4.34558
# Velocity P-wave (km/s) = 7.35209 6.59633 6.98444
#
# Compressibility (1/GPa) = 0.02256769
#
# Stress axis : x y z
#
# Youngs Moduli (GPa) = 66.77508 94.60794 217.81719
#
# Poissons Ratio (x) = 0.03855 0.39296
# Poissons Ratio (y) = 0.02721 0.34262
# Poissons Ratio (z) = 0.12047 0.14882
#
# Static dielectric constant tensor:
#      x y z
#    x 1.831140 0.000000 0.000000 
#    y 0.000000 1.888040 0.000000 
#    z 0.000000 0.000000 2.232610 
# 
# From -- ./inp_files/8383.got.cif
#   From: 2010.05.17/outbox.cif.g08.bks.cpg/sg17_5_cif.got.tgz:8383.got - 2010.06.03 22:34:06.
