data_PCOD9310564
_publ_section_title
;
Structure prediction by ZEFSAII (Michael W. Deem and Ramdas Pophale) SiO2 
 PCOD9310564
Probable space group: P 2 2 21
;
_chemical_formula_sum "Si O2"
_cell_formula_units_Z 28
_cell_length_a 13.338173
_cell_length_b 19.410145
_cell_length_c 5.159417
_cell_angle_alpha 90.000000
_cell_angle_beta 90.000000
_cell_angle_gamma 90.000000
_cell_volume 1335.751763
_symmetry_space_group_name_H-M "P 2 2 21"
_symmetry_group_IT_number 17
_symmetry_cell_setting 'orthorhombic'
loop_
_space_group_symop_operation_xyz
x,y,z
-x,-y,1/2+z
x,-y,-z
-x,y,1/2-z
loop_
_atom_site_type_symbol
_atom_site_label
_atom_site_fract_x
_atom_site_fract_y
_atom_site_fract_z
Si Si1 0.810961 0.346295 0.034360
Si Si2 0.389663 0.715983 0.677268
Si Si3 0.101799 0.765648 0.183146
Si Si4 0.000000 0.665846 0.750000
Si Si5 0.500000 0.548494 0.250000
Si Si6 0.327033 0.199024 0.838025
Si Si7 0.714647 0.451668 0.744679
Si Si8 0.379044 0.958548 0.249842
O O1 0.857448 0.274188 0.939455
O O2 0.789375 0.389742 0.778658
O O3 0.707252 0.335469 0.189578
O O4 0.906547 0.380498 0.164173
O O5 0.500000 0.684804 0.750000
O O6 0.369802 0.752260 0.396604
O O7 0.377806 0.773965 0.898860
O O8 0.207239 0.797805 0.101291
O O9 0.000000 0.807751 0.250000
O O10 0.056666 0.712539 0.970132
O O11 0.498808 0.500000 0.500000
O O12 0.394612 0.585324 0.242676
O O13 0.350549 0.121117 0.762538
O O14 0.725563 0.500000 0.500000
O O15 0.720167 0.500000 0.000000
O O16 0.500000 0.960572 0.250000
O O17 0.343066 0.000000 0.500000
O O18 0.342882 0.000000 0.000000
#
# Coordination Sequence:
#
# PCOD9310564 Si02
#       8
#     4   4   4   2   2   4   4   4
#     4  10  22  38  62  90 119 159 196 256 305 381
#     4  11  22  37  57  95 129 158 197 253 321 371
#     4   9  20  37  62  86 115 153 202 254 310 372
#     4  10  18  40  64  84 118 150 206 248 318 370
#     4   8  16  36  54  80 108 152 190 224 272 346
#     4  11  21  38  60  88 125 166 205 253 308 364
#     4  10  22  39  61  84 119 155 200 241 294 365
#     4  10  20  34  54  83 120 168 209 241 291 358
#
# _framework density 20.961978999999999
#
# number of rings (size 3 to 8) (size 9 to 14) (size 15 to 20)
#    0.000    2.000    1.429    2.143    2.000    1.143 
#   12.857    0.000    4.714    0.857    0.000    0.000 
#    0.000    0.000    0.000    0.000    0.000    0.000 
#
# Total GULP energy -155967.378958 kJ/mol
# GULP energy per Si atom -5570.263534 kJ/mol
# Density = 2.091427 g / cm^3
# Si number density = 20.961979 Si / 1000 Ang^3
#
#
#
# Elastic Constant Matrix: (Units=GPa)
#
#
# Indices 1 2 3 4 5 6 
#
# 1 145.6237 29.4447 43.4012 0.0000 0.0000 0.0000
# 2 29.4447 44.1992 13.3991 0.0000 0.0000 0.0000
# 3 43.4012 13.3991 111.9909 0.0000 0.0000 0.0000
# 4 0.0000 0.0000 0.0000 25.4784 0.0000 0.0000
# 5 0.0000 0.0000 0.0000 0.0000 26.3670 0.0000
# 6 0.0000 0.0000 0.0000 0.0000 0.0000 9.5777
#
#
#
# Elastic Compliance Matrix: (Units=1/GPa)
#
#
# Indices 1 2 3 4 5 6 
#
# 1 0.008696 -0.004951 -0.002778 0.000000 0.000000 0.000000
# 2 -0.004951 0.026295 -0.001227 0.000000 0.000000 0.000000
# 3 -0.002778 -0.001227 0.010153 0.000000 0.000000 0.000000
# 4 0.000000 0.000000 0.000000 0.039249 0.000000 0.000000
# 5 0.000000 0.000000 0.000000 0.000000 0.037926 0.000000
# 6 0.000000 0.000000 0.000000 0.000000 0.000000 0.104409
#
#
# Mechanical properties :
#
#
# Convention : Reuss Voigt Hill
#
# Bulk Modulus (GPa) = 36.72195 52.70042 44.71118
# Shear Modulus (GPa) = 19.70696 26.65587 23.18141
#
# Velocity S-wave (km/s) = 3.06948 3.56986 3.32908
# Velocity P-wave (km/s) = 5.48805 6.49518 6.01274
#
# Compressibility (1/GPa) = 0.02723167
#
# Stress axis : x y z
#
# Youngs Moduli (GPa) = 114.99612 38.02973 98.49685
#
# Poissons Ratio (x) = 0.18829 0.27359
# Poissons Ratio (y) = 0.56935 0.12089
# Poissons Ratio (z) = 0.31942 0.04668
#
# Static dielectric constant tensor:
#      x y z
#    x 1.893540 0.000000 0.000000 
#    y 0.000000 1.731980 0.000000 
#    z 0.000000 0.000000 1.878430 
# 
# From -- ./inp_files/1831.got.cif
#   From: 2010.05.17/outbox.cif.g08.bks.cpg/sg17_1_cif.got.tgz:1831.got - 2010.06.03 22:34:06.
