data_PCOD9310268
_publ_section_title
;
Structure prediction by ZEFSAII (Michael W. Deem and Ramdas Pophale) SiO2 
 PCOD9310268
Probable space group: P 2 2 2
;
_chemical_formula_sum "Si O2"
_cell_formula_units_Z 27
_cell_length_a 7.906094
_cell_length_b 9.840542
_cell_length_c 16.428950
_cell_angle_alpha 90.000000
_cell_angle_beta 90.000000
_cell_angle_gamma 90.000000
_cell_volume 1278.176418
_symmetry_space_group_name_H-M "P 2 2 2"
_symmetry_group_IT_number 16
_symmetry_cell_setting 'orthorhombic'
loop_
_space_group_symop_operation_xyz
x,y,z
-x,-y,z
x,-y,-z
-x,y,-z
loop_
_atom_site_type_symbol
_atom_site_label
_atom_site_fract_x
_atom_site_fract_y
_atom_site_fract_z
Si Si1 0.000000 0.500000 0.184459
Si Si2 0.047733 0.219025 0.094663
Si Si3 0.683978 0.782240 0.400036
Si Si4 0.696118 0.520991 0.303948
Si Si5 0.500000 0.000000 0.000000
Si Si6 0.287376 0.280739 0.580245
Si Si7 0.190108 0.042730 0.686799
Si Si8 0.738302 0.033646 0.137654
O O1 0.050490 0.368504 0.131783
O O2 0.835840 0.471676 0.240379
O O3 0.207204 0.120242 0.112708
O O4 0.895563 0.134408 0.133697
O O5 0.000000 0.224344 0.000000
O O6 0.729567 0.676753 0.328466
O O7 0.761066 0.738268 0.486684
O O8 0.481669 0.769467 0.409980
O O9 0.739229 0.931966 0.376009
O O10 0.500000 0.500000 0.277168
O O11 0.715227 0.433272 0.386519
O O12 0.613473 0.919889 0.934275
O O13 0.183904 0.186250 0.641635
O O14 0.306520 0.039553 0.767429
O O15 0.000000 0.000000 0.709789
#
# Coordination Sequence:
#
# PCOD9310268 Si02
#       8
#     2   4   4   4   1   4   4   4
#     4  12  25  42  67  96 136 172 210 278 343 385
#     4  11  21  45  65  89 126 172 204 253 343 399
#     4  10  22  41  62  89 130 174 218 271 327 377
#     4  10  23  43  65  93 121 175 230 267 322 394
#     4  12  24  42  72 106 122 162 228 270 324 382
#     4  10  22  41  62  89 130 174 218 271 327 377
#     4  12  24  38  61  96 130 168 212 267 329 388
#     4  11  23  42  68  95 125 166 213 266 314 401
#
# _framework density 21.123847000000001
#
# number of rings (size 3 to 8) (size 9 to 14) (size 15 to 20)
#    0.000    1.185    2.963    3.778    4.148    4.148 
#    2.667    0.741    0.000    1.778    0.000    0.000 
#    0.000    0.000    0.000    0.000    0.000    0.000 
#
# Total GULP energy -150796.591569 kJ/mol
# GULP energy per Si atom -5585.058947 kJ/mol
# Density = 2.107577 g / cm^3
# Si number density = 21.123847 Si / 1000 Ang^3
#
#
#
# Elastic Constant Matrix: (Units=GPa)
#
#
# Indices 1 2 3 4 5 6 
#
# 1 42.7759 1.1031 7.7602 0.0000 0.0000 0.0000
# 2 1.1031 81.4135 4.1292 0.0000 0.0000 0.0000
# 3 7.7602 4.1292 80.2220 0.0000 0.0000 0.0000
# 4 0.0000 0.0000 0.0000 32.0352 0.0000 0.0000
# 5 0.0000 0.0000 0.0000 0.0000 17.6094 0.0000
# 6 0.0000 0.0000 0.0000 0.0000 0.0000 16.4984
#
#
#
# Elastic Compliance Matrix: (Units=1/GPa)
#
#
# Indices 1 2 3 4 5 6 
#
# 1 0.023799 -0.000206 -0.002292 0.000000 0.000000 0.000000
# 2 -0.000206 0.012317 -0.000614 0.000000 0.000000 0.000000
# 3 -0.002292 -0.000614 0.012719 0.000000 0.000000 0.000000
# 4 0.000000 0.000000 0.000000 0.031216 0.000000 0.000000
# 5 0.000000 0.000000 0.000000 0.000000 0.056788 0.000000
# 6 0.000000 0.000000 0.000000 0.000000 0.000000 0.060612
#
#
# Mechanical properties :
#
#
# Convention : Reuss Voigt Hill
#
# Bulk Modulus (GPa) = 23.46828 25.59959 24.53394
# Shear Modulus (GPa) = 22.94875 25.98988 24.46932
#
# Velocity S-wave (km/s) = 3.29962 3.51145 3.40718
# Velocity P-wave (km/s) = 5.06464 5.34654 5.20750
#
# Compressibility (1/GPa) = 0.04261071
#
# Stress axis : x y z
#
# Youngs Moduli (GPa) = 42.01915 81.18917 78.62454
#
# Poissons Ratio (x) = 0.01674 0.18017
# Poissons Ratio (y) = 0.00867 0.04828
# Poissons Ratio (z) = 0.09629 0.04985
#
# Static dielectric constant tensor:
#      x y z
#    x 1.930490 0.000000 0.000000 
#    y 0.000000 1.724670 0.000000 
#    z 0.000000 0.000000 1.772670 
# 
# From -- ./inp_files/8937.got.cif
#   From: 2010.05.17/outbox.cif.g08.bks.cpg/sg16_5_cif.got.tgz:8937.got - 2010.06.03 22:28:35.
