data_PCOD9310291
_publ_section_title
;
Structure prediction by ZEFSAII (Michael W. Deem and Ramdas Pophale) SiO2 
 PCOD9310291
Probable space group: P 2 2 2
;
_chemical_formula_sum "Si O2"
_cell_formula_units_Z 24
_cell_length_a 8.540696
_cell_length_b 11.574650
_cell_length_c 10.246599
_cell_angle_alpha 90.000000
_cell_angle_beta 90.000000
_cell_angle_gamma 90.000000
_cell_volume 1012.933354
_symmetry_space_group_name_H-M "P 2 2 2"
_symmetry_group_IT_number 16
_symmetry_cell_setting 'orthorhombic'
loop_
_space_group_symop_operation_xyz
x,y,z
-x,-y,z
x,-y,-z
-x,y,-z
loop_
_atom_site_type_symbol
_atom_site_label
_atom_site_fract_x
_atom_site_fract_y
_atom_site_fract_z
Si Si1 0.000000 0.000000 0.000000
Si Si2 0.494033 0.848769 0.144376
Si Si3 0.000000 0.500000 0.500000
Si Si4 0.224844 0.179929 0.671926
Si Si5 0.915246 0.317549 0.695791
Si Si6 0.195029 0.066638 0.253595
Si Si7 0.500000 0.712134 0.500000
Si Si8 0.609228 0.608143 0.225277
O O1 0.889539 0.064396 0.891085
O O2 0.319444 0.840871 0.195362
O O3 0.619619 0.918211 0.230623
O O4 0.550913 0.717844 0.147359
O O5 0.500000 0.889857 0.000000
O O6 0.099370 0.588535 0.583228
O O7 0.356953 0.214685 0.565707
O O8 0.099745 0.282350 0.697440
O O9 0.158316 0.048813 0.662550
O O10 0.850200 0.187928 0.679643
O O11 0.798058 0.382501 0.796632
O O12 0.568006 0.639340 0.377909
O O13 0.500000 0.500000 0.192186
#
# Coordination Sequence:
#
# PCOD9310291 Si02
#       8
#     1   4   1   4   4   4   2   4
#     4  12  20  40  82 104 152 200 230 324 394 458
#     4  10  23  41  66 104 145 187 238 298 371 454
#     4  12  28  44  72  90 140 196 242 310 368 420
#     4  11  22  45  69 106 149 183 247 310 380 460
#     4  11  25  44  68 106 135 190 254 302 370 451
#     4  11  23  43  71 109 145 191 245 307 385 467
#     4  10  23  40  69  98 138 193 233 306 372 438
#     4  10  23  42  68  98 140 191 249 297 361 440
#
# _framework density 23.693563000000001
#
# number of rings (size 3 to 8) (size 9 to 14) (size 15 to 20)
#    0.000    1.333    1.667    2.750    7.000    1.000 
#    0.000   25.000    0.000    0.500    0.000    0.000 
#    0.000    0.000    0.000    0.000    0.000    0.000 
#
# Total GULP energy -133608.323788 kJ/mol
# GULP energy per Si atom -5567.013491 kJ/mol
# Density = 2.363964 g / cm^3
# Si number density = 23.693563 Si / 1000 Ang^3
#
#
#
# Elastic Constant Matrix: (Units=GPa)
#
#
# Indices 1 2 3 4 5 6 
#
# 1 158.6379 65.7418 19.6215 0.0000 0.0000 0.0000
# 2 65.7418 146.9498 29.5574 0.0000 0.0000 0.0000
# 3 19.6215 29.5574 51.1580 0.0000 0.0000 0.0000
# 4 0.0000 0.0000 0.0000 -29.4088 0.0000 0.0000
# 5 0.0000 0.0000 0.0000 0.0000 -6.5035 0.0000
# 6 0.0000 0.0000 0.0000 0.0000 0.0000 23.8287
#
#
#
# Elastic Compliance Matrix: (Units=1/GPa)
#
#
# Indices 1 2 3 4 5 6 
#
# 1 0.007793 -0.003265 -0.001103 0.000000 0.000000 0.000000
# 2 -0.003265 0.009067 -0.003987 0.000000 0.000000 0.000000
# 3 -0.001103 -0.003987 0.022274 0.000000 0.000000 0.000000
# 4 0.000000 0.000000 0.000000 -0.034003 0.000000 0.000000
# 5 0.000000 0.000000 0.000000 0.000000 -0.153764 0.000000
# 6 0.000000 0.000000 0.000000 0.000000 0.000000 0.041966
#
#
# Mechanical properties :
#
#
# Convention : Reuss Voigt Hill
#
# Bulk Modulus (GPa) = 44.59144 65.17636 54.88390
# Shear Modulus (GPa) = -60.61838 13.70494 -23.45672
#
# Velocity S-wave (km/s) = -5.06358 2.40766 -3.14985
# Velocity P-wave (km/s) = 3.91479 5.94111 3.16001
#
# Compressibility (1/GPa) = 0.02242583
#
# Stress axis : x y z
#
# Youngs Moduli (GPa) = 128.32115 110.28485 44.89601
#
# Poissons Ratio (x) = 0.36003 0.04951
# Poissons Ratio (y) = 0.41891 0.17899
# Poissons Ratio (z) = 0.14151 0.43968
#
# Static dielectric constant tensor:
#      x y z
#    x 2.110060 0.000000 0.000000 
#    y 0.000000 1.923500 0.000000 
#    z 0.000000 0.000000 1.901170 
# 
# From -- ./inp_files/6561.got.cif
#   From: 2010.05.17/outbox.cif.g08.bks.cpg/sg16_4_cif.got.tgz:6561.got - 2010.06.03 22:28:35.
