data_PCOD9310605
_publ_section_title
;
Structure prediction by ZEFSAII (Michael W. Deem and Ramdas Pophale) SiO2 
 PCOD9310605
Probable space group: P 2 2 21
;
_chemical_formula_sum "Si O2"
_cell_formula_units_Z 16
_cell_length_a 13.948251
_cell_length_b 11.731529
_cell_length_c 5.253837
_cell_angle_alpha 90.000000
_cell_angle_beta 90.000000
_cell_angle_gamma 90.000000
_cell_volume 859.707998
_symmetry_space_group_name_H-M "P 2 2 21"
_symmetry_group_IT_number 17
_symmetry_cell_setting 'orthorhombic'
loop_
_space_group_symop_operation_xyz
x,y,z
-x,-y,1/2+z
x,-y,-z
-x,y,1/2-z
loop_
_atom_site_type_symbol
_atom_site_label
_atom_site_fract_x
_atom_site_fract_y
_atom_site_fract_z
Si Si1 0.713641 0.243582 0.087505
Si Si2 0.715348 0.500000 0.000000
Si Si3 0.500000 0.702071 0.750000
Si Si4 0.000000 0.076078 0.750000
Si Si5 0.794017 0.130954 0.590593
Si Si6 0.410792 0.500000 0.000000
O O1 0.599302 0.240865 0.158636
O O2 0.765975 0.202974 0.343486
O O3 0.754684 0.370864 0.024784
O O4 0.733672 0.166408 0.839673
O O5 0.653448 0.492145 0.746201
O O6 0.529233 0.614451 0.527793
O O7 0.094827 0.143831 0.828850
O O8 0.024625 0.000000 0.500000
O O9 0.781261 0.000000 0.500000
#
# Coordination Sequence:
#
# PCOD9310605 Si02
#       6
#     4   2   2   2   4   2
#     4  11  22  36  60  88 123 153 193 236 281 345
#     4  10  21  36  56  88 115 156 197 242 286 318
#     4  10  20  34  54  84 120 162 194 234 276 322
#     4  10  20  40  68  88 106 138 198 260 290 318
#     4  11  23  40  62  89 113 146 193 246 295 341
#     4  10  19  32  54  78 113 154 217 250 254 300
#
# _framework density 18.610973000000001
#
# number of rings (size 3 to 8) (size 9 to 14) (size 15 to 20)
#    0.000    1.500    0.000    9.750    0.000    5.000 
#    0.000    2.500    0.000    4.500    0.000    3.500 
#    0.000    0.000    0.000    0.000    0.000    0.000 
#
# Total GULP energy -89117.647886 kJ/mol
# GULP energy per Si atom -5569.852993 kJ/mol
# Density = 1.856861 g / cm^3
# Si number density = 18.610973 Si / 1000 Ang^3
#
#
#
# Elastic Constant Matrix: (Units=GPa)
#
#
# Indices 1 2 3 4 5 6 
#
# 1 100.9425 66.6740 61.4341 0.0000 0.0000 0.0000
# 2 66.6740 75.6178 49.1486 0.0000 0.0000 0.0000
# 3 61.4341 49.1486 176.7558 0.0000 0.0000 0.0000
# 4 0.0000 0.0000 0.0000 46.6414 0.0000 0.0000
# 5 0.0000 0.0000 0.0000 0.0000 35.4709 0.0000
# 6 0.0000 0.0000 0.0000 0.0000 0.0000 72.1701
#
#
#
# Elastic Compliance Matrix: (Units=1/GPa)
#
#
# Indices 1 2 3 4 5 6 
#
# 1 0.025067 -0.020066 -0.003133 0.000000 0.000000 0.000000
# 2 -0.020066 0.032204 -0.001980 0.000000 0.000000 0.000000
# 3 -0.003133 -0.001980 0.007297 0.000000 0.000000 0.000000
# 4 0.000000 0.000000 0.000000 0.021440 0.000000 0.000000
# 5 0.000000 0.000000 0.000000 0.000000 0.028192 0.000000
# 6 0.000000 0.000000 0.000000 0.000000 0.000000 0.013856
#
#
# Mechanical properties :
#
#
# Convention : Reuss Voigt Hill
#
# Bulk Modulus (GPa) = 70.37417 78.64769 74.51093
# Shear Modulus (GPa) = 27.29958 42.59378 34.94668
#
# Velocity S-wave (km/s) = 3.83411 4.78916 4.33800
# Velocity P-wave (km/s) = 7.58260 8.54002 8.07551
#
# Compressibility (1/GPa) = 0.01420976
#
# Stress axis : x y z
#
# Youngs Moduli (GPa) = 39.89252 31.05164 137.04068
#
# Poissons Ratio (x) = 0.62309 0.42934
# Poissons Ratio (y) = 0.80049 0.27140
# Poissons Ratio (z) = 0.12498 0.06150
#
# Static dielectric constant tensor:
#      x y z
#    x 1.677290 0.000000 0.000000 
#    y 0.000000 1.696760 0.000000 
#    z 0.000000 0.000000 1.651210 
# 
# From -- ./inp_files/1268.got.cif
#   From: 2010.05.17/outbox.cif.g08.bks.cpg/sg17_1_cif.got.tgz:1268.got - 2010.06.03 22:34:06.
