data_PCOD9310777
_publ_section_title
;
Structure prediction by ZEFSAII (Michael W. Deem and Ramdas Pophale) SiO2 
 PCOD9310777
Probable space group: P 2 2 21
;
_chemical_formula_sum "Si O2"
_cell_formula_units_Z 32
_cell_length_a 5.139562
_cell_length_b 15.755614
_cell_length_c 16.409919
_cell_angle_alpha 90.000000
_cell_angle_beta 90.000000
_cell_angle_gamma 90.000000
_cell_volume 1328.825272
_symmetry_space_group_name_H-M "P 2 2 21"
_symmetry_group_IT_number 17
_symmetry_cell_setting 'orthorhombic'
loop_
_space_group_symop_operation_xyz
x,y,z
-x,-y,1/2+z
x,-y,-z
-x,y,1/2-z
loop_
_atom_site_type_symbol
_atom_site_label
_atom_site_fract_x
_atom_site_fract_y
_atom_site_fract_z
Si Si1 0.612318 0.052448 0.364160
Si Si2 0.778390 0.743209 0.918756
Si Si3 0.396628 0.487715 0.902370
Si Si4 0.292110 0.228087 0.183339
Si Si5 0.902196 0.442852 0.079395
Si Si6 0.748637 0.134211 0.693677
Si Si7 0.106301 0.082060 0.451247
Si Si8 0.249281 0.321920 0.808986
O O1 0.687094 0.955107 0.349195
O O2 0.714323 0.125903 0.303627
O O3 0.306221 0.069301 0.375499
O O4 0.798385 0.076112 0.439687
O O5 0.477647 0.754174 0.894527
O O6 0.821014 0.649365 0.949898
O O7 0.838939 0.822024 0.977770
O O8 0.994238 0.749955 0.843479
O O9 0.676175 0.514049 0.867834
O O10 0.295912 0.395979 0.874963
O O11 0.177597 0.554867 0.875758
O O12 0.439947 0.500000 0.000000
O O13 0.500000 0.264151 0.250000
O O14 0.948382 0.500000 0.000000
O O15 0.500000 0.145957 0.750000
O O16 0.778757 0.227008 0.652471
O O17 0.000000 0.121305 0.750000
O O18 0.189090 0.000000 0.500000
O O19 0.500000 0.324996 0.750000
O O20 0.000000 0.335558 0.750000
#
# Coordination Sequence:
#
# PCOD9310777 Si02
#       8
#     4   4   4   4   4   4   4   4
#     4  10  20  35  56  84 116 157 199 239 285 361
#     4  10  21  38  58  82 119 149 189 250 289 345
#     4  10  21  40  62  87 118 152 211 257 302 373
#     4  10  20  35  58  84 117 155 192 233 291 349
#     4  10  21  40  61  84 114 150 200 252 305 355
#     4  10  20  35  57  87 122 153 197 248 299 367
#     4  10  21  38  54  82 120 155 197 240 296 349
#     4  10  21  39  61  88 125 162 196 257 328 374
#
# _framework density 24.081422
#
# number of rings (size 3 to 8) (size 9 to 14) (size 15 to 20)
#    0.000    2.000    0.000    3.375    0.000    2.000 
#    9.000    6.250    0.000    0.000    0.000    0.000 
#    0.000    0.000    0.000    0.000    0.000    0.000 
#
# Total GULP energy -178140.951085 kJ/mol
# GULP energy per Si atom -5566.904721 kJ/mol
# Density = 2.402661 g / cm^3
# Si number density = 24.081422 Si / 1000 Ang^3
#
#
#
# Elastic Constant Matrix: (Units=GPa)
#
#
# Indices 1 2 3 4 5 6 
#
# 1 161.6562 -10.7028 3.7517 0.0000 0.0000 0.0000
# 2 -10.7028 156.5613 16.4350 0.0000 0.0000 0.0000
# 3 3.7517 16.4350 20.0337 0.0000 0.0000 0.0000
# 4 0.0000 0.0000 0.0000 21.3761 0.0000 0.0000
# 5 0.0000 0.0000 0.0000 0.0000 20.8139 0.0000
# 6 0.0000 0.0000 0.0000 0.0000 0.0000 33.6969
#
#
#
# Elastic Compliance Matrix: (Units=1/GPa)
#
#
# Indices 1 2 3 4 5 6 
#
# 1 0.006265 0.000603 -0.001668 0.000000 0.000000 0.000000
# 2 0.000603 0.007047 -0.005894 0.000000 0.000000 0.000000
# 3 -0.001668 -0.005894 0.055064 0.000000 0.000000 0.000000
# 4 0.000000 0.000000 0.000000 0.046781 0.000000 0.000000
# 5 0.000000 0.000000 0.000000 0.000000 0.048045 0.000000
# 6 0.000000 0.000000 0.000000 0.000000 0.000000 0.029676
#
#
# Mechanical properties :
#
#
# Convention : Reuss Voigt Hill
#
# Bulk Modulus (GPa) = 18.36295 39.69097 29.02696
# Shear Modulus (GPa) = 22.22730 37.09523 29.66126
#
# Velocity S-wave (km/s) = 3.04140 3.92906 3.51338
# Velocity P-wave (km/s) = 4.46938 6.09107 5.34212
#
# Compressibility (1/GPa) = 0.05445748
#
# Stress axis : x y z
#
# Youngs Moduli (GPa) = 159.62639 141.89873 18.16075
#
# Poissons Ratio (x) = -0.08562 0.03029
# Poissons Ratio (y) = -0.09631 0.10705
# Poissons Ratio (z) = 0.26628 0.83640
#
# Static dielectric constant tensor:
#      x y z
#    x 1.991570 0.000000 0.000000 
#    y 0.000000 1.994350 0.000000 
#    z 0.000000 0.000000 1.957940 
# 
# From -- ./inp_files/9148.got.cif
#   From: 2010.05.17/outbox.cif.g08.bks.cpg/sg17_5_cif.got.tgz:9148.got - 2010.06.03 22:34:06.
