data_PCOD9310024
_publ_section_title
;
Structure prediction by ZEFSAII (Michael W. Deem and Ramdas Pophale) SiO2 
 PCOD9310024
Probable space group: P 2 2 2
;
_chemical_formula_sum "Si O2"
_cell_formula_units_Z 28
_cell_length_a 20.519540
_cell_length_b 5.164615
_cell_length_c 12.751388
_cell_angle_alpha 90.000000
_cell_angle_beta 90.000000
_cell_angle_gamma 90.000000
_cell_volume 1351.335026
_symmetry_space_group_name_H-M "P 2 2 2"
_symmetry_group_IT_number 16
_symmetry_cell_setting 'orthorhombic'
loop_
_space_group_symop_operation_xyz
x,y,z
-x,-y,z
x,-y,-z
-x,y,-z
loop_
_atom_site_type_symbol
_atom_site_label
_atom_site_fract_x
_atom_site_fract_y
_atom_site_fract_z
Si Si1 0.704285 0.928743 0.658241
Si Si2 0.029905 0.258837 0.118384
Si Si3 0.576794 0.026599 0.744994
Si Si4 0.244758 0.009877 0.886456
Si Si5 0.168727 0.489479 0.160454
Si Si6 0.422137 0.524718 0.116816
Si Si7 0.215466 0.557743 0.610283
O O1 0.717309 0.909237 0.783208
O O2 0.726990 0.655961 0.613283
O O3 0.627895 0.987824 0.650708
O O4 0.751549 0.159301 0.619019
O O5 0.105226 0.337484 0.117989
O O6 0.000000 0.500000 0.178524
O O7 0.000000 0.000000 0.166021
O O8 0.000000 0.255376 0.000000
O O9 0.594864 0.295913 0.802424
O O10 0.500000 0.000000 0.716436
O O11 0.587568 0.800607 0.830274
O O12 0.185273 0.225550 0.886058
O O13 0.224930 0.712874 0.867925
O O14 0.276864 0.000000 0.000000
O O15 0.171120 0.496515 0.287264
O O16 0.500000 0.500000 0.105775
O O17 0.393205 0.500000 0.000000
O O18 0.180938 0.500000 0.500000
#
# Coordination Sequence:
#
# PCOD9310024 Si02
#       7
#     4   4   4   4   4   4   4
#     4  10  21  37  54  85 110 136 193 238 290 357
#     4  10  21  32  50  82 119 156 183 212 253 318
#     4  10  19  32  51  72 106 147 179 232 300 355
#     4  10  21  32  52  76 114 155 181 231 276 319
#     4  10  21  36  54  83 114 147 195 224 267 334
#     4   9  17  28  43  68  98 142 194 223 254 328
#     4  10  21  40  64  82 103 143 191 250 294 325
#
# _framework density 20.720251000000001
#
# number of rings (size 3 to 8) (size 9 to 14) (size 15 to 20)
#    0.000    2.143    0.000    3.000    6.000    2.857 
#    0.000    0.000    0.000    3.000    0.000    1.000 
#    0.000    0.000    0.000    0.000    0.000    0.000 
#
# Total GULP energy -155979.811653 kJ/mol
# GULP energy per Si atom -5570.707559 kJ/mol
# Density = 2.067309 g / cm^3
# Si number density = 20.720251 Si / 1000 Ang^3
#
#
#
# Elastic Constant Matrix: (Units=GPa)
#
#
# Indices 1 2 3 4 5 6 
#
# 1 52.5342 2.4913 9.5267 0.0000 0.0000 0.0000
# 2 2.4913 100.7441 -1.2433 0.0000 0.0000 0.0000
# 3 9.5267 -1.2433 90.7395 0.0000 0.0000 0.0000
# 4 0.0000 0.0000 0.0000 -135.5312 0.0000 0.0000
# 5 0.0000 0.0000 0.0000 0.0000 26.9198 0.0000
# 6 0.0000 0.0000 0.0000 0.0000 0.0000 12.4949
#
#
#
# Elastic Compliance Matrix: (Units=1/GPa)
#
#
# Indices 1 2 3 4 5 6 
#
# 1 0.019430 -0.000506 -0.002047 0.000000 0.000000 0.000000
# 2 -0.000506 0.009941 0.000189 0.000000 0.000000 0.000000
# 3 -0.002047 0.000189 0.011238 0.000000 0.000000 0.000000
# 4 0.000000 0.000000 0.000000 -0.007378 0.000000 0.000000
# 5 0.000000 0.000000 0.000000 0.000000 0.037147 0.000000
# 6 0.000000 0.000000 0.000000 0.000000 0.000000 0.080033
#
#
# Mechanical properties :
#
#
# Convention : Reuss Voigt Hill
#
# Bulk Modulus (GPa) = 27.86857 29.50746 28.68801
# Shear Modulus (GPa) = 29.92241 -3.67376 13.12433
#
# Velocity S-wave (km/s) = 3.80427 -1.33300 2.51949
# Velocity P-wave (km/s) = 5.72501 3.45002 4.72644
#
# Compressibility (1/GPa) = 0.03588272
#
# Stress axis : x y z
#
# Youngs Moduli (GPa) = 51.46571 100.59365 88.98333
#
# Poissons Ratio (x) = 0.05088 0.18214
# Poissons Ratio (y) = 0.02603 -0.01685
# Poissons Ratio (z) = 0.10535 -0.01904
#
# Static dielectric constant tensor:
#      x y z
#    x 2.184510 0.000000 0.000000 
#    y 0.000000 1.739130 0.000000 
#    z 0.000000 0.000000 1.770020 
# 
# From -- ./inp_files/7315.got.cif
#   From: 2010.05.17/outbox.cif.g08.bks.cpg/sg16_4_cif.got.tgz:7315.got - 2010.06.03 22:28:35.
