data_PCOD9310683
_publ_section_title
;
Structure prediction by ZEFSAII (Michael W. Deem and Ramdas Pophale) SiO2 
 PCOD9310683
Probable space group: P 2 2 21
;
_chemical_formula_sum "Si O2"
_cell_formula_units_Z 14
_cell_length_a 5.101670
_cell_length_b 7.467985
_cell_length_c 14.836319
_cell_angle_alpha 90.000000
_cell_angle_beta 90.000000
_cell_angle_gamma 90.000000
_cell_volume 565.251811
_symmetry_space_group_name_H-M "P 2 2 21"
_symmetry_group_IT_number 17
_symmetry_cell_setting 'orthorhombic'
loop_
_space_group_symop_operation_xyz
x,y,z
-x,-y,1/2+z
x,-y,-z
-x,y,1/2-z
loop_
_atom_site_type_symbol
_atom_site_label
_atom_site_fract_x
_atom_site_fract_y
_atom_site_fract_z
Si Si1 0.800053 0.155471 0.180524
Si Si2 0.407987 0.500000 0.500000
Si Si3 0.751431 0.426234 0.803253
Si Si4 0.693983 0.849440 0.573342
O O1 0.757410 0.358911 0.213161
O O2 0.513361 0.092272 0.151533
O O3 0.000000 0.062153 0.250000
O O4 0.999710 0.167621 0.096286
O O5 0.258577 0.584082 0.412418
O O6 0.586266 0.657690 0.541016
O O7 0.500000 0.354851 0.750000
O O8 0.000000 0.352827 0.750000
O O9 0.664300 0.000000 0.500000
#
# Coordination Sequence:
#
# PCOD9310683 Si02
#       4
#     4   2   4   4
#     4  10  19  37  61  83 115 155 193 240 289 342
#     4  10  22  40  64  84 122 162 188 248 304 332
#     4  10  20  35  59  92 118 152 205 241 287 360
#     4  11  23  38  59  88 116 150 197 236 290 357
#
# _framework density 24.767724000000001
#
# number of rings (size 3 to 8) (size 9 to 14) (size 15 to 20)
#    0.000    1.714    0.000    8.571    0.000   10.286 
#    0.000    4.286    0.000    1.714    0.000    0.000 
#    0.000    0.000    0.000    0.000    0.000    0.000 
#
# Total GULP energy -78153.919973 kJ/mol
# GULP energy per Si atom -5582.422855 kJ/mol
# Density = 2.471135 g / cm^3
# Si number density = 24.767724 Si / 1000 Ang^3
#
#
#
# Elastic Constant Matrix: (Units=GPa)
#
#
# Indices 1 2 3 4 5 6 
#
# 1 158.2360 -3.8207 33.8478 0.0000 0.0000 0.0000
# 2 -3.8207 65.2199 3.2796 0.0000 0.0000 0.0000
# 3 33.8478 3.2796 128.9036 0.0000 0.0000 0.0000
# 4 0.0000 0.0000 0.0000 23.4781 0.0000 0.0000
# 5 0.0000 0.0000 0.0000 0.0000 46.1609 0.0000
# 6 0.0000 0.0000 0.0000 0.0000 0.0000 -11.5889
#
#
#
# Elastic Compliance Matrix: (Units=1/GPa)
#
#
# Indices 1 2 3 4 5 6 
#
# 1 0.006711 0.000482 -0.001774 0.000000 0.000000 0.000000
# 2 0.000482 0.015387 -0.000518 0.000000 0.000000 0.000000
# 3 -0.001774 -0.000518 0.008237 0.000000 0.000000 0.000000
# 4 0.000000 0.000000 0.000000 0.042593 0.000000 0.000000
# 5 0.000000 0.000000 0.000000 0.000000 0.021663 0.000000
# 6 0.000000 0.000000 0.000000 0.000000 0.000000 -0.086289
#
#
# Mechanical properties :
#
#
# Convention : Reuss Voigt Hill
#
# Bulk Modulus (GPa) = 37.43301 46.55252 41.99276
# Shear Modulus (GPa) = 240.07465 32.88022 136.47743
#
# Velocity S-wave (km/s) = 9.85601 3.64750 7.43119
# Velocity P-wave (km/s) = 12.02778 6.04776 9.51953
#
# Compressibility (1/GPa) = 0.02671439
#
# Stress axis : x y z
#
# Youngs Moduli (GPa) = 149.01166 64.98968 121.40561
#
# Poissons Ratio (x) = -0.03135 0.21543
# Poissons Ratio (y) = -0.07188 0.06290
# Poissons Ratio (z) = 0.26441 0.03367
#
# Static dielectric constant tensor:
#      x y z
#    x 2.022010 0.000000 0.000000 
#    y 0.000000 1.963100 0.000000 
#    z 0.000000 0.000000 2.134480 
# 
# From -- ./inp_files/7463.got.cif
#   From: 2010.05.17/outbox.cif.g08.bks.cpg/sg17_4_cif.got.tgz:7463.got - 2010.06.03 22:34:06.
