data_PCOD9310701
_publ_section_title
;
Structure prediction by ZEFSAII (Michael W. Deem and Ramdas Pophale) SiO2 
 PCOD9310701
Probable space group: P 2 2 21
;
_chemical_formula_sum "Si O2"
_cell_formula_units_Z 32
_cell_length_a 15.225664
_cell_length_b 8.270124
_cell_length_c 12.565978
_cell_angle_alpha 90.000000
_cell_angle_beta 90.000000
_cell_angle_gamma 90.000000
_cell_volume 1582.284442
_symmetry_space_group_name_H-M "P 2 2 21"
_symmetry_group_IT_number 17
_symmetry_cell_setting 'orthorhombic'
loop_
_space_group_symop_operation_xyz
x,y,z
-x,-y,1/2+z
x,-y,-z
-x,y,1/2-z
loop_
_atom_site_type_symbol
_atom_site_label
_atom_site_fract_x
_atom_site_fract_y
_atom_site_fract_z
Si Si1 0.225611 0.121736 0.855647
Si Si2 0.837909 0.331553 0.201616
Si Si3 0.642875 0.686792 0.097655
Si Si4 0.159903 0.778951 0.931544
Si Si5 0.961826 0.816706 0.964569
Si Si6 0.637601 0.663219 0.856851
Si Si7 0.397612 0.010273 0.736179
Si Si8 0.157906 0.315286 0.651042
O O1 0.324345 0.062162 0.824810
O O2 0.179623 0.205684 0.754234
O O3 0.171605 0.962508 0.888274
O O4 0.217714 0.232629 0.961328
O O5 0.816731 0.318512 0.326305
O O6 0.905610 0.209416 0.144060
O O7 0.743083 0.317472 0.146909
O O8 0.875017 0.509503 0.184641
O O9 0.614556 0.526692 0.166407
O O10 0.627632 0.864849 0.142830
O O11 0.747595 0.665899 0.095473
O O12 0.606727 0.681566 0.978582
O O13 0.058511 0.743265 0.955232
O O14 0.907233 0.746170 0.062144
O O15 0.974313 0.000000 0.000000
O O16 0.607650 0.818616 0.789161
O O17 0.500000 0.046370 0.750000
#
# Coordination Sequence:
#
# PCOD9310701 Si02
#       8
#     4   4   4   4   4   4   4   4
#     4  10  22  45  63  83 127 173 210 262 327 402
#     4  11  22  40  62  92 128 167 215 271 318 377
#     4   9  20  38  63  95 130 159 203 270 336 390
#     4  11  23  44  58  85 129 181 212 251 325 393
#     4  12  23  37  62  92 121 163 226 273 309 368
#     4  10  19  38  66  93 127 165 204 266 340 385
#     4  11  23  40  67 101 123 164 219 275 329 404
#     4  10  22  39  64  92 123 163 214 273 320 364
#
# _framework density 20.223925999999999
#
# number of rings (size 3 to 8) (size 9 to 14) (size 15 to 20)
#    0.000    1.500    3.750    1.875    1.750    1.500 
#   11.250    0.000    0.000    0.000    0.000    0.000 
#    0.000    0.000    0.000    0.000    0.000    0.000 
#
# Total GULP energy -178206.730029 kJ/mol
# GULP energy per Si atom -5568.960313 kJ/mol
# Density = 2.017789 g / cm^3
# Si number density = 20.223926 Si / 1000 Ang^3
#
#
#
# Elastic Constant Matrix: (Units=GPa)
#
#
# Indices 1 2 3 4 5 6 
#
# 1 74.2041 0.4506 21.2688 0.0000 0.0000 0.0000
# 2 0.4506 26.7633 0.1859 0.0000 0.0000 0.0000
# 3 21.2688 0.1859 95.8482 0.0000 0.0000 0.0000
# 4 0.0000 0.0000 0.0000 1.5334 0.0000 0.0000
# 5 0.0000 0.0000 0.0000 0.0000 -91.6197 0.0000
# 6 0.0000 0.0000 0.0000 0.0000 0.0000 14.6020
#
#
#
# Elastic Compliance Matrix: (Units=1/GPa)
#
#
# Indices 1 2 3 4 5 6 
#
# 1 0.014393 -0.000220 -0.003193 0.000000 0.000000 0.000000
# 2 -0.000220 0.037368 -0.000024 0.000000 0.000000 0.000000
# 3 -0.003193 -0.000024 0.011142 0.000000 0.000000 0.000000
# 4 0.000000 0.000000 0.000000 0.652130 0.000000 0.000000
# 5 0.000000 0.000000 0.000000 0.000000 -0.010915 0.000000
# 6 0.000000 0.000000 0.000000 0.000000 0.000000 0.068484
#
#
# Mechanical properties :
#
#
# Convention : Reuss Voigt Hill
#
# Bulk Modulus (GPa) = 17.84791 26.73623 22.29207
# Shear Modulus (GPa) = 6.26446 -3.43617 1.41414
#
# Velocity S-wave (km/s) = 1.76190 -1.30490 0.83711
# Velocity P-wave (km/s) = 3.60324 3.31338 3.46134
#
# Compressibility (1/GPa) = 0.05602898
#
# Stress axis : x y z
#
# Youngs Moduli (GPa) = 69.47824 26.76052 89.75187
#
# Poissons Ratio (x) = 0.00589 0.28661
# Poissons Ratio (y) = 0.01529 0.00212
# Poissons Ratio (z) = 0.22187 0.00063
#
# Static dielectric constant tensor:
#      x y z
#    x 1.761250 0.000000 0.000000 
#    y 0.000000 1.783790 0.000000 
#    z 0.000000 0.000000 2.953860 
# 
# From -- ./inp_files/7318.got.cif
#   From: 2010.05.17/outbox.cif.g08.bks.cpg/sg17_4_cif.got.tgz:7318.got - 2010.06.03 22:34:06.
