data_PCOD9310059
_publ_section_title
;
Structure prediction by ZEFSAII (Michael W. Deem and Ramdas Pophale) SiO2 
 PCOD9310059
Probable space group: P 2 2 2
;
_chemical_formula_sum "Si O2"
_cell_formula_units_Z 32
_cell_length_a 9.535407
_cell_length_b 11.404612
_cell_length_c 16.397368
_cell_angle_alpha 90.000000
_cell_angle_beta 90.000000
_cell_angle_gamma 90.000000
_cell_volume 1783.174697
_symmetry_space_group_name_H-M "P 2 2 2"
_symmetry_group_IT_number 16
_symmetry_cell_setting 'orthorhombic'
loop_
_space_group_symop_operation_xyz
x,y,z
-x,-y,z
x,-y,-z
-x,y,-z
loop_
_atom_site_type_symbol
_atom_site_label
_atom_site_fract_x
_atom_site_fract_y
_atom_site_fract_z
Si Si1 0.338390 0.141784 0.001329
Si Si2 0.167348 0.140529 0.838737
Si Si3 0.531438 0.362910 0.404562
Si Si4 0.785316 0.241427 0.330909
Si Si5 0.718838 0.762421 0.332272
Si Si6 0.168773 0.140914 0.164846
Si Si7 0.964001 0.364057 0.592923
Si Si8 0.161082 0.998857 0.596812
O O1 0.253123 0.173137 0.082915
O O2 0.500000 0.184343 0.000000
O O3 0.248008 0.172708 0.921528
O O4 0.344799 0.000000 0.000000
O O5 0.228010 0.217182 0.764651
O O6 0.998950 0.157946 0.844526
O O7 0.188825 0.000371 0.821453
O O8 0.500000 0.500000 0.392362
O O9 0.500000 0.336217 0.500000
O O10 0.688523 0.334482 0.376793
O O11 0.438642 0.278833 0.346873
O O12 0.942434 0.283883 0.348870
O O13 0.765230 0.115973 0.373020
O O14 0.768769 0.784903 0.239978
O O15 0.807055 0.663680 0.380762
O O16 0.757423 0.884384 0.375349
O O17 0.000000 0.500000 0.601653
O O18 0.000000 0.329080 0.500000
O O19 0.152817 0.000000 0.500000
O O20 0.000000 0.000000 0.629594
#
# Coordination Sequence:
#
# PCOD9310059 Si02
#       8
#     4   4   4   4   4   4   4   4
#     4   9  19  33  55  83 120 159 192 227 278 350
#     4  10  19  35  56  87 122 154 188 233 292 360
#     4  11  26  45  59  78 115 163 214 259 294 338
#     4  12  22  37  59  86 118 157 196 246 300 354
#     4  12  22  37  59  86 118 157 196 246 300 354
#     4  10  19  35  56  87 122 154 188 233 292 360
#     4  11  22  37  59  84 111 155 212 255 286 330
#     4  11  20  33  55  86 121 152 188 236 298 363
#
# _framework density 17.945520999999999
#
# number of rings (size 3 to 8) (size 9 to 14) (size 15 to 20)
#    0.000    1.250    3.750    3.375    1.750    4.000 
#    0.000    1.250    0.000    0.000    0.000    5.250 
#    0.000    0.000    0.000    0.000    0.000    0.000 
#
# Total GULP energy -178638.381532 kJ/mol
# GULP energy per Si atom -5582.449423 kJ/mol
# Density = 1.790468 g / cm^3
# Si number density = 17.945521 Si / 1000 Ang^3
#
#
#
# Elastic Constant Matrix: (Units=GPa)
#
#
# Indices 1 2 3 4 5 6 
#
# 1 52.0656 5.4082 23.3314 0.0000 0.0000 0.0000
# 2 5.4082 55.8244 23.9887 0.0000 0.0000 0.0000
# 3 23.3314 23.9887 134.4787 0.0000 0.0000 0.0000
# 4 0.0000 0.0000 0.0000 30.0797 0.0000 0.0000
# 5 0.0000 0.0000 0.0000 0.0000 27.5439 0.0000
# 6 0.0000 0.0000 0.0000 0.0000 0.0000 27.6786
#
#
#
# Elastic Compliance Matrix: (Units=1/GPa)
#
#
# Indices 1 2 3 4 5 6 
#
# 1 0.020839 -0.000504 -0.003526 0.000000 0.000000 0.000000
# 2 -0.000504 0.019413 -0.003375 0.000000 0.000000 0.000000
# 3 -0.003526 -0.003375 0.008650 0.000000 0.000000 0.000000
# 4 0.000000 0.000000 0.000000 0.033245 0.000000 0.000000
# 5 0.000000 0.000000 0.000000 0.000000 0.036306 0.000000
# 6 0.000000 0.000000 0.000000 0.000000 0.000000 0.036129
#
#
# Mechanical properties :
#
#
# Convention : Reuss Voigt Hill
#
# Bulk Modulus (GPa) = 29.33280 38.64729 33.99004
# Shear Modulus (GPa) = 27.66183 29.70314 28.68249
#
# Velocity S-wave (km/s) = 3.93037 4.07281 4.00222
# Velocity P-wave (km/s) = 6.08096 6.61057 6.35129
#
# Compressibility (1/GPa) = 0.03409153
#
# Stress axis : x y z
#
# Youngs Moduli (GPa) = 47.98760 51.51290 115.60811
#
# Poissons Ratio (x) = 0.02595 0.40758
# Poissons Ratio (y) = 0.02418 0.39023
# Poissons Ratio (z) = 0.16918 0.17388
#
# Static dielectric constant tensor:
#      x y z
#    x 1.628070 0.000000 0.000000 
#    y 0.000000 1.592070 0.000000 
#    z 0.000000 0.000000 1.615100 
# 
# From -- ./inp_files/7966.got.cif
#   From: 2010.05.17/outbox.cif.g08.bks.cpg/sg16_4_cif.got.tgz:7966.got - 2010.06.03 22:28:35.
