data_PCOD9310180
_publ_section_title
;
Structure prediction by ZEFSAII (Michael W. Deem and Ramdas Pophale) SiO2 
 PCOD9310180
Probable space group: P 2 2 2
;
_chemical_formula_sum "Si O2"
_cell_formula_units_Z 32
_cell_length_a 12.561788
_cell_length_b 8.115214
_cell_length_c 15.528088
_cell_angle_alpha 90.000000
_cell_angle_beta 90.000000
_cell_angle_gamma 90.000000
_cell_volume 1582.958102
_symmetry_space_group_name_H-M "P 2 2 2"
_symmetry_group_IT_number 16
_symmetry_cell_setting 'orthorhombic'
loop_
_space_group_symop_operation_xyz
x,y,z
-x,-y,z
x,-y,-z
-x,y,-z
loop_
_atom_site_type_symbol
_atom_site_label
_atom_site_fract_x
_atom_site_fract_y
_atom_site_fract_z
Si Si1 0.392014 0.613188 0.644684
Si Si2 0.627714 0.185004 0.485109
Si Si3 0.205072 0.894513 0.920031
Si Si4 0.707289 0.300559 0.298535
Si Si5 0.605835 0.326911 0.951923
Si Si6 0.975613 0.674014 0.100471
Si Si7 0.104374 0.096510 0.774998
Si Si8 0.502759 0.805401 0.211603
O O1 0.500000 0.500000 0.631537
O O2 0.341421 0.681266 0.557075
O O3 0.307061 0.497562 0.693298
O O4 0.433063 0.769458 0.699864
O O5 0.500000 0.181495 0.500000
O O6 0.664269 0.235778 0.390523
O O7 0.667809 0.000000 0.500000
O O8 0.313726 0.824061 0.956527
O O9 0.145541 0.724810 0.897686
O O10 0.189941 0.988504 0.829873
O O11 0.157176 0.000000 0.000000
O O12 0.822264 0.220202 0.280114
O O13 0.619454 0.247203 0.227408
O O14 0.563626 0.318898 0.853547
O O15 0.639012 0.500000 0.000000
O O16 0.500000 0.277074 0.000000
O O17 0.000000 0.500000 0.140557
O O18 0.044741 0.805830 0.149480
O O19 0.000000 0.671412 0.000000
O O20 0.000000 0.000000 0.734885
O O21 0.500000 0.000000 0.189177
#
# Coordination Sequence:
#
# PCOD9310180 Si02
#       8
#     4   4   4   4   4   4   4   4
#     4  10  21  34  60  92 137 176 216 267 320 399
#     4  11  20  36  61  99 138 176 219 262 317 406
#     4  11  23  39  62  85 117 166 220 276 331 390
#     4  11  23  36  67  94 133 177 213 278 343 397
#     4  11  29  42  57  82 130 176 220 257 325 403
#     4  10  21  38  64  90 116 157 225 296 341 380
#     4  10  23  43  66  95 126 165 232 291 350 388
#     4  11  23  39  59  88 129 178 226 264 325 402
#
# _framework density 20.215318
#
# number of rings (size 3 to 8) (size 9 to 14) (size 15 to 20)
#    0.000    1.375    3.750    1.875   10.500    1.000 
#    0.000    1.250    0.000    0.375    0.000    0.000 
#    0.000    0.000    0.000    0.000    0.000    0.000 
#
# Total GULP energy -178136.543551 kJ/mol
# GULP energy per Si atom -5566.766986 kJ/mol
# Density = 2.016931 g / cm^3
# Si number density = 20.215318 Si / 1000 Ang^3
#
#
#
# Elastic Constant Matrix: (Units=GPa)
#
#
# Indices 1 2 3 4 5 6 
#
# 1 22.9200 32.8634 3.2960 0.0000 0.0000 0.0000
# 2 32.8634 91.2444 11.5511 0.0000 0.0000 0.0000
# 3 3.2960 11.5511 62.1394 0.0000 0.0000 0.0000
# 4 0.0000 0.0000 0.0000 5.7706 0.0000 0.0000
# 5 0.0000 0.0000 0.0000 0.0000 22.4657 0.0000
# 6 0.0000 0.0000 0.0000 0.0000 0.0000 12.5286
#
#
#
# Elastic Compliance Matrix: (Units=1/GPa)
#
#
# Indices 1 2 3 4 5 6 
#
# 1 0.090324 -0.032695 0.001287 0.000000 0.000000 0.000000
# 2 -0.032695 0.023058 -0.002552 0.000000 0.000000 0.000000
# 3 0.001287 -0.002552 0.016499 0.000000 0.000000 0.000000
# 4 0.000000 0.000000 0.000000 0.173292 0.000000 0.000000
# 5 0.000000 0.000000 0.000000 0.000000 0.044512 0.000000
# 6 0.000000 0.000000 0.000000 0.000000 0.000000 0.079817
#
#
# Mechanical properties :
#
#
# Convention : Reuss Voigt Hill
#
# Bulk Modulus (GPa) = 16.13924 30.19165 23.16544
# Shear Modulus (GPa) = 9.68848 16.72586 13.20717
#
# Velocity S-wave (km/s) = 2.19159 2.87955 2.55880
# Velocity P-wave (km/s) = 3.79540 5.10130 4.49601
#
# Compressibility (1/GPa) = 0.06196079
#
# Stress axis : x y z
#
# Youngs Moduli (GPa) = 11.07127 43.36827 60.60967
#
# Poissons Ratio (x) = 1.41792 -0.07799
# Poissons Ratio (y) = 0.36197 0.15468
# Poissons Ratio (z) = -0.01425 0.11068
#
# Static dielectric constant tensor:
#      x y z
#    x 1.774410 0.000000 0.000000 
#    y 0.000000 1.760370 0.000000 
#    z 0.000000 0.000000 1.910270 
# 
# From -- ./inp_files/8193.got.cif
#   From: 2010.05.17/outbox.cif.g08.bks.cpg/sg16_5_cif.got.tgz:8193.got - 2010.06.03 22:28:35.
