data_PCOD9310247
_publ_section_title
;
Structure prediction by ZEFSAII (Michael W. Deem and Ramdas Pophale) SiO2 
 PCOD9310247
Probable space group: P 2 2 2
;
_chemical_formula_sum "Si O2"
_cell_formula_units_Z 30
_cell_length_a 9.035971
_cell_length_b 19.273023
_cell_length_c 9.099739
_cell_angle_alpha 90.000000
_cell_angle_beta 90.000000
_cell_angle_gamma 90.000000
_cell_volume 1584.723887
_symmetry_space_group_name_H-M "P 2 2 2"
_symmetry_group_IT_number 16
_symmetry_cell_setting 'orthorhombic'
loop_
_space_group_symop_operation_xyz
x,y,z
-x,-y,z
x,-y,-z
-x,y,-z
loop_
_atom_site_type_symbol
_atom_site_label
_atom_site_fract_x
_atom_site_fract_y
_atom_site_fract_z
Si Si1 0.836165 0.417362 0.666008
Si Si2 0.255106 0.923552 0.994915
Si Si3 0.178233 0.575219 0.310616
Si Si4 0.328249 0.275528 0.299846
Si Si5 0.500000 0.190483 0.500000
Si Si6 0.394774 0.675041 0.129526
Si Si7 0.497962 0.076829 0.249550
Si Si8 0.161250 0.226428 0.032774
O O1 0.820930 0.419396 0.488336
O O2 0.794619 0.493844 0.722871
O O3 0.734338 0.353226 0.706519
O O4 0.005668 0.406245 0.719429
O O5 0.346363 0.916134 0.842725
O O6 0.375566 0.923270 0.125476
O O7 0.163724 0.853792 0.013363
O O8 0.183568 0.000000 0.000000
O O9 0.297585 0.621823 0.225965
O O10 0.361623 0.239753 0.455756
O O11 0.490384 0.281653 0.227913
O O12 0.214010 0.232517 0.201206
O O13 0.520699 0.138516 0.363215
O O14 0.282558 0.728818 0.054089
O O15 0.500000 0.643605 0.000000
O O16 0.500000 0.000000 0.318949
O O17 0.000000 0.255849 0.000000
#
# Coordination Sequence:
#
# PCOD9310247 Si02
#       8
#     4   4   4   4   2   4   4   4
#     4   9  19  35  60  83 110 148 191 241 292 360
#     4   9  18  35  56  80 111 150 194 236 283 347
#     4   9  18  38  59  81 110 149 195 236 291 358
#     4  11  22  34  53  84 117 148 187 244 299 345
#     4  12  19  30  54  85 124 144 186 240 294 351
#     4  10  22  37  56  78 114 151 188 241 292 346
#     4   9  18  32  55  83 114 152 191 234 288 348
#     4  11  22  37  56  79 112 151 195 241 290 356
#
# _framework density 18.930743
#
# number of rings (size 3 to 8) (size 9 to 14) (size 15 to 20)
#    0.000    2.133    1.333    4.200    3.733    0.800 
#    0.000    6.000    0.000    7.200    0.000    0.000 
#    0.000    0.000    0.000    0.000    0.000    0.000 
#
# Total GULP energy -167159.314975 kJ/mol
# GULP energy per Si atom -5571.977166 kJ/mol
# Density = 1.888766 g / cm^3
# Si number density = 18.930743 Si / 1000 Ang^3
#
#
#
# Elastic Constant Matrix: (Units=GPa)
#
#
# Indices 1 2 3 4 5 6 
#
# 1 100.5883 53.9803 32.7784 0.0000 0.0000 0.0000
# 2 53.9803 109.5824 37.4899 0.0000 0.0000 0.0000
# 3 32.7784 37.4899 64.7539 0.0000 0.0000 0.0000
# 4 0.0000 0.0000 0.0000 34.3662 0.0000 0.0000
# 5 0.0000 0.0000 0.0000 0.0000 24.5720 0.0000
# 6 0.0000 0.0000 0.0000 0.0000 0.0000 23.1502
#
#
#
# Elastic Compliance Matrix: (Units=1/GPa)
#
#
# Indices 1 2 3 4 5 6 
#
# 1 0.014275 -0.005686 -0.003934 0.000000 0.000000 0.000000
# 2 -0.005686 0.013644 -0.005021 0.000000 0.000000 0.000000
# 3 -0.003934 -0.005021 0.020342 0.000000 0.000000 0.000000
# 4 0.000000 0.000000 0.000000 0.029098 0.000000 0.000000
# 5 0.000000 0.000000 0.000000 0.000000 0.040697 0.000000
# 6 0.000000 0.000000 0.000000 0.000000 0.000000 0.043196
#
#
# Mechanical properties :
#
#
# Convention : Reuss Voigt Hill
#
# Bulk Modulus (GPa) = 52.69170 58.15799 55.42484
# Shear Modulus (GPa) = 25.39870 26.46273 25.93072
#
# Velocity S-wave (km/s) = 3.66685 3.74287 3.70505
# Velocity P-wave (km/s) = 6.76920 7.03327 6.90250
#
# Compressibility (1/GPa) = 0.01897832
#
# Stress axis : x y z
#
# Youngs Moduli (GPa) = 70.05362 73.29077 49.16029
#
# Poissons Ratio (x) = 0.41672 0.19340
# Poissons Ratio (y) = 0.39832 0.24685
# Poissons Ratio (z) = 0.27559 0.36802
#
# Static dielectric constant tensor:
#      x y z
#    x 1.650490 0.000000 0.000000 
#    y 0.000000 1.691980 0.000000 
#    z 0.000000 0.000000 1.693350 
# 
# From -- ./inp_files/4229.got.cif
#   From: 2010.05.17/outbox.cif.g08.bks.cpg/sg16_3_cif.got.tgz:4229.got - 2010.06.03 22:28:35.
