data_PCOD9310620
_publ_section_title
;
Structure prediction by ZEFSAII (Michael W. Deem and Ramdas Pophale) SiO2 
 PCOD9310620
Probable space group: P 2 2 21
;
_chemical_formula_sum "Si O2"
_cell_formula_units_Z 24
_cell_length_a 10.546171
_cell_length_b 5.664985
_cell_length_c 15.349328
_cell_angle_alpha 90.000000
_cell_angle_beta 90.000000
_cell_angle_gamma 90.000000
_cell_volume 917.028725
_symmetry_space_group_name_H-M "P 2 2 21"
_symmetry_group_IT_number 17
_symmetry_cell_setting 'orthorhombic'
loop_
_space_group_symop_operation_xyz
x,y,z
-x,-y,1/2+z
x,-y,-z
-x,y,1/2-z
loop_
_atom_site_type_symbol
_atom_site_label
_atom_site_fract_x
_atom_site_fract_y
_atom_site_fract_z
Si Si1 0.938357 0.750023 0.847376
Si Si2 0.943274 0.250023 0.848003
Si Si3 0.299699 0.749985 0.238813
Si Si4 0.282506 0.250000 0.957184
Si Si5 0.570935 0.750000 0.981353
Si Si6 0.642877 0.249986 0.204284
O O1 0.973802 0.501161 0.890000
O O2 0.787534 0.750018 0.831880
O O3 0.000000 0.750025 0.750000
O O4 0.973800 0.998885 0.890000
O O5 0.794512 0.250020 0.821505
O O6 0.000000 0.250025 0.750000
O O7 0.239797 0.749996 0.142877
O O8 0.366994 0.496941 0.245292
O O9 0.366998 0.003023 0.245297
O O10 0.438404 0.249999 0.965327
O O11 0.245059 0.500000 0.000000
O O12 0.245058 0.000000 0.000000
O O13 0.637442 0.500000 0.000000
O O14 0.550768 0.750003 0.878241
O O15 0.637443 0.000000 0.000000
#
# Coordination Sequence:
#
# PCOD9310620 Si02
#       6
#     4   4   4   4   4   4
#     4   8  14  25  44  74 101 122 155 211 260 292
#     4   8  14  25  44  74 101 122 155 211 260 292
#     4  10  19  33  55  81 101 133 181 222 254 304
#     4  10  21  38  53  73 108 145 171 211 268 316
#     4  10  21  38  53  73 108 145 171 211 268 316
#     4  10  19  33  55  81 101 133 181 222 254 304
#
# _framework density 26.171482000000001
#
# number of rings (size 3 to 8) (size 9 to 14) (size 15 to 20)
#    0.000    2.667    0.000    2.000    0.000    0.000 
#    0.000   20.000    0.000    0.000    0.000  112.000 
#    0.000    0.000    0.000    0.000    0.000    0.000 
#
# Total GULP energy -133943.852107 kJ/mol
# GULP energy per Si atom -5580.993838 kJ/mol
# Density = 2.611191 g / cm^3
# Si number density = 26.171482 Si / 1000 Ang^3
#
#
#
# Elastic Constant Matrix: (Units=GPa)
#
#
# Indices 1 2 3 4 5 6 
#
# 1 66.4691 -4.6871 -4.0868 0.0000 0.0000 0.0000
# 2 -4.6871 398.9057 64.6994 0.0000 0.0000 0.0000
# 3 -4.0868 64.6994 90.8345 0.0000 0.0000 0.0000
# 4 0.0000 0.0000 0.0000 51.6538 0.0000 0.0000
# 5 0.0000 0.0000 0.0000 0.0000 21.9438 0.0000
# 6 0.0000 0.0000 0.0000 0.0000 0.0000 718.0465
#
#
#
# Elastic Compliance Matrix: (Units=1/GPa)
#
#
# Indices 1 2 3 4 5 6 
#
# 1 0.015088 0.000076 0.000625 0.000000 0.000000 0.000000
# 2 0.000076 0.002835 -0.002016 0.000000 0.000000 0.000000
# 3 0.000625 -0.002016 0.012473 0.000000 0.000000 0.000000
# 4 0.000000 0.000000 0.000000 0.019360 0.000000 0.000000
# 5 0.000000 0.000000 0.000000 0.000000 0.045571 0.000000
# 6 0.000000 0.000000 0.000000 0.000000 0.000000 0.001393
#
#
# Mechanical properties :
#
#
# Convention : Reuss Voigt Hill
#
# Bulk Modulus (GPa) = 36.01532 74.22894 55.12213
# Shear Modulus (GPa) = 46.03867 191.68108 118.85987
#
# Velocity S-wave (km/s) = 4.19873 8.56735 6.74644
# Velocity P-wave (km/s) = 6.10712 11.23788 9.04398
#
# Compressibility (1/GPa) = 0.02776596
#
# Stress axis : x y z
#
# Youngs Moduli (GPa) = 66.27630 352.77424 80.17418
#
# Poissons Ratio (x) = -0.02680 -0.05009
# Poissons Ratio (y) = -0.00503 0.16160
# Poissons Ratio (z) = -0.04141 0.71107
#
# Static dielectric constant tensor:
#      x y z
#    x 2.103720 0.000000 0.000000 
#    y 0.000000 2.086470 0.000000 
#    z 0.000000 0.000000 1.941970 
# 
# From -- ./inp_files/7744.got.cif
#   From: 2010.05.17/outbox.cif.g08.bks.cpg/sg17_4_cif.got.tgz:7744.got - 2010.06.03 22:34:06.
