data_PCOD9310471
_publ_section_title
;
Structure prediction by ZEFSAII (Michael W. Deem and Ramdas Pophale) SiO2 
 PCOD9310471
Probable space group: P 2 2 21
;
_chemical_formula_sum "Si O2"
_cell_formula_units_Z 32
_cell_length_a 5.561176
_cell_length_b 12.099017
_cell_length_c 20.732913
_cell_angle_alpha 90.000000
_cell_angle_beta 90.000000
_cell_angle_gamma 90.000000
_cell_volume 1395.009137
_symmetry_space_group_name_H-M "P 2 2 21"
_symmetry_group_IT_number 17
_symmetry_cell_setting 'orthorhombic'
loop_
_space_group_symop_operation_xyz
x,y,z
-x,-y,1/2+z
x,-y,-z
-x,y,1/2-z
loop_
_atom_site_type_symbol
_atom_site_label
_atom_site_fract_x
_atom_site_fract_y
_atom_site_fract_z
Si Si1 0.750000 0.924130 0.766668
Si Si2 0.250000 0.673862 0.783784
Si Si3 0.250000 0.850962 0.445927
Si Si4 0.249999 0.278807 0.057431
Si Si5 0.750000 0.098994 0.551424
Si Si6 0.250001 0.174437 0.408060
Si Si7 0.750000 0.414786 0.938722
Si Si8 0.750000 0.494772 0.403308
O O1 0.500000 0.981797 0.750000
O O2 0.750000 0.809085 0.723362
O O3 0.750000 0.890466 0.841540
O O4 0.000000 0.981797 0.750000
O O5 0.500000 0.642665 0.750000
O O6 0.250000 0.600609 0.848174
O O7 0.000000 0.642665 0.750000
O O8 0.493874 0.896280 0.413992
O O9 0.250001 0.885410 0.522294
O O10 0.250000 0.716959 0.451203
O O11 0.006128 0.896280 0.413992
O O12 0.501629 0.243398 0.090634
O O13 0.250000 0.406007 0.037968
O O14 0.998369 0.243399 0.090634
O O15 0.249999 0.208739 0.991908
O O16 0.750000 0.000000 0.500000
O O17 0.500768 0.441424 0.901864
O O18 0.999232 0.441424 0.901865
O O19 0.750000 0.500000 0.000000
#
# Coordination Sequence:
#
# PCOD9310471 Si02
#       8
#     4   4   4   4   4   4   4   4
#     4  10  18  26  41  62  85 120 162 195 236 285
#     4  10  19  31  47  67  92 130 168 206 253 298
#     4  10  21  35  51  71  99 136 173 204 240 293
#     4  10  18  30  47  65  92 128 163 198 234 284
#     4  10  19  33  52  73  95 125 164 205 249 289
#     4  10  18  31  45  63  92 127 167 200 234 289
#     4  12  23  34  49  70 100 142 180 205 236 285
#     4  12  22  34  49  71 103 140 176 207 244 299
#
# _framework density 22.93892
#
# number of rings (size 3 to 8) (size 9 to 14) (size 15 to 20)
#    0.000    1.500    0.000    9.750    0.000    0.000 
#    0.000    0.000    0.000    0.000    0.000    0.000 
#    0.000    0.000    0.000  427.500    0.000   27.500 
#
# Total GULP energy -178641.621542 kJ/mol
# GULP energy per Si atom -5582.550673 kJ/mol
# Density = 2.288671 g / cm^3
# Si number density = 22.938920 Si / 1000 Ang^3
#
#
#
# Elastic Constant Matrix: (Units=GPa)
#
#
# Indices 1 2 3 4 5 6 
#
# 1 274.0980 33.3595 13.9377 0.0000 0.0000 0.0000
# 2 33.3595 86.3675 9.0755 0.0000 0.0000 0.0000
# 3 13.9377 9.0755 30.5452 0.0000 0.0000 0.0000
# 4 0.0000 0.0000 0.0000 15.1935 0.0000 0.0000
# 5 0.0000 0.0000 0.0000 0.0000 28.6324 0.0000
# 6 0.0000 0.0000 0.0000 0.0000 0.0000 28.6766
#
#
#
# Elastic Compliance Matrix: (Units=1/GPa)
#
#
# Indices 1 2 3 4 5 6 
#
# 1 0.003883 -0.001356 -0.001369 0.000000 0.000000 0.000000
# 2 -0.001356 0.012425 -0.003073 0.000000 0.000000 0.000000
# 3 -0.001369 -0.003073 0.034276 0.000000 0.000000 0.000000
# 4 0.000000 0.000000 0.000000 0.065817 0.000000 0.000000
# 5 0.000000 0.000000 0.000000 0.000000 0.034925 0.000000
# 6 0.000000 0.000000 0.000000 0.000000 0.000000 0.034872
#
#
# Mechanical properties :
#
#
# Convention : Reuss Voigt Hill
#
# Bulk Modulus (GPa) = 25.64865 55.97287 40.81076
# Shear Modulus (GPa) = 23.72025 36.80973 30.26499
#
# Velocity S-wave (km/s) = 3.21917 4.01020 3.63626
# Velocity P-wave (km/s) = 5.00230 6.77466 5.95479
#
# Compressibility (1/GPa) = 0.03898841
#
# Stress axis : x y z
#
# Youngs Moduli (GPa) = 257.53505 80.48245 29.17490
#
# Poissons Ratio (x) = 0.10913 0.03994
# Poissons Ratio (y) = 0.34920 0.08965
# Poissons Ratio (z) = 0.35254 0.24732
#
# Static dielectric constant tensor:
#      x y z
#    x 1.988670 0.000000 0.000000 
#    y 0.000000 1.943650 0.000000 
#    z 0.000000 0.000000 2.043430 
# 
# From -- ./inp_files/10508.got.cif
#   From: 2010.05.17/outbox.cif.g08.bks.cpg/sg17_6_cif.got.tgz:10508.got - 2010.06.03 22:34:06.
