data_PCOD9310141
_publ_section_title
;
Structure prediction by ZEFSAII (Michael W. Deem and Ramdas Pophale) SiO2 
 PCOD9310141
Probable space group: P 2 2 2
;
_chemical_formula_sum "Si O2"
_cell_formula_units_Z 25
_cell_length_a 8.700240
_cell_length_b 5.587940
_cell_length_c 22.446083
_cell_angle_alpha 90.000000
_cell_angle_beta 90.000000
_cell_angle_gamma 90.000000
_cell_volume 1091.248178
_symmetry_space_group_name_H-M "P 2 2 2"
_symmetry_group_IT_number 16
_symmetry_cell_setting 'orthorhombic'
loop_
_space_group_symop_operation_xyz
x,y,z
-x,-y,z
x,-y,-z
-x,y,-z
loop_
_atom_site_type_symbol
_atom_site_label
_atom_site_fract_x
_atom_site_fract_y
_atom_site_fract_z
Si Si1 0.591766 0.244828 0.401851
Si Si2 0.937628 0.250565 0.432801
Si Si3 0.719890 0.205629 0.268452
Si Si4 0.233414 0.155510 0.170456
Si Si5 0.500000 0.500000 0.000000
Si Si6 0.500000 0.500000 0.183783
Si Si7 0.327700 0.108996 0.939573
Si Si8 0.000000 0.500000 0.220934
O O1 0.500000 0.500000 0.407326
O O2 0.753548 0.256946 0.436146
O O3 0.649984 0.207901 0.333818
O O4 0.500000 0.000000 0.418197
O O5 0.000000 0.500000 0.404987
O O6 0.000000 0.248514 0.500000
O O7 0.000000 0.000000 0.404471
O O8 0.597703 0.328192 0.225535
O O9 0.875136 0.359958 0.260830
O O10 0.744312 0.950701 0.236985
O O11 0.374363 0.329758 0.154121
O O12 0.082371 0.310519 0.177902
O O13 0.237042 0.951490 0.120110
O O14 0.378343 0.372638 0.956353
O O15 0.500000 0.000000 0.934671
O O16 0.255811 0.000000 0.000000
#
# Coordination Sequence:
#
# PCOD9310141 Si02
#       8
#     4   4   4   4   1   2   4   2
#     4  12  26  45  73 114 148 191 249 318 364 432
#     4  10  23  47  74 106 147 200 248 297 370 443
#     4  11  23  40  63  93 135 176 227 274 357 415
#     4  11  22  39  61  94 128 176 220 278 345 431
#     4   8  18  34  52  94 128 158 202 290 360 414
#     4  10  20  37  62  91 128 169 210 277 342 408
#     4   9  19  34  58  92 124 158 213 278 345 412
#     4  10  26  40  60  91 131 182 220 280 334 448
#
# _framework density 22.909545000000001
#
# number of rings (size 3 to 8) (size 9 to 14) (size 15 to 20)
#    0.000    1.760    0.800    3.840    3.360    9.600 
#    0.000    9.600    0.000    2.880    0.000    7.840 
#    0.000    0.000    0.000    0.000    0.000    0.000 
#
# Total GULP energy -139563.402727 kJ/mol
# GULP energy per Si atom -5582.536109 kJ/mol
# Density = 2.285740 g / cm^3
# Si number density = 22.909545 Si / 1000 Ang^3
#
#
#
# Elastic Constant Matrix: (Units=GPa)
#
#
# Indices 1 2 3 4 5 6 
#
# 1 149.5018 72.1429 29.1959 0.0000 0.0000 0.0000
# 2 72.1429 146.3928 30.1952 0.0000 0.0000 0.0000
# 3 29.1959 30.1952 71.5899 0.0000 0.0000 0.0000
# 4 0.0000 0.0000 0.0000 10.2427 0.0000 0.0000
# 5 0.0000 0.0000 0.0000 0.0000 19.1260 0.0000
# 6 0.0000 0.0000 0.0000 0.0000 0.0000 50.5550
#
#
#
# Elastic Compliance Matrix: (Units=1/GPa)
#
#
# Indices 1 2 3 4 5 6 
#
# 1 0.009024 -0.004039 -0.001976 0.000000 0.000000 0.000000
# 2 -0.004039 0.009290 -0.002271 0.000000 0.000000 0.000000
# 3 -0.001976 -0.002271 0.015732 0.000000 0.000000 0.000000
# 4 0.000000 0.000000 0.000000 0.097630 0.000000 0.000000
# 5 0.000000 0.000000 0.000000 0.000000 0.052285 0.000000
# 6 0.000000 0.000000 0.000000 0.000000 0.000000 0.019780
#
#
# Mechanical properties :
#
#
# Convention : Reuss Voigt Hill
#
# Bulk Modulus (GPa) = 57.23215 70.06140 63.64677
# Shear Modulus (GPa) = 22.11019 31.71476 26.91248
#
# Velocity S-wave (km/s) = 3.10999 3.72472 3.43115
# Velocity P-wave (km/s) = 6.15890 7.01043 6.59842
#
# Compressibility (1/GPa) = 0.01747270
#
# Stress axis : x y z
#
# Youngs Moduli (GPa) = 110.81406 107.64258 63.56331
#
# Poissons Ratio (x) = 0.43482 0.12563
# Poissons Ratio (y) = 0.44763 0.14435
# Poissons Ratio (z) = 0.21902 0.24445
#
# Static dielectric constant tensor:
#      x y z
#    x 1.825560 0.000000 0.000000 
#    y 0.000000 2.168480 0.000000 
#    z 0.000000 0.000000 1.860540 
# 
# From -- ./inp_files/9565.got.cif
#   From: 2010.05.17/outbox.cif.g08.bks.cpg/sg16_5_cif.got.tgz:9565.got - 2010.06.03 22:28:35.
