data_PCOD9310255
_publ_section_title
;
Structure prediction by ZEFSAII (Michael W. Deem and Ramdas Pophale) SiO2 
 PCOD9310255
Probable space group: P 2 2 2
;
_chemical_formula_sum "Si O2"
_cell_formula_units_Z 17
_cell_length_a 7.109864
_cell_length_b 9.976211
_cell_length_c 10.272209
_cell_angle_alpha 90.000000
_cell_angle_beta 90.000000
_cell_angle_gamma 90.000000
_cell_volume 728.602684
_symmetry_space_group_name_H-M "P 2 2 2"
_symmetry_group_IT_number 16
_symmetry_cell_setting 'orthorhombic'
loop_
_space_group_symop_operation_xyz
x,y,z
-x,-y,z
x,-y,-z
-x,y,-z
loop_
_atom_site_type_symbol
_atom_site_label
_atom_site_fract_x
_atom_site_fract_y
_atom_site_fract_z
Si Si1 0.723873 0.270028 0.991945
Si Si2 0.282153 0.859463 0.729800
Si Si3 0.271257 0.653801 0.509877
Si Si4 0.264132 0.842110 0.276532
Si Si5 0.000000 0.500000 0.000000
O O1 0.753404 0.159118 0.882385
O O2 0.848401 0.394968 0.942637
O O3 0.500000 0.303173 0.000000
O O4 0.782965 0.216066 0.133886
O O5 0.218846 0.736844 0.639072
O O6 0.508582 0.852806 0.718759
O O7 0.207625 0.005545 0.693157
O O8 0.210788 0.500000 0.500000
O O9 0.500000 0.651783 0.500000
O O10 0.204075 0.739103 0.386718
#
# Coordination Sequence:
#
# PCOD9310255 Si02
#       5
#     4   4   4   4   1
#     4  10  22  39  63  89 120 157 202 248 296 358
#     4   9  17  32  56  86 120 159 201 247 298 353
#     4   9  17  27  47  85 126 159 198 245 295 354
#     4   9  17  32  56  86 120 159 201 247 298 353
#     4  12  26  40  58  92 128 160 192 246 312 362
#
# _framework density 23.332332999999998
#
# number of rings (size 3 to 8) (size 9 to 14) (size 15 to 20)
#    0.000    2.588    0.000    1.765    3.294    5.647 
#    0.000    2.353    0.000    2.824    0.000    3.294 
#    0.000    0.000    0.000    0.000    0.000    0.000 
#
# Total GULP energy -94869.351780 kJ/mol
# GULP energy per Si atom -5580.550105 kJ/mol
# Density = 2.327923 g / cm^3
# Si number density = 23.332333 Si / 1000 Ang^3
#
#
#
# Elastic Constant Matrix: (Units=GPa)
#
#
# Indices 1 2 3 4 5 6 
#
# 1 129.7494 16.3307 2.7611 0.0000 0.0000 0.0000
# 2 16.3307 187.5714 75.1380 0.0000 0.0000 0.0000
# 3 2.7611 75.1380 154.7314 0.0000 0.0000 0.0000
# 4 0.0000 0.0000 0.0000 -87.9409 0.0000 0.0000
# 5 0.0000 0.0000 0.0000 0.0000 -20.4554 0.0000
# 6 0.0000 0.0000 0.0000 0.0000 0.0000 -18.2935
#
#
#
# Elastic Compliance Matrix: (Units=1/GPa)
#
#
# Indices 1 2 3 4 5 6 
#
# 1 0.007800 -0.000774 0.000237 0.000000 0.000000 0.000000
# 2 -0.000774 0.006696 -0.003238 0.000000 0.000000 0.000000
# 3 0.000237 -0.003238 0.008031 0.000000 0.000000 0.000000
# 4 0.000000 0.000000 0.000000 -0.011371 0.000000 0.000000
# 5 0.000000 0.000000 0.000000 0.000000 -0.048887 0.000000
# 6 0.000000 0.000000 0.000000 0.000000 0.000000 -0.054664
#
#
# Mechanical properties :
#
#
# Convention : Reuss Voigt Hill
#
# Bulk Modulus (GPa) = 66.77240 73.39017 70.08129
# Shear Modulus (GPa) = -62.61377 -0.14980 -31.38178
#
# Velocity S-wave (km/s) = -5.18593 -0.25366 -3.67139
# Velocity P-wave (km/s) = 2.67926 5.60685 3.48270
#
# Compressibility (1/GPa) = 0.01497625
#
# Stress axis : x y z
#
# Youngs Moduli (GPa) = 128.21287 149.35175 124.52100
#
# Poissons Ratio (x) = 0.11557 -0.02946
# Poissons Ratio (y) = 0.09922 0.40315
# Poissons Ratio (z) = -0.03033 0.48354
#
# Static dielectric constant tensor:
#      x y z
#    x 1.929960 0.000000 0.000000 
#    y 0.000000 1.834500 0.000000 
#    z 0.000000 0.000000 1.816110 
# 
# From -- ./inp_files/6309.got.cif
#   From: 2010.05.17/outbox.cif.g08.bks.cpg/sg16_4_cif.got.tgz:6309.got - 2010.06.03 22:28:35.
