data_PCOD9310091
_publ_section_title
;
Structure prediction by ZEFSAII (Michael W. Deem and Ramdas Pophale) SiO2 
 PCOD9310091
Probable space group: P 2 2 2
;
_chemical_formula_sum "Si O2"
_cell_formula_units_Z 26
_cell_length_a 15.030697
_cell_length_b 19.691219
_cell_length_c 5.416158
_cell_angle_alpha 90.000000
_cell_angle_beta 90.000000
_cell_angle_gamma 90.000000
_cell_volume 1603.035158
_symmetry_space_group_name_H-M "P 2 2 2"
_symmetry_group_IT_number 16
_symmetry_cell_setting 'orthorhombic'
loop_
_space_group_symop_operation_xyz
x,y,z
-x,-y,z
x,-y,-z
-x,y,-z
loop_
_atom_site_type_symbol
_atom_site_label
_atom_site_fract_x
_atom_site_fract_y
_atom_site_fract_z
Si Si1 0.599911 0.193514 0.613194
Si Si2 0.641911 0.065189 0.323479
Si Si3 0.105598 0.918133 0.506675
Si Si4 0.185900 0.922822 0.013167
Si Si5 0.500000 0.877776 0.000000
Si Si6 0.391350 0.344893 0.497000
Si Si7 0.391670 0.421284 0.000180
O O1 0.500000 0.193997 0.500000
O O2 0.652758 0.132182 0.490078
O O3 0.637300 0.267258 0.552726
O O4 0.576853 0.171537 0.892867
O O5 0.712136 0.068152 0.099228
O O6 0.544645 0.074398 0.204085
O O7 0.652601 0.000000 0.500000
O O8 0.142353 0.888516 0.251471
O O9 0.000000 0.908786 0.500000
O O10 0.123261 0.000000 0.500000
O O11 0.156477 0.892629 0.751623
O O12 0.148773 0.000000 0.000000
O O13 0.500000 0.344593 0.500000
O O14 0.363381 0.387530 0.257360
O O15 0.363816 0.379139 0.756089
O O16 0.364294 0.500000 0.000000
O O17 0.500000 0.420391 0.000000
#
# Coordination Sequence:
#
# PCOD9310091 Si02
#       7
#     4   4   4   4   2   4   4
#     4   9  21  34  46  60  76 113 157 197 242 288
#     4  11  24  37  46  64  86 115 160 210 253 297
#     4   9  17  31  51  71  89 107 128 157 212 294
#     4  10  20  33  48  68  89 109 133 175 231 282
#     4  10  24  37  50  56  83 118 174 210 265 294
#     4   9  17  27  44  58  80 104 135 175 219 279
#     4   9  16  25  40  62  83 101 123 161 221 284
#
# _framework density 16.219232000000002
#
# number of rings (size 3 to 8) (size 9 to 14) (size 15 to 20)
#    0.000    2.462    0.000    2.308   11.846    7.077 
#    0.000    0.000    0.000    0.000    0.000    0.000 
#    0.000    0.000    0.000    0.000    0.000    0.000 
#
# Total GULP energy -144788.494073 kJ/mol
# GULP energy per Si atom -5568.788234 kJ/mol
# Density = 1.618232 g / cm^3
# Si number density = 16.219232 Si / 1000 Ang^3
#
#
#
# Elastic Constant Matrix: (Units=GPa)
#
#
# Indices 1 2 3 4 5 6 
#
# 1 27.1276 15.4010 31.7157 0.0000 0.0000 0.0000
# 2 15.4010 114.0121 63.4879 0.0000 0.0000 0.0000
# 3 31.7157 63.4879 144.6743 0.0000 0.0000 0.0000
# 4 0.0000 0.0000 0.0000 17.6262 0.0000 0.0000
# 5 0.0000 0.0000 0.0000 0.0000 20.0447 0.0000
# 6 0.0000 0.0000 0.0000 0.0000 0.0000 0.2900
#
#
#
# Elastic Compliance Matrix: (Units=1/GPa)
#
#
# Indices 1 2 3 4 5 6 
#
# 1 0.049630 -0.000854 -0.010505 0.000000 0.000000 0.000000
# 2 -0.000854 0.011622 -0.004913 0.000000 0.000000 0.000000
# 3 -0.010505 -0.004913 0.011371 0.000000 0.000000 0.000000
# 4 0.000000 0.000000 0.000000 0.056734 0.000000 0.000000
# 5 0.000000 0.000000 0.000000 0.000000 0.049888 0.000000
# 6 0.000000 0.000000 0.000000 0.000000 0.000000 3.448592
#
#
# Mechanical properties :
#
#
# Convention : Reuss Voigt Hill
#
# Bulk Modulus (GPa) = 24.95118 56.33592 40.64355
# Shear Modulus (GPa) = 1.36101 19.27281 10.31691
#
# Velocity S-wave (km/s) = 0.91704 3.45087 2.52482
# Velocity P-wave (km/s) = 4.06674 7.11951 5.79766
#
# Compressibility (1/GPa) = 0.04007827
#
# Stress axis : x y z
#
# Youngs Moduli (GPa) = 20.14924 86.04248 87.94350
#
# Poissons Ratio (x) = 0.07351 0.92384
# Poissons Ratio (y) = 0.01722 0.43206
# Poissons Ratio (z) = 0.21167 0.42272
#
# Static dielectric constant tensor:
#      x y z
#    x 1.564220 0.000000 0.000000 
#    y 0.000000 1.545610 0.000000 
#    z 0.000000 0.000000 1.656510 
# 
# From -- ./inp_files/2074.got.cif
#   From: 2010.05.17/outbox.cif.g08.bks.cpg/sg16_2_cif.got.tgz:2074.got - 2010.06.03 22:28:35.
