data_PCOD9310390
_publ_section_title
;
Structure prediction by ZEFSAII (Michael W. Deem and Ramdas Pophale) SiO2 
 PCOD9310390
Probable space group: P 2 2 2
;
_chemical_formula_sum "Si O2"
_cell_formula_units_Z 12
_cell_length_a 7.863276
_cell_length_b 7.432651
_cell_length_c 8.849607
_cell_angle_alpha 90.000000
_cell_angle_beta 90.000000
_cell_angle_gamma 90.000000
_cell_volume 517.215159
_symmetry_space_group_name_H-M "P 2 2 2"
_symmetry_group_IT_number 16
_symmetry_cell_setting 'orthorhombic'
loop_
_space_group_symop_operation_xyz
x,y,z
-x,-y,z
x,-y,-z
-x,y,-z
loop_
_atom_site_type_symbol
_atom_site_label
_atom_site_fract_x
_atom_site_fract_y
_atom_site_fract_z
Si Si1 0.316977 0.410227 0.196273
Si Si2 0.826645 0.755749 0.907219
Si Si3 0.297851 0.042654 0.332883
O O1 0.500000 0.500000 0.222231
O O2 0.183952 0.573317 0.190303
O O3 0.275766 0.254782 0.312493
O O4 0.308917 0.298818 0.037780
O O5 0.785334 0.923376 0.800417
O O6 0.000000 0.776310 0.000000
O O7 0.500000 0.000000 0.325149
O O8 0.234135 0.000000 0.500000
#
# Coordination Sequence:
#
# PCOD9310390 Si02
#       3
#     4   4   4
#     4  11  22  41  71 105 142 189 247 301 352 426
#     4  11  24  43  71 107 141 186 245 307 362 422
#     4  11  25  44  70 109 149 195 240 293 368 445
#
# _framework density 23.201176
#
# number of rings (size 3 to 8) (size 9 to 14) (size 15 to 20)
#    0.000    1.000    3.333    5.000    0.000    6.667 
#    0.000    3.333    0.000    8.000    0.000    0.000 
#    0.000    0.000    0.000    0.000    0.000    0.000 
#
# Total GULP energy -67109.907282 kJ/mol
# GULP energy per Si atom -5592.492274 kJ/mol
# Density = 2.314837 g / cm^3
# Si number density = 23.201176 Si / 1000 Ang^3
#
#
#
# Elastic Constant Matrix: (Units=GPa)
#
#
# Indices 1 2 3 4 5 6 
#
# 1 117.1260 60.3464 44.5253 0.0000 0.0000 0.0000
# 2 60.3464 213.4081 88.7111 0.0000 0.0000 0.0000
# 3 44.5253 88.7111 95.7841 0.0000 0.0000 0.0000
# 4 0.0000 0.0000 0.0000 39.3662 0.0000 0.0000
# 5 0.0000 0.0000 0.0000 0.0000 13.5454 0.0000
# 6 0.0000 0.0000 0.0000 0.0000 0.0000 26.0538
#
#
#
# Elastic Compliance Matrix: (Units=1/GPa)
#
#
# Indices 1 2 3 4 5 6 
#
# 1 0.010678 -0.001555 -0.003524 0.000000 0.000000 0.000000
# 2 -0.001555 0.007846 -0.006543 0.000000 0.000000 0.000000
# 3 -0.003524 -0.006543 0.018139 0.000000 0.000000 0.000000
# 4 0.000000 0.000000 0.000000 0.025403 0.000000 0.000000
# 5 0.000000 0.000000 0.000000 0.000000 0.073826 0.000000
# 6 0.000000 0.000000 0.000000 0.000000 0.000000 0.038382
#
#
# Mechanical properties :
#
#
# Convention : Reuss Voigt Hill
#
# Bulk Modulus (GPa) = 74.52564 90.38710 82.45637
# Shear Modulus (GPa) = 24.75372 31.30879 28.03126
#
# Velocity S-wave (km/s) = 3.26991 3.67747 3.47966
# Velocity P-wave (km/s) = 6.81525 7.55475 7.19451
#
# Compressibility (1/GPa) = 0.01341820
#
# Stress axis : x y z
#
# Youngs Moduli (GPa) = 93.64622 127.46097 55.13119
#
# Poissons Ratio (x) = 0.19817 0.19428
# Poissons Ratio (y) = 0.14559 0.36075
# Poissons Ratio (z) = 0.33001 0.83404
#
# Static dielectric constant tensor:
#      x y z
#    x 1.910060 0.000000 0.000000 
#    y 0.000000 1.900230 0.000000 
#    z 0.000000 0.000000 1.916110 
# 
# From -- ./inp_files/3304.got.cif
#   From: 2010.05.17/outbox.cif.g08.bks.cpg/sg16_2_cif.got.tgz:3304.got - 2010.06.03 22:28:35.
