data_PCOD9310311
_publ_section_title
;
Structure prediction by ZEFSAII (Michael W. Deem and Ramdas Pophale) SiO2 
 PCOD9310311
Probable space group: P 2 2 2
;
_chemical_formula_sum "Si O2"
_cell_formula_units_Z 13
_cell_length_a 12.859585
_cell_length_b 7.896792
_cell_length_c 5.423571
_cell_angle_alpha 90.000000
_cell_angle_beta 90.000000
_cell_angle_gamma 90.000000
_cell_volume 550.760749
_symmetry_space_group_name_H-M "P 2 2 2"
_symmetry_group_IT_number 16
_symmetry_cell_setting 'orthorhombic'
loop_
_space_group_symop_operation_xyz
x,y,z
-x,-y,z
x,-y,-z
-x,y,-z
loop_
_atom_site_type_symbol
_atom_site_label
_atom_site_fract_x
_atom_site_fract_y
_atom_site_fract_z
Si Si1 0.500000 0.000000 0.500000
Si Si2 0.933443 0.719716 0.248166
Si Si3 0.653388 0.826483 0.677586
Si Si4 0.231803 0.500000 0.500000
Si Si5 0.812446 0.000000 0.000000
O O1 0.467871 0.149788 0.708862
O O2 0.846539 0.576050 0.293420
O O3 0.000000 0.723183 0.500000
O O4 0.880460 0.902762 0.201780
O O5 0.000000 0.692308 0.000000
O O6 0.695002 0.656942 0.562080
O O7 0.653578 0.000000 0.500000
O O8 0.735647 0.862901 0.887100
#
# Coordination Sequence:
#
# PCOD9310311 Si02
#       5
#     1   4   4   2   2
#     4   8  20  48  72 104 142 176 236 296 364 446
#     4  12  28  45  70 107 149 197 253 301 349 429
#     4  10  23  46  70 104 137 185 227 303 354 444
#     4  12  25  47  72 102 144 188 238 295 369 414
#     4  12  25  45  74 100 150 194 242 295 373 416
#
# _framework density 23.603712999999999
#
# number of rings (size 3 to 8) (size 9 to 14) (size 15 to 20)
#    0.923    0.000    3.077    2.769    0.000   13.538 
#    0.000    0.000    0.000    3.692    0.000    0.000 
#    0.000    0.000    0.000    0.000    0.000    0.000 
#
# Total GULP energy -72372.382379 kJ/mol
# GULP energy per Si atom -5567.106337 kJ/mol
# Density = 2.354999 g / cm^3
# Si number density = 23.603713 Si / 1000 Ang^3
#
#
#
# Elastic Constant Matrix: (Units=GPa)
#
#
# Indices 1 2 3 4 5 6 
#
# 1 49.6737 38.1057 25.0642 0.0000 0.0000 0.0000
# 2 38.1057 125.0822 41.3495 0.0000 0.0000 0.0000
# 3 25.0642 41.3495 98.2394 0.0000 0.0000 0.0000
# 4 0.0000 0.0000 0.0000 42.2020 0.0000 0.0000
# 5 0.0000 0.0000 0.0000 0.0000 29.5584 0.0000
# 6 0.0000 0.0000 0.0000 0.0000 0.0000 59.5934
#
#
#
# Elastic Compliance Matrix: (Units=1/GPa)
#
#
# Indices 1 2 3 4 5 6 
#
# 1 0.027604 -0.007064 -0.004069 0.000000 0.000000 0.000000
# 2 -0.007064 0.011095 -0.002868 0.000000 0.000000 0.000000
# 3 -0.004069 -0.002868 0.012424 0.000000 0.000000 0.000000
# 4 0.000000 0.000000 0.000000 0.023696 0.000000 0.000000
# 5 0.000000 0.000000 0.000000 0.000000 0.033831 0.000000
# 6 0.000000 0.000000 0.000000 0.000000 0.000000 0.016780
#
#
# Mechanical properties :
#
#
# Convention : Reuss Voigt Hill
#
# Bulk Modulus (GPa) = 43.25095 53.55936 48.40515
# Shear Modulus (GPa) = 31.02911 37.50248 34.26580
#
# Velocity S-wave (km/s) = 3.62966 3.99035 3.81427
# Velocity P-wave (km/s) = 5.99412 6.63105 6.32061
#
# Compressibility (1/GPa) = 0.02312088
#
# Stress axis : x y z
#
# Youngs Moduli (GPa) = 36.22708 90.13281 80.48674
#
# Poissons Ratio (x) = 0.63671 0.32753
# Poissons Ratio (y) = 0.25591 0.23080
# Poissons Ratio (z) = 0.14742 0.25846
#
# Static dielectric constant tensor:
#      x y z
#    x 2.692000 0.000000 0.000000 
#    y 0.000000 1.898740 0.000000 
#    z 0.000000 0.000000 1.959400 
# 
# From -- ./inp_files/1763.got.cif
#   From: 2010.05.17/outbox.cif.g08.bks.cpg/sg16_1_cif.got.tgz:1763.got - 2010.06.03 22:28:35.
