data_PCOD9310918
_publ_section_title
;
Structure prediction by ZEFSAII (Michael W. Deem and Ramdas Pophale) SiO2 
 PCOD9310918
Probable space group: P 2 2 21
;
_chemical_formula_sum "Si O2"
_cell_formula_units_Z 24
_cell_length_a 11.075522
_cell_length_b 8.835621
_cell_length_c 13.458175
_cell_angle_alpha 90.000000
_cell_angle_beta 90.000000
_cell_angle_gamma 90.000000
_cell_volume 1317.005092
_symmetry_space_group_name_H-M "P 2 2 21"
_symmetry_group_IT_number 17
_symmetry_cell_setting 'orthorhombic'
loop_
_space_group_symop_operation_xyz
x,y,z
-x,-y,1/2+z
x,-y,-z
-x,y,1/2-z
loop_
_atom_site_type_symbol
_atom_site_label
_atom_site_fract_x
_atom_site_fract_y
_atom_site_fract_z
Si Si1 0.268831 0.732754 0.908237
Si Si2 0.632669 0.168469 0.208390
Si Si3 0.086254 0.500000 0.000000
Si Si4 0.537326 0.320935 0.013226
Si Si5 0.882135 0.000000 0.500000
Si Si6 0.969916 0.239650 0.867894
Si Si7 0.288860 0.888947 0.404774
O O1 0.297290 0.740542 0.792115
O O2 0.396166 0.713432 0.966053
O O3 0.175587 0.601851 0.934307
O O4 0.203849 0.886359 0.940625
O O5 0.500000 0.136018 0.250000
O O6 0.611898 0.266539 0.109830
O O7 0.691830 0.008269 0.183250
O O8 0.010715 0.610354 0.072010
O O9 0.551111 0.500000 0.000000
O O10 0.595774 0.218056 0.926605
O O11 0.961643 0.900001 0.423484
O O12 0.000000 0.246081 0.750000
O O13 0.828366 0.210466 0.884568
O O14 0.271696 0.000000 0.500000
#
# Coordination Sequence:
#
# PCOD9310918 Si02
#       7
#     4   4   2   4   2   4   4
#     4  10  20  40  61  86 122 154 209 245 311 353
#     4   9  20  36  60  89 117 154 200 249 303 366
#     4  10  24  42  60  88 124 168 200 254 300 378
#     4  10  21  36  59  87 122 158 188 254 307 366
#     4  10  22  38  68  88 116 164 202 262 296 364
#     4  11  23  43  62  91 125 159 212 252 306 366
#     4  10  21  39  60  89 121 155 205 252 307 363
#
# _framework density 18.223164000000001
#
# number of rings (size 3 to 8) (size 9 to 14) (size 15 to 20)
#    0.000    2.000    1.667    1.000    7.000    1.333 
#    3.000    4.167    0.000    0.000    0.000    0.000 
#    0.000    0.000    0.000    0.000    0.000    0.000 
#
# Total GULP energy -133880.999092 kJ/mol
# GULP energy per Si atom -5578.374962 kJ/mol
# Density = 1.818169 g / cm^3
# Si number density = 18.223164 Si / 1000 Ang^3
#
#
#
# Elastic Constant Matrix: (Units=GPa)
#
#
# Indices 1 2 3 4 5 6 
#
# 1 62.7445 61.2615 38.1224 0.0000 0.0000 0.0000
# 2 61.2615 129.9155 47.8261 0.0000 0.0000 0.0000
# 3 38.1224 47.8261 81.5193 0.0000 0.0000 0.0000
# 4 0.0000 0.0000 0.0000 12.8026 0.0000 0.0000
# 5 0.0000 0.0000 0.0000 0.0000 12.4769 0.0000
# 6 0.0000 0.0000 0.0000 0.0000 0.0000 20.6758
#
#
#
# Elastic Compliance Matrix: (Units=1/GPa)
#
#
# Indices 1 2 3 4 5 6 
#
# 1 0.033263 -0.012702 -0.008103 0.000000 0.000000 0.000000
# 2 -0.012702 0.014668 -0.002666 0.000000 0.000000 0.000000
# 3 -0.008103 -0.002666 0.017620 0.000000 0.000000 0.000000
# 4 0.000000 0.000000 0.000000 0.078109 0.000000 0.000000
# 5 0.000000 0.000000 0.000000 0.000000 0.080148 0.000000
# 6 0.000000 0.000000 0.000000 0.000000 0.000000 0.048366
#
#
# Mechanical properties :
#
#
# Convention : Reuss Voigt Hill
#
# Bulk Modulus (GPa) = 53.73512 63.17769 58.45641
# Shear Modulus (GPa) = 15.36951 17.65567 16.51259
#
# Velocity S-wave (km/s) = 2.90729 3.11603 3.01347
# Velocity P-wave (km/s) = 6.38914 6.90582 6.65250
#
# Compressibility (1/GPa) = 0.01860980
#
# Stress axis : x y z
#
# Youngs Moduli (GPa) = 30.06356 68.17475 56.75255
#
# Poissons Ratio (x) = 0.86596 0.45988
# Poissons Ratio (y) = 0.38187 0.15127
# Poissons Ratio (z) = 0.24361 0.18172
#
# Static dielectric constant tensor:
#      x y z
#    x 1.610240 0.000000 0.000000 
#    y 0.000000 1.617280 0.000000 
#    z 0.000000 0.000000 1.617990 
# 
# From -- ./inp_files/6985.got.cif
#   From: 2010.05.17/outbox.cif.g08.bks.cpg/sg17_4_cif.got.tgz:6985.got - 2010.06.03 22:34:06.
