data_PCOD9310763
_publ_section_title
;
Structure prediction by ZEFSAII (Michael W. Deem and Ramdas Pophale) SiO2 
 PCOD9310763
Probable space group: P 2 2 21
;
_chemical_formula_sum "Si O2"
_cell_formula_units_Z 24
_cell_length_a 5.510965
_cell_length_b 12.352343
_cell_length_c 18.007282
_cell_angle_alpha 90.000000
_cell_angle_beta 90.000000
_cell_angle_gamma 90.000000
_cell_volume 1225.815649
_symmetry_space_group_name_H-M "P 2 2 21"
_symmetry_group_IT_number 17
_symmetry_cell_setting 'orthorhombic'
loop_
_space_group_symop_operation_xyz
x,y,z
-x,-y,1/2+z
x,-y,-z
-x,y,1/2-z
loop_
_atom_site_type_symbol
_atom_site_label
_atom_site_fract_x
_atom_site_fract_y
_atom_site_fract_z
Si Si1 0.380186 0.720243 0.346387
Si Si2 0.521517 0.479683 0.336207
Si Si3 0.000000 0.162401 0.750000
Si Si4 0.434010 0.000000 0.500000
Si Si5 0.980056 0.574204 0.924529
Si Si6 0.107954 0.785493 0.489333
Si Si7 0.744153 0.903040 0.386684
O O1 0.522425 0.610315 0.335414
O O2 0.195098 0.753917 0.282731
O O3 0.239078 0.716654 0.424553
O O4 0.548293 0.823954 0.352242
O O5 0.500000 0.442629 0.250000
O O6 0.771136 0.443524 0.377168
O O7 0.270249 0.451574 0.379898
O O8 0.930625 0.085410 0.680641
O O9 0.273400 0.891207 0.504468
O O10 0.604147 0.998232 0.427189
O O11 0.994635 0.500000 0.000000
O O12 0.956996 0.700348 0.947670
O O13 0.870764 0.836035 0.452089
#
# Coordination Sequence:
#
# PCOD9310763 Si02
#       7
#     4   4   2   2   4   4   4
#     4  10  21  36  61  94 134 168 211 273 340 395
#     4  12  26  41  64  99 141 185 226 273 341 408
#     4  10  20  34  60  96 134 170 206 278 348 410
#     4  10  22  38  66  94 124 170 220 280 336 394
#     4  12  25  42  68 100 137 178 227 279 337 410
#     4  10  22  40  63  97 125 166 225 280 331 395
#     4  10  20  37  61  94 129 166 215 275 347 398
#
# _framework density 19.578802
#
# number of rings (size 3 to 8) (size 9 to 14) (size 15 to 20)
#    0.000    1.333    1.667    4.000    9.333    0.000 
#    0.000    0.000    0.000    8.000    4.333    0.000 
#    0.000    0.000    0.000    0.000    0.000    0.000 
#
# Total GULP energy -133813.415872 kJ/mol
# GULP energy per Si atom -5575.558995 kJ/mol
# Density = 1.953424 g / cm^3
# Si number density = 19.578802 Si / 1000 Ang^3
#
#
#
# Elastic Constant Matrix: (Units=GPa)
#
#
# Indices 1 2 3 4 5 6 
#
# 1 106.2474 28.8161 65.3710 0.0000 0.0000 0.0000
# 2 28.8161 79.8786 52.2518 0.0000 0.0000 0.0000
# 3 65.3710 52.2518 128.2637 0.0000 0.0000 0.0000
# 4 0.0000 0.0000 0.0000 19.6410 0.0000 0.0000
# 5 0.0000 0.0000 0.0000 0.0000 50.2833 0.0000
# 6 0.0000 0.0000 0.0000 0.0000 0.0000 -50.5700
#
#
#
# Elastic Compliance Matrix: (Units=1/GPa)
#
#
# Indices 1 2 3 4 5 6 
#
# 1 0.013727 -0.000512 -0.006788 0.000000 0.000000 0.000000
# 2 -0.000512 0.017086 -0.006700 0.000000 0.000000 0.000000
# 3 -0.006788 -0.006700 0.013985 0.000000 0.000000 0.000000
# 4 0.000000 0.000000 0.000000 0.050914 0.000000 0.000000
# 5 0.000000 0.000000 0.000000 0.000000 0.019887 0.000000
# 6 0.000000 0.000000 0.000000 0.000000 0.000000 -0.019775
#
#
# Mechanical properties :
#
#
# Convention : Reuss Voigt Hill
#
# Bulk Modulus (GPa) = 59.52387 67.47417 63.49902
# Shear Modulus (GPa) = 38.63291 15.06757 26.85024
#
# Velocity S-wave (km/s) = 4.44689 2.77715 3.70725
# Velocity P-wave (km/s) = 7.53888 6.69486 7.12937
#
# Compressibility (1/GPa) = 0.01679998
#
# Stress axis : x y z
#
# Youngs Moduli (GPa) = 72.84883 58.52695 71.50485
#
# Poissons Ratio (x) = 0.02997 0.48534
# Poissons Ratio (y) = 0.03730 0.47905
# Poissons Ratio (z) = 0.49447 0.39211
#
# Static dielectric constant tensor:
#      x y z
#    x 1.769800 0.000000 0.000000 
#    y 0.000000 1.683260 0.000000 
#    z 0.000000 0.000000 1.774880 
# 
# From -- ./inp_files/8598.got.cif
#   From: 2010.05.17/outbox.cif.g08.bks.cpg/sg17_5_cif.got.tgz:8598.got - 2010.06.03 22:34:06.
