data_PCOD9310427
_publ_section_title
;
Structure prediction by ZEFSAII (Michael W. Deem and Ramdas Pophale) SiO2 
 PCOD9310427
Probable space group: P 2 2 2
;
_chemical_formula_sum "Si O2"
_cell_formula_units_Z 32
_cell_length_a 9.000000
_cell_length_b 12.000000
_cell_length_c 15.000000
_cell_angle_alpha 90.000000
_cell_angle_beta 90.000000
_cell_angle_gamma 90.000000
_cell_volume 1620.000000
_symmetry_space_group_name_H-M "P 2 2 2"
_symmetry_group_IT_number 16
_symmetry_cell_setting 'orthorhombic'
loop_
_space_group_symop_operation_xyz
x,y,z
-x,-y,z
x,-y,-z
-x,y,-z
loop_
_atom_site_type_symbol
_atom_site_label
_atom_site_fract_x
_atom_site_fract_y
_atom_site_fract_z
Si Si1 0.978044 0.811520 0.203381
Si Si2 0.242910 0.071857 0.705631
Si Si3 0.753527 0.114276 0.944899
Si Si4 0.260590 0.809745 0.667159
Si Si5 0.676619 0.128828 0.483699
Si Si6 0.421585 0.397556 0.904151
Si Si7 0.496791 0.175172 0.809471
Si Si8 0.864420 0.325524 0.059920
O O1 0.884037 0.877904 0.128663
O O2 0.867468 0.756341 0.274133
O O3 0.089183 0.890054 0.255076
O O4 0.071932 0.721572 0.150936
O O5 0.281819 0.145410 0.618595
O O6 0.370436 0.090916 0.778611
O O7 0.240689 0.943050 0.680566
O O8 0.604339 0.130714 0.887479
O O9 0.784266 0.220789 0.008747
O O10 0.755528 0.000000 0.000000
O O11 0.258098 0.793974 0.561554
O O12 0.411645 0.791060 0.721048
O O13 0.500000 0.131924 0.500000
O O14 0.722953 0.000000 0.500000
O O15 0.500000 0.500000 0.857811
O O16 0.427806 0.286658 0.848064
O O17 0.251494 0.421272 0.922335
O O18 0.500000 0.381077 0.000000
O O19 0.000000 0.360208 0.000000
#
# Coordination Sequence:
#
# PCOD9310427 Si02
#       8
#     4   4   4   4   4   4   4   4
#     4  10  22  33  50  75 116 150 192 222 273 328
#     4  11  20  32  54  80 112 153 192 234 270 332
#     4  10  23  36  51  75 118 160 189 230 279 325
#     4  10  21  33  52  80 115 153 190 227 273 335
#     4   9  17  32  50  74 111 152 192 230 273 314
#     4  11  23  42  61  78 104 141 189 249 294 331
#     4  11  21  36  55  81 105 144 197 239 281 331
#     4  10  21  38  56  77 111 152 185 228 282 338
#
# _framework density 19.753086
#
# number of rings (size 3 to 8) (size 9 to 14) (size 15 to 20)
#    0.000    1.750    3.750    0.750    5.250    3.250 
#    0.000    4.375    0.000    0.000    0.000    1.750 
#    0.000    0.000    8.500    0.000    0.000    0.000 
#
# Total GULP energy -178529.531247 kJ/mol
# GULP energy per Si atom -5579.047851 kJ/mol
# Density = 1.970813 g / cm^3
# Si number density = 19.753086 Si / 1000 Ang^3
#
#
#
# Elastic Constant Matrix: (Units=GPa)
#
#
# Indices 1 2 3 4 5 6 
#
# 1 94.8791 27.7015 32.0733 0.0000 0.0000 0.0000
# 2 27.7015 23.4509 13.8524 0.0000 0.0000 0.0000
# 3 32.0733 13.8524 96.9088 0.0000 0.0000 0.0000
# 4 0.0000 0.0000 0.0000 11.1671 0.0000 0.0000
# 5 0.0000 0.0000 0.0000 0.0000 13.5672 0.0000
# 6 0.0000 0.0000 0.0000 0.0000 0.0000 19.5896
#
#
#
# Elastic Compliance Matrix: (Units=1/GPa)
#
#
# Indices 1 2 3 4 5 6 
#
# 1 0.016842 -0.018133 -0.002982 0.000000 0.000000 0.000000
# 2 -0.018133 0.066098 -0.003447 0.000000 0.000000 0.000000
# 3 -0.002982 -0.003447 0.011799 0.000000 0.000000 0.000000
# 4 0.000000 0.000000 0.000000 0.089549 0.000000 0.000000
# 5 0.000000 0.000000 0.000000 0.000000 0.073707 0.000000
# 6 0.000000 0.000000 0.000000 0.000000 0.000000 0.051048
#
#
# Mechanical properties :
#
#
# Convention : Reuss Voigt Hill
#
# Bulk Modulus (GPa) = 21.92278 40.27703 31.09990
# Shear Modulus (GPa) = 13.39148 18.30556 15.84852
#
# Velocity S-wave (km/s) = 2.60656 3.04751 2.83562
# Velocity P-wave (km/s) = 4.49237 5.72866 5.14776
#
# Compressibility (1/GPa) = 0.04561466
#
# Stress axis : x y z
#
# Youngs Moduli (GPa) = 59.37497 15.12899 84.75549
#
# Poissons Ratio (x) = 0.27434 0.25275
# Poissons Ratio (y) = 1.07666 0.29214
# Poissons Ratio (z) = 0.17706 0.05215
#
# Static dielectric constant tensor:
#      x y z
#    x 1.770060 0.000000 0.000000 
#    y 0.000000 1.691970 0.000000 
#    z 0.000000 0.000000 1.748220 
# 
# From -- ./inp_files/8001.got.cif
#   From: 2010.05.17/outbox.ucp.g08.bks.cvg/sg16_5_cif.got.tgz:8001.got - 2010.06.11 13:12:45.
