data_PCOD9310132
_publ_section_title
;
Structure prediction by ZEFSAII (Michael W. Deem and Ramdas Pophale) SiO2 
 PCOD9310132
Probable space group: P 2 2 2
;
_chemical_formula_sum "Si O2"
_cell_formula_units_Z 17
_cell_length_a 17.895725
_cell_length_b 9.020368
_cell_length_c 5.344423
_cell_angle_alpha 90.000000
_cell_angle_beta 90.000000
_cell_angle_gamma 90.000000
_cell_volume 862.728961
_symmetry_space_group_name_H-M "P 2 2 2"
_symmetry_group_IT_number 16
_symmetry_cell_setting 'orthorhombic'
loop_
_space_group_symop_operation_xyz
x,y,z
-x,-y,z
x,-y,-z
-x,y,-z
loop_
_atom_site_type_symbol
_atom_site_label
_atom_site_fract_x
_atom_site_fract_y
_atom_site_fract_z
Si Si1 0.415938 0.434986 0.750331
Si Si2 0.212786 0.087524 0.750353
Si Si3 0.393170 0.911209 0.250146
Si Si4 0.145343 0.587636 0.258486
Si Si5 0.000000 0.500000 0.500000
O O1 0.500000 0.500000 0.750902
O O2 0.379262 0.500000 0.500000
O O3 0.420589 0.258002 0.750502
O O4 0.378480 0.500000 0.000000
O O5 0.302945 0.097916 0.749099
O O6 0.179606 0.250864 0.755415
O O7 0.190208 0.000000 0.500000
O O8 0.190515 0.000000 0.000000
O O9 0.415331 0.000000 0.500000
O O10 0.415062 0.000000 0.000000
O O11 0.177697 0.500000 0.500000
O O12 0.056844 0.592607 0.327358
O O13 0.156041 0.500000 0.000000
#
# Coordination Sequence:
#
# PCOD9310132 Si02
#       5
#     4   4   4   4   1
#     4  10  21  38  56  82 116 146 187 238 271 329
#     4  10  21  37  58  86 116 143 186 239 283 330
#     4  10  21  38  59  83 114 151 185 229 289 340
#     4  10  20  36  60  80 112 153 189 229 273 338
#     4   8  22  36  60  76 122 144 198 216 278 336
#
# _framework density 19.704913999999999
#
# number of rings (size 3 to 8) (size 9 to 14) (size 15 to 20)
#    0.706    1.412    0.000    3.176    0.000    1.882 
#    0.000   14.706    0.000    0.000    0.000    0.000 
#    0.000    0.000    0.000    0.000    0.000    0.000 
#
# Total GULP energy -94889.415091 kJ/mol
# GULP energy per Si atom -5581.730299 kJ/mol
# Density = 1.966006 g / cm^3
# Si number density = 19.704914 Si / 1000 Ang^3
#
#
#
# Elastic Constant Matrix: (Units=GPa)
#
#
# Indices 1 2 3 4 5 6 
#
# 1 57.5730 47.4896 37.5250 0.0000 0.0000 0.0000
# 2 47.4896 237.1260 131.3439 0.0000 0.0000 0.0000
# 3 37.5250 131.3439 238.4623 0.0000 0.0000 0.0000
# 4 0.0000 0.0000 0.0000 38.9798 0.0000 0.0000
# 5 0.0000 0.0000 0.0000 0.0000 -8.4250 0.0000
# 6 0.0000 0.0000 0.0000 0.0000 0.0000 35.9756
#
#
#
# Elastic Compliance Matrix: (Units=1/GPa)
#
#
# Indices 1 2 3 4 5 6 
#
# 1 0.021141 -0.003441 -0.001431 0.000000 0.000000 0.000000
# 2 -0.003441 0.006629 -0.003110 0.000000 0.000000 0.000000
# 3 -0.001431 -0.003110 0.006132 0.000000 0.000000 0.000000
# 4 0.000000 0.000000 0.000000 0.025654 0.000000 0.000000
# 5 0.000000 0.000000 0.000000 0.000000 -0.118694 0.000000
# 6 0.000000 0.000000 0.000000 0.000000 0.000000 0.027797
#
#
# Mechanical properties :
#
#
# Convention : Reuss Voigt Hill
#
# Bulk Modulus (GPa) = 55.75135 107.31982 81.53559
# Shear Modulus (GPa) = -531.95893 34.42626 -248.76633
#
# Velocity S-wave (km/s) = -16.44836 4.18436 -11.24811
# Velocity P-wave (km/s) = 18.23121 8.82762 11.27941
#
# Compressibility (1/GPa) = 0.01793678
#
# Stress axis : x y z
#
# Youngs Moduli (GPa) = 47.30241 150.85959 163.09146
#
# Poissons Ratio (x) = 0.51910 0.23346
# Poissons Ratio (y) = 0.16277 0.50714
# Poissons Ratio (z) = 0.06771 0.46911
#
# Static dielectric constant tensor:
#      x y z
#    x 1.980900 0.000000 0.000000 
#    y 0.000000 1.625280 0.000000 
#    z 0.000000 0.000000 1.341290 
# 
# From -- ./inp_files/280.got.cif
#   From: 2010.05.17/outbox.cif.g08.bks.cpg/sg16_1_cif.got.tgz:280.got - 2010.06.03 22:28:35.
