data_PCOD9310212
_publ_section_title
;
Structure prediction by ZEFSAII (Michael W. Deem and Ramdas Pophale) SiO2 
 PCOD9310212
Probable space group: P 2 2 2
;
_chemical_formula_sum "Si O2"
_cell_formula_units_Z 25
_cell_length_a 20.501502
_cell_length_b 10.230942
_cell_length_c 5.984911
_cell_angle_alpha 90.000000
_cell_angle_beta 90.000000
_cell_angle_gamma 90.000000
_cell_volume 1255.333154
_symmetry_space_group_name_H-M "P 2 2 2"
_symmetry_group_IT_number 16
_symmetry_cell_setting 'orthorhombic'
loop_
_space_group_symop_operation_xyz
x,y,z
-x,-y,z
x,-y,-z
-x,y,-z
loop_
_atom_site_type_symbol
_atom_site_label
_atom_site_fract_x
_atom_site_fract_y
_atom_site_fract_z
Si Si1 0.965264 0.277471 0.746822
Si Si2 0.294356 0.500000 0.000000
Si Si3 0.901509 0.500000 0.500000
Si Si4 0.282502 0.146460 0.455365
Si Si5 0.500000 0.500000 0.500000
Si Si6 0.196944 0.323815 0.753812
Si Si7 0.159349 0.862171 0.873021
Si Si8 0.374860 0.376756 0.347376
O O1 0.939084 0.425777 0.700040
O O2 0.907074 0.169746 0.742919
O O3 0.000000 0.255648 0.500000
O O4 0.000000 0.268886 0.000000
O O5 0.246446 0.436938 0.822334
O O6 0.342212 0.604936 0.892338
O O7 0.855636 0.614022 0.593164
O O8 0.239489 0.207551 0.652506
O O9 0.228248 0.142810 0.258239
O O10 0.344195 0.242123 0.429243
O O11 0.303940 0.000000 0.500000
O O12 0.451963 0.405751 0.358379
O O13 0.161954 0.261985 0.963943
O O14 0.154487 0.000000 0.000000
O O15 0.351168 0.500000 0.500000
#
# Coordination Sequence:
#
# PCOD9310212 Si02
#       8
#     4   2   2   4   1   4   4   4
#     4  12  29  50  71  99 137 186 240 301 369 449
#     4  12  20  33  70  98 139 170 234 280 346 420
#     4  12  25  45  72  97 138 173 230 294 374 431
#     4  12  23  41  67 101 139 177 228 293 355 414
#     4   8  20  44  66  94 154 180 232 278 336 404
#     4  12  22  39  64 102 132 171 220 288 365 417
#     4  12  26  45  67  94 132 182 232 295 359 427
#     4  10  21  39  63 101 137 182 229 277 331 409
#
# _framework density 19.915030999999999
#
# number of rings (size 3 to 8) (size 9 to 14) (size 15 to 20)
#    0.480    0.000    6.400    3.120    0.000    4.480 
#    0.000    2.800    0.000    0.000    0.000    0.000 
#    0.000    0.000    0.000    0.000    0.000    0.000 
#
# Total GULP energy -139227.762120 kJ/mol
# GULP energy per Si atom -5569.110485 kJ/mol
# Density = 1.986970 g / cm^3
# Si number density = 19.915031 Si / 1000 Ang^3
#
#
#
# Elastic Constant Matrix: (Units=GPa)
#
#
# Indices 1 2 3 4 5 6 
#
# 1 125.8785 52.9391 40.3264 0.0000 0.0000 0.0000
# 2 52.9391 104.8196 15.7961 0.0000 0.0000 0.0000
# 3 40.3264 15.7961 67.8913 0.0000 0.0000 0.0000
# 4 0.0000 0.0000 0.0000 38.2606 0.0000 0.0000
# 5 0.0000 0.0000 0.0000 0.0000 36.7710 0.0000
# 6 0.0000 0.0000 0.0000 0.0000 0.0000 -69.5304
#
#
#
# Elastic Compliance Matrix: (Units=1/GPa)
#
#
# Indices 1 2 3 4 5 6 
#
# 1 0.012024 -0.005178 -0.005937 0.000000 0.000000 0.000000
# 2 -0.005178 0.012117 0.000256 0.000000 0.000000 0.000000
# 3 -0.005937 0.000256 0.018196 0.000000 0.000000 0.000000
# 4 0.000000 0.000000 0.000000 0.026137 0.000000 0.000000
# 5 0.000000 0.000000 0.000000 0.000000 0.027195 0.000000
# 6 0.000000 0.000000 0.000000 0.000000 0.000000 -0.014382
#
#
# Mechanical properties :
#
#
# Convention : Reuss Voigt Hill
#
# Bulk Modulus (GPa) = 48.49784 57.41251 52.95518
# Shear Modulus (GPa) = 45.50540 13.73544 29.62042
#
# Velocity S-wave (km/s) = 4.78533 2.62907 3.86079
# Velocity P-wave (km/s) = 7.41200 6.17311 6.82074
#
# Compressibility (1/GPa) = 0.02061947
#
# Stress axis : x y z
#
# Youngs Moduli (GPa) = 83.16824 82.53101 54.95597
#
# Poissons Ratio (x) = 0.42734 0.32629
# Poissons Ratio (y) = 0.43064 -0.01409
# Poissons Ratio (z) = 0.49379 -0.02116
#
# Static dielectric constant tensor:
#      x y z
#    x 1.735770 0.000000 0.000000 
#    y 0.000000 1.644780 0.000000 
#    z 0.000000 0.000000 1.811460 
# 
# From -- ./inp_files/2776.got.cif
#   From: 2010.05.17/outbox.cif.g08.bks.cpg/sg16_2_cif.got.tgz:2776.got - 2010.06.03 22:28:35.
