data_PCOD9310219
_publ_section_title
;
Structure prediction by ZEFSAII (Michael W. Deem and Ramdas Pophale) SiO2 
 PCOD9310219
Probable space group: P 2 2 2
;
_chemical_formula_sum "Si O2"
_cell_formula_units_Z 18
_cell_length_a 6.211645
_cell_length_b 16.024669
_cell_length_c 9.236201
_cell_angle_alpha 90.000000
_cell_angle_beta 90.000000
_cell_angle_gamma 90.000000
_cell_volume 919.367338
_symmetry_space_group_name_H-M "P 2 2 2"
_symmetry_group_IT_number 16
_symmetry_cell_setting 'orthorhombic'
loop_
_space_group_symop_operation_xyz
x,y,z
-x,-y,z
x,-y,-z
-x,y,-z
loop_
_atom_site_type_symbol
_atom_site_label
_atom_site_fract_x
_atom_site_fract_y
_atom_site_fract_z
Si Si1 0.500000 0.137425 0.000000
Si Si2 0.803566 0.638691 0.396841
Si Si3 0.000000 0.000000 0.500000
Si Si4 0.500000 0.217969 0.500000
Si Si5 0.882577 0.758075 0.146334
Si Si6 0.242500 0.882761 0.273172
Si Si7 0.500000 0.500000 0.500000
O O1 0.333975 0.194896 0.092689
O O2 0.647023 0.090165 0.120553
O O3 0.695789 0.720572 0.467551
O O4 0.855172 0.674956 0.240311
O O5 0.641750 0.561576 0.402050
O O6 0.000000 0.615381 0.500000
O O7 0.851957 0.052031 0.388546
O O8 0.572685 0.164141 0.364064
O O9 0.042985 0.821980 0.230455
O O10 0.000000 0.734226 0.000000
#
# Coordination Sequence:
#
# PCOD9310219 Si02
#       7
#     2   4   1   2   4   4   1
#     4  10  22  42  69  93 126 164 224 278 334 397
#     4  11  20  39  63  96 126 166 213 271 320 385
#     4  12  28  42  66  92 146 176 216 286 344 406
#     4  11  20  36  72  91 114 166 230 269 310 386
#     4  10  21  39  68  96 121 165 224 274 316 389
#     4  11  23  43  64  99 125 170 227 276 334 397
#     4  10  26  32  60  98 136 166 206 260 340 390
#
# _framework density 19.578679999999999
#
# number of rings (size 3 to 8) (size 9 to 14) (size 15 to 20)
#    0.000    1.333    4.444    1.667    0.000    0.444 
#    0.000    6.111    0.000   10.000    0.000    0.000 
#    0.000    0.000    0.000    0.000    0.000    0.000 
#
# Total GULP energy -100384.137825 kJ/mol
# GULP energy per Si atom -5576.896546 kJ/mol
# Density = 1.953412 g / cm^3
# Si number density = 19.578680 Si / 1000 Ang^3
#
#
#
# Elastic Constant Matrix: (Units=GPa)
#
#
# Indices 1 2 3 4 5 6 
#
# 1 99.0680 37.4021 66.5426 0.0000 0.0000 0.0000
# 2 37.4021 82.5131 78.1328 0.0000 0.0000 0.0000
# 3 66.5426 78.1328 166.9962 0.0000 0.0000 0.0000
# 4 0.0000 0.0000 0.0000 6.4912 0.0000 0.0000
# 5 0.0000 0.0000 0.0000 0.0000 24.2906 0.0000
# 6 0.0000 0.0000 0.0000 0.0000 0.0000 1.5414
#
#
#
# Elastic Compliance Matrix: (Units=1/GPa)
#
#
# Indices 1 2 3 4 5 6 
#
# 1 0.013947 -0.001902 -0.004667 0.000000 0.000000 0.000000
# 2 -0.001902 0.022019 -0.009544 0.000000 0.000000 0.000000
# 3 -0.004667 -0.009544 0.012313 0.000000 0.000000 0.000000
# 4 0.000000 0.000000 0.000000 0.154055 0.000000 0.000000
# 5 0.000000 0.000000 0.000000 0.000000 0.041168 0.000000
# 6 0.000000 0.000000 0.000000 0.000000 0.000000 0.648752
#
#
# Mechanical properties :
#
#
# Convention : Reuss Voigt Hill
#
# Bulk Modulus (GPa) = 62.29799 79.19248 70.74523
# Shear Modulus (GPa) = 5.37731 17.56462 11.47096
#
# Velocity S-wave (km/s) = 1.65906 2.99846 2.42314
# Velocity P-wave (km/s) = 5.96308 7.24733 6.63635
#
# Compressibility (1/GPa) = 0.01605188
#
# Stress axis : x y z
#
# Youngs Moduli (GPa) = 71.69781 45.41531 81.21250
#
# Poissons Ratio (x) = 0.08640 0.37906
# Poissons Ratio (y) = 0.13640 0.77509
# Poissons Ratio (z) = 0.33465 0.43344
#
# Static dielectric constant tensor:
#      x y z
#    x 1.757380 0.000000 0.000000 
#    y 0.000000 1.658420 0.000000 
#    z 0.000000 0.000000 1.758670 
# 
# From -- ./inp_files/3126.got.cif
#   From: 2010.05.17/outbox.cif.g08.bks.cpg/sg16_2_cif.got.tgz:3126.got - 2010.06.03 22:28:35.
