data_PCOD9310484
_publ_section_title
;
Structure prediction by ZEFSAII (Michael W. Deem and Ramdas Pophale) SiO2 
 PCOD9310484
Probable space group: P 2 2 21
;
_chemical_formula_sum "Si O2"
_cell_formula_units_Z 24
_cell_length_a 11.503933
_cell_length_b 23.298797
_cell_length_c 5.080646
_cell_angle_alpha 90.000000
_cell_angle_beta 90.000000
_cell_angle_gamma 90.000000
_cell_volume 1361.754368
_symmetry_space_group_name_H-M "P 2 2 21"
_symmetry_group_IT_number 17
_symmetry_cell_setting 'orthorhombic'
loop_
_space_group_symop_operation_xyz
x,y,z
-x,-y,1/2+z
x,-y,-z
-x,y,1/2-z
loop_
_atom_site_type_symbol
_atom_site_label
_atom_site_fract_x
_atom_site_fract_y
_atom_site_fract_z
Si Si1 0.212498 0.627134 0.213911
Si Si2 0.727317 0.226522 0.258690
Si Si3 0.583525 0.123952 0.003024
Si Si4 0.000000 0.540727 0.250000
Si Si5 0.585007 0.000000 0.000000
Si Si6 0.867850 0.754485 0.246822
Si Si7 0.364715 0.647977 0.730986
O O1 0.146059 0.687795 0.172088
O O2 0.303756 0.635430 0.452220
O O3 0.114807 0.580184 0.268779
O O4 0.287885 0.616897 0.952789
O O5 0.783320 0.213382 0.543853
O O6 0.647398 0.283211 0.284718
O O7 0.662456 0.175907 0.103356
O O8 0.827725 0.243048 0.054196
O O9 0.500000 0.135808 0.750000
O O10 0.647495 0.061920 0.977094
O O11 0.500000 0.115624 0.250000
O O12 0.990507 0.500000 0.500000
O O13 0.500000 0.001084 0.750000
O O14 0.000000 0.774156 0.250000
O O15 0.500000 0.632502 0.750000
#
# Coordination Sequence:
#
# PCOD9310484 Si02
#       7
#     4   4   4   2   2   4   4
#     4  10  21  37  57  81 108 140 173 218 267 309
#     4  10  20  29  49  78 102 140 173 210 262 313
#     4  10  18  30  46  69 105 135 172 217 256 313
#     4  12  24  40  64  86 106 132 182 236 266 296
#     4   8  16  28  44  64  92 138 172 208 262 300
#     4  10  19  34  51  73 106 135 168 212 267 319
#     4  10  20  34  55  81 112 145 174 202 260 336
#
# _framework density 17.624324999999999
#
# number of rings (size 3 to 8) (size 9 to 14) (size 15 to 20)
#    0.000    2.000    0.833    3.500    0.000    2.667 
#    0.000    0.000    0.000   10.000    0.000    2.333 
#    0.000    0.000    0.000    0.000    0.000    0.000 
#
# Total GULP energy -133673.154807 kJ/mol
# GULP energy per Si atom -5569.714784 kJ/mol
# Density = 1.758421 g / cm^3
# Si number density = 17.624325 Si / 1000 Ang^3
#
#
#
# Elastic Constant Matrix: (Units=GPa)
#
#
# Indices 1 2 3 4 5 6 
#
# 1 72.1417 21.7596 7.5516 0.0000 0.0000 0.0000
# 2 21.7596 71.7709 -1.0218 0.0000 0.0000 0.0000
# 3 7.5516 -1.0218 98.0224 0.0000 0.0000 0.0000
# 4 0.0000 0.0000 0.0000 21.1730 0.0000 0.0000
# 5 0.0000 0.0000 0.0000 0.0000 18.7550 0.0000
# 6 0.0000 0.0000 0.0000 0.0000 0.0000 30.1543
#
#
#
# Elastic Compliance Matrix: (Units=1/GPa)
#
#
# Indices 1 2 3 4 5 6 
#
# 1 0.015405 -0.004688 -0.001236 0.000000 0.000000 0.000000
# 2 -0.004688 0.015362 0.000521 0.000000 0.000000 0.000000
# 3 -0.001236 0.000521 0.010302 0.000000 0.000000 0.000000
# 4 0.000000 0.000000 0.000000 0.047230 0.000000 0.000000
# 5 0.000000 0.000000 0.000000 0.000000 0.053319 0.000000
# 6 0.000000 0.000000 0.000000 0.000000 0.000000 0.033163
#
#
# Mechanical properties :
#
#
# Convention : Reuss Voigt Hill
#
# Bulk Modulus (GPa) = 33.04208 33.16821 33.10514
# Shear Modulus (GPa) = 25.55265 28.25949 26.90607
#
# Velocity S-wave (km/s) = 3.81182 4.00864 3.91147
# Velocity P-wave (km/s) = 6.17754 6.34712 6.26291
#
# Compressibility (1/GPa) = 0.03026444
#
# Stress axis : x y z
#
# Youngs Moduli (GPa) = 64.91404 65.09570 97.06494
#
# Poissons Ratio (x) = 0.30518 0.11994
# Poissons Ratio (y) = 0.30432 -0.05060
# Poissons Ratio (z) = 0.08021 -0.03393
#
# Static dielectric constant tensor:
#      x y z
#    x 1.586790 0.000000 0.000000 
#    y 0.000000 1.668710 0.000000 
#    z 0.000000 0.000000 1.604980 
# 
# From -- ./inp_files/1041.got.cif
#   From: 2010.05.17/outbox.cif.g08.bks.cpg/sg17_1_cif.got.tgz:1041.got - 2010.06.03 22:34:06.
