data_PCOD9310022
_publ_section_title
;
Structure prediction by ZEFSAII (Michael W. Deem and Ramdas Pophale) SiO2 
 PCOD9310022
Probable space group: P 2 2 2
;
_chemical_formula_sum "Si O2"
_cell_formula_units_Z 32
_cell_length_a 17.671113
_cell_length_b 11.050811
_cell_length_c 8.914091
_cell_angle_alpha 90.000000
_cell_angle_beta 90.000000
_cell_angle_gamma 90.000000
_cell_volume 1740.744849
_symmetry_space_group_name_H-M "P 2 2 2"
_symmetry_group_IT_number 16
_symmetry_cell_setting 'orthorhombic'
loop_
_space_group_symop_operation_xyz
x,y,z
-x,-y,z
x,-y,-z
-x,y,-z
loop_
_atom_site_type_symbol
_atom_site_label
_atom_site_fract_x
_atom_site_fract_y
_atom_site_fract_z
Si Si1 0.635950 0.089177 0.127951
Si Si2 0.151007 0.209751 0.718355
Si Si3 0.921937 0.552093 0.670134
Si Si4 0.758899 0.534304 0.231721
Si Si5 0.733770 0.259643 0.552978
Si Si6 0.226740 0.023078 0.323603
Si Si7 0.420561 0.861524 0.442197
Si Si8 0.735121 0.308794 0.061994
O O1 0.581474 0.128649 0.262190
O O2 0.671222 0.207988 0.053021
O O3 0.706478 0.024659 0.216327
O O4 0.606356 0.000000 0.000000
O O5 0.082320 0.301057 0.683291
O O6 0.211986 0.249459 0.590948
O O7 0.188800 0.244806 0.876369
O O8 0.153986 0.063070 0.708158
O O9 0.917422 0.500000 0.500000
O O10 0.846584 0.503066 0.749762
O O11 0.000000 0.500000 0.733800
O O12 0.733124 0.607815 0.376946
O O13 0.715784 0.411552 0.186177
O O14 0.748968 0.622422 0.091030
O O15 0.771819 0.167963 0.675882
O O16 0.651203 0.211982 0.505550
O O17 0.244282 0.000000 0.500000
O O18 0.500000 0.811345 0.500000
O O19 0.415032 0.000000 0.500000
#
# Coordination Sequence:
#
# PCOD9310022 Si02
#       8
#     4   4   4   4   4   4   4   4
#     4  11  18  32  55  79 110 145 178 232 286 333
#     4   9  16  30  50  74 105 138 176 231 267 326
#     4  10  19  32  50  80 109 141 182 234 288 341
#     4  10  20  32  53  80 107 149 181 236 279 328
#     4  11  16  32  56  78 103 143 189 224 281 332
#     4   9  15  28  50  76 101 134 180 226 272 321
#     4  11  21  36  54  81 119 142 175 237 285 345
#     4   9  19  32  48  81 114 129 192 229 274 323
#
# _framework density 18.382936000000001
#
# number of rings (size 3 to 8) (size 9 to 14) (size 15 to 20)
#    0.000    2.000    6.250    0.750    0.000    0.000 
#    0.000    6.250    0.000    2.250    0.000    1.750 
#    0.000   10.000    0.000    0.000    0.000    0.000 
#
# Total GULP energy -178156.059622 kJ/mol
# GULP energy per Si atom -5567.376863 kJ/mol
# Density = 1.834110 g / cm^3
# Si number density = 18.382936 Si / 1000 Ang^3
#
#
#
# Elastic Constant Matrix: (Units=GPa)
#
#
# Indices 1 2 3 4 5 6 
#
# 1 72.9287 27.7477 9.3425 0.0000 0.0000 0.0000
# 2 27.7477 92.2518 28.4537 0.0000 0.0000 0.0000
# 3 9.3425 28.4537 48.4857 0.0000 0.0000 0.0000
# 4 0.0000 0.0000 0.0000 37.4207 0.0000 0.0000
# 5 0.0000 0.0000 0.0000 0.0000 11.9286 0.0000
# 6 0.0000 0.0000 0.0000 0.0000 0.0000 19.7168
#
#
#
# Elastic Compliance Matrix: (Units=1/GPa)
#
#
# Indices 1 2 3 4 5 6 
#
# 1 0.015488 -0.004564 -0.000306 0.000000 0.000000 0.000000
# 2 -0.004564 0.014581 -0.007677 0.000000 0.000000 0.000000
# 3 -0.000306 -0.007677 0.025189 0.000000 0.000000 0.000000
# 4 0.000000 0.000000 0.000000 0.026723 0.000000 0.000000
# 5 0.000000 0.000000 0.000000 0.000000 0.083832 0.000000
# 6 0.000000 0.000000 0.000000 0.000000 0.000000 0.050718
#
#
# Mechanical properties :
#
#
# Convention : Reuss Voigt Hill
#
# Bulk Modulus (GPa) = 33.15313 38.30600 35.72957
# Shear Modulus (GPa) = 19.86655 23.68804 21.77730
#
# Velocity S-wave (km/s) = 3.29098 3.59359 3.44560
# Velocity P-wave (km/s) = 5.70216 6.17264 5.94206
#
# Compressibility (1/GPa) = 0.03016306
#
# Stress axis : x y z
#
# Youngs Moduli (GPa) = 64.56717 68.58423 39.70005
#
# Poissons Ratio (x) = 0.31303 0.01214
# Poissons Ratio (y) = 0.29469 0.30478
# Poissons Ratio (z) = 0.01975 0.52653
#
# Static dielectric constant tensor:
#      x y z
#    x 1.622710 0.000000 0.000000 
#    y 0.000000 1.719670 0.000000 
#    z 0.000000 0.000000 1.672150 
# 
# From -- ./inp_files/5544.got.cif
#   From: 2010.05.17/outbox.cif.g08.bks.cpg/sg16_3_cif.got.tgz:5544.got - 2010.06.03 22:28:35.
