data_PCOD9310306
_publ_section_title
;
Structure prediction by ZEFSAII (Michael W. Deem and Ramdas Pophale) SiO2 
 PCOD9310306
Probable space group: P 2 2 2
;
_chemical_formula_sum "Si O2"
_cell_formula_units_Z 24
_cell_length_a 5.724059
_cell_length_b 9.259277
_cell_length_c 20.107949
_cell_angle_alpha 90.000000
_cell_angle_beta 90.000000
_cell_angle_gamma 90.000000
_cell_volume 1065.734324
_symmetry_space_group_name_H-M "P 2 2 2"
_symmetry_group_IT_number 16
_symmetry_cell_setting 'orthorhombic'
loop_
_space_group_symop_operation_xyz
x,y,z
-x,-y,z
x,-y,-z
-x,y,-z
loop_
_atom_site_type_symbol
_atom_site_label
_atom_site_fract_x
_atom_site_fract_y
_atom_site_fract_z
Si Si1 0.500000 0.500000 0.084020
Si Si2 0.500000 0.000000 0.000000
Si Si3 0.185844 0.758608 0.058646
Si Si4 0.121457 0.351997 0.177209
Si Si5 0.618292 0.650168 0.572887
Si Si6 0.250340 0.933493 0.757534
Si Si7 0.257024 0.955858 0.392072
Si Si8 0.000000 0.500000 0.500000
O O1 0.333971 0.613879 0.048210
O O2 0.330164 0.404482 0.129933
O O3 0.346625 0.897732 0.047709
O O4 0.060650 0.732421 0.129076
O O5 0.000000 0.768226 0.000000
O O6 0.225597 0.236534 0.228096
O O7 0.000000 0.500000 0.203162
O O8 0.500000 0.500000 0.598290
O O9 0.500000 0.684374 0.500000
O O10 0.678850 0.786630 0.617967
O O11 0.867771 0.602482 0.548932
O O12 0.500000 0.000000 0.783070
O O13 0.252798 0.964861 0.678909
O O14 0.000000 0.000000 0.781796
O O15 0.500000 0.000000 0.427692
O O16 0.000000 0.000000 0.421243
#
# Coordination Sequence:
#
# PCOD9310306 Si02
#       8
#     2   1   4   4   4   4   4   1
#     4  10  24  43  68  92 128 170 217 282 334 420
#     4  12  26  42  60  94 140 178 210 272 342 436
#     4  11  25  43  62  96 132 170 220 270 348 421
#     4  10  24  44  69  96 127 176 232 285 351 425
#     4   9  20  38  64  97 139 189 237 284 348 424
#     4  10  24  46  70  97 136 179 232 296 352 410
#     4  10  23  43  65  97 141 180 232 291 352 410
#     4   8  18  36  62  94 140 176 236 284 336 412
#
# _framework density 22.519686
#
# number of rings (size 3 to 8) (size 9 to 14) (size 15 to 20)
#    0.000    2.167    0.000    1.250    9.333   11.000 
#    1.500    6.667    0.000    0.000    0.000    0.000 
#    0.000    0.000    0.000    0.000    0.000    0.000 
#
# Total GULP energy -133670.920082 kJ/mol
# GULP energy per Si atom -5569.621670 kJ/mol
# Density = 2.246843 g / cm^3
# Si number density = 22.519686 Si / 1000 Ang^3
#
#
#
# Elastic Constant Matrix: (Units=GPa)
#
#
# Indices 1 2 3 4 5 6 
#
# 1 159.1600 69.6700 21.7799 0.0000 0.0000 0.0000
# 2 69.6700 191.5973 70.5636 0.0000 0.0000 0.0000
# 3 21.7799 70.5636 66.7181 0.0000 0.0000 0.0000
# 4 0.0000 0.0000 0.0000 32.5234 0.0000 0.0000
# 5 0.0000 0.0000 0.0000 0.0000-1182.1516 0.0000
# 6 0.0000 0.0000 0.0000 0.0000 0.0000 71.2273
#
#
#
# Elastic Compliance Matrix: (Units=1/GPa)
#
#
# Indices 1 2 3 4 5 6 
#
# 1 0.007493 -0.002987 0.000714 0.000000 0.000000 0.000000
# 2 -0.002987 0.009741 -0.009327 0.000000 0.000000 0.000000
# 3 0.000714 -0.009327 0.024620 0.000000 0.000000 0.000000
# 4 0.000000 0.000000 0.000000 0.030747 0.000000 0.000000
# 5 0.000000 0.000000 0.000000 0.000000 -0.000846 0.000000
# 6 0.000000 0.000000 0.000000 0.000000 0.000000 0.014040
#
#
# Mechanical properties :
#
#
# Convention : Reuss Voigt Hill
#
# Bulk Modulus (GPa) = 53.61307 82.38915 68.00111
# Shear Modulus (GPa) = 43.39794 -198.64939 -77.62572
#
# Velocity S-wave (km/s) = 4.39465 -9.40228 -5.87750
# Velocity P-wave (km/s) = 7.04340 9.01142 3.97469
#
# Compressibility (1/GPa) = 0.01865217
#
# Stress axis : x y z
#
# Youngs Moduli (GPa) = 133.45674 102.66342 40.61772
#
# Poissons Ratio (x) = 0.30671 -0.02898
# Poissons Ratio (y) = 0.39870 0.37883
# Poissons Ratio (z) = -0.09523 0.95751
#
# Static dielectric constant tensor:
#      x y z
#    x 1.920330 0.000000 0.000000 
#    y 0.000000 9.412060 0.000000 
#    z 0.000000 0.000000 1.837410 
# 
# From -- ./inp_files/9490.got.cif
#   From: 2010.05.17/outbox.cif.g08.bks.cpg/sg16_5_cif.got.tgz:9490.got - 2010.06.03 22:28:35.
