data_PCOD9310080
_publ_section_title
;
Structure prediction by ZEFSAII (Michael W. Deem and Ramdas Pophale) SiO2 
 PCOD9310080
Probable space group: P 2 2 2
;
_chemical_formula_sum "Si O2"
_cell_formula_units_Z 22
_cell_length_a 12.522529
_cell_length_b 14.007242
_cell_length_c 6.711373
_cell_angle_alpha 90.000000
_cell_angle_beta 90.000000
_cell_angle_gamma 90.000000
_cell_volume 1177.215724
_symmetry_space_group_name_H-M "P 2 2 2"
_symmetry_group_IT_number 16
_symmetry_cell_setting 'orthorhombic'
loop_
_space_group_symop_operation_xyz
x,y,z
-x,-y,z
x,-y,-z
-x,y,-z
loop_
_atom_site_type_symbol
_atom_site_label
_atom_site_fract_x
_atom_site_fract_y
_atom_site_fract_z
Si Si1 0.729856 0.390620 0.023650
Si Si2 0.500000 0.684152 0.000000
Si Si3 0.876798 0.674820 0.664805
Si Si4 0.500000 0.000000 0.000000
Si Si5 0.572105 0.155922 0.697302
Si Si6 0.000000 0.500000 0.500000
Si Si7 0.000000 0.791835 0.000000
Si Si8 0.187500 0.225399 0.265886
O O1 0.604036 0.379829 0.010362
O O2 0.782228 0.321099 0.858823
O O3 0.764159 0.500000 0.000000
O O4 0.763685 0.346870 0.235454
O O5 0.482033 0.754335 0.811499
O O6 0.928247 0.572281 0.624606
O O7 0.867176 0.737829 0.467818
O O8 0.945828 0.728654 0.829361
O O9 0.434819 0.068248 0.148049
O O10 0.500000 0.137861 0.500000
O O11 0.698985 0.177331 0.675980
O O12 0.896787 0.833415 0.124552
#
# Coordination Sequence:
#
# PCOD9310080 Si02
#       8
#     4   2   4   1   4   1   2   4
#     4  10  20  31  49  70 106 148 196 242 284 320
#     4   9  19  35  51  78 106 148 189 225 275 345
#     4  11  21  32  46  71 104 145 202 243 290 321
#     4  10  22  40  62 104 114 132 172 216 288 362
#     4  10  20  37  63  86 118 142 174 227 286 354
#     4  12  20  30  48  68 112 152 202 266 276 322
#     4  10  20  35  50  73 106 148 196 242 278 325
#     4  10  20  36  53  79 109 152 193 234 287 339
#
# _framework density 18.688162999999999
#
# number of rings (size 3 to 8) (size 9 to 14) (size 15 to 20)
#    0.000    1.818    1.818    2.727    2.545    1.455 
#    0.000    0.000    0.000    3.818    0.000    0.000 
#    0.000    0.000    0.000    0.000    0.000    0.000 
#
# Total GULP energy -122507.056811 kJ/mol
# GULP energy per Si atom -5568.502582 kJ/mol
# Density = 1.864563 g / cm^3
# Si number density = 18.688163 Si / 1000 Ang^3
#
#
#
# Elastic Constant Matrix: (Units=GPa)
#
#
# Indices 1 2 3 4 5 6 
#
# 1 106.8367 17.0240 56.7493 0.0000 0.0000 0.0000
# 2 17.0240 42.2936 19.5935 0.0000 0.0000 0.0000
# 3 56.7493 19.5935 123.0587 0.0000 0.0000 0.0000
# 4 0.0000 0.0000 0.0000 2.4069 0.0000 0.0000
# 5 0.0000 0.0000 0.0000 0.0000 48.5758 0.0000
# 6 0.0000 0.0000 0.0000 0.0000 0.0000 7.5699
#
#
#
# Elastic Compliance Matrix: (Units=1/GPa)
#
#
# Indices 1 2 3 4 5 6 
#
# 1 0.012652 -0.002580 -0.005424 0.000000 0.000000 0.000000
# 2 -0.002580 0.026053 -0.002958 0.000000 0.000000 0.000000
# 3 -0.005424 -0.002958 0.011098 0.000000 0.000000 0.000000
# 4 0.000000 0.000000 0.000000 0.415478 0.000000 0.000000
# 5 0.000000 0.000000 0.000000 0.000000 0.020586 0.000000
# 6 0.000000 0.000000 0.000000 0.000000 0.000000 0.132102
#
#
# Mechanical properties :
#
#
# Convention : Reuss Voigt Hill
#
# Bulk Modulus (GPa) = 35.86879 50.99143 43.43011
# Shear Modulus (GPa) = 7.70193 23.63200 15.66696
#
# Velocity S-wave (km/s) = 2.03230 3.55990 2.89854
# Velocity P-wave (km/s) = 4.97413 6.65145 5.87298
#
# Compressibility (1/GPa) = 0.02787939
#
# Stress axis : x y z
#
# Youngs Moduli (GPa) = 79.03738 38.38278 90.10230
#
# Poissons Ratio (x) = 0.09903 0.48870
# Poissons Ratio (y) = 0.20392 0.26656
# Poissons Ratio (z) = 0.42869 0.11355
#
# Static dielectric constant tensor:
#      x y z
#    x 1.724750 0.000000 0.000000 
#    y 0.000000 1.591050 0.000000 
#    z 0.000000 0.000000 1.673160 
# 
# From -- ./inp_files/1490.got.cif
#   From: 2010.05.17/outbox.cif.g08.bks.cpg/sg16_1_cif.got.tgz:1490.got - 2010.06.03 22:28:35.
