data_PCOD9310079
_publ_section_title
;
Structure prediction by ZEFSAII (Michael W. Deem and Ramdas Pophale) SiO2 
 PCOD9310079
Probable space group: P 2 2 2
;
_chemical_formula_sum "Si O2"
_cell_formula_units_Z 23
_cell_length_a 8.276890
_cell_length_b 14.596253
_cell_length_c 8.747852
_cell_angle_alpha 90.000000
_cell_angle_beta 90.000000
_cell_angle_gamma 90.000000
_cell_volume 1056.841826
_symmetry_space_group_name_H-M "P 2 2 2"
_symmetry_group_IT_number 16
_symmetry_cell_setting 'orthorhombic'
loop_
_space_group_symop_operation_xyz
x,y,z
-x,-y,z
x,-y,-z
-x,y,-z
loop_
_atom_site_type_symbol
_atom_site_label
_atom_site_fract_x
_atom_site_fract_y
_atom_site_fract_z
Si Si1 0.306364 0.000026 0.675911
Si Si2 0.774734 0.614640 0.724594
Si Si3 0.000000 0.500000 0.500000
Si Si4 0.783423 0.810352 0.165558
Si Si5 0.165185 0.187273 0.807763
Si Si6 0.206096 0.500000 0.000000
Si Si7 0.428417 0.641111 0.832692
O O1 0.229294 0.090766 0.747935
O O2 0.500000 0.000000 0.677954
O O3 0.251651 0.000000 0.500000
O O4 0.261897 0.908629 0.767270
O O5 0.878859 0.563758 0.597752
O O6 0.779512 0.724260 0.714861
O O7 0.859381 0.577890 0.884229
O O8 0.579902 0.603620 0.736717
O O9 0.671449 0.727946 0.228704
O O10 0.972815 0.802528 0.197393
O O11 0.772651 0.806185 0.981834
O O12 0.306570 0.560202 0.878380
O O13 0.500000 0.667211 0.000000
#
# Coordination Sequence:
#
# PCOD9310079 Si02
#       7
#     4   4   1   4   4   2   4
#     4  11  26  45  67  96 139 188 230 276 351 436
#     4  11  24  45  69  98 145 182 241 289 367 423
#     4  12  32  42  62 108 154 206 226 300 376 456
#     4  11  23  40  73 109 131 171 235 291 365 404
#     4  11  24  43  69 104 138 174 227 304 343 421
#     4  10  21  43  78 101 128 179 248 307 350 413
#     4  10  19  41  73 104 130 179 238 307 350 414
#
# _framework density 21.762953
#
# number of rings (size 3 to 8) (size 9 to 14) (size 15 to 20)
#    0.000    1.217    3.478    4.435    2.435    5.217 
#    0.000    1.739    3.826    0.000    0.000    0.000 
#    0.000    0.000    0.000    0.000    0.000    0.000 
#
# Total GULP energy -128370.939928 kJ/mol
# GULP energy per Si atom -5581.345214 kJ/mol
# Density = 2.171342 g / cm^3
# Si number density = 21.762953 Si / 1000 Ang^3
#
#
#
# Elastic Constant Matrix: (Units=GPa)
#
#
# Indices 1 2 3 4 5 6 
#
# 1 85.3082 51.7632 55.1351 0.0000 0.0000 0.0000
# 2 51.7632 182.2659 43.0608 0.0000 0.0000 0.0000
# 3 55.1351 43.0608 57.3830 0.0000 0.0000 0.0000
# 4 0.0000 0.0000 0.0000 -8.0144 0.0000 0.0000
# 5 0.0000 0.0000 0.0000 0.0000 10.6372 0.0000
# 6 0.0000 0.0000 0.0000 0.0000 0.0000 29.1609
#
#
#
# Elastic Compliance Matrix: (Units=1/GPa)
#
#
# Indices 1 2 3 4 5 6 
#
# 1 0.031632 -0.002192 -0.028749 0.000000 0.000000 0.000000
# 2 -0.002192 0.006821 -0.003013 0.000000 0.000000 0.000000
# 3 -0.028749 -0.003013 0.047310 0.000000 0.000000 0.000000
# 4 0.000000 0.000000 0.000000 -0.124776 0.000000 0.000000
# 5 0.000000 0.000000 0.000000 0.000000 0.094009 0.000000
# 6 0.000000 0.000000 0.000000 0.000000 0.000000 0.034292
#
#
# Mechanical properties :
#
#
# Convention : Reuss Voigt Hill
#
# Bulk Modulus (GPa) = 55.99937 69.43060 62.71498
# Shear Modulus (GPa) = 30.64718 18.02328 24.33523
#
# Velocity S-wave (km/s) = 3.75671 2.88090 3.34757
# Velocity P-wave (km/s) = 6.67866 6.56038 6.61978
#
# Compressibility (1/GPa) = 0.01785735
#
# Stress axis : x y z
#
# Youngs Moduli (GPa) = 31.61309 146.61429 21.13720
#
# Poissons Ratio (x) = 0.32132 0.60767
# Poissons Ratio (y) = 0.06928 0.06368
# Poissons Ratio (z) = 0.90884 0.44168
#
# Static dielectric constant tensor:
#      x y z
#    x 2.738170 0.000000 0.000000 
#    y 0.000000 1.795640 0.000000 
#    z 0.000000 0.000000 1.796890 
# 
# From -- ./inp_files/4086.got.cif
#   From: 2010.05.17/outbox.cif.g08.bks.cpg/sg16_3_cif.got.tgz:4086.got - 2010.06.03 22:28:35.
