data_PCOD9310805
_publ_section_title
;
Structure prediction by ZEFSAII (Michael W. Deem and Ramdas Pophale) SiO2 
 PCOD9310805
Probable space group: P 2 2 21
;
_chemical_formula_sum "Si O2"
_cell_formula_units_Z 16
_cell_length_a 7.261825
_cell_length_b 12.404840
_cell_length_c 8.089320
_cell_angle_alpha 90.000000
_cell_angle_beta 90.000000
_cell_angle_gamma 90.000000
_cell_volume 728.700322
_symmetry_space_group_name_H-M "P 2 2 21"
_symmetry_group_IT_number 17
_symmetry_cell_setting 'orthorhombic'
loop_
_space_group_symop_operation_xyz
x,y,z
-x,-y,1/2+z
x,-y,-z
-x,y,1/2-z
loop_
_atom_site_type_symbol
_atom_site_label
_atom_site_fract_x
_atom_site_fract_y
_atom_site_fract_z
Si Si1 0.608710 0.258823 0.480274
Si Si2 0.905763 0.891393 0.423849
Si Si3 0.284910 0.500000 0.000000
Si Si4 0.213639 0.234404 0.384292
Si Si5 0.000000 0.570775 0.750000
O O1 0.749875 0.199325 0.599966
O O2 0.608264 0.388103 0.494125
O O3 0.397558 0.225387 0.491959
O O4 0.701448 0.228612 0.301672
O O5 0.000000 0.913873 0.250000
O O6 0.063259 0.849258 0.550673
O O7 0.822055 0.000000 0.500000
O O8 0.152003 0.498113 0.158216
O O9 0.104480 0.348661 0.377703
#
# Coordination Sequence:
#
# PCOD9310805 Si02
#       5
#     4   4   2   4   2
#     4  10  22  40  66  97 127 169 211 262 320 378
#     4  12  25  43  67  92 127 168 215 267 320 381
#     4  10  20  36  62  96 130 168 208 254 318 376
#     4  10  20  43  65  91 128 168 212 260 318 372
#     4  10  20  38  66  88 134 176 204 260 314 374
#
# _framework density 21.956900000000001
#
# number of rings (size 3 to 8) (size 9 to 14) (size 15 to 20)
#    0.000    1.500    5.000    1.500    1.750    3.000 
#    0.000    5.000    0.000    0.000    0.000    0.000 
#    0.000    0.000    0.000    0.000    0.000    0.000 
#
# Total GULP energy -89327.083748 kJ/mol
# GULP energy per Si atom -5582.942734 kJ/mol
# Density = 2.190693 g / cm^3
# Si number density = 21.956900 Si / 1000 Ang^3
#
#
#
# Elastic Constant Matrix: (Units=GPa)
#
#
# Indices 1 2 3 4 5 6 
#
# 1 117.4594 25.1198 -9.1749 0.0000 0.0000 0.0000
# 2 25.1198 78.5112 12.9197 0.0000 0.0000 0.0000
# 3 -9.1749 12.9197 46.9490 0.0000 0.0000 0.0000
# 4 0.0000 0.0000 0.0000 27.8123 0.0000 0.0000
# 5 0.0000 0.0000 0.0000 0.0000 7.0126 0.0000
# 6 0.0000 0.0000 0.0000 0.0000 0.0000 0.1226
#
#
#
# Elastic Compliance Matrix: (Units=1/GPa)
#
#
# Indices 1 2 3 4 5 6 
#
# 1 0.009481 -0.003497 0.002815 0.000000 0.000000 0.000000
# 2 -0.003497 0.014631 -0.004710 0.000000 0.000000 0.000000
# 3 0.002815 -0.004710 0.023146 0.000000 0.000000 0.000000
# 4 0.000000 0.000000 0.000000 0.035955 0.000000 0.000000
# 5 0.000000 0.000000 0.000000 0.000000 0.142601 0.000000
# 6 0.000000 0.000000 0.000000 0.000000 0.000000 8.158520
#
#
# Mechanical properties :
#
#
# Convention : Reuss Voigt Hill
#
# Bulk Modulus (GPa) = 27.41564 33.40543 30.41053
# Shear Modulus (GPa) = 0.59472 21.25983 10.92728
#
# Velocity S-wave (km/s) = 0.52101 3.11505 2.23327
# Velocity P-wave (km/s) = 3.58820 5.30897 4.53102
#
# Compressibility (1/GPa) = 0.03647553
#
# Stress axis : x y z
#
# Youngs Moduli (GPa) = 105.47071 68.34876 43.20426
#
# Poissons Ratio (x) = 0.23900 -0.12163
# Poissons Ratio (y) = 0.36881 0.20347
# Poissons Ratio (z) = -0.29692 0.32189
#
# Static dielectric constant tensor:
#      x y z
#    x 1.769510 0.000000 0.000000 
#    y 0.000000 1.770300 0.000000 
#    z 0.000000 0.000000 1.780740 
# 
# From -- ./inp_files/3938.got.cif
#   From: 2010.05.17/outbox.cif.g08.bks.cpg/sg17_2_cif.got.tgz:3938.got - 2010.06.03 22:34:06.
