data_PCOD9310505
_publ_section_title
;
Structure prediction by ZEFSAII (Michael W. Deem and Ramdas Pophale) SiO2 
 PCOD9310505
Probable space group: P 2 2 21
;
_chemical_formula_sum "Si O2"
_cell_formula_units_Z 28
_cell_length_a 12.338544
_cell_length_b 5.096024
_cell_length_c 26.170493
_cell_angle_alpha 90.000000
_cell_angle_beta 90.000000
_cell_angle_gamma 90.000000
_cell_volume 1645.535601
_symmetry_space_group_name_H-M "P 2 2 21"
_symmetry_group_IT_number 17
_symmetry_cell_setting 'orthorhombic'
loop_
_space_group_symop_operation_xyz
x,y,z
-x,-y,1/2+z
x,-y,-z
-x,y,1/2-z
loop_
_atom_site_type_symbol
_atom_site_label
_atom_site_fract_x
_atom_site_fract_y
_atom_site_fract_z
Si Si1 0.872861 0.365877 0.745201
Si Si2 0.704947 0.259467 0.534005
Si Si3 0.745782 0.702396 0.352572
Si Si4 0.593781 0.884432 0.876853
Si Si5 0.549401 0.621049 0.054800
Si Si6 0.621833 0.797392 0.683139
Si Si7 0.255173 0.857383 0.716528
O O1 0.841362 0.380869 0.685305
O O2 0.831441 0.629079 0.772683
O O3 0.000000 0.322866 0.750000
O O4 0.801362 0.130219 0.768559
O O5 0.741092 0.500000 0.500000
O O6 0.766185 0.278491 0.587565
O O7 0.577228 0.302519 0.547066
O O8 0.715256 0.000000 0.500000
O O9 0.651740 0.488417 0.339520
O O10 0.708211 0.993007 0.337627
O O11 0.569508 0.616681 0.906605
O O12 0.491133 0.906322 0.838237
O O13 0.697649 0.867002 0.840315
O O14 0.598746 0.119969 0.918181
O O15 0.586255 0.500000 0.000000
O O16 0.645588 0.796889 0.743715
#
# Coordination Sequence:
#
# PCOD9310505 Si02
#       7
#     4   4   4   4   4   4   4
#     4  10  21  39  57  77 106 133 176 229 277 327
#     4  11  19  30  47  71 105 139 178 207 246 307
#     4  10  19  32  50  76 103 142 173 210 266 316
#     4  12  19  34  51  74 111 144 176 212 254 308
#     4  11  22  32  48  73 107 152 184 211 248 303
#     4  10  18  32  47  75 111 139 170 203 256 307
#     4  10  22  33  55  81 102 136 179 211 263 333
#
# _framework density 17.015737000000001
#
# number of rings (size 3 to 8) (size 9 to 14) (size 15 to 20)
#    0.000    1.429    2.857    4.714    0.000    0.000 
#    0.000    5.714    0.000    0.000    0.000   10.000 
#    0.000    0.000    0.000    0.000    0.000    0.000 
#
# Total GULP energy -156093.018771 kJ/mol
# GULP energy per Si atom -5574.750670 kJ/mol
# Density = 1.697701 g / cm^3
# Si number density = 17.015737 Si / 1000 Ang^3
#
#
#
# Elastic Constant Matrix: (Units=GPa)
#
#
# Indices 1 2 3 4 5 6 
#
# 1 40.1430 -0.7121 40.6403 0.0000 0.0000 0.0000
# 2 -0.7121 103.7241 35.0799 0.0000 0.0000 0.0000
# 3 40.6403 35.0799 113.6729 0.0000 0.0000 0.0000
# 4 0.0000 0.0000 0.0000 21.1755 0.0000 0.0000
# 5 0.0000 0.0000 0.0000 0.0000 12.0833 0.0000
# 6 0.0000 0.0000 0.0000 0.0000 0.0000 13.3838
#
#
#
# Elastic Compliance Matrix: (Units=1/GPa)
#
#
# Indices 1 2 3 4 5 6 
#
# 1 0.042154 0.006014 -0.016927 0.000000 0.000000 0.000000
# 2 0.006014 0.011623 -0.005737 0.000000 0.000000 0.000000
# 3 -0.016927 -0.005737 0.016619 0.000000 0.000000 0.000000
# 4 0.000000 0.000000 0.000000 0.047224 0.000000 0.000000
# 5 0.000000 0.000000 0.000000 0.000000 0.082759 0.000000
# 6 0.000000 0.000000 0.000000 0.000000 0.000000 0.074717
#
#
# Mechanical properties :
#
#
# Convention : Reuss Voigt Hill
#
# Bulk Modulus (GPa) = 26.95659 45.28404 36.12031
# Shear Modulus (GPa) = 15.58791 21.49731 18.54261
#
# Velocity S-wave (km/s) = 3.02998 3.55826 3.30469
# Velocity P-wave (km/s) = 5.30260 6.59943 5.98623
#
# Compressibility (1/GPa) = 0.03709668
#
# Stress axis : x y z
#
# Youngs Moduli (GPa) = 23.72232 86.03997 60.17080
#
# Poissons Ratio (x) = -0.51746 1.01851
# Poissons Ratio (y) = -0.14267 0.34520
# Poissons Ratio (z) = 0.40155 0.49361
#
# Static dielectric constant tensor:
#      x y z
#    x 1.549830 0.000000 0.000000 
#    y 0.000000 1.575450 0.000000 
#    z 0.000000 0.000000 1.599590 
# 
# From -- ./inp_files/10655.got.cif
#   From: 2010.05.17/outbox.cif.g08.bks.cpg/sg17_6_cif.got.tgz:10655.got - 2010.06.03 22:34:06.
