data_PCOD9310106
_publ_section_title
;
Structure prediction by ZEFSAII (Michael W. Deem and Ramdas Pophale) SiO2 
 PCOD9310106
Probable space group: P 2 2 2
;
_chemical_formula_sum "Si O2"
_cell_formula_units_Z 32
_cell_length_a 12.300290
_cell_length_b 7.577162
_cell_length_c 15.402515
_cell_angle_alpha 90.000000
_cell_angle_beta 90.000000
_cell_angle_gamma 90.000000
_cell_volume 1435.534267
_symmetry_space_group_name_H-M "P 2 2 2"
_symmetry_group_IT_number 16
_symmetry_cell_setting 'orthorhombic'
loop_
_space_group_symop_operation_xyz
x,y,z
-x,-y,z
x,-y,-z
-x,y,-z
loop_
_atom_site_type_symbol
_atom_site_label
_atom_site_fract_x
_atom_site_fract_y
_atom_site_fract_z
Si Si1 0.366364 0.782255 0.180558
Si Si2 0.756912 0.789336 0.325449
Si Si3 0.707019 0.301484 0.993740
Si Si4 0.051780 0.695882 0.915243
Si Si5 0.605169 0.193709 0.827430
Si Si6 0.008296 0.208337 0.283718
Si Si7 0.625939 0.215010 0.504334
Si Si8 0.227946 0.778159 0.339639
O O1 0.489178 0.712568 0.180515
O O2 0.295537 0.708334 0.257939
O O3 0.389787 0.988413 0.197678
O O4 0.299156 0.768067 0.091333
O O5 0.697487 0.732329 0.236425
O O6 0.681975 0.734102 0.405360
O O7 0.880369 0.722039 0.325534
O O8 0.768130 0.005161 0.332604
O O9 0.822595 0.310096 0.944202
O O10 0.632065 0.195366 0.928772
O O11 0.664989 0.500000 0.000000
O O12 0.000000 0.500000 0.911349
O O13 0.024442 0.772242 0.820732
O O14 0.000000 0.788230 0.000000
O O15 0.896352 0.280278 0.323915
O O16 0.000000 0.000000 0.300344
O O17 0.500000 0.274342 0.500000
O O18 0.706186 0.270424 0.426234
O O19 0.622370 0.000000 0.500000
#
# Coordination Sequence:
#
# PCOD9310106 Si02
#       8
#     4   4   4   4   4   4   4   4
#     4  10  21  36  56  80 113 148 185 229 275 331
#     4   9  17  31  51  78 113 146 180 222 270 326
#     4  12  23  37  55  78 106 142 189 231 278 328
#     4  11  22  39  54  74 104 145 186 228 275 329
#     4  10  20  37  56  80 112 149 185 227 278 330
#     4  10  20  35  54  81 109 139 182 230 278 324
#     4   9  16  28  49  79 114 149 178 212 269 333
#     4   9  18  30  50  80 111 145 182 220 269 327
#
# _framework density 22.291350999999999
#
# number of rings (size 3 to 8) (size 9 to 14) (size 15 to 20)
#    0.000    2.000    2.500    2.250    0.000    5.750 
#    2.250    2.500    0.000    0.000    0.000    4.375 
#    0.000    6.000    0.000    0.000    0.000    0.000 
#
# Total GULP energy -178476.890744 kJ/mol
# GULP energy per Si atom -5577.402836 kJ/mol
# Density = 2.224061 g / cm^3
# Si number density = 22.291351 Si / 1000 Ang^3
#
#
#
# Elastic Constant Matrix: (Units=GPa)
#
#
# Indices 1 2 3 4 5 6 
#
# 1 150.3365 2.2807 60.2084 0.0000 0.0000 0.0000
# 2 2.2807 42.0031 -15.8828 0.0000 0.0000 0.0000
# 3 60.2084 -15.8828 131.8302 0.0000 0.0000 0.0000
# 4 0.0000 0.0000 0.0000 -28.7459 0.0000 0.0000
# 5 0.0000 0.0000 0.0000 0.0000 55.6863 0.0000
# 6 0.0000 0.0000 0.0000 0.0000 0.0000 -5.9340
#
#
#
# Elastic Compliance Matrix: (Units=1/GPa)
#
#
# Indices 1 2 3 4 5 6 
#
# 1 0.008294 -0.001973 -0.004026 0.000000 0.000000 0.000000
# 2 -0.001973 0.025413 0.003963 0.000000 0.000000 0.000000
# 3 -0.004026 0.003963 0.009901 0.000000 0.000000 0.000000
# 4 0.000000 0.000000 0.000000 -0.034788 0.000000 0.000000
# 5 0.000000 0.000000 0.000000 0.000000 0.017958 0.000000
# 6 0.000000 0.000000 0.000000 0.000000 0.000000 -0.168521
#
#
# Mechanical properties :
#
#
# Convention : Reuss Voigt Hill
#
# Bulk Modulus (GPa) = 25.29232 46.37582 35.83407
# Shear Modulus (GPa) = -40.16322 22.70551 -8.72885
#
# Velocity S-wave (km/s) = -4.24930 3.19498 -1.98099
# Velocity P-wave (km/s) = 3.56433 5.87027 3.29815
#
# Compressibility (1/GPa) = 0.03953769
#
# Stress axis : x y z
#
# Youngs Moduli (GPa) = 120.57097 39.34952 100.99528
#
# Poissons Ratio (x) = 0.07762 0.40656
# Poissons Ratio (y) = 0.23783 -0.40021
# Poissons Ratio (z) = 0.48537 -0.15593
#
# Static dielectric constant tensor:
#      x y z
#    x 1.875090 0.000000 0.000000 
#    y 0.000000 1.933090 0.000000 
#    z 0.000000 0.000000 1.799950 
# 
# From -- ./inp_files/4876.got.cif
#   From: 2010.05.17/outbox.cif.g08.bks.cpg/sg16_3_cif.got.tgz:4876.got - 2010.06.03 22:28:35.
