data_PCOD9310836
_publ_section_title
;
Structure prediction by ZEFSAII (Michael W. Deem and Ramdas Pophale) SiO2 
 PCOD9310836
Probable space group: P 2 2 21
;
_chemical_formula_sum "Si O2"
_cell_formula_units_Z 32
_cell_length_a 14.590462
_cell_length_b 10.485067
_cell_length_c 9.491994
_cell_angle_alpha 90.000000
_cell_angle_beta 90.000000
_cell_angle_gamma 90.000000
_cell_volume 1452.103957
_symmetry_space_group_name_H-M "P 2 2 21"
_symmetry_group_IT_number 17
_symmetry_cell_setting 'orthorhombic'
loop_
_space_group_symop_operation_xyz
x,y,z
-x,-y,1/2+z
x,-y,-z
-x,y,1/2-z
loop_
_atom_site_type_symbol
_atom_site_label
_atom_site_fract_x
_atom_site_fract_y
_atom_site_fract_z
Si Si1 0.721981 0.774761 0.262643
Si Si2 0.072581 0.616879 0.884728
Si Si3 0.366786 0.152328 0.031959
Si Si4 0.803616 0.360024 0.966359
Si Si5 0.017121 0.208290 0.594978
Si Si6 0.850181 0.993863 0.156035
Si Si7 0.235576 0.250661 0.255872
Si Si8 0.550755 0.894062 0.107504
O O1 0.694502 0.768808 0.422524
O O2 0.760641 0.651232 0.187186
O O3 0.796960 0.886574 0.244454
O O4 0.632744 0.814716 0.173231
O O5 0.173548 0.641775 0.820274
O O6 0.000000 0.606161 0.750000
O O7 0.065945 0.500000 0.000000
O O8 0.054809 0.744335 0.980842
O O9 0.471677 0.175007 0.984676
O O10 0.325824 0.195002 0.180151
O O11 0.353440 0.000000 0.000000
O O12 0.891240 0.270563 0.965960
O O13 0.833563 0.500000 0.000000
O O14 0.740479 0.305709 0.090349
O O15 0.048703 0.063318 0.626243
O O16 0.000000 0.264990 0.750000
O O17 0.832800 0.129069 0.226016
O O18 0.806818 0.000000 0.000000
O O19 0.500000 0.947675 0.250000
O O20 0.586249 0.000000 0.000000
#
# Coordination Sequence:
#
# PCOD9310836 Si02
#       8
#     4   4   4   4   4   4   4   4
#     4  10  20  37  65  88 129 168 198 259 312 374
#     4  12  26  45  65  91 122 166 224 272 315 373
#     4  10  21  37  59  99 134 160 201 251 316 390
#     4  11  25  44  64  87 120 167 226 256 309 376
#     4  11  25  40  65  87 120 165 206 268 320 377
#     4  11  20  39  61  92 128 165 203 248 331 383
#     4  12  25  40  64  94 129 165 208 270 314 384
#     4   9  19  33  59  95 130 166 203 248 309 387
#
# _framework density 22.036988999999998
#
# number of rings (size 3 to 8) (size 9 to 14) (size 15 to 20)
#    0.000    1.250    5.000    1.125    5.250    1.500 
#    0.000    0.000    0.000    5.250    0.000    0.000 
#    0.000    0.000    0.000    0.000    0.000    0.000 
#
# Total GULP energy -178428.820501 kJ/mol
# GULP energy per Si atom -5575.900641 kJ/mol
# Density = 2.198683 g / cm^3
# Si number density = 22.036989 Si / 1000 Ang^3
#
#
#
# Elastic Constant Matrix: (Units=GPa)
#
#
# Indices 1 2 3 4 5 6 
#
# 1 26.4567 8.9379 10.7301 0.0000 0.0000 0.0000
# 2 8.9379 42.5470 12.8046 0.0000 0.0000 0.0000
# 3 10.7301 12.8046 84.0210 0.0000 0.0000 0.0000
# 4 0.0000 0.0000 0.0000 26.8359 0.0000 0.0000
# 5 0.0000 0.0000 0.0000 0.0000 41.3201 0.0000
# 6 0.0000 0.0000 0.0000 0.0000 0.0000 5.8170
#
#
#
# Elastic Compliance Matrix: (Units=1/GPa)
#
#
# Indices 1 2 3 4 5 6 
#
# 1 0.042065 -0.007567 -0.004219 0.000000 0.000000 0.000000
# 2 -0.007567 0.025994 -0.002995 0.000000 0.000000 0.000000
# 3 -0.004219 -0.002995 0.012897 0.000000 0.000000 0.000000
# 4 0.000000 0.000000 0.000000 0.037263 0.000000 0.000000
# 5 0.000000 0.000000 0.000000 0.000000 0.024201 0.000000
# 6 0.000000 0.000000 0.000000 0.000000 0.000000 0.171911
#
#
# Mechanical properties :
#
#
# Convention : Reuss Voigt Hill
#
# Bulk Modulus (GPa) = 19.45731 24.21888 21.83810
# Shear Modulus (GPa) = 13.84944 22.83140 18.34042
#
# Velocity S-wave (km/s) = 2.50964 3.22226 2.88801
# Velocity P-wave (km/s) = 4.15286 4.98577 4.58826
#
# Compressibility (1/GPa) = 0.05139456
#
# Stress axis : x y z
#
# Youngs Moduli (GPa) = 23.77274 38.46978 77.53732
#
# Poissons Ratio (x) = 0.29110 0.32712
# Poissons Ratio (y) = 0.17989 0.23224
# Poissons Ratio (z) = 0.10029 0.11522
#
# Static dielectric constant tensor:
#      x y z
#    x 1.830520 0.000000 0.000000 
#    y 0.000000 1.878420 0.000000 
#    z 0.000000 0.000000 1.890990 
# 
# From -- ./inp_files/5283.got.cif
#   From: 2010.05.17/outbox.cif.g08.bks.cpg/sg17_3_cif.got.tgz:5283.got - 2010.06.03 22:34:06.
