data_PCOD9310818
_publ_section_title
;
Structure prediction by ZEFSAII (Michael W. Deem and Ramdas Pophale) SiO2 
 PCOD9310818
Probable space group: P 2 2 21
;
_chemical_formula_sum "Si O2"
_cell_formula_units_Z 30
_cell_length_a 5.107582
_cell_length_b 12.632033
_cell_length_c 22.154936
_cell_angle_alpha 90.000000
_cell_angle_beta 90.000000
_cell_angle_gamma 90.000000
_cell_volume 1429.417514
_symmetry_space_group_name_H-M "P 2 2 21"
_symmetry_group_IT_number 17
_symmetry_cell_setting 'orthorhombic'
loop_
_space_group_symop_operation_xyz
x,y,z
-x,-y,1/2+z
x,-y,-z
-x,y,1/2-z
loop_
_atom_site_type_symbol
_atom_site_label
_atom_site_fract_x
_atom_site_fract_y
_atom_site_fract_z
Si Si1 0.533685 0.572204 0.375941
Si Si2 0.057895 0.304874 0.595789
Si Si3 0.910474 0.056091 0.377092
Si Si4 0.901767 0.847307 0.310961
Si Si5 0.411217 0.158261 0.318241
Si Si6 0.397184 0.333181 0.407802
Si Si7 0.096645 0.768943 0.968405
Si Si8 0.500000 0.679616 0.250000
O O1 0.831393 0.610611 0.386740
O O2 0.484579 0.452168 0.395104
O O3 0.447986 0.600387 0.306850
O O4 0.333184 0.640355 0.416595
O O5 0.101065 0.226750 0.652479
O O6 0.947914 0.239883 0.539423
O O7 0.661190 0.118432 0.353981
O O8 0.164480 0.087466 0.337668
O O9 0.954543 0.112214 0.442182
O O10 0.835043 0.935697 0.360584
O O11 0.698690 0.762455 0.282904
O O12 0.000000 0.903052 0.250000
O O13 0.500000 0.153439 0.250000
O O14 0.363504 0.275490 0.343112
O O15 0.120603 0.309991 0.439695
O O16 0.621552 0.274802 0.447377
#
# Coordination Sequence:
#
# PCOD9310818 Si02
#       8
#     4   4   4   4   4   4   4   2
#     4  11  23  40  61  93 115 169 195 250 303 355
#     4  11  24  39  63  86 125 157 206 246 301 348
#     4  10  23  36  62  85 121 154 200 244 304 351
#     4  11  22  40  62  89 119 159 198 247 301 359
#     4  10  20  37  55  90 117 156 197 251 294 360
#     4  10  22  38  63  85 124 158 203 245 307 348
#     4  10  22  43  57  92 122 155 202 256 286 371
#     4  10  24  40  60  90 132 148 208 250 296 370
#
# _framework density 20.987568
#
# number of rings (size 3 to 8) (size 9 to 14) (size 15 to 20)
#    0.000    1.600    1.333    2.800    3.733    3.733 
#    0.000    0.000    0.000    6.400    0.000    0.000 
#    0.000    0.000    0.000    0.000    0.000    0.000 
#
# Total GULP energy -167109.252437 kJ/mol
# GULP energy per Si atom -5570.308415 kJ/mol
# Density = 2.093980 g / cm^3
# Si number density = 20.987568 Si / 1000 Ang^3
#
#
#
# Elastic Constant Matrix: (Units=GPa)
#
#
# Indices 1 2 3 4 5 6 
#
# 1 70.3190 -13.3188 7.1398 0.0000 0.0000 0.0000
# 2 -13.3188 86.6336 27.2290 0.0000 0.0000 0.0000
# 3 7.1398 27.2290 58.4852 0.0000 0.0000 0.0000
# 4 0.0000 0.0000 0.0000 14.8876 0.0000 0.0000
# 5 0.0000 0.0000 0.0000 0.0000 24.9133 0.0000
# 6 0.0000 0.0000 0.0000 0.0000 0.0000 15.7401
#
#
#
# Elastic Compliance Matrix: (Units=1/GPa)
#
#
# Indices 1 2 3 4 5 6 
#
# 1 0.015220 0.003425 -0.003453 0.000000 0.000000 0.000000
# 2 0.003425 0.014292 -0.007072 0.000000 0.000000 0.000000
# 3 -0.003453 -0.007072 0.020812 0.000000 0.000000 0.000000
# 4 0.000000 0.000000 0.000000 0.067170 0.000000 0.000000
# 5 0.000000 0.000000 0.000000 0.000000 0.040139 0.000000
# 6 0.000000 0.000000 0.000000 0.000000 0.000000 0.063532
#
#
# Mechanical properties :
#
#
# Convention : Reuss Voigt Hill
#
# Bulk Modulus (GPa) = 27.68139 28.61529 28.14834
# Shear Modulus (GPa) = 20.20959 24.06739 22.13849
#
# Velocity S-wave (km/s) = 3.10648 3.39004 3.25135
# Velocity P-wave (km/s) = 5.10735 5.38397 5.24748
#
# Compressibility (1/GPa) = 0.03612536
#
# Stress axis : x y z
#
# Youngs Moduli (GPa) = 65.70217 69.96818 48.04824
#
# Poissons Ratio (x) = -0.23965 0.16589
# Poissons Ratio (y) = -0.22504 0.33980
# Poissons Ratio (z) = 0.22685 0.49483
#
# Static dielectric constant tensor:
#      x y z
#    x 1.749730 0.000000 0.000000 
#    y 0.000000 1.785140 0.000000 
#    z 0.000000 0.000000 1.788980 
# 
# From -- ./inp_files/9950.got.cif
#   From: 2010.05.17/outbox.cif.g08.bks.cpg/sg17_5_cif.got.tgz:9950.got - 2010.06.03 22:34:06.
