data_PCOD9310099
_publ_section_title
;
Structure prediction by ZEFSAII (Michael W. Deem and Ramdas Pophale) SiO2 
 PCOD9310099
Probable space group: P 2 2 2
;
_chemical_formula_sum "Si O2"
_cell_formula_units_Z 30
_cell_length_a 5.147651
_cell_length_b 13.193574
_cell_length_c 21.413472
_cell_angle_alpha 90.000000
_cell_angle_beta 90.000000
_cell_angle_gamma 90.000000
_cell_volume 1454.315531
_symmetry_space_group_name_H-M "P 2 2 2"
_symmetry_group_IT_number 16
_symmetry_cell_setting 'orthorhombic'
loop_
_space_group_symop_operation_xyz
x,y,z
-x,-y,z
x,-y,-z
-x,y,-z
loop_
_atom_site_type_symbol
_atom_site_label
_atom_site_fract_x
_atom_site_fract_y
_atom_site_fract_z
Si Si1 0.000000 0.000000 0.221508
Si Si2 0.917886 0.829424 0.695948
Si Si3 0.530002 0.387358 0.425099
Si Si4 0.748165 0.568684 0.160097
Si Si5 0.372843 0.108783 0.131118
Si Si6 0.557494 0.749125 0.240957
Si Si7 0.253542 0.285145 0.041925
Si Si8 0.027537 0.257302 0.426605
O O1 0.168297 0.933331 0.269773
O O2 0.870334 0.922200 0.173781
O O3 0.699595 0.749049 0.717087
O O4 0.202044 0.800768 0.722748
O O5 0.951042 0.830595 0.621709
O O6 0.500000 0.500000 0.397781
O O7 0.500000 0.396287 0.500000
O O8 0.306098 0.305940 0.409381
O O9 0.815751 0.344829 0.414585
O O10 0.500000 0.500000 0.145759
O O11 0.664261 0.642228 0.216619
O O12 0.794523 0.640464 0.100201
O O13 0.000000 0.500000 0.172602
O O14 0.518658 0.185853 0.178476
O O15 0.308000 0.174121 0.070903
O O16 0.500000 0.000000 0.117747
O O17 0.500000 0.316145 0.000000
O O18 0.000000 0.282918 0.000000
O O19 0.000000 0.230546 0.500000
#
# Coordination Sequence:
#
# PCOD9310099 Si02
#       8
#     2   4   4   4   4   4   4   4
#     4  10  22  38  66  86 112 158 214 242 312 380
#     4  11  21  38  60  87 118 153 199 259 304 369
#     4   9  17  32  53  75 105 149 193 227 275 357
#     4  11  23  42  68  89 122 171 211 252 305 362
#     4  10  21  40  64  88 120 158 199 251 315 368
#     4  10  22  39  62  89 119 150 208 259 305 354
#     4  11  26  42  61  95 132 162 203 255 304 371
#     4  10  20  34  54  83 119 156 191 239 307 364
#
# _framework density 20.628260999999998
#
# number of rings (size 3 to 8) (size 9 to 14) (size 15 to 20)
#    0.000    1.733    1.333    2.800    1.867    5.600 
#    0.000    7.000    0.000    0.000    0.000    4.667 
#    0.000    0.000    0.000    0.000    0.000    0.000 
#
# Total GULP energy -167307.524282 kJ/mol
# GULP energy per Si atom -5576.917476 kJ/mol
# Density = 2.058131 g / cm^3
# Si number density = 20.628261 Si / 1000 Ang^3
#
#
#
# Elastic Constant Matrix: (Units=GPa)
#
#
# Indices 1 2 3 4 5 6 
#
# 1 89.6249 6.5325 19.2788 0.0000 0.0000 0.0000
# 2 6.5325 48.3042 4.3020 0.0000 0.0000 0.0000
# 3 19.2788 4.3020 66.7948 0.0000 0.0000 0.0000
# 4 0.0000 0.0000 0.0000 -16.6530 0.0000 0.0000
# 5 0.0000 0.0000 0.0000 0.0000 36.2376 0.0000
# 6 0.0000 0.0000 0.0000 0.0000 0.0000 50.3897
#
#
#
# Elastic Compliance Matrix: (Units=1/GPa)
#
#
# Indices 1 2 3 4 5 6 
#
# 1 0.011979 -0.001320 -0.003373 0.000000 0.000000 0.000000
# 2 -0.001320 0.020967 -0.000970 0.000000 0.000000 0.000000
# 3 -0.003373 -0.000970 0.016007 0.000000 0.000000 0.000000
# 4 0.000000 0.000000 0.000000 -0.060049 0.000000 0.000000
# 5 0.000000 0.000000 0.000000 0.000000 0.027596 0.000000
# 6 0.000000 0.000000 0.000000 0.000000 0.000000 0.019845
#
#
# Mechanical properties :
#
#
# Convention : Reuss Voigt Hill
#
# Bulk Modulus (GPa) = 26.57469 29.43896 28.00682
# Shear Modulus (GPa) = 83.04052 25.63558 54.33805
#
# Velocity S-wave (km/s) = 6.35162 3.52908 5.13797
# Velocity P-wave (km/s) = 8.16709 5.55950 6.98604
#
# Compressibility (1/GPa) = 0.03762980
#
# Stress axis : x y z
#
# Youngs Moduli (GPa) = 83.47769 47.69417 62.47238
#
# Poissons Ratio (x) = 0.06294 0.21069
# Poissons Ratio (y) = 0.11016 0.06057
# Poissons Ratio (z) = 0.28153 0.04624
#
# Static dielectric constant tensor:
#      x y z
#    x 1.767500 0.000000 0.000000 
#    y 0.000000 1.652020 0.000000 
#    z 0.000000 0.000000 1.736860 
# 
# From -- ./inp_files/9245.got.cif
#   From: 2010.05.17/outbox.cif.g08.bks.cpg/sg16_5_cif.got.tgz:9245.got - 2010.06.03 22:28:35.
