data_PCOD9310596
_publ_section_title
;
Structure prediction by ZEFSAII (Michael W. Deem and Ramdas Pophale) SiO2 
 PCOD9310596
Probable space group: P 2 2 21
;
_chemical_formula_sum "Si O2"
_cell_formula_units_Z 32
_cell_length_a 16.282001
_cell_length_b 11.074207
_cell_length_c 8.439663
_cell_angle_alpha 90.000000
_cell_angle_beta 90.000000
_cell_angle_gamma 90.000000
_cell_volume 1521.757741
_symmetry_space_group_name_H-M "P 2 2 21"
_symmetry_group_IT_number 17
_symmetry_cell_setting 'orthorhombic'
loop_
_space_group_symop_operation_xyz
x,y,z
-x,-y,1/2+z
x,-y,-z
-x,y,1/2-z
loop_
_atom_site_type_symbol
_atom_site_label
_atom_site_fract_x
_atom_site_fract_y
_atom_site_fract_z
Si Si1 0.866620 0.213290 0.197184
Si Si2 0.942038 0.844202 0.119303
Si Si3 0.450438 0.127881 0.090614
Si Si4 0.726757 0.359695 0.006677
Si Si5 0.535285 0.633627 0.927136
Si Si6 0.733157 0.873858 0.584937
Si Si7 0.940202 0.634698 0.504862
Si Si8 0.799092 0.279119 0.694370
O O1 0.799234 0.295241 0.105266
O O2 0.809098 0.125104 0.297009
O O3 0.914378 0.299627 0.326874
O O4 0.915324 0.133414 0.064955
O O5 0.859790 0.813782 0.215710
O O6 0.000000 0.911607 0.250000
O O7 0.995576 0.724144 0.078047
O O8 0.500000 0.110289 0.250000
O O9 0.488672 0.246785 0.004330
O O10 0.357262 0.153380 0.145078
O O11 0.453624 0.000000 0.000000
O O12 0.633604 0.343836 0.066137
O O13 0.746043 0.500000 0.000000
O O14 0.735324 0.319235 0.825295
O O15 0.500000 0.626711 0.750000
O O16 0.520780 0.500000 0.000000
O O17 0.753099 0.777044 0.452162
O O18 0.729204 0.000000 0.500000
O O19 0.975715 0.500000 0.500000
O O20 0.860953 0.626678 0.388773
#
# Coordination Sequence:
#
# PCOD9310596 Si02
#       8
#     4   4   4   4   4   4   4   4
#     4  10  19  34  57  82 116 156 195 244 298 352
#     4   9  19  33  51  79 116 149 187 235 287 351
#     4  10  22  40  62  90 122 154 197 251 305 367
#     4  10  20  35  55  83 119 158 197 238 294 364
#     4  10  22  38  56  83 120 160 202 250 306 371
#     4  10  22  41  62  84 112 150 199 252 302 354
#     4  10  19  31  53  85 117 154 193 237 298 358
#     4   9  20  36  54  78 113 149 192 241 285 349
#
# _framework density 21.028313000000001
#
# number of rings (size 3 to 8) (size 9 to 14) (size 15 to 20)
#    0.000    2.250    0.000    2.625    0.000    9.500 
#    0.000    5.625    0.000   22.500    0.000    0.000 
#    0.000    0.000    0.000    0.000    0.000    0.000 
#
# Total GULP energy -178167.218439 kJ/mol
# GULP energy per Si atom -5567.725576 kJ/mol
# Density = 2.098045 g / cm^3
# Si number density = 21.028313 Si / 1000 Ang^3
#
#
#
# Elastic Constant Matrix: (Units=GPa)
#
#
# Indices 1 2 3 4 5 6 
#
# 1 99.8394 19.8161 51.9650 0.0000 0.0000 0.0000
# 2 19.8161 65.8601 9.8476 0.0000 0.0000 0.0000
# 3 51.9650 9.8476 123.6156 0.0000 0.0000 0.0000
# 4 0.0000 0.0000 0.0000 20.2251 0.0000 0.0000
# 5 0.0000 0.0000 0.0000 0.0000 43.0256 0.0000
# 6 0.0000 0.0000 0.0000 0.0000 0.0000 28.8201
#
#
#
# Elastic Compliance Matrix: (Units=1/GPa)
#
#
# Indices 1 2 3 4 5 6 
#
# 1 0.013474 -0.003246 -0.005405 0.000000 0.000000 0.000000
# 2 -0.003246 0.016149 0.000078 0.000000 0.000000 0.000000
# 3 -0.005405 0.000078 0.010356 0.000000 0.000000 0.000000
# 4 0.000000 0.000000 0.000000 0.049444 0.000000 0.000000
# 5 0.000000 0.000000 0.000000 0.000000 0.023242 0.000000
# 6 0.000000 0.000000 0.000000 0.000000 0.000000 0.034698
#
#
# Mechanical properties :
#
#
# Convention : Reuss Voigt Hill
#
# Bulk Modulus (GPa) = 43.79893 50.28584 47.04238
# Shear Modulus (GPa) = 29.04969 32.25990 30.65480
#
# Velocity S-wave (km/s) = 3.72083 3.92103 3.82224
# Velocity P-wave (km/s) = 6.27162 6.66818 6.47294
#
# Compressibility (1/GPa) = 0.02283161
#
# Stress axis : x y z
#
# Youngs Moduli (GPa) = 74.21817 61.92476 96.56497
#
# Poissons Ratio (x) = 0.20099 0.52198
# Poissons Ratio (y) = 0.24090 -0.00753
# Poissons Ratio (z) = 0.40119 -0.00483
#
# Static dielectric constant tensor:
#      x y z
#    x 1.767640 0.000000 0.000000 
#    y 0.000000 1.765110 0.000000 
#    z 0.000000 0.000000 1.750780 
# 
# From -- ./inp_files/5263.got.cif
#   From: 2010.05.17/outbox.cif.g08.bks.cpg/sg17_3_cif.got.tgz:5263.got - 2010.06.03 22:34:06.
