data_PCOD9310014
_publ_section_title
;
Structure prediction by ZEFSAII (Michael W. Deem and Ramdas Pophale) SiO2 
 PCOD9310014
Probable space group: P 2 2 2
;
_chemical_formula_sum "Si O2"
_cell_formula_units_Z 14
_cell_length_a 5.239820
_cell_length_b 14.276558
_cell_length_c 8.945283
_cell_angle_alpha 90.000000
_cell_angle_beta 90.000000
_cell_angle_gamma 90.000000
_cell_volume 669.166155
_symmetry_space_group_name_H-M "P 2 2 2"
_symmetry_group_IT_number 16
_symmetry_cell_setting 'orthorhombic'
loop_
_space_group_symop_operation_xyz
x,y,z
-x,-y,z
x,-y,-z
-x,y,-z
loop_
_atom_site_type_symbol
_atom_site_label
_atom_site_fract_x
_atom_site_fract_y
_atom_site_fract_z
Si Si1 0.122892 0.259815 0.834867
Si Si2 0.500000 0.500000 0.500000
Si Si3 0.247409 0.041783 0.829402
Si Si4 0.649920 0.634736 0.247401
Si Si5 0.500000 0.500000 0.000000
O O1 0.218884 0.152816 0.832230
O O2 0.371021 0.319492 0.785802
O O3 0.875833 0.290014 0.739436
O O4 0.000000 0.273258 0.000000
O O5 0.652930 0.568820 0.391408
O O6 0.500000 0.000000 0.758544
O O7 0.000000 0.000000 0.752790
O O8 0.248251 0.000000 0.000000
O O9 0.673692 0.564303 0.106524
#
# Coordination Sequence:
#
# PCOD9310014 Si02
#       5
#     4   1   4   4   1
#     4  12  21  37  60  99 131 162 210 264 327 376
#     4  10  28  52  60  92 122 188 228 268 328 384
#     4  10  19  30  52  87 139 162 185 244 324 387
#     4  11  25  39  65  85 132 166 221 273 318 387
#     4  10  20  36  56  92 110 164 200 280 332 360
#
# _framework density 20.921562999999999
#
# number of rings (size 3 to 8) (size 9 to 14) (size 15 to 20)
#    0.000    1.143    5.714    1.714    4.000    8.000 
#    0.000    0.000    0.000    0.000    0.000   15.000 
#    0.000    0.000    0.000    0.000    0.000    0.000 
#
# Total GULP energy -78052.258319 kJ/mol
# GULP energy per Si atom -5575.161308 kJ/mol
# Density = 2.087394 g / cm^3
# Si number density = 20.921563 Si / 1000 Ang^3
#
#
#
# Elastic Constant Matrix: (Units=GPa)
#
#
# Indices 1 2 3 4 5 6 
#
# 1 195.0328 70.0773 22.8499 0.0000 0.0000 0.0000
# 2 70.0773 148.2333 48.6017 0.0000 0.0000 0.0000
# 3 22.8499 48.6017 68.0868 0.0000 0.0000 0.0000
# 4 0.0000 0.0000 0.0000 22.3246 0.0000 0.0000
# 5 0.0000 0.0000 0.0000 0.0000 3.4033 0.0000
# 6 0.0000 0.0000 0.0000 0.0000 0.0000 37.6290
#
#
#
# Elastic Compliance Matrix: (Units=1/GPa)
#
#
# Indices 1 2 3 4 5 6 
#
# 1 0.006177 -0.002925 0.000015 0.000000 0.000000 0.000000
# 2 -0.002925 0.010192 -0.006294 0.000000 0.000000 0.000000
# 3 0.000015 -0.006294 0.019175 0.000000 0.000000 0.000000
# 4 0.000000 0.000000 0.000000 0.044794 0.000000 0.000000
# 5 0.000000 0.000000 0.000000 0.000000 0.293830 0.000000
# 6 0.000000 0.000000 0.000000 0.000000 0.000000 0.026575
#
#
# Mechanical properties :
#
#
# Convention : Reuss Voigt Hill
#
# Bulk Modulus (GPa) = 58.35625 77.15674 67.75650
# Shear Modulus (GPa) = 11.76852 30.65966 21.21409
#
# Velocity S-wave (km/s) = 2.37430 3.83228 3.18776
# Velocity P-wave (km/s) = 5.95565 7.51937 6.78273
#
# Compressibility (1/GPa) = 0.01713612
#
# Stress axis : x y z
#
# Youngs Moduli (GPa) = 161.90344 98.11148 52.15151
#
# Poissons Ratio (x) = 0.28696 -0.00078
# Poissons Ratio (y) = 0.47355 0.32824
# Poissons Ratio (z) = -0.00243 0.61752
#
# Static dielectric constant tensor:
#      x y z
#    x 1.789770 0.000000 0.000000 
#    y 0.000000 1.792680 0.000000 
#    z 0.000000 0.000000 1.785680 
# 
# From -- ./inp_files/617.got.cif
#   From: 2010.05.17/outbox.cif.g08.bks.cpg/sg16_1_cif.got.tgz:617.got - 2010.06.03 22:28:35.
