data_PCOD9310720
_publ_section_title
;
Structure prediction by ZEFSAII (Michael W. Deem and Ramdas Pophale) SiO2 
 PCOD9310720
Probable space group: P 2 2 21
;
_chemical_formula_sum "Si O2"
_cell_formula_units_Z 26
_cell_length_a 12.292099
_cell_length_b 5.481641
_cell_length_c 15.928382
_cell_angle_alpha 90.000000
_cell_angle_beta 90.000000
_cell_angle_gamma 90.000000
_cell_volume 1073.268298
_symmetry_space_group_name_H-M "P 2 2 21"
_symmetry_group_IT_number 17
_symmetry_cell_setting 'orthorhombic'
loop_
_space_group_symop_operation_xyz
x,y,z
-x,-y,1/2+z
x,-y,-z
-x,y,1/2-z
loop_
_atom_site_type_symbol
_atom_site_label
_atom_site_fract_x
_atom_site_fract_y
_atom_site_fract_z
Si Si1 0.142409 0.175192 0.090730
Si Si2 0.951405 0.085281 0.845183
Si Si3 0.613956 0.580968 0.198628
Si Si4 0.532774 0.838056 0.416071
Si Si5 0.697410 0.500000 0.500000
Si Si6 0.675551 0.071464 0.275186
Si Si7 0.052399 0.416349 0.342817
O O1 0.056413 0.952261 0.093901
O O2 0.217645 0.135317 0.171757
O O3 0.056256 0.392929 0.102069
O O4 0.227928 0.269960 0.023970
O O5 0.886040 0.835925 0.854547
O O6 0.000000 0.090063 0.750000
O O7 0.891090 0.333587 0.862179
O O8 0.500000 0.588759 0.250000
O O9 0.575413 0.691025 0.109552
O O10 0.653842 0.305158 0.215340
O O11 0.686939 0.801685 0.235638
O O12 0.621095 0.620255 0.429542
O O13 0.523681 0.000000 0.500000
O O14 0.577675 0.021180 0.343221
O O15 0.000000 0.418543 0.250000
#
# Coordination Sequence:
#
# PCOD9310720 Si02
#       7
#     4   4   4   4   2   4   4
#     4  10  20  31  50  77 116 136 180 227 274 339
#     4   8  16  30  49  70 100 137 169 204 253 314
#     4  10  22  37  55  71 102 146 191 237 270 338
#     4  11  24  38  56  77 114 154 194 230 300 364
#     4  12  24  32  52  82 118 154 178 216 304 358
#     4  11  22  36  55  76 106 145 190 236 282 328
#     4   8  16  29  49  70 100 137 165 204 255 311
#
# _framework density 24.225069999999999
#
# number of rings (size 3 to 8) (size 9 to 14) (size 15 to 20)
#    0.923    1.231    1.538    3.231    6.462    0.000 
#    0.000    0.000    0.000    0.000    0.000    0.000 
#   18.462    0.000    0.000    0.000    0.000    0.000 
#
# Total GULP energy -144791.092330 kJ/mol
# GULP energy per Si atom -5568.888167 kJ/mol
# Density = 2.416993 g / cm^3
# Si number density = 24.225070 Si / 1000 Ang^3
#
#
#
# Elastic Constant Matrix: (Units=GPa)
#
#
# Indices 1 2 3 4 5 6 
#
# 1 44.6733 27.2745 22.0284 0.0000 0.0000 0.0000
# 2 27.2745 245.7803 23.1120 0.0000 0.0000 0.0000
# 3 22.0284 23.1120 60.7833 0.0000 0.0000 0.0000
# 4 0.0000 0.0000 0.0000 1.2961 0.0000 0.0000
# 5 0.0000 0.0000 0.0000 0.0000 29.9687 0.0000
# 6 0.0000 0.0000 0.0000 0.0000 0.0000 8.4750
#
#
#
# Elastic Compliance Matrix: (Units=1/GPa)
#
#
# Indices 1 2 3 4 5 6 
#
# 1 0.028423 -0.002267 -0.009439 0.000000 0.000000 0.000000
# 2 -0.002267 0.004400 -0.000852 0.000000 0.000000 0.000000
# 3 -0.009439 -0.000852 0.020196 0.000000 0.000000 0.000000
# 4 0.000000 0.000000 0.000000 0.771563 0.000000 0.000000
# 5 0.000000 0.000000 0.000000 0.000000 0.033368 0.000000
# 6 0.000000 0.000000 0.000000 0.000000 0.000000 0.117994
#
#
# Mechanical properties :
#
#
# Convention : Reuss Voigt Hill
#
# Bulk Modulus (GPa) = 35.83546 55.11852 45.47699
# Shear Modulus (GPa) = 4.94873 26.53610 15.74241
#
# Velocity S-wave (km/s) = 1.43082 3.31327 2.55196
# Velocity P-wave (km/s) = 4.18981 6.11875 5.24374
#
# Compressibility (1/GPa) = 0.02790532
#
# Stress axis : x y z
#
# Youngs Moduli (GPa) = 35.18302 227.25798 49.51358
#
# Poissons Ratio (x) = 0.51508 0.46735
# Poissons Ratio (y) = 0.07974 0.04217
# Poissons Ratio (z) = 0.33209 0.19357
#
# Static dielectric constant tensor:
#      x y z
#    x 1.927780 0.000000 0.000000 
#    y 0.000000 2.018510 0.000000 
#    z 0.000000 0.000000 2.084290 
# 
# From -- ./inp_files/9705.got.cif
#   From: 2010.05.17/outbox.cif.g08.bks.cpg/sg17_5_cif.got.tgz:9705.got - 2010.06.03 22:34:06.
