data_PCOD9310298
_publ_section_title
;
Structure prediction by ZEFSAII (Michael W. Deem and Ramdas Pophale) SiO2 
 PCOD9310298
Probable space group: P 2 2 2
;
_chemical_formula_sum "Si O2"
_cell_formula_units_Z 19
_cell_length_a 5.367986
_cell_length_b 15.661870
_cell_length_c 9.724742
_cell_angle_alpha 90.000000
_cell_angle_beta 90.000000
_cell_angle_gamma 90.000000
_cell_volume 817.585306
_symmetry_space_group_name_H-M "P 2 2 2"
_symmetry_group_IT_number 16
_symmetry_cell_setting 'orthorhombic'
loop_
_space_group_symop_operation_xyz
x,y,z
-x,-y,z
x,-y,-z
-x,y,-z
loop_
_atom_site_type_symbol
_atom_site_label
_atom_site_fract_x
_atom_site_fract_y
_atom_site_fract_z
Si Si1 0.460143 0.097436 0.796499
Si Si2 0.000000 0.500000 0.000000
Si Si3 0.052318 0.801530 0.852670
Si Si4 0.611110 0.405155 0.147891
Si Si5 0.500000 0.164597 0.500000
Si Si6 0.851788 0.306612 0.380652
O O1 0.180905 0.133100 0.824073
O O2 0.524273 0.107417 0.634763
O O3 0.679892 0.153996 0.861761
O O4 0.500000 0.000000 0.838415
O O5 0.883929 0.433196 0.105458
O O6 0.038297 0.733032 0.731890
O O7 0.000000 0.761444 0.000000
O O8 0.500000 0.500000 0.171951
O O9 0.638038 0.349926 0.285211
O O10 0.500000 0.372217 0.000000
O O11 0.724530 0.228174 0.461574
O O12 0.000000 0.357199 0.500000
#
# Coordination Sequence:
#
# PCOD9310298 Si02
#       6
#     4   1   4   4   2   4
#     4  11  23  42  68  95 138 184 230 293 351 422
#     4   8  18  40  62 102 132 164 238 268 352 426
#     4  11  25  42  65 105 136 177 236 288 357 423
#     4   9  21  41  67 101 134 181 233 285 355 433
#     4  10  23  42  59  96 134 176 238 274 357 426
#     4  11  23  42  68  96 140 178 232 299 347 426
#
# _framework density 23.239163999999999
#
# number of rings (size 3 to 8) (size 9 to 14) (size 15 to 20)
#    0.000    1.895    2.105    1.579    1.474    9.263 
#    0.000    5.263    0.000    0.000    0.000    0.000 
#    0.000    0.000    0.000    0.000    0.000    0.000 
#
# Total GULP energy -105898.449451 kJ/mol
# GULP energy per Si atom -5573.602603 kJ/mol
# Density = 2.318627 g / cm^3
# Si number density = 23.239164 Si / 1000 Ang^3
#
#
#
# Elastic Constant Matrix: (Units=GPa)
#
#
# Indices 1 2 3 4 5 6 
#
# 1 75.0844 21.8318 13.4633 0.0000 0.0000 0.0000
# 2 21.8318 73.7947 28.7174 0.0000 0.0000 0.0000
# 3 13.4633 28.7174 167.9950 0.0000 0.0000 0.0000
# 4 0.0000 0.0000 0.0000 10.9184 0.0000 0.0000
# 5 0.0000 0.0000 0.0000 0.0000 77.6789 0.0000
# 6 0.0000 0.0000 0.0000 0.0000 0.0000 108.5441
#
#
#
# Elastic Compliance Matrix: (Units=1/GPa)
#
#
# Indices 1 2 3 4 5 6 
#
# 1 0.014605 -0.004141 -0.000463 0.000000 0.000000 0.000000
# 2 -0.004141 0.015691 -0.002350 0.000000 0.000000 0.000000
# 3 -0.000463 -0.002350 0.006391 0.000000 0.000000 0.000000
# 4 0.000000 0.000000 0.000000 0.091589 0.000000 0.000000
# 5 0.000000 0.000000 0.000000 0.000000 0.012874 0.000000
# 6 0.000000 0.000000 0.000000 0.000000 0.000000 0.009213
#
#
# Mechanical properties :
#
#
# Convention : Reuss Voigt Hill
#
# Bulk Modulus (GPa) = 43.89856 49.43324 46.66590
# Shear Modulus (GPa) = 29.09282 56.28571 42.68926
#
# Velocity S-wave (km/s) = 3.54204 4.92674 4.29062
# Velocity P-wave (km/s) = 5.97151 7.32676 6.68358
#
# Compressibility (1/GPa) = 0.02277979
#
# Stress axis : x y z
#
# Youngs Moduli (GPa) = 68.46815 63.73148 156.45998
#
# Poissons Ratio (x) = 0.26391 0.07238
# Poissons Ratio (y) = 0.28352 0.36774
# Poissons Ratio (z) = 0.03168 0.14979
#
# Static dielectric constant tensor:
#      x y z
#    x 1.810220 0.000000 0.000000 
#    y 0.000000 1.809890 0.000000 
#    z 0.000000 0.000000 1.765570 
# 
# From -- ./inp_files/3150.got.cif
#   From: 2010.05.17/outbox.cif.g08.bks.cpg/sg16_2_cif.got.tgz:3150.got - 2010.06.03 22:28:35.
