data_PCOD9310696
_publ_section_title
;
Structure prediction by ZEFSAII (Michael W. Deem and Ramdas Pophale) SiO2 
 PCOD9310696
Probable space group: P 2 2 21
;
_chemical_formula_sum "Si O2"
_cell_formula_units_Z 18
_cell_length_a 17.966194
_cell_length_b 6.555957
_cell_length_c 7.340631
_cell_angle_alpha 90.000000
_cell_angle_beta 90.000000
_cell_angle_gamma 90.000000
_cell_volume 864.620592
_symmetry_space_group_name_H-M "P 2 2 21"
_symmetry_group_IT_number 17
_symmetry_cell_setting 'orthorhombic'
loop_
_space_group_symop_operation_xyz
x,y,z
-x,-y,1/2+z
x,-y,-z
-x,y,1/2-z
loop_
_atom_site_type_symbol
_atom_site_label
_atom_site_fract_x
_atom_site_fract_y
_atom_site_fract_z
Si Si1 0.587631 0.000000 0.500000
Si Si2 0.133592 0.128448 0.311031
Si Si3 0.000000 0.155255 0.750000
Si Si4 0.064601 0.500000 0.500000
Si Si5 0.376338 0.500000 0.500000
Si Si6 0.500000 0.698834 0.250000
Si Si7 0.699831 0.132649 0.184797
O O1 0.534719 0.169797 0.586323
O O2 0.639965 0.070580 0.335010
O O3 0.111712 0.364115 0.355152
O O4 0.216912 0.122491 0.234954
O O5 0.139067 0.000000 0.500000
O O6 0.069076 0.997324 0.213732
O O7 0.017931 0.316629 0.590201
O O8 0.432013 0.582967 0.344652
O O9 0.322221 0.649242 0.608041
O O10 0.694486 0.000000 0.000000
#
# Coordination Sequence:
#
# PCOD9310696 Si02
#       7
#     2   4   2   2   2   2   4
#     4  12  24  46  68 102 136 178 222 272 348 406
#     4   9  20  38  65  89 132 177 217 274 331 393
#     4  10  20  38  64  96 130 172 228 266 328 394
#     4  10  19  38  62  93 126 172 226 270 329 388
#     4  12  23  42  72  99 134 176 228 278 341 402
#     4  12  24  42  72 104 132 174 228 280 332 414
#     4  11  23  45  67  98 141 177 221 282 343 399
#
# _framework density 20.818379
#
# number of rings (size 3 to 8) (size 9 to 14) (size 15 to 20)
#    0.000    1.333    2.222    4.000    0.000    0.000 
#   10.000    0.000    0.000    0.000    0.000    0.000 
#    0.000    0.000    0.000    0.000    0.000    0.000 
#
# Total GULP energy -100397.602857 kJ/mol
# GULP energy per Si atom -5577.644603 kJ/mol
# Density = 2.077100 g / cm^3
# Si number density = 20.818379 Si / 1000 Ang^3
#
#
#
# Elastic Constant Matrix: (Units=GPa)
#
#
# Indices 1 2 3 4 5 6 
#
# 1 132.4984 57.8040 20.7247 0.0000 0.0000 0.0000
# 2 57.8040 114.9193 17.9718 0.0000 0.0000 0.0000
# 3 20.7247 17.9718 59.8609 0.0000 0.0000 0.0000
# 4 0.0000 0.0000 0.0000 46.1432 0.0000 0.0000
# 5 0.0000 0.0000 0.0000 0.0000 27.3859 0.0000
# 6 0.0000 0.0000 0.0000 0.0000 0.0000 42.4954
#
#
#
# Elastic Compliance Matrix: (Units=1/GPa)
#
#
# Indices 1 2 3 4 5 6 
#
# 1 0.009898 -0.004662 -0.002027 0.000000 0.000000 0.000000
# 2 -0.004662 0.011326 -0.001786 0.000000 0.000000 0.000000
# 3 -0.002027 -0.001786 0.017944 0.000000 0.000000 0.000000
# 4 0.000000 0.000000 0.000000 0.021672 0.000000 0.000000
# 5 0.000000 0.000000 0.000000 0.000000 0.036515 0.000000
# 6 0.000000 0.000000 0.000000 0.000000 0.000000 0.023532
#
#
# Mechanical properties :
#
#
# Convention : Reuss Voigt Hill
#
# Bulk Modulus (GPa) = 45.01083 55.58661 50.29872
# Shear Modulus (GPa) = 34.42515 37.25678 35.84096
#
# Velocity S-wave (km/s) = 4.07085 4.23497 4.15372
# Velocity P-wave (km/s) = 6.61539 7.11842 6.87151
#
# Compressibility (1/GPa) = 0.02221687
#
# Stress axis : x y z
#
# Youngs Moduli (GPa) = 101.02987 88.29303 55.73013
#
# Poissons Ratio (x) = 0.41159 0.11298
# Poissons Ratio (y) = 0.47097 0.09956
# Poissons Ratio (z) = 0.20482 0.15773
#
# Static dielectric constant tensor:
#      x y z
#    x 1.759970 0.000000 0.000000 
#    y 0.000000 1.783880 0.000000 
#    z 0.000000 0.000000 1.739030 
# 
# From -- ./inp_files/3450.got.cif
#   From: 2010.05.17/outbox.cif.g08.bks.cpg/sg17_2_cif.got.tgz:3450.got - 2010.06.03 22:34:06.
