data_PCOD9310211
_publ_section_title
;
Structure prediction by ZEFSAII (Michael W. Deem and Ramdas Pophale) SiO2 
 PCOD9310211
Probable space group: P 2 2 2
;
_chemical_formula_sum "Si O2"
_cell_formula_units_Z 20
_cell_length_a 21.367170
_cell_length_b 5.261547
_cell_length_c 7.437847
_cell_angle_alpha 90.000000
_cell_angle_beta 90.000000
_cell_angle_gamma 90.000000
_cell_volume 836.195257
_symmetry_space_group_name_H-M "P 2 2 2"
_symmetry_group_IT_number 16
_symmetry_cell_setting 'orthorhombic'
loop_
_space_group_symop_operation_xyz
x,y,z
-x,-y,z
x,-y,-z
-x,y,-z
loop_
_atom_site_type_symbol
_atom_site_label
_atom_site_fract_x
_atom_site_fract_y
_atom_site_fract_z
Si Si1 0.279968 0.467952 0.202114
Si Si2 0.071565 0.935496 0.211090
Si Si3 0.855723 0.422313 0.697243
Si Si4 0.662557 0.958959 0.782307
Si Si5 0.527864 0.755099 0.703832
O O1 0.207655 0.392508 0.190550
O O2 0.284111 0.756199 0.270935
O O3 0.320381 0.240433 0.289033
O O4 0.305363 0.500000 0.000000
O O5 0.111615 0.150495 0.308972
O O6 0.097081 0.648742 0.240215
O O7 0.000000 0.000000 0.261938
O O8 0.077314 0.000000 0.000000
O O9 0.834216 0.500000 0.500000
O O10 0.601046 0.814652 0.710508
O O11 0.658112 0.000000 0.000000
O O12 0.500000 0.500000 0.785672
O O13 0.500000 0.752787 0.500000
O O14 0.500000 0.000000 0.797799
#
# Coordination Sequence:
#
# PCOD9310211 Si02
#       5
#     4   4   4   4   4
#     4  10  21  40  64  90 124 169 212 266 319 381
#     4  11  24  43  69  97 131 182 233 274 328 401
#     4  12  25  42  64 101 139 173 223 280 345 396
#     4  10  21  39  63  90 119 158 215 261 312 375
#     4  10  21  39  59  88 121 157 197 246 314 385
#
# _framework density 23.917857999999999
#
# number of rings (size 3 to 8) (size 9 to 14) (size 15 to 20)
#    0.000    1.400    0.000    5.400    0.000    6.000 
#   10.800    1.000    0.000    0.000    0.000    0.000 
#    0.000    0.000    0.000    0.000    0.000    0.000 
#
# Total GULP energy -111624.057664 kJ/mol
# GULP energy per Si atom -5581.202883 kJ/mol
# Density = 2.386342 g / cm^3
# Si number density = 23.917858 Si / 1000 Ang^3
#
#
#
# Elastic Constant Matrix: (Units=GPa)
#
#
# Indices 1 2 3 4 5 6 
#
# 1 106.0887 53.9036 -10.9641 0.0000 0.0000 0.0000
# 2 53.9036 201.8922 11.8971 0.0000 0.0000 0.0000
# 3 -10.9641 11.8971 66.5873 0.0000 0.0000 0.0000
# 4 0.0000 0.0000 0.0000 2.0068 0.0000 0.0000
# 5 0.0000 0.0000 0.0000 0.0000 14.0096 0.0000
# 6 0.0000 0.0000 0.0000 0.0000 0.0000 45.2789
#
#
#
# Elastic Compliance Matrix: (Units=1/GPa)
#
#
# Indices 1 2 3 4 5 6 
#
# 1 0.011279 -0.003154 0.002421 0.000000 0.000000 0.000000
# 2 -0.003154 0.005888 -0.001571 0.000000 0.000000 0.000000
# 3 0.002421 -0.001571 0.015697 0.000000 0.000000 0.000000
# 4 0.000000 0.000000 0.000000 0.498313 0.000000 0.000000
# 5 0.000000 0.000000 0.000000 0.000000 0.071380 0.000000
# 6 0.000000 0.000000 0.000000 0.000000 0.000000 0.022085
#
#
# Mechanical properties :
#
#
# Convention : Reuss Voigt Hill
#
# Bulk Modulus (GPa) = 35.39253 53.80458 44.59856
# Shear Modulus (GPa) = 7.82878 33.57449 20.70164
#
# Velocity S-wave (km/s) = 1.81116 3.75072 2.94518
# Velocity P-wave (km/s) = 4.38217 6.42663 5.50023
#
# Compressibility (1/GPa) = 0.02825455
#
# Stress axis : x y z
#
# Youngs Moduli (GPa) = 88.66207 169.84213 63.70560
#
# Poissons Ratio (x) = 0.53568 -0.15421
# Poissons Ratio (y) = 0.27964 0.10010
# Poissons Ratio (z) = -0.21462 0.26687
#
# Static dielectric constant tensor:
#      x y z
#    x 2.055510 0.000000 0.000000 
#    y 0.000000 1.952740 0.000000 
#    z 0.000000 0.000000 1.992850 
# 
# From -- ./inp_files/5374.got.cif
#   From: 2010.05.17/outbox.cif.g08.bks.cpg/sg16_3_cif.got.tgz:5374.got - 2010.06.03 22:28:35.
