data_PCOD9310705
_publ_section_title
;
Structure prediction by ZEFSAII (Michael W. Deem and Ramdas Pophale) SiO2 
 PCOD9310705
Probable space group: P 2 2 21
;
_chemical_formula_sum "Si O2"
_cell_formula_units_Z 20
_cell_length_a 8.538389
_cell_length_b 10.788338
_cell_length_c 9.812904
_cell_angle_alpha 90.000000
_cell_angle_beta 90.000000
_cell_angle_gamma 90.000000
_cell_volume 903.915912
_symmetry_space_group_name_H-M "P 2 2 21"
_symmetry_group_IT_number 17
_symmetry_cell_setting 'orthorhombic'
loop_
_space_group_symop_operation_xyz
x,y,z
-x,-y,1/2+z
x,-y,-z
-x,y,1/2-z
loop_
_atom_site_type_symbol
_atom_site_label
_atom_site_fract_x
_atom_site_fract_y
_atom_site_fract_z
Si Si1 0.348699 0.219562 0.939840
Si Si2 0.182602 0.572789 0.234034
Si Si3 0.500000 0.978662 0.250000
Si Si4 0.315850 0.689086 0.782136
Si Si5 0.704163 0.000000 0.000000
Si Si6 0.717389 0.268946 0.981279
O O1 0.237241 0.315548 0.863259
O O2 0.378701 0.103068 0.840788
O O3 0.287277 0.214233 0.095333
O O4 0.528885 0.266360 0.956255
O O5 0.267009 0.449926 0.179486
O O6 0.230445 0.621905 0.383200
O O7 0.000000 0.550170 0.250000
O O8 0.598191 0.043260 0.129948
O O9 0.500000 0.690091 0.750000
O O10 0.235531 0.709711 0.636927
O O11 0.779145 0.128701 0.950466
#
# Coordination Sequence:
#
# PCOD9310705 Si02
#       6
#     4   4   2   4   2   4
#     4  10  19  39  57  91 118 152 193 247 306 353
#     4  12  23  38  59  85 124 167 201 244 297 358
#     4  10  20  34  64  94 122 148 198 252 302 364
#     4  10  22  35  61  88 122 154 196 248 306 360
#     4  10  20  34  64  90 122 146 194 250 306 348
#     4  10  21  39  60  91 121 152 201 248 304 355
#
# _framework density 22.125952000000002
#
# number of rings (size 3 to 8) (size 9 to 14) (size 15 to 20)
#    0.000    1.600    4.000    2.400    7.000    6.400 
#    0.000    0.000    0.000    8.400    0.000    0.000 
#    0.000    0.000    0.000    0.000    0.000    0.000 
#
# Total GULP energy -111487.279736 kJ/mol
# GULP energy per Si atom -5574.363987 kJ/mol
# Density = 2.207559 g / cm^3
# Si number density = 22.125952 Si / 1000 Ang^3
#
#
#
# Elastic Constant Matrix: (Units=GPa)
#
#
# Indices 1 2 3 4 5 6 
#
# 1 7.9915 9.4215 15.0509 0.0000 0.0000 0.0000
# 2 9.4215 59.6690 9.2490 0.0000 0.0000 0.0000
# 3 15.0509 9.2490 147.7334 0.0000 0.0000 0.0000
# 4 0.0000 0.0000 0.0000 38.5518 0.0000 0.0000
# 5 0.0000 0.0000 0.0000 0.0000 2.5836 0.0000
# 6 0.0000 0.0000 0.0000 0.0000 0.0000 -21.8725
#
#
#
# Elastic Compliance Matrix: (Units=1/GPa)
#
#
# Indices 1 2 3 4 5 6 
#
# 1 0.190788 -0.027378 -0.017723 0.000000 0.000000 0.000000
# 2 -0.027378 0.020852 0.001484 0.000000 0.000000 0.000000
# 3 -0.017723 0.001484 0.008482 0.000000 0.000000 0.000000
# 4 0.000000 0.000000 0.000000 0.025939 0.000000 0.000000
# 5 0.000000 0.000000 0.000000 0.000000 0.387054 0.000000
# 6 0.000000 0.000000 0.000000 0.000000 0.000000 -0.045720
#
#
# Mechanical properties :
#
#
# Convention : Reuss Voigt Hill
#
# Bulk Modulus (GPa) = 7.52515 31.42632 19.47574
# Shear Modulus (GPa) = 6.95482 15.96409 11.45945
#
# Velocity S-wave (km/s) = 1.77486 2.68901 2.27825
# Velocity P-wave (km/s) = 2.75837 4.88623 3.96761
#
# Compressibility (1/GPa) = 0.13288763
#
# Stress axis : x y z
#
# Youngs Moduli (GPa) = 5.24141 47.95716 117.90103
#
# Poissons Ratio (x) = 1.31295 2.08960
# Poissons Ratio (y) = 0.14350 -0.17493
# Poissons Ratio (z) = 0.09290 -0.07116
#
# Static dielectric constant tensor:
#      x y z
#    x 1.787920 0.000000 0.000000 
#    y 0.000000 1.874040 0.000000 
#    z 0.000000 0.000000 1.897060 
# 
# From -- ./inp_files/4078.got.cif
#   From: 2010.05.17/outbox.cif.g08.bks.cpg/sg17_3_cif.got.tgz:4078.got - 2010.06.03 22:34:06.
