data_PCOD9310991
_publ_section_title
;
Structure prediction by ZEFSAII (Michael W. Deem and Ramdas Pophale) SiO2 
 PCOD9310991
Probable space group: P 2 2 21
;
_chemical_formula_sum "Si O2"
_cell_formula_units_Z 32
_cell_length_a 9.248811
_cell_length_b 11.815829
_cell_length_c 15.995799
_cell_angle_alpha 90.000000
_cell_angle_beta 90.000000
_cell_angle_gamma 90.000000
_cell_volume 1748.058812
_symmetry_space_group_name_H-M "P 2 2 21"
_symmetry_group_IT_number 17
_symmetry_cell_setting 'orthorhombic'
loop_
_space_group_symop_operation_xyz
x,y,z
-x,-y,1/2+z
x,-y,-z
-x,y,1/2-z
loop_
_atom_site_type_symbol
_atom_site_label
_atom_site_fract_x
_atom_site_fract_y
_atom_site_fract_z
Si Si1 0.744440 0.500000 0.404715
Si Si2 0.907135 0.698079 0.322791
Si Si3 0.586591 0.500000 0.104573
Si Si4 0.649681 0.732619 0.200414
Si Si5 0.350319 0.267381 0.299586
Si Si6 0.140198 0.869676 0.599848
Si Si7 0.092865 0.698079 0.822791
Si Si8 0.859802 0.869676 0.099848
O O1 0.707880 0.500000 0.500000
O O2 0.840608 0.608021 0.384670
O O3 0.583413 0.500000 0.366113
O O4 0.840608 0.391979 0.384670
O O5 0.769889 0.743972 0.272669
O O6 0.000000 0.638606 0.250000
O O7 0.011987 0.790685 0.363560
O O8 0.650632 0.613024 0.148936
O O9 0.650632 0.386976 0.148936
O O10 0.603239 0.500000 0.000000
O O11 0.500000 0.745789 0.250000
O O12 0.705719 0.824886 0.133985
O O13 0.500000 0.254211 0.250000
O O14 0.294281 0.175114 0.366015
O O15 0.230111 0.256028 0.227331
O O16 0.137461 0.861411 0.500000
O O17 0.011987 0.790685 0.636440
O O18 0.117758 0.000000 0.624562
O O19 0.000000 0.638606 0.750000
#
# Coordination Sequence:
#
# PCOD9310991 Si02
#       8
#     4   4   4   4   4   4   4   4
#     4  11  20  33  55  86 120 152 191 236 290 351
#     4  10  21  36  59  85 116 154 192 241 290 349
#     4  11  22  36  59  89 126 158 187 234 296 355
#     4  11  21  38  62  89 120 154 194 240 293 349
#     4  11  21  38  62  89 120 154 194 240 293 349
#     4  10  23  43  62  83 116 156 200 247 294 346
#     4  10  21  36  59  85 116 154 192 241 290 349
#     4  10  23  43  62  83 116 156 200 247 294 346
#
# _framework density 18.30602
#
# number of rings (size 3 to 8) (size 9 to 14) (size 15 to 20)
#    0.000    1.500    2.500    3.000    0.000    8.000 
#    0.000    6.250    0.000    3.000    0.000    0.000 
#    0.000    0.000    0.000    0.000    0.000    0.000 
#
# Total GULP energy -178171.059987 kJ/mol
# GULP energy per Si atom -5567.845625 kJ/mol
# Density = 1.826435 g / cm^3
# Si number density = 18.306020 Si / 1000 Ang^3
#
#
#
# Elastic Constant Matrix: (Units=GPa)
#
#
# Indices 1 2 3 4 5 6 
#
# 1 73.6786 27.3345 33.1711 0.0000 0.0000 0.0000
# 2 27.3345 118.5326 45.1251 0.0000 0.0000 0.0000
# 3 33.1711 45.1251 70.5627 0.0000 0.0000 0.0000
# 4 0.0000 0.0000 0.0000 17.8791 0.0000 0.0000
# 5 0.0000 0.0000 0.0000 0.0000 34.5200 0.0000
# 6 0.0000 0.0000 0.0000 0.0000 0.0000 21.0384
#
#
#
# Elastic Compliance Matrix: (Units=1/GPa)
#
#
# Indices 1 2 3 4 5 6 
#
# 1 0.017341 -0.001184 -0.007395 0.000000 0.000000 0.000000
# 2 -0.001184 0.011232 -0.006627 0.000000 0.000000 0.000000
# 3 -0.007395 -0.006627 0.021886 0.000000 0.000000 0.000000
# 4 0.000000 0.000000 0.000000 0.055931 0.000000 0.000000
# 5 0.000000 0.000000 0.000000 0.000000 0.028969 0.000000
# 6 0.000000 0.000000 0.000000 0.000000 0.000000 0.047532
#
#
# Mechanical properties :
#
#
# Convention : Reuss Voigt Hill
#
# Bulk Modulus (GPa) = 49.87886 52.67058 51.27472
# Shear Modulus (GPa) = 22.72894 25.16373 23.94634
#
# Velocity S-wave (km/s) = 3.52747 3.71160 3.62071
# Velocity P-wave (km/s) = 6.62549 6.87042 6.74907
#
# Compressibility (1/GPa) = 0.02004857
#
# Stress axis : x y z
#
# Youngs Moduli (GPa) = 57.66716 89.02985 45.69182
#
# Poissons Ratio (x) = 0.10539 0.33788
# Poissons Ratio (y) = 0.06826 0.30278
# Poissons Ratio (z) = 0.42644 0.58996
#
# Static dielectric constant tensor:
#      x y z
#    x 1.673570 0.000000 0.000000 
#    y 0.000000 1.628760 0.000000 
#    z 0.000000 0.000000 1.675630 
# 
# From -- ./inp_files/8308.got.cif
#   From: 2010.05.17/outbox.cif.g08.bks.cpg/sg17_5_cif.got.tgz:8308.got - 2010.06.03 22:34:06.
