data_PCOD9310736
_publ_section_title
;
Structure prediction by ZEFSAII (Michael W. Deem and Ramdas Pophale) SiO2 
 PCOD9310736
Probable space group: P 2 2 21
;
_chemical_formula_sum "Si O2"
_cell_formula_units_Z 24
_cell_length_a 4.486474
_cell_length_b 6.059765
_cell_length_c 30.374878
_cell_angle_alpha 90.000000
_cell_angle_beta 90.000000
_cell_angle_gamma 90.000000
_cell_volume 825.801144
_symmetry_space_group_name_H-M "P 2 2 21"
_symmetry_group_IT_number 17
_symmetry_cell_setting 'orthorhombic'
loop_
_space_group_symop_operation_xyz
x,y,z
-x,-y,1/2+z
x,-y,-z
-x,y,1/2-z
loop_
_atom_site_type_symbol
_atom_site_label
_atom_site_fract_x
_atom_site_fract_y
_atom_site_fract_z
Si Si1 0.385131 0.886173 0.541010
Si Si2 0.989215 0.046055 0.665206
Si Si3 0.615532 0.563540 0.204811
Si Si4 0.976809 0.500000 0.500000
Si Si5 0.000000 0.186344 0.250000
Si Si6 0.021160 0.728485 0.082665
Si Si7 0.610167 0.658409 0.876951
O O1 0.181009 0.693237 0.520488
O O2 0.554483 0.772472 0.581865
O O3 0.552479 0.000000 0.500000
O O4 0.182222 0.078974 0.561808
O O5 0.184769 0.850852 0.643759
O O6 0.849759 0.952524 0.710359
O O7 0.189320 0.245343 0.683466
O O8 0.814171 0.156040 0.624064
O O9 0.500000 0.665096 0.250000
O O10 0.435141 0.452004 0.164075
O O11 0.785972 0.354103 0.224935
O O12 0.811928 0.385802 0.541434
O O13 0.814726 0.534995 0.102781
#
# Coordination Sequence:
#
# PCOD9310736 Si02
#       7
#     4   4   4   2   2   4   4
#     4   8  12  19  34  57  88 123 156 193 238 287
#     4   9  17  29  45  64  91 125 160 200 246 291
#     4  10  20  33  49  69  95 127 163 203 247 294
#     4   8  12  18  32  56  88 124 158 192 238 288
#     4  10  20  34  50  70  96 128 164 204 248 296
#     4   8  13  22  36  58  88 124 157 194 242 288
#     4   8  15  26  40  61  90 122 156 198 243 287
#
# _framework density 29.062681999999999
#
# number of rings (size 3 to 8) (size 9 to 14) (size 15 to 20)
#    0.000    3.333    0.000    0.500    0.000    2.667 
#    0.000    0.000    0.000    0.000    0.000    0.000 
#    0.000   30.667    0.000  794.500    0.000  348.333 
#
# Total GULP energy -134138.766188 kJ/mol
# GULP energy per Si atom -5589.115258 kJ/mol
# Density = 2.899653 g / cm^3
# Si number density = 29.062682 Si / 1000 Ang^3
#
#
#
# Elastic Constant Matrix: (Units=GPa)
#
#
# Indices 1 2 3 4 5 6 
#
# 1 45.9705 52.1879 49.4900 0.0000 0.0000 0.0000
# 2 52.1879 194.9381 136.9378 0.0000 0.0000 0.0000
# 3 49.4900 136.9378 234.1499 0.0000 0.0000 0.0000
# 4 0.0000 0.0000 0.0000 105.1156 0.0000 0.0000
# 5 0.0000 0.0000 0.0000 0.0000 14.9450 0.0000
# 6 0.0000 0.0000 0.0000 0.0000 0.0000 247.0508
#
#
#
# Elastic Compliance Matrix: (Units=1/GPa)
#
#
# Indices 1 2 3 4 5 6 
#
# 1 0.032461 -0.006570 -0.003019 0.000000 0.000000 0.000000
# 2 -0.006570 0.010036 -0.004481 0.000000 0.000000 0.000000
# 3 -0.003019 -0.004481 0.007529 0.000000 0.000000 0.000000
# 4 0.000000 0.000000 0.000000 0.009513 0.000000 0.000000
# 5 0.000000 0.000000 0.000000 0.000000 0.066912 0.000000
# 6 0.000000 0.000000 0.000000 0.000000 0.000000 0.004048
#
#
# Mechanical properties :
#
#
# Convention : Reuss Voigt Hill
#
# Bulk Modulus (GPa) = 45.68713 105.81001 75.74857
# Shear Modulus (GPa) = 30.13214 89.18513 59.65864
#
# Velocity S-wave (km/s) = 3.22343 5.54561 4.53565
# Velocity P-wave (km/s) = 5.44135 8.80293 7.31778
#
# Compressibility (1/GPa) = 0.02188800
#
# Stress axis : x y z
#
# Youngs Moduli (GPa) = 30.80584 99.63701 132.81154
#
# Poissons Ratio (x) = 0.65459 0.40094
# Poissons Ratio (y) = 0.20239 0.59513
# Poissons Ratio (z) = 0.09300 0.44647
#
# Static dielectric constant tensor:
#      x y z
#    x 2.448190 0.000000 0.000000 
#    y 0.000000 2.190370 0.000000 
#    z 0.000000 0.000000 2.388080 
# 
# From -- ./inp_files/10848.got.cif
#   From: 2010.05.17/outbox.cif.g08.bks.cpg/sg17_6_cif.got.tgz:10848.got - 2010.06.03 22:34:06.
