data_PCOD9310616
_publ_section_title
;
Structure prediction by ZEFSAII (Michael W. Deem and Ramdas Pophale) SiO2 
 PCOD9310616
Probable space group: P 2 2 21
;
_chemical_formula_sum "Si O2"
_cell_formula_units_Z 24
_cell_length_a 8.542402
_cell_length_b 9.187718
_cell_length_c 16.488689
_cell_angle_alpha 90.000000
_cell_angle_beta 90.000000
_cell_angle_gamma 90.000000
_cell_volume 1294.117734
_symmetry_space_group_name_H-M "P 2 2 21"
_symmetry_group_IT_number 17
_symmetry_cell_setting 'orthorhombic'
loop_
_space_group_symop_operation_xyz
x,y,z
-x,-y,1/2+z
x,-y,-z
-x,y,1/2-z
loop_
_atom_site_type_symbol
_atom_site_label
_atom_site_fract_x
_atom_site_fract_y
_atom_site_fract_z
Si Si1 0.689626 0.832078 0.243275
Si Si2 0.323810 0.332240 0.587252
Si Si3 0.347183 0.830948 0.906610
Si Si4 0.314150 0.679339 0.591170
Si Si5 0.662020 0.820127 0.416379
Si Si6 0.182774 0.847238 0.740874
O O1 0.500000 0.819652 0.250000
O O2 0.747430 0.737862 0.167835
O O3 0.750741 0.785804 0.332520
O O4 0.731983 0.998785 0.226299
O O5 0.328089 0.505458 0.595878
O O6 0.251612 0.289534 0.500021
O O7 0.500747 0.269694 0.583173
O O8 0.514361 0.752327 0.902452
O O9 0.250665 0.791153 0.826674
O O10 0.371892 0.006349 0.907818
O O11 0.268556 0.796139 0.993935
O O12 0.216519 0.742936 0.665390
O O13 0.000000 0.873882 0.750000
#
# Coordination Sequence:
#
# PCOD9310616 Si02
#       6
#     4   4   4   4   4   4
#     4   9  17  33  54  76 100 128 165 211 255 299
#     4   9  18  31  54  81 101 126 165 209 255 302
#     4   9  17  32  53  74  99 131 166 209 256 297
#     4  10  19  33  53  77 103 131 166 208 253 303
#     4   8  15  29  51  77 102 124 158 208 255 298
#     4  11  22  34  49  73 103 138 174 207 246 297
#
# _framework density 18.545452999999998
#
# number of rings (size 3 to 8) (size 9 to 14) (size 15 to 20)
#    0.000    2.667    0.000    3.500    0.000    6.000 
#    0.000    7.500    0.000   10.000    0.000    0.000 
#    0.000    0.000    0.000    0.000    0.000    0.000 
#
# Total GULP energy -133623.426017 kJ/mol
# GULP energy per Si atom -5567.642751 kJ/mol
# Density = 1.850324 g / cm^3
# Si number density = 18.545453 Si / 1000 Ang^3
#
#
#
# Elastic Constant Matrix: (Units=GPa)
#
#
# Indices 1 2 3 4 5 6 
#
# 1 15.0331 -0.8531 15.5624 0.0000 0.0000 0.0000
# 2 -0.8531 37.7894 60.0963 0.0000 0.0000 0.0000
# 3 15.5624 60.0963 199.4913 0.0000 0.0000 0.0000
# 4 0.0000 0.0000 0.0000 21.7368 0.0000 0.0000
# 5 0.0000 0.0000 0.0000 0.0000 -4.2485 0.0000
# 6 0.0000 0.0000 0.0000 0.0000 0.0000 -4.3793
#
#
#
# Elastic Compliance Matrix: (Units=1/GPa)
#
#
# Indices 1 2 3 4 5 6 
#
# 1 0.081571 0.022961 -0.013280 0.000000 0.000000 0.000000
# 2 0.022961 0.057262 -0.019041 0.000000 0.000000 0.000000
# 3 -0.013280 -0.019041 0.011785 0.000000 0.000000 0.000000
# 4 0.000000 0.000000 0.000000 0.046005 0.000000 0.000000
# 5 0.000000 0.000000 0.000000 0.000000 -0.235376 0.000000
# 6 0.000000 0.000000 0.000000 0.000000 0.000000 -0.228345
#
#
# Mechanical properties :
#
#
# Convention : Reuss Voigt Hill
#
# Bulk Modulus (GPa) = 7.58168 44.65831 26.12000
# Shear Modulus (GPa) = -24.46035 14.45568 -5.00234
#
# Velocity S-wave (km/s) = -3.63566 2.79493 -1.64414
# Velocity P-wave (km/s) = 3.67791 5.87778 3.24201
#
# Compressibility (1/GPa) = 0.13189687
#
# Stress axis : x y z
#
# Youngs Moduli (GPa) = 12.25928 17.46363 84.85460
#
# Poissons Ratio (x) = -0.40099 1.12690
# Poissons Ratio (y) = -0.28149 1.61573
# Poissons Ratio (z) = 0.16281 0.33253
#
# Static dielectric constant tensor:
#      x y z
#    x 1.587930 0.000000 0.000000 
#    y 0.000000 1.614890 0.000000 
#    z 0.000000 0.000000 1.743710 
# 
# From -- ./inp_files/9406.got.cif
#   From: 2010.05.17/outbox.cif.g08.bks.cpg/sg17_5_cif.got.tgz:9406.got - 2010.06.03 22:34:06.
