data_PCOD9310521
_publ_section_title
;
Structure prediction by ZEFSAII (Michael W. Deem and Ramdas Pophale) SiO2 
 PCOD9310521
Probable space group: P 2 2 21
;
_chemical_formula_sum "Si O2"
_cell_formula_units_Z 24
_cell_length_a 7.698201
_cell_length_b 9.617802
_cell_length_c 15.386755
_cell_angle_alpha 90.000000
_cell_angle_beta 90.000000
_cell_angle_gamma 90.000000
_cell_volume 1139.231847
_symmetry_space_group_name_H-M "P 2 2 21"
_symmetry_group_IT_number 17
_symmetry_cell_setting 'orthorhombic'
loop_
_space_group_symop_operation_xyz
x,y,z
-x,-y,1/2+z
x,-y,-z
-x,y,1/2-z
loop_
_atom_site_type_symbol
_atom_site_label
_atom_site_fract_x
_atom_site_fract_y
_atom_site_fract_z
Si Si1 0.867030 0.138062 0.955429
Si Si2 0.691790 0.035434 0.784411
Si Si3 0.123656 0.727067 0.178187
Si Si4 0.770463 0.466931 0.404010
Si Si5 0.816972 0.605592 0.928221
Si Si6 0.788880 0.283883 0.248867
O O1 0.729850 0.086060 0.882853
O O2 0.011951 0.224713 0.903968
O O3 0.801009 0.242210 0.028961
O O4 0.940834 0.000000 0.000000
O O5 0.500000 0.057819 0.750000
O O6 0.806891 0.135447 0.723940
O O7 0.737022 0.874237 0.770701
O O8 0.255242 0.609935 0.148452
O O9 0.000000 0.657049 0.250000
O O10 0.700529 0.500000 0.500000
O O11 0.716470 0.341302 0.340493
O O12 0.979225 0.437335 0.416103
O O13 0.737824 0.617308 0.832208
O O14 0.743569 0.500000 0.000000
O O15 0.000000 0.285075 0.250000
#
# Coordination Sequence:
#
# PCOD9310521 Si02
#       6
#     4   4   4   4   4   4
#     4  11  20  36  64  94 118 152 209 258 304 364
#     4  11  25  41  56  84 128 174 202 242 306 373
#     4  10  20  35  61  90 118 148 199 251 304 355
#     4  10  19  33  57  96 121 145 189 260 315 358
#     4  10  18  32  61  96 119 144 196 261 313 352
#     4  10  20  36  62  88 119 156 205 256 303 361
#
# _framework density 21.066827
#
# number of rings (size 3 to 8) (size 9 to 14) (size 15 to 20)
#    0.000    1.667    5.000    3.000    4.667    0.000 
#    0.000    3.333    0.000    0.000    0.000    0.000 
#    0.000    0.000    0.000    0.000    0.000    0.000 
#
# Total GULP energy -133882.998851 kJ/mol
# GULP energy per Si atom -5578.458285 kJ/mol
# Density = 2.101888 g / cm^3
# Si number density = 21.066827 Si / 1000 Ang^3
#
#
#
# Elastic Constant Matrix: (Units=GPa)
#
#
# Indices 1 2 3 4 5 6 
#
# 1 34.1974 -7.5997 1.7897 0.0000 0.0000 0.0000
# 2 -7.5997 108.0281 34.1164 0.0000 0.0000 0.0000
# 3 1.7897 34.1164 113.6428 0.0000 0.0000 0.0000
# 4 0.0000 0.0000 0.0000 34.9138 0.0000 0.0000
# 5 0.0000 0.0000 0.0000 0.0000 2.7269 0.0000
# 6 0.0000 0.0000 0.0000 0.0000 0.0000 -14.6966
#
#
#
# Elastic Compliance Matrix: (Units=1/GPa)
#
#
# Indices 1 2 3 4 5 6 
#
# 1 0.029858 0.002485 -0.001216 0.000000 0.000000 0.000000
# 2 0.002485 0.010433 -0.003171 0.000000 0.000000 0.000000
# 3 -0.001216 -0.003171 0.009771 0.000000 0.000000 0.000000
# 4 0.000000 0.000000 0.000000 0.028642 0.000000 0.000000
# 5 0.000000 0.000000 0.000000 0.000000 0.366717 0.000000
# 6 0.000000 0.000000 0.000000 0.000000 0.000000 -0.068043
#
#
# Mechanical properties :
#
#
# Convention : Reuss Voigt Hill
#
# Bulk Modulus (GPa) = 21.61884 34.72014 28.16949
# Shear Modulus (GPa) = 12.60709 19.75961 16.18335
#
# Velocity S-wave (km/s) = 2.44894 3.06592 2.77463
# Velocity P-wave (km/s) = 4.27560 5.38979 4.86470
#
# Compressibility (1/GPa) = 0.04625596
#
# Stress axis : x y z
#
# Youngs Moduli (GPa) = 33.49215 95.84837 102.34703
#
# Poissons Ratio (x) = -0.23814 0.12446
# Poissons Ratio (y) = -0.08321 0.32457
# Poissons Ratio (z) = 0.04073 0.30396
#
# Static dielectric constant tensor:
#      x y z
#    x 1.819780 0.000000 0.000000 
#    y 0.000000 1.750220 0.000000 
#    z 0.000000 0.000000 1.788130 
# 
# From -- ./inp_files/8092.got.cif
#   From: 2010.05.17/outbox.cif.g08.bks.cpg/sg17_5_cif.got.tgz:8092.got - 2010.06.03 22:34:06.
