data_PCOD9310140
_publ_section_title
;
Structure prediction by ZEFSAII (Michael W. Deem and Ramdas Pophale) SiO2 
 PCOD9310140
Probable space group: P 2 2 2
;
_chemical_formula_sum "Si O2"
_cell_formula_units_Z 24
_cell_length_a 10.367373
_cell_length_b 5.932273
_cell_length_c 19.573585
_cell_angle_alpha 90.000000
_cell_angle_beta 90.000000
_cell_angle_gamma 90.000000
_cell_volume 1203.816326
_symmetry_space_group_name_H-M "P 2 2 2"
_symmetry_group_IT_number 16
_symmetry_cell_setting 'orthorhombic'
loop_
_space_group_symop_operation_xyz
x,y,z
-x,-y,z
x,-y,-z
-x,y,-z
loop_
_atom_site_type_symbol
_atom_site_label
_atom_site_fract_x
_atom_site_fract_y
_atom_site_fract_z
Si Si1 0.870395 0.643682 0.596731
Si Si2 0.500000 0.500000 0.717712
Si Si3 0.350879 0.250409 0.975456
Si Si4 0.855410 0.025012 0.276217
Si Si5 0.310914 0.262318 0.375130
Si Si6 0.373931 0.836505 0.183540
Si Si7 0.762758 0.000000 0.500000
O O1 0.863874 0.769673 0.669607
O O2 0.743420 0.491228 0.593836
O O3 0.000000 0.500000 0.591322
O O4 0.854944 0.817544 0.535258
O O5 0.434898 0.686727 0.669807
O O6 0.401179 0.375183 0.767306
O O7 0.350344 0.241134 0.893526
O O8 0.298841 0.500000 0.000000
O O9 0.500000 0.250231 0.000000
O O10 0.298708 0.000000 0.000000
O O11 0.751258 0.049590 0.216642
O O12 0.801539 0.825813 0.324489
O O13 0.000000 0.000000 0.249633
O O14 0.322134 0.092851 0.437735
O O15 0.500000 0.000000 0.184775
#
# Coordination Sequence:
#
# PCOD9310140 Si02
#       7
#     4   2   4   4   4   4   2
#     4  11  22  42  62  87 119 165 221 278 338 406
#     4  12  24  40  68  92 126 176 222 274 342 408
#     4  10  20  37  62 102 143 175 223 279 320 382
#     4  11  23  41  65  98 131 167 215 279 336 399
#     4  11  23  41  63  87 126 163 220 281 344 405
#     4  12  23  39  68 103 133 177 223 273 329 398
#     4  10  26  41  59  88 118 164 224 280 348 410
#
# _framework density 19.936596999999999
#
# number of rings (size 3 to 8) (size 9 to 14) (size 15 to 20)
#    0.000    1.000    6.667    1.500    0.000    2.000 
#    0.000    2.500    0.000    0.500    0.000    2.333 
#    0.000    0.000    0.000    0.000    0.000    0.000 
#
# Total GULP energy -133985.419448 kJ/mol
# GULP energy per Si atom -5582.725810 kJ/mol
# Density = 1.989122 g / cm^3
# Si number density = 19.936597 Si / 1000 Ang^3
#
#
#
# Elastic Constant Matrix: (Units=GPa)
#
#
# Indices 1 2 3 4 5 6 
#
# 1 70.4544 23.7640 59.5297 0.0000 0.0000 0.0000
# 2 23.7640 101.7631 52.7773 0.0000 0.0000 0.0000
# 3 59.5297 52.7773 161.4361 0.0000 0.0000 0.0000
# 4 0.0000 0.0000 0.0000 71.5210 0.0000 0.0000
# 5 0.0000 0.0000 0.0000 0.0000 26.4747 0.0000
# 6 0.0000 0.0000 0.0000 0.0000 0.0000 21.2681
#
#
#
# Elastic Compliance Matrix: (Units=1/GPa)
#
#
# Indices 1 2 3 4 5 6 
#
# 1 0.020711 -0.001054 -0.007292 0.000000 0.000000 0.000000
# 2 -0.001054 0.011887 -0.003497 0.000000 0.000000 0.000000
# 3 -0.007292 -0.003497 0.010027 0.000000 0.000000 0.000000
# 4 0.000000 0.000000 0.000000 0.013982 0.000000 0.000000
# 5 0.000000 0.000000 0.000000 0.000000 0.037772 0.000000
# 6 0.000000 0.000000 0.000000 0.000000 0.000000 0.047019
#
#
# Mechanical properties :
#
#
# Convention : Reuss Voigt Hill
#
# Bulk Modulus (GPa) = 52.80866 67.31061 60.05964
# Shear Modulus (GPa) = 29.17197 37.02493 33.09845
#
# Velocity S-wave (km/s) = 3.82938 4.31412 4.07896
# Velocity P-wave (km/s) = 6.78955 7.65841 7.23703
#
# Compressibility (1/GPa) = 0.01893629
#
# Stress axis : x y z
#
# Youngs Moduli (GPa) = 48.28376 84.12734 99.73240
#
# Poissons Ratio (x) = 0.08870 0.72729
# Poissons Ratio (y) = 0.05091 0.34879
# Poissons Ratio (z) = 0.35211 0.29421
#
# Static dielectric constant tensor:
#      x y z
#    x 1.633230 0.000000 0.000000 
#    y 0.000000 1.469890 0.000000 
#    z 0.000000 0.000000 1.680400 
# 
# From -- ./inp_files/9003.got.cif
#   From: 2010.05.17/outbox.cif.g08.bks.cpg/sg16_5_cif.got.tgz:9003.got - 2010.06.03 22:28:35.
