data_PCOD9310949
_publ_section_title
;
Structure prediction by ZEFSAII (Michael W. Deem and Ramdas Pophale) SiO2 
 PCOD9310949
Probable space group: P 2 2 21
;
_chemical_formula_sum "Si O2"
_cell_formula_units_Z 20
_cell_length_a 5.677432
_cell_length_b 20.036652
_cell_length_c 7.473203
_cell_angle_alpha 90.000000
_cell_angle_beta 90.000000
_cell_angle_gamma 90.000000
_cell_volume 850.127130
_symmetry_space_group_name_H-M "P 2 2 21"
_symmetry_group_IT_number 17
_symmetry_cell_setting 'orthorhombic'
loop_
_space_group_symop_operation_xyz
x,y,z
-x,-y,1/2+z
x,-y,-z
-x,y,1/2-z
loop_
_atom_site_type_symbol
_atom_site_label
_atom_site_fract_x
_atom_site_fract_y
_atom_site_fract_z
Si Si1 0.500000 0.142399 0.750000
Si Si2 0.000000 0.994074 0.250000
Si Si3 0.232435 0.371992 0.054161
Si Si4 0.858266 0.098855 0.025844
Si Si5 0.884999 0.771059 0.441653
Si Si6 0.267455 0.422009 0.464718
O O1 0.647723 0.099910 0.887822
O O2 0.342341 0.189480 0.875150
O O3 0.190704 0.050106 0.310047
O O4 0.050720 0.943084 0.088735
O O5 0.250713 0.402847 0.253675
O O6 0.490162 0.386642 0.969705
O O7 0.993988 0.402037 0.966309
O O8 0.183157 0.293071 0.055399
O O9 0.948168 0.174603 0.040571
O O10 0.000000 0.750434 0.250000
O O11 0.300115 0.500000 0.500000
#
# Coordination Sequence:
#
# PCOD9310949 Si02
#       6
#     2   2   4   4   4   4
#     4  10  20  42  64  90 134 178 232 290 354 418
#     4  10  20  42  62  96 138 182 226 290 368 412
#     4  10  23  42  69  97 131 179 225 279 347 421
#     4  10  21  42  65  94 138 180 233 297 347 437
#     4  10  22  42  62  95 130 177 225 289 346 411
#     4  10  22  45  67  98 136 171 220 286 342 423
#
# _framework density 23.525894999999998
#
# number of rings (size 3 to 8) (size 9 to 14) (size 15 to 20)
#    0.000    2.000    3.000    0.600    5.600    1.600 
#   21.600    0.000    0.000    0.000    0.000    0.000 
#    0.000    0.000    0.000    0.000    0.000    0.000 
#
# Total GULP energy -111407.940228 kJ/mol
# GULP energy per Si atom -5570.397011 kJ/mol
# Density = 2.347235 g / cm^3
# Si number density = 23.525895 Si / 1000 Ang^3
#
#
#
# Elastic Constant Matrix: (Units=GPa)
#
#
# Indices 1 2 3 4 5 6 
#
# 1 159.7411 46.1169 16.9616 0.0000 0.0000 0.0000
# 2 46.1169 180.7774 43.5831 0.0000 0.0000 0.0000
# 3 16.9616 43.5831 89.4605 0.0000 0.0000 0.0000
# 4 0.0000 0.0000 0.0000 44.9174 0.0000 0.0000
# 5 0.0000 0.0000 0.0000 0.0000 -2.6330 0.0000
# 6 0.0000 0.0000 0.0000 0.0000 0.0000 -44.5350
#
#
#
# Elastic Compliance Matrix: (Units=1/GPa)
#
#
# Indices 1 2 3 4 5 6 
#
# 1 0.006778 -0.001608 -0.000502 0.000000 0.000000 0.000000
# 2 -0.001608 0.006649 -0.002935 0.000000 0.000000 0.000000
# 3 -0.000502 -0.002935 0.012703 0.000000 0.000000 0.000000
# 4 0.000000 0.000000 0.000000 0.022263 0.000000 0.000000
# 5 0.000000 0.000000 0.000000 0.000000 -0.379794 0.000000
# 6 0.000000 0.000000 0.000000 0.000000 0.000000 -0.022454
#
#
# Mechanical properties :
#
#
# Convention : Reuss Voigt Hill
#
# Bulk Modulus (GPa) = 62.33857 71.47803 66.90830
# Shear Modulus (GPa) = -14.77456 21.10438 3.16491
#
# Velocity S-wave (km/s) = -2.50874 2.99836 1.16112
# Velocity P-wave (km/s) = 4.26189 6.51426 5.50451
#
# Compressibility (1/GPa) = 0.01604143
#
# Stress axis : x y z
#
# Youngs Moduli (GPa) = 147.54408 150.39030 78.72244
#
# Poissons Ratio (x) = 0.24184 0.03949
# Poissons Ratio (y) = 0.23726 0.23101
# Poissons Ratio (z) = 0.07401 0.44133
#
# Static dielectric constant tensor:
#      x y z
#    x 2.235640 0.000000 0.000000 
#    y 0.000000 1.864290 0.000000 
#    z 0.000000 0.000000 2.089410 
# 
# From -- ./inp_files/3505.got.cif
#   From: 2010.05.17/outbox.cif.g08.bks.cpg/sg17_2_cif.got.tgz:3505.got - 2010.06.03 22:34:06.
