data_PCOD9310060
_publ_section_title
;
Structure prediction by ZEFSAII (Michael W. Deem and Ramdas Pophale) SiO2 
 PCOD9310060
Probable space group: P 2 2 2
;
_chemical_formula_sum "Si O2"
_cell_formula_units_Z 30
_cell_length_a 14.534345
_cell_length_b 14.126854
_cell_length_c 7.302926
_cell_angle_alpha 90.000000
_cell_angle_beta 90.000000
_cell_angle_gamma 90.000000
_cell_volume 1499.470139
_symmetry_space_group_name_H-M "P 2 2 2"
_symmetry_group_IT_number 16
_symmetry_cell_setting 'orthorhombic'
loop_
_space_group_symop_operation_xyz
x,y,z
-x,-y,z
x,-y,-z
-x,y,-z
loop_
_atom_site_type_symbol
_atom_site_label
_atom_site_fract_x
_atom_site_fract_y
_atom_site_fract_z
Si Si1 0.278473 0.181122 0.249087
Si Si2 0.705504 0.798460 0.811852
Si Si3 0.392208 0.005913 0.778524
Si Si4 0.400788 0.296642 0.526296
Si Si5 0.900929 0.289413 0.773437
Si Si6 0.657907 0.500000 0.500000
Si Si7 0.894218 0.297036 0.216146
Si Si8 0.178605 0.496445 0.220397
O O1 0.333105 0.251941 0.378425
O O2 0.171773 0.208440 0.282741
O O3 0.325351 0.079224 0.284280
O O4 0.293264 0.200029 0.031794
O O5 0.661107 0.896194 0.740081
O O6 0.637875 0.720749 0.728467
O O7 0.807149 0.769955 0.739992
O O8 0.500000 0.000000 0.716767
O O9 0.396542 0.000000 0.000000
O O10 0.500000 0.252021 0.500000
O O11 0.400895 0.406750 0.490909
O O12 0.868704 0.396622 0.723882
O O13 0.005122 0.269980 0.713729
O O14 0.899561 0.292585 0.995073
O O15 0.725485 0.498208 0.325264
O O16 0.874756 0.406388 0.268348
O O17 0.188887 0.500000 0.000000
#
# Coordination Sequence:
#
# PCOD9310060 Si02
#       8
#     4   4   4   4   4   2   4   4
#     4  10  21  39  60  84 116 149 187 237 288 338
#     4  10  21  39  60  84 116 149 187 237 288 338
#     4   9  18  35  60  86 110 144 193 243 286 332
#     4  12  25  39  58  83 113 151 192 237 286 339
#     4   9  17  32  57  85 114 150 188 229 281 338
#     4  12  23  38  55  82 114 148 193 234 279 338
#     4   9  17  32  57  85 114 150 188 229 281 338
#     4  10  19  35  57  80 113 151 189 235 281 328
#
# _framework density 20.007065999999998
#
# number of rings (size 3 to 8) (size 9 to 14) (size 15 to 20)
#    0.000    2.000    2.667    1.400    0.000    3.733 
#    0.000    5.333    0.000    6.400    0.000    1.867 
#    0.000    0.000    0.000    0.000    0.000    0.000 
#
# Total GULP energy -167301.328332 kJ/mol
# GULP energy per Si atom -5576.710944 kJ/mol
# Density = 1.996153 g / cm^3
# Si number density = 20.007066 Si / 1000 Ang^3
#
#
#
# Elastic Constant Matrix: (Units=GPa)
#
#
# Indices 1 2 3 4 5 6 
#
# 1 165.1334 42.5282 10.7195 0.0000 0.0000 0.0000
# 2 42.5282 99.8050 -1.6977 0.0000 0.0000 0.0000
# 3 10.7195 -1.6977 64.9697 0.0000 0.0000 0.0000
# 4 0.0000 0.0000 0.0000 6.7687 0.0000 0.0000
# 5 0.0000 0.0000 0.0000 0.0000 3.0081 0.0000
# 6 0.0000 0.0000 0.0000 0.0000 0.0000 17.3377
#
#
#
# Elastic Compliance Matrix: (Units=1/GPa)
#
#
# Indices 1 2 3 4 5 6 
#
# 1 0.006897 -0.002959 -0.001215 0.000000 0.000000 0.000000
# 2 -0.002959 0.011294 0.000783 0.000000 0.000000 0.000000
# 3 -0.001215 0.000783 0.015613 0.000000 0.000000 0.000000
# 4 0.000000 0.000000 0.000000 0.147738 0.000000 0.000000
# 5 0.000000 0.000000 0.000000 0.000000 0.332440 0.000000
# 6 0.000000 0.000000 0.000000 0.000000 0.000000 0.057678
#
#
# Mechanical properties :
#
#
# Convention : Reuss Voigt Hill
#
# Bulk Modulus (GPa) = 37.00845 48.11201 42.56023
# Shear Modulus (GPa) = 8.51138 23.98011 16.24574
#
# Velocity S-wave (km/s) = 2.06481 3.46581 2.85265
# Velocity P-wave (km/s) = 4.92163 6.33368 5.67177
#
# Compressibility (1/GPa) = 0.02702085
#
# Stress axis : x y z
#
# Youngs Moduli (GPa) = 144.99531 88.54311 64.05010
#
# Poissons Ratio (x) = 0.26204 0.07784
# Poissons Ratio (y) = 0.42911 -0.05018
# Poissons Ratio (z) = 0.17621 -0.06937
#
# Static dielectric constant tensor:
#      x y z
#    x 1.699600 0.000000 0.000000 
#    y 0.000000 1.711900 0.000000 
#    z 0.000000 0.000000 1.706730 
# 
# From -- ./inp_files/5204.got.cif
#   From: 2010.05.17/outbox.cif.g08.bks.cpg/sg16_3_cif.got.tgz:5204.got - 2010.06.03 22:28:35.
