data_PCOD9310665
_publ_section_title
;
Structure prediction by ZEFSAII (Michael W. Deem and Ramdas Pophale) SiO2 
 PCOD9310665
Probable space group: P 2 2 21
;
_chemical_formula_sum "Si O2"
_cell_formula_units_Z 32
_cell_length_a 12.981524
_cell_length_b 5.159217
_cell_length_c 27.384824
_cell_angle_alpha 90.000000
_cell_angle_beta 90.000000
_cell_angle_gamma 90.000000
_cell_volume 1834.084876
_symmetry_space_group_name_H-M "P 2 2 21"
_symmetry_group_IT_number 17
_symmetry_cell_setting 'orthorhombic'
loop_
_space_group_symop_operation_xyz
x,y,z
-x,-y,1/2+z
x,-y,-z
-x,y,1/2-z
loop_
_atom_site_type_symbol
_atom_site_label
_atom_site_fract_x
_atom_site_fract_y
_atom_site_fract_z
Si Si1 0.039518 0.953283 0.684834
Si Si2 0.261025 0.408092 0.185581
Si Si3 0.496284 0.472913 0.809128
Si Si4 0.940745 0.455687 0.645323
Si Si5 0.621498 0.016390 0.165394
Si Si6 0.904011 0.456040 0.945198
Si Si7 0.781339 0.091849 0.746561
Si Si8 0.801716 0.954084 0.906015
O O1 0.959734 0.174778 0.668678
O O2 0.106326 0.023191 0.732108
O O3 0.124210 0.956773 0.641435
O O4 0.990361 0.669717 0.681680
O O5 0.380057 0.461891 0.175391
O O6 0.228765 0.614666 0.227884
O O7 0.179171 0.471434 0.143135
O O8 0.247262 0.117357 0.205291
O O9 0.500000 0.453791 0.750000
O O10 0.535140 0.204289 0.831660
O O11 0.571998 0.704068 0.824982
O O12 0.003752 0.466900 0.594659
O O13 0.699241 0.951136 0.209979
O O14 0.688080 0.012383 0.115881
O O15 0.843534 0.187104 0.938947
O O16 0.823847 0.682754 0.931712
O O17 0.941973 0.500000 0.000000
#
# Coordination Sequence:
#
# PCOD9310665 Si02
#       8
#     4   4   4   4   4   4   4   4
#     4   9  19  33  49  66 102 136 169 202 252 302
#     4  12  23  31  47  69 101 136 187 216 241 284
#     4  12  21  34  50  71  99 149 192 225 247 281
#     4  10  21  35  46  73 103 129 163 211 251 309
#     4  11  20  35  52  71 106 136 178 225 260 290
#     4  10  19  36  59  81 103 126 157 202 265 335
#     4  11  20  32  48  70  94 142 178 213 250 287
#     4   9  19  33  54  82 103 129 163 209 262 318
#
# _framework density 17.447392000000001
#
# number of rings (size 3 to 8) (size 9 to 14) (size 15 to 20)
#    0.000    1.500    2.500    3.750    0.000    7.000 
#    0.000    0.000    0.000    0.000    0.000    5.250 
#    0.000    0.000    0.000    0.000    0.000    0.000 
#
# Total GULP energy -178740.228729 kJ/mol
# GULP energy per Si atom -5585.632148 kJ/mol
# Density = 1.740768 g / cm^3
# Si number density = 17.447392 Si / 1000 Ang^3
#
#
#
# Elastic Constant Matrix: (Units=GPa)
#
#
# Indices 1 2 3 4 5 6 
#
# 1 77.2700 -9.8428 13.1039 0.0000 0.0000 0.0000
# 2 -9.8428 65.9668 -1.7348 0.0000 0.0000 0.0000
# 3 13.1039 -1.7348 51.7865 0.0000 0.0000 0.0000
# 4 0.0000 0.0000 0.0000 12.8415 0.0000 0.0000
# 5 0.0000 0.0000 0.0000 0.0000 15.4930 0.0000
# 6 0.0000 0.0000 0.0000 0.0000 0.0000 27.2660
#
#
#
# Elastic Compliance Matrix: (Units=1/GPa)
#
#
# Indices 1 2 3 4 5 6 
#
# 1 0.013772 0.001965 -0.003419 0.000000 0.000000 0.000000
# 2 0.001965 0.015453 0.000020 0.000000 0.000000 0.000000
# 3 -0.003419 0.000020 0.020176 0.000000 0.000000 0.000000
# 4 0.000000 0.000000 0.000000 0.077872 0.000000 0.000000
# 5 0.000000 0.000000 0.000000 0.000000 0.064545 0.000000
# 6 0.000000 0.000000 0.000000 0.000000 0.000000 0.036676
#
#
# Mechanical properties :
#
#
# Convention : Reuss Voigt Hill
#
# Bulk Modulus (GPa) = 21.48995 22.00843 21.74919
# Shear Modulus (GPa) = 20.25341 24.01991 22.13666
#
# Velocity S-wave (km/s) = 3.41079 3.71442 3.56584
# Velocity P-wave (km/s) = 5.27779 5.57113 5.42644
#
# Compressibility (1/GPa) = 0.04653338
#
# Stress axis : x y z
#
# Youngs Moduli (GPa) = 72.61245 64.71288 49.56418
#
# Poissons Ratio (x) = -0.12716 0.16946
# Poissons Ratio (y) = -0.14268 -0.00101
# Poissons Ratio (z) = 0.24826 -0.00132
#
# Static dielectric constant tensor:
#      x y z
#    x 1.623940 0.000000 0.000000 
#    y 0.000000 1.587500 0.000000 
#    z 0.000000 0.000000 1.593710 
# 
# From -- ./inp_files/11024.got.cif
#   From: 2010.05.17/outbox.cif.g08.bks.cpg/sg17_6_cif.got.tgz:11024.got - 2010.06.03 22:34:06.
