data_PCOD9310607
_publ_section_title
;
Structure prediction by ZEFSAII (Michael W. Deem and Ramdas Pophale) SiO2 
 PCOD9310607
Probable space group: P 2 2 21
;
_chemical_formula_sum "Si O2"
_cell_formula_units_Z 24
_cell_length_a 9.255370
_cell_length_b 14.914880
_cell_length_c 8.348749
_cell_angle_alpha 90.000000
_cell_angle_beta 90.000000
_cell_angle_gamma 90.000000
_cell_volume 1152.484128
_symmetry_space_group_name_H-M "P 2 2 21"
_symmetry_group_IT_number 17
_symmetry_cell_setting 'orthorhombic'
loop_
_space_group_symop_operation_xyz
x,y,z
-x,-y,1/2+z
x,-y,-z
-x,y,1/2-z
loop_
_atom_site_type_symbol
_atom_site_label
_atom_site_fract_x
_atom_site_fract_y
_atom_site_fract_z
Si Si1 0.500000 0.492957 0.250000
Si Si2 0.166472 0.001763 0.306432
Si Si3 0.746244 0.617708 0.223923
Si Si4 0.161820 0.192636 0.671645
Si Si5 0.830686 0.195862 0.214063
Si Si6 0.000000 0.503914 0.250000
Si Si7 0.752750 0.622167 0.606674
O O1 0.610699 0.561138 0.163164
O O2 0.393143 0.428488 0.155193
O O3 0.219474 0.902274 0.260975
O O4 0.000000 0.002446 0.250000
O O5 0.170466 0.000000 0.500000
O O6 0.228944 0.095972 0.242571
O O7 0.738700 0.722611 0.200846
O O8 0.892609 0.572179 0.155786
O O9 0.758960 0.615495 0.416181
O O10 0.163683 0.194550 0.478857
O O11 0.000000 0.206205 0.750000
O O12 0.761133 0.280080 0.307864
O O13 0.000000 0.200493 0.250000
O O14 0.887400 0.437174 0.332978
#
# Coordination Sequence:
#
# PCOD9310607 Si02
#       7
#     2   4   4   4   4   2   4
#     4  10  24  42  58  76 110 152 190 240 282 334
#     4   8  16  30  48  79 116 149 182 224 280 338
#     4  11  23  39  58  85 115 148 194 239 284 344
#     4  10  19  32  55  84 117 151 187 232 283 337
#     4  10  19  32  55  84 117 151 187 232 283 337
#     4  10  20  34  58  80 112 142 182 236 282 334
#     4  11  23  39  58  85 115 148 194 239 284 344
#
# _framework density 20.824583000000001
#
# number of rings (size 3 to 8) (size 9 to 14) (size 15 to 20)
#    0.000    2.000    1.667    3.000    0.000    5.333 
#    0.000    8.333    0.000    1.000    0.000    0.000 
#    0.000    0.000    0.000    0.000    0.000    0.000 
#
# Total GULP energy -133627.179473 kJ/mol
# GULP energy per Si atom -5567.799145 kJ/mol
# Density = 2.077719 g / cm^3
# Si number density = 20.824583 Si / 1000 Ang^3
#
#
#
# Elastic Constant Matrix: (Units=GPa)
#
#
# Indices 1 2 3 4 5 6 
#
# 1 80.4874 42.6531 12.6778 0.0000 0.0000 0.0000
# 2 42.6531 224.4161 36.9622 0.0000 0.0000 0.0000
# 3 12.6778 36.9622 54.2644 0.0000 0.0000 0.0000
# 4 0.0000 0.0000 0.0000 28.7506 0.0000 0.0000
# 5 0.0000 0.0000 0.0000 0.0000 16.5833 0.0000
# 6 0.0000 0.0000 0.0000 0.0000 0.0000 18.2757
#
#
#
# Elastic Compliance Matrix: (Units=1/GPa)
#
#
# Indices 1 2 3 4 5 6 
#
# 1 0.013944 -0.002381 -0.001636 0.000000 0.000000 0.000000
# 2 -0.002381 0.005426 -0.003139 0.000000 0.000000 0.000000
# 3 -0.001636 -0.003139 0.020949 0.000000 0.000000 0.000000
# 4 0.000000 0.000000 0.000000 0.034782 0.000000 0.000000
# 5 0.000000 0.000000 0.000000 0.000000 0.060301 0.000000
# 6 0.000000 0.000000 0.000000 0.000000 0.000000 0.054717
#
#
# Mechanical properties :
#
#
# Convention : Reuss Voigt Hill
#
# Bulk Modulus (GPa) = 38.45292 60.41711 49.43501
# Shear Modulus (GPa) = 23.46319 30.51359 26.98839
#
# Velocity S-wave (km/s) = 3.36029 3.83203 3.60389
# Velocity P-wave (km/s) = 5.79315 6.97529 6.41152
#
# Compressibility (1/GPa) = 0.02600583
#
# Stress axis : x y z
#
# Youngs Moduli (GPa) = 71.71737 184.31258 47.73511
#
# Poissons Ratio (x) = 0.43879 0.07810
# Poissons Ratio (y) = 0.17074 0.14986
# Poissons Ratio (z) = 0.11733 0.57864
#
# Static dielectric constant tensor:
#      x y z
#    x 1.707720 0.000000 0.000000 
#    y 0.000000 1.870890 0.000000 
#    z 0.000000 0.000000 1.825390 
# 
# From -- ./inp_files/4273.got.cif
#   From: 2010.05.17/outbox.cif.g08.bks.cpg/sg17_3_cif.got.tgz:4273.got - 2010.06.03 22:34:06.
