data_PCOD9310800
_publ_section_title
;
Structure prediction by ZEFSAII (Michael W. Deem and Ramdas Pophale) SiO2 
 PCOD9310800
Probable space group: P 2 2 21
;
_chemical_formula_sum "Si O2"
_cell_formula_units_Z 32
_cell_length_a 12.843060
_cell_length_b 15.458438
_cell_length_c 8.969848
_cell_angle_alpha 90.000000
_cell_angle_beta 90.000000
_cell_angle_gamma 90.000000
_cell_volume 1780.816634
_symmetry_space_group_name_H-M "P 2 2 21"
_symmetry_group_IT_number 17
_symmetry_cell_setting 'orthorhombic'
loop_
_space_group_symop_operation_xyz
x,y,z
-x,-y,1/2+z
x,-y,-z
-x,y,1/2-z
loop_
_atom_site_type_symbol
_atom_site_label
_atom_site_fract_x
_atom_site_fract_y
_atom_site_fract_z
Si Si1 0.261861 0.341966 0.213957
Si Si2 0.616218 0.002157 0.680605
Si Si3 0.609463 0.494743 0.678877
Si Si4 0.878650 0.604253 0.476473
Si Si5 0.762352 0.344247 0.785060
Si Si6 0.616205 0.823870 0.821796
Si Si7 0.112706 0.400258 0.449672
Si Si8 0.616640 0.819103 0.183188
O O1 0.352310 0.411971 0.233927
O O2 0.220019 0.344261 0.045563
O O3 0.306499 0.252297 0.271137
O O4 0.158271 0.383228 0.287702
O O5 0.500000 0.003454 0.750000
O O6 0.659924 0.092060 0.744129
O O7 0.614795 0.000000 0.500000
O O8 0.658870 0.913719 0.751792
O O9 0.604474 0.500000 0.500000
O O10 0.500000 0.472745 0.750000
O O11 0.690056 0.424412 0.738458
O O12 0.863825 0.500000 0.500000
O O13 0.867492 0.634941 0.306697
O O14 0.993573 0.626777 0.532643
O O15 0.693781 0.258327 0.772170
O O16 0.802846 0.349593 0.952819
O O17 0.500000 0.809883 0.750000
O O18 0.608229 0.827175 0.002385
O O19 0.117863 0.500000 0.500000
O O20 0.500000 0.803953 0.250000
#
# Coordination Sequence:
#
# PCOD9310800 Si02
#       8
#     4   4   4   4   4   4   4   4
#     4  12  22  38  57  85 116 153 193 236 291 345
#     4  10  20  36  60  86 115 150 189 235 281 336
#     4  12  26  38  53  79 118 160 195 233 281 342
#     4  11  22  40  60  83 114 153 197 256 293 335
#     4  12  22  38  57  85 116 153 193 236 291 345
#     4  11  23  37  58  86 120 155 191 234 282 344
#     4  11  22  38  62  85 112 151 199 248 297 335
#     4  11  23  37  58  86 120 155 191 234 282 344
#
# _framework density 17.969283000000001
#
# number of rings (size 3 to 8) (size 9 to 14) (size 15 to 20)
#    0.000    0.750    5.000    4.875    5.250    4.000 
#    0.000    0.000    0.000    0.000    0.000    5.250 
#    0.000    0.000    0.000    0.000    0.000    0.000 
#
# Total GULP energy -178439.318896 kJ/mol
# GULP energy per Si atom -5576.228716 kJ/mol
# Density = 1.792838 g / cm^3
# Si number density = 17.969283 Si / 1000 Ang^3
#
#
#
# Elastic Constant Matrix: (Units=GPa)
#
#
# Indices 1 2 3 4 5 6 
#
# 1 69.2921 18.2712 18.6429 0.0000 0.0000 0.0000
# 2 18.2712 118.2027 37.1156 0.0000 0.0000 0.0000
# 3 18.6429 37.1156 85.0399 0.0000 0.0000 0.0000
# 4 0.0000 0.0000 0.0000 27.2380 0.0000 0.0000
# 5 0.0000 0.0000 0.0000 0.0000 30.7663 0.0000
# 6 0.0000 0.0000 0.0000 0.0000 0.0000 13.3664
#
#
#
# Elastic Compliance Matrix: (Units=1/GPa)
#
#
# Indices 1 2 3 4 5 6 
#
# 1 0.015577 -0.001548 -0.002739 0.000000 0.000000 0.000000
# 2 -0.001548 0.009957 -0.004007 0.000000 0.000000 0.000000
# 3 -0.002739 -0.004007 0.014108 0.000000 0.000000 0.000000
# 4 0.000000 0.000000 0.000000 0.036713 0.000000 0.000000
# 5 0.000000 0.000000 0.000000 0.000000 0.032503 0.000000
# 6 0.000000 0.000000 0.000000 0.000000 0.000000 0.074815
#
#
# Mechanical properties :
#
#
# Convention : Reuss Voigt Hill
#
# Bulk Modulus (GPa) = 43.37391 46.73269 45.05330
# Shear Modulus (GPa) = 24.04471 27.50779 25.77625
#
# Velocity S-wave (km/s) = 3.66197 3.91682 3.79154
# Velocity P-wave (km/s) = 6.48616 6.82046 6.65541
#
# Compressibility (1/GPa) = 0.02305534
#
# Stress axis : x y z
#
# Youngs Moduli (GPa) = 64.19814 100.42844 70.87981
#
# Poissons Ratio (x) = 0.15543 0.19417
# Poissons Ratio (y) = 0.09935 0.28399
# Poissons Ratio (z) = 0.17586 0.40238
#
# Static dielectric constant tensor:
#      x y z
#    x 1.596660 0.000000 0.000000 
#    y 0.000000 1.625540 0.000000 
#    z 0.000000 0.000000 1.704510 
# 
# From -- ./inp_files/4943.got.cif
#   From: 2010.05.17/outbox.cif.g08.bks.cpg/sg17_3_cif.got.tgz:4943.got - 2010.06.03 22:34:06.
