data_PCOD9310239
_publ_section_title
;
Structure prediction by ZEFSAII (Michael W. Deem and Ramdas Pophale) SiO2 
 PCOD9310239
Probable space group: P 2 2 2
;
_chemical_formula_sum "Si O2"
_cell_formula_units_Z 19
_cell_length_a 8.199474
_cell_length_b 16.524078
_cell_length_c 6.569529
_cell_angle_alpha 90.000000
_cell_angle_beta 90.000000
_cell_angle_gamma 90.000000
_cell_volume 890.097259
_symmetry_space_group_name_H-M "P 2 2 2"
_symmetry_group_IT_number 16
_symmetry_cell_setting 'orthorhombic'
loop_
_space_group_symop_operation_xyz
x,y,z
-x,-y,z
x,-y,-z
-x,y,-z
loop_
_atom_site_type_symbol
_atom_site_label
_atom_site_fract_x
_atom_site_fract_y
_atom_site_fract_z
Si Si1 0.500000 0.500000 0.500000
Si Si2 0.000000 0.656503 0.000000
Si Si3 0.840870 0.732764 0.376884
Si Si4 0.735885 0.889974 0.235453
Si Si5 0.500000 0.000000 0.500000
Si Si6 0.000000 0.000000 0.000000
Si Si7 0.692518 0.637079 0.717864
Si Si8 0.500000 0.234640 0.000000
O O1 0.606408 0.554523 0.654099
O O2 0.861108 0.618568 0.847302
O O3 0.114403 0.708687 0.851141
O O4 0.810171 0.827393 0.396448
O O5 0.711999 0.679504 0.495727
O O6 0.000000 0.712252 0.500000
O O7 0.612878 0.947659 0.352360
O O8 0.631984 0.827856 0.094933
O O9 0.877430 0.941582 0.126672
O O10 0.588509 0.703679 0.843969
#
# Coordination Sequence:
#
# PCOD9310239 Si02
#       8
#     1   2   4   4   1   1   4   2
#     4  12  28  48  74 116 162 180 236 326 392 440
#     4  10  21  48  75 112 134 188 258 294 359 455
#     4  10  22  42  76 101 135 189 254 294 352 452
#     4  12  25  44  66 103 145 195 240 311 364 447
#     4  12  28  42  64 104 156 182 244 316 402 408
#     4  12  30  40  68 106 148 186 252 300 384 418
#     4  11  25  47  77 111 143 193 251 306 376 457
#     4  12  24  46  80  98 144 206 258 294 378 462
#
# _framework density 21.345979
#
# number of rings (size 3 to 8) (size 9 to 14) (size 15 to 20)
#    0.000    0.842    2.105    4.421    5.895    0.421 
#    0.000    5.789    0.000    0.000    0.000    0.000 
#    0.000    0.000    0.000    0.000    0.000    0.000 
#
# Total GULP energy -105885.102307 kJ/mol
# GULP energy per Si atom -5572.900121 kJ/mol
# Density = 2.129740 g / cm^3
# Si number density = 21.345979 Si / 1000 Ang^3
#
#
#
# Elastic Constant Matrix: (Units=GPa)
#
#
# Indices 1 2 3 4 5 6 
#
# 1 143.7776 88.6535 74.5646 0.0000 0.0000 0.0000
# 2 88.6535 153.4766 70.7849 0.0000 0.0000 0.0000
# 3 74.5646 70.7849 110.0862 0.0000 0.0000 0.0000
# 4 0.0000 0.0000 0.0000 56.9416 0.0000 0.0000
# 5 0.0000 0.0000 0.0000 0.0000 23.2194 0.0000
# 6 0.0000 0.0000 0.0000 0.0000 0.0000 -65.4212
#
#
#
# Elastic Compliance Matrix: (Units=1/GPa)
#
#
# Indices 1 2 3 4 5 6 
#
# 1 0.012833 -0.004839 -0.005581 0.000000 0.000000 0.000000
# 2 -0.004839 0.011087 -0.003851 0.000000 0.000000 0.000000
# 3 -0.005581 -0.003851 0.015340 0.000000 0.000000 0.000000
# 4 0.000000 0.000000 0.000000 0.017562 0.000000 0.000000
# 5 0.000000 0.000000 0.000000 0.000000 0.043067 0.000000
# 6 0.000000 0.000000 0.000000 0.000000 0.000000 -0.015286
#
#
# Mechanical properties :
#
#
# Convention : Reuss Voigt Hill
#
# Bulk Modulus (GPa) = 93.29952 97.26071 95.28011
# Shear Modulus (GPa) = 42.83781 14.50381 28.67081
#
# Velocity S-wave (km/s) = 4.48463 2.60948 3.66887
# Velocity P-wave (km/s) = 8.40351 7.39879 7.91710
#
# Compressibility (1/GPa) = 0.01071817
#
# Stress axis : x y z
#
# Youngs Moduli (GPa) = 77.92297 90.19496 65.18782
#
# Poissons Ratio (x) = 0.43645 0.36380
# Poissons Ratio (y) = 0.37707 0.25106
# Poissons Ratio (z) = 0.43488 0.34738
#
# Static dielectric constant tensor:
#      x y z
#    x 1.273790 0.000000 0.000000 
#    y 0.000000 1.721050 0.000000 
#    z 0.000000 0.000000 1.935880 
# 
# From -- ./inp_files/917.got.cif
#   From: 2010.05.17/outbox.cif.g08.bks.cpg/sg16_1_cif.got.tgz:917.got - 2010.06.03 22:28:35.
