data_PCOD9310599
_publ_section_title
;
Structure prediction by ZEFSAII (Michael W. Deem and Ramdas Pophale) SiO2 
 PCOD9310599
Probable space group: P 2 2 21
;
_chemical_formula_sum "Si O2"
_cell_formula_units_Z 32
_cell_length_a 14.751756
_cell_length_b 11.752754
_cell_length_c 9.726889
_cell_angle_alpha 90.000000
_cell_angle_beta 90.000000
_cell_angle_gamma 90.000000
_cell_volume 1686.387313
_symmetry_space_group_name_H-M "P 2 2 21"
_symmetry_group_IT_number 17
_symmetry_cell_setting 'orthorhombic'
loop_
_space_group_symop_operation_xyz
x,y,z
-x,-y,1/2+z
x,-y,-z
-x,y,1/2-z
loop_
_atom_site_type_symbol
_atom_site_label
_atom_site_fract_x
_atom_site_fract_y
_atom_site_fract_z
Si Si1 0.822181 0.878006 0.229019
Si Si2 0.084252 0.740448 0.051681
Si Si3 0.895036 0.484463 0.714201
Si Si4 0.757403 0.338528 0.878501
Si Si5 0.819625 0.123169 0.311015
Si Si6 0.587890 0.502719 0.160969
Si Si7 0.934914 0.885586 0.960106
Si Si8 0.257473 0.663339 0.705320
O O1 0.901834 0.813285 0.309937
O O2 0.750095 0.780013 0.201808
O O3 0.857283 0.900300 0.074782
O O4 0.794044 0.990662 0.310434
O O5 0.101514 0.607926 0.087018
O O6 0.985947 0.768819 0.992587
O O7 0.147610 0.810419 0.945791
O O8 0.846733 0.405868 0.829486
O O9 0.823857 0.591316 0.717698
O O10 0.000000 0.514187 0.750000
O O11 0.668767 0.406593 0.835088
O O12 0.762849 0.334699 0.042497
O O13 0.743869 0.207117 0.253258
O O14 0.899535 0.120529 0.194868
O O15 0.500000 0.525704 0.250000
O O16 0.643637 0.392988 0.215947
O O17 0.562291 0.500000 0.000000
O O18 0.993005 0.000000 0.000000
#
# Coordination Sequence:
#
# PCOD9310599 Si02
#       8
#     4   4   4   4   4   4   4   4
#     4  10  19  35  56  74 104 147 191 233 288 337
#     4  11  21  33  47  73 110 148 195 245 289 320
#     4  10  21  35  52  75 110 161 195 233 278 329
#     4   9  18  38  62  80 108 146 191 231 274 340
#     4  11  22  33  50  79 109 144 188 239 284 335
#     4   9  19  39  65  88 109 139 174 227 283 337
#     4  10  19  32  51  72 100 146 201 246 280 330
#     4  10  21  39  55  81 116 147 191 233 277 344
#
# _framework density 18.975474999999999
#
# number of rings (size 3 to 8) (size 9 to 14) (size 15 to 20)
#    0.000    2.000    1.250    4.500    0.000    3.500 
#    9.000    0.000    0.000    0.750    0.000    0.000 
#    0.000    0.000    0.000    0.000    0.000    0.000 
#
# Total GULP energy -178147.236926 kJ/mol
# GULP energy per Si atom -5567.101154 kJ/mol
# Density = 1.893229 g / cm^3
# Si number density = 18.975475 Si / 1000 Ang^3
#
#
#
# Elastic Constant Matrix: (Units=GPa)
#
#
# Indices 1 2 3 4 5 6 
#
# 1 70.2255 11.8051 26.4533 0.0000 0.0000 0.0000
# 2 11.8051 102.5263 14.0826 0.0000 0.0000 0.0000
# 3 26.4533 14.0826 55.3828 0.0000 0.0000 0.0000
# 4 0.0000 0.0000 0.0000 25.9517 0.0000 0.0000
# 5 0.0000 0.0000 0.0000 0.0000 20.9736 0.0000
# 6 0.0000 0.0000 0.0000 0.0000 0.0000 -0.8202
#
#
#
# Elastic Compliance Matrix: (Units=1/GPa)
#
#
# Indices 1 2 3 4 5 6 
#
# 1 0.017443 -0.000895 -0.008104 0.000000 0.000000 0.000000
# 2 -0.000895 0.010153 -0.002154 0.000000 0.000000 0.000000
# 3 -0.008104 -0.002154 0.022475 0.000000 0.000000 0.000000
# 4 0.000000 0.000000 0.000000 0.038533 0.000000 0.000000
# 5 0.000000 0.000000 0.000000 0.000000 0.047679 0.000000
# 6 0.000000 0.000000 0.000000 0.000000 0.000000 -1.219254
#
#
# Mechanical properties :
#
#
# Convention : Reuss Voigt Hill
#
# Bulk Modulus (GPa) = 36.01801 36.97964 36.49883
# Shear Modulus (GPa) = -4.75552 20.94060 8.09254
#
# Velocity S-wave (km/s) = -1.58480 3.32559 2.06736
# Velocity P-wave (km/s) = 3.95901 5.85462 4.99751
#
# Compressibility (1/GPa) = 0.02776389
#
# Stress axis : x y z
#
# Youngs Moduli (GPa) = 57.32953 98.49758 44.49458
#
# Poissons Ratio (x) = 0.08818 0.36058
# Poissons Ratio (y) = 0.05133 0.09584
# Poissons Ratio (z) = 0.46459 0.21216
#
# Static dielectric constant tensor:
#      x y z
#    x 1.635270 0.000000 0.000000 
#    y 0.000000 1.814630 0.000000 
#    z 0.000000 0.000000 1.725720 
# 
# From -- ./inp_files/5292.got.cif
#   From: 2010.05.17/outbox.cif.g08.bks.cpg/sg17_3_cif.got.tgz:5292.got - 2010.06.03 22:34:06.
