data_PCOD9310245
_publ_section_title
;
Structure prediction by ZEFSAII (Michael W. Deem and Ramdas Pophale) SiO2 
 PCOD9310245
Probable space group: P 2 2 2
;
_chemical_formula_sum "Si O2"
_cell_formula_units_Z 11
_cell_length_a 5.790002
_cell_length_b 8.701611
_cell_length_c 10.221436
_cell_angle_alpha 90.000000
_cell_angle_beta 90.000000
_cell_angle_gamma 90.000000
_cell_volume 514.979916
_symmetry_space_group_name_H-M "P 2 2 2"
_symmetry_group_IT_number 16
_symmetry_cell_setting 'orthorhombic'
loop_
_space_group_symop_operation_xyz
x,y,z
-x,-y,z
x,-y,-z
-x,y,-z
loop_
_atom_site_type_symbol
_atom_site_label
_atom_site_fract_x
_atom_site_fract_y
_atom_site_fract_z
Si Si1 0.000000 0.500000 0.000000
Si Si2 0.000000 0.500000 0.500000
Si Si3 0.603405 0.670809 0.132140
Si Si4 0.675025 0.247912 0.380898
Si Si5 0.000000 0.000000 0.500000
O O1 0.862916 0.380603 0.904941
O O2 0.839766 0.395908 0.405480
O O3 0.500000 0.500000 0.146109
O O4 0.491729 0.755589 0.255122
O O5 0.500000 0.742691 0.000000
O O6 0.500000 0.252444 0.500000
O O7 0.841552 0.104064 0.406146
#
# Coordination Sequence:
#
# PCOD9310245 Si02
#       5
#     1   1   4   4   1
#     4   8  18  34  56  96 140 160 186 266 332 362
#     4  10  22  36  64  98 128 164 206 260 312 362
#     4   9  19  34  58  95 130 158 198 253 316 376
#     4  11  22  39  62  92 126 166 211 256 308 374
#     4  10  26  42  60  86 132 174 210 260 312 360
#
# _framework density 21.360057999999999
#
# number of rings (size 3 to 8) (size 9 to 14) (size 15 to 20)
#    0.000    2.545    0.000    3.273    0.000   18.909 
#    0.000    0.000    0.000    6.545    0.000   17.818 
#    0.000    0.000    0.000    0.000    0.000    0.000 
#
# Total GULP energy -61239.274692 kJ/mol
# GULP energy per Si atom -5567.206790 kJ/mol
# Density = 2.131144 g / cm^3
# Si number density = 21.360058 Si / 1000 Ang^3
#
#
#
# Elastic Constant Matrix: (Units=GPa)
#
#
# Indices 1 2 3 4 5 6 
#
# 1 149.1907 55.3206 84.5582 0.0000 0.0000 0.0000
# 2 55.3206 80.8169 43.0516 0.0000 0.0000 0.0000
# 3 84.5582 43.0516 212.1269 0.0000 0.0000 0.0000
# 4 0.0000 0.0000 0.0000 373.8241 0.0000 0.0000
# 5 0.0000 0.0000 0.0000 0.0000 -6.9284 0.0000
# 6 0.0000 0.0000 0.0000 0.0000 0.0000 11.1760
#
#
#
# Elastic Compliance Matrix: (Units=1/GPa)
#
#
# Indices 1 2 3 4 5 6 
#
# 1 0.010495 -0.005556 -0.003056 0.000000 0.000000 0.000000
# 2 -0.005556 0.016815 -0.001198 0.000000 0.000000 0.000000
# 3 -0.003056 -0.001198 0.006175 0.000000 0.000000 0.000000
# 4 0.000000 0.000000 0.000000 0.002675 0.000000 0.000000
# 5 0.000000 0.000000 0.000000 0.000000 -0.144334 0.000000
# 6 0.000000 0.000000 0.000000 0.000000 0.000000 0.089478
#
#
# Mechanical properties :
#
#
# Convention : Reuss Voigt Hill
#
# Bulk Modulus (GPa) = 72.12054 89.77725 80.94889
# Shear Modulus (GPa) = 901.49861 92.89461 497.19661
#
# Velocity S-wave (km/s) = 20.56611 6.60184 15.27333
# Velocity P-wave (km/s) = 24.44976 10.01170 18.68187
#
# Compressibility (1/GPa) = 0.01386568
#
# Stress axis : x y z
#
# Youngs Moduli (GPa) = 95.28228 59.47056 161.93223
#
# Poissons Ratio (x) = 0.33043 0.49485
# Poissons Ratio (y) = 0.52941 0.19397
# Poissons Ratio (z) = 0.29118 0.07124
#
# Static dielectric constant tensor:
#      x y z
#    x -0.382820 0.000000 0.000000 
#    y 0.000000 1.796560 0.000000 
#    z 0.000000 0.000000 1.690550 
# 
# From -- ./inp_files/530.got.cif
#   From: 2010.05.17/outbox.cif.g08.bks.cpg/sg16_1_cif.got.tgz:530.got - 2010.06.03 22:28:35.
