data_PCOD9310558
_publ_section_title
;
Structure prediction by ZEFSAII (Michael W. Deem and Ramdas Pophale) SiO2 
 PCOD9310558
Probable space group: P 2 2 21
;
_chemical_formula_sum "Si O2"
_cell_formula_units_Z 22
_cell_length_a 8.464940
_cell_length_b 14.730010
_cell_length_c 9.082204
_cell_angle_alpha 90.000000
_cell_angle_beta 90.000000
_cell_angle_gamma 90.000000
_cell_volume 1132.447763
_symmetry_space_group_name_H-M "P 2 2 21"
_symmetry_group_IT_number 17
_symmetry_cell_setting 'orthorhombic'
loop_
_space_group_symop_operation_xyz
x,y,z
-x,-y,1/2+z
x,-y,-z
-x,y,1/2-z
loop_
_atom_site_type_symbol
_atom_site_label
_atom_site_fract_x
_atom_site_fract_y
_atom_site_fract_z
Si Si1 0.865238 0.069987 0.132632
Si Si2 0.180058 0.626006 0.052418
Si Si3 0.919865 0.172466 0.590932
Si Si4 0.683296 0.526993 0.729101
Si Si5 0.893871 0.500000 0.000000
Si Si6 0.644016 0.027114 0.658619
O O1 0.000000 0.044624 0.250000
O O2 0.712162 0.056206 0.239377
O O3 0.950398 0.151144 0.038214
O O4 0.840342 0.000000 0.000000
O O5 0.164921 0.732763 0.057915
O O6 0.285932 0.576466 0.175215
O O7 0.249570 0.591244 0.898105
O O8 0.008709 0.577719 0.063635
O O9 0.788929 0.093680 0.614098
O O10 0.000000 0.181565 0.750000
O O11 0.500000 0.542890 0.750000
O O12 0.784145 0.540831 0.874711
O O13 0.500000 0.070391 0.750000
O O14 0.578390 0.000000 0.500000
#
# Coordination Sequence:
#
# PCOD9310558 Si02
#       6
#     4   4   4   4   2   4
#     4  12  19  40  66  90 121 170 227 267 330 398
#     4  10  22  38  61  96 125 159 216 259 311 383
#     4  12  23  40  67  96 126 169 221 280 329 389
#     4  10  20  39  65  88 129 173 202 248 321 394
#     4  10  18  38  62  90 122 164 204 254 306 380
#     4  12  25  43  66  93 128 170 222 278 337 401
#
# _framework density 19.426946000000001
#
# number of rings (size 3 to 8) (size 9 to 14) (size 15 to 20)
#    0.000    1.091    5.455    4.909    0.000    2.182 
#    0.000    2.727    0.000    0.000    0.000    0.000 
#    0.000    0.000    0.000    0.000    0.000    0.000 
#
# Total GULP energy -122535.571291 kJ/mol
# GULP energy per Si atom -5569.798695 kJ/mol
# Density = 1.938273 g / cm^3
# Si number density = 19.426946 Si / 1000 Ang^3
#
#
#
# Elastic Constant Matrix: (Units=GPa)
#
#
# Indices 1 2 3 4 5 6 
#
# 1 87.8556 7.6974 33.4878 0.0000 0.0000 0.0000
# 2 7.6974 84.5998 12.1013 0.0000 0.0000 0.0000
# 3 33.4878 12.1013 117.1060 0.0000 0.0000 0.0000
# 4 0.0000 0.0000 0.0000 11.1700 0.0000 0.0000
# 5 0.0000 0.0000 0.0000 0.0000 200.1238 0.0000
# 6 0.0000 0.0000 0.0000 0.0000 0.0000 4.5943
#
#
#
# Elastic Compliance Matrix: (Units=1/GPa)
#
#
# Indices 1 2 3 4 5 6 
#
# 1 0.012810 -0.000651 -0.003596 0.000000 0.000000 0.000000
# 2 -0.000651 0.012031 -0.001057 0.000000 0.000000 0.000000
# 3 -0.003596 -0.001057 0.009677 0.000000 0.000000 0.000000
# 4 0.000000 0.000000 0.000000 0.089526 0.000000 0.000000
# 5 0.000000 0.000000 0.000000 0.000000 0.004997 0.000000
# 6 0.000000 0.000000 0.000000 0.000000 0.000000 0.217660
#
#
# Mechanical properties :
#
#
# Convention : Reuss Voigt Hill
#
# Bulk Modulus (GPa) = 41.82443 44.01493 42.91968
# Shear Modulus (GPa) = 13.68821 58.92928 36.30875
#
# Velocity S-wave (km/s) = 2.65731 5.51359 4.32787
# Velocity P-wave (km/s) = 5.56694 7.95227 6.86402
#
# Compressibility (1/GPa) = 0.02390947
#
# Stress axis : x y z
#
# Youngs Moduli (GPa) = 78.06396 83.11999 103.34013
#
# Poissons Ratio (x) = 0.05413 0.37160
# Poissons Ratio (y) = 0.05083 0.10923
# Poissons Ratio (z) = 0.28071 0.08786
#
# Static dielectric constant tensor:
#      x y z
#    x 1.697640 0.000000 0.000000 
#    y 0.000000 1.685640 0.000000 
#    z 0.000000 0.000000 1.745970 
# 
# From -- ./inp_files/4212.got.cif
#   From: 2010.05.17/outbox.cif.g08.bks.cpg/sg17_3_cif.got.tgz:4212.got - 2010.06.03 22:34:06.
