data_PCOD9310752
_publ_section_title
;
Structure prediction by ZEFSAII (Michael W. Deem and Ramdas Pophale) SiO2 
 PCOD9310752
Probable space group: P 2 2 21
;
_chemical_formula_sum "Si O2"
_cell_formula_units_Z 24
_cell_length_a 9.634087
_cell_length_b 13.777649
_cell_length_c 9.557693
_cell_angle_alpha 90.000000
_cell_angle_beta 90.000000
_cell_angle_gamma 90.000000
_cell_volume 1268.641041
_symmetry_space_group_name_H-M "P 2 2 21"
_symmetry_group_IT_number 17
_symmetry_cell_setting 'orthorhombic'
loop_
_space_group_symop_operation_xyz
x,y,z
-x,-y,1/2+z
x,-y,-z
-x,y,1/2-z
loop_
_atom_site_type_symbol
_atom_site_label
_atom_site_fract_x
_atom_site_fract_y
_atom_site_fract_z
Si Si1 0.347249 0.792277 0.690316
Si Si2 0.838444 0.263532 0.753459
Si Si3 0.136712 0.113535 0.508128
Si Si4 0.725936 0.611671 0.003535
Si Si5 0.033271 0.430282 0.105518
Si Si6 0.143203 0.772784 0.934579
O O1 0.500000 0.806480 0.750000
O O2 0.277355 0.861600 0.574868
O O3 0.337594 0.686421 0.610788
O O4 0.251214 0.813316 0.825334
O O5 0.740307 0.335806 0.844087
O O6 0.801753 0.244083 0.592224
O O7 0.000000 0.298388 0.750000
O O8 0.844863 0.162569 0.839781
O O9 0.002397 0.169721 0.444315
O O10 0.109555 0.000000 0.500000
O O11 0.670357 0.500000 0.000000
O O12 0.887748 0.600281 0.961843
O O13 0.114193 0.332853 0.129903
O O14 0.000000 0.481185 0.250000
O O15 0.110752 0.500000 0.000000
#
# Coordination Sequence:
#
# PCOD9310752 Si02
#       6
#     4   4   4   4   4   4
#     4  11  23  42  60  83 123 167 201 237 291 360
#     4   9  18  33  53  86 115 142 184 248 309 351
#     4  10  21  40  63  88 115 146 192 251 311 358
#     4  10  20  34  55  81 122 158 196 246 300 343
#     4  11  20  29  53  87 118 151 195 253 303 350
#     4  11  20  36  58  89 114 149 198 248 301 355
#
# _framework density 18.917881000000001
#
# number of rings (size 3 to 8) (size 9 to 14) (size 15 to 20)
#    0.000    1.667    6.667    0.500    4.667    4.000 
#    0.000    8.333    0.000    0.000    0.000    0.000 
#    0.000    0.000    0.000    0.000    0.000    0.000 
#
# Total GULP energy -133643.979543 kJ/mol
# GULP energy per Si atom -5568.499148 kJ/mol
# Density = 1.887482 g / cm^3
# Si number density = 18.917881 Si / 1000 Ang^3
#
#
#
# Elastic Constant Matrix: (Units=GPa)
#
#
# Indices 1 2 3 4 5 6 
#
# 1 44.1562 5.4123 9.2995 0.0000 0.0000 0.0000
# 2 5.4123 109.7919 22.4987 0.0000 0.0000 0.0000
# 3 9.2995 22.4987 120.6722 0.0000 0.0000 0.0000
# 4 0.0000 0.0000 0.0000 11.3794 0.0000 0.0000
# 5 0.0000 0.0000 0.0000 0.0000 12.6005 0.0000
# 6 0.0000 0.0000 0.0000 0.0000 0.0000 -20.6301
#
#
#
# Elastic Compliance Matrix: (Units=1/GPa)
#
#
# Indices 1 2 3 4 5 6 
#
# 1 0.023089 -0.000804 -0.001629 0.000000 0.000000 0.000000
# 2 -0.000804 0.009498 -0.001709 0.000000 0.000000 0.000000
# 3 -0.001629 -0.001709 0.008731 0.000000 0.000000 0.000000
# 4 0.000000 0.000000 0.000000 0.087878 0.000000 0.000000
# 5 0.000000 0.000000 0.000000 0.000000 0.079362 0.000000
# 6 0.000000 0.000000 0.000000 0.000000 0.000000 -0.048473
#
#
# Mechanical properties :
#
#
# Convention : Reuss Voigt Hill
#
# Bulk Modulus (GPa) = 30.27305 38.78234 34.52769
# Shear Modulus (GPa) = 27.87367 16.49728 22.18547
#
# Velocity S-wave (km/s) = 3.84266 2.95625 3.42822
# Velocity P-wave (km/s) = 5.97705 5.67428 5.82763
#
# Compressibility (1/GPa) = 0.03303269
#
# Stress axis : x y z
#
# Youngs Moduli (GPa) = 43.31141 105.28561 114.53327
#
# Poissons Ratio (x) = 0.08468 0.18661
# Poissons Ratio (y) = 0.03483 0.19572
# Poissons Ratio (z) = 0.07057 0.17992
#
# Static dielectric constant tensor:
#      x y z
#    x 1.641970 0.000000 0.000000 
#    y 0.000000 1.721550 0.000000 
#    z 0.000000 0.000000 1.716050 
# 
# From -- ./inp_files/4261.got.cif
#   From: 2010.05.17/outbox.cif.g08.bks.cpg/sg17_3_cif.got.tgz:4261.got - 2010.06.03 22:34:06.
