data_PCOD9310604
_publ_section_title
;
Structure prediction by ZEFSAII (Michael W. Deem and Ramdas Pophale) SiO2 
 PCOD9310604
Probable space group: P 2 2 21
;
_chemical_formula_sum "Si O2"
_cell_formula_units_Z 24
_cell_length_a 17.530956
_cell_length_b 15.420336
_cell_length_c 5.228905
_cell_angle_alpha 90.000000
_cell_angle_beta 90.000000
_cell_angle_gamma 90.000000
_cell_volume 1413.546788
_symmetry_space_group_name_H-M "P 2 2 21"
_symmetry_group_IT_number 17
_symmetry_cell_setting 'orthorhombic'
loop_
_space_group_symop_operation_xyz
x,y,z
-x,-y,1/2+z
x,-y,-z
-x,y,1/2-z
loop_
_atom_site_type_symbol
_atom_site_label
_atom_site_fract_x
_atom_site_fract_y
_atom_site_fract_z
Si Si1 0.671746 0.500000 0.000000
Si Si2 0.831487 0.938361 0.748778
Si Si3 0.326174 0.693306 0.389233
Si Si4 0.703326 0.800226 0.598497
Si Si5 0.546790 0.104327 0.499104
Si Si6 0.500000 0.653118 0.250000
Si Si7 0.429343 0.500000 0.000000
Si Si8 0.000000 0.940088 0.750000
O O1 0.705428 0.404511 0.937705
O O2 0.622360 0.513004 0.746039
O O3 0.769983 0.864198 0.693271
O O4 0.916719 0.896928 0.767865
O O5 0.829669 0.000000 0.500000
O O6 0.817994 0.000000 0.000000
O O7 0.317939 0.743422 0.655031
O O8 0.417337 0.693437 0.315932
O O9 0.283668 0.740236 0.151827
O O10 0.630828 0.858160 0.517458
O O11 0.500000 0.132783 0.250000
O O12 0.551117 0.000000 0.500000
O O13 0.500000 0.130663 0.750000
O O14 0.520992 0.585740 0.472602
O O15 0.996970 0.000000 0.500000
#
# Coordination Sequence:
#
# PCOD9310604 Si02
#       8
#     2   4   4   4   4   2   2   2
#     4  10  21  40  48  70  96 134 173 224 283 334
#     4  10  20  37  60  82 114 141 170 211 265 330
#     4  11  24  34  53  70 102 135 179 227 275 321
#     4  12  24  35  51  80 102 136 178 226 266 310
#     4  10  22  38  51  64  91 134 181 218 252 292
#     4  10  20  34  48  68  90 126 172 228 268 314
#     4  10  19  32  54  66  84 118 177 226 289 332
#     4   8  16  32  58  88 106 138 168 196 256 334
#
# _framework density 16.978567000000002
#
# number of rings (size 3 to 8) (size 9 to 14) (size 15 to 20)
#    0.000    1.667    0.000    6.500    3.500    4.667 
#    0.000    0.000    0.000    0.000    0.000    0.000 
#    0.000    2.667    0.000    2.167    0.000    0.000 
#
# Total GULP energy -133724.909802 kJ/mol
# GULP energy per Si atom -5571.871242 kJ/mol
# Density = 1.693992 g / cm^3
# Si number density = 16.978567 Si / 1000 Ang^3
#
#
#
# Elastic Constant Matrix: (Units=GPa)
#
#
# Indices 1 2 3 4 5 6 
#
# 1 96.9463 50.4737 28.5251 0.0000 0.0000 0.0000
# 2 50.4737 79.6453 33.4912 0.0000 0.0000 0.0000
# 3 28.5251 33.4912 142.2635 0.0000 0.0000 0.0000
# 4 0.0000 0.0000 0.0000 24.4778 0.0000 0.0000
# 5 0.0000 0.0000 0.0000 0.0000 17.3989 0.0000
# 6 0.0000 0.0000 0.0000 0.0000 0.0000 3.8414
#
#
#
# Elastic Compliance Matrix: (Units=1/GPa)
#
#
# Indices 1 2 3 4 5 6 
#
# 1 0.015493 -0.009448 -0.000882 0.000000 0.000000 0.000000
# 2 -0.009448 0.019696 -0.002742 0.000000 0.000000 0.000000
# 3 -0.000882 -0.002742 0.007852 0.000000 0.000000 0.000000
# 4 0.000000 0.000000 0.000000 0.040853 0.000000 0.000000
# 5 0.000000 0.000000 0.000000 0.000000 0.057475 0.000000
# 6 0.000000 0.000000 0.000000 0.000000 0.000000 0.260322
#
#
# Mechanical properties :
#
#
# Convention : Reuss Voigt Hill
#
# Bulk Modulus (GPa) = 59.18458 60.42612 59.80535
# Shear Modulus (GPa) = 11.53487 22.90130 17.21809
#
# Velocity S-wave (km/s) = 2.60932 3.67663 3.18796
# Velocity P-wave (km/s) = 6.63416 7.32738 6.98937
#
# Compressibility (1/GPa) = 0.01689629
#
# Stress axis : x y z
#
# Youngs Moduli (GPa) = 64.54383 50.77152 127.35974
#
# Poissons Ratio (x) = 0.47967 0.11239
# Poissons Ratio (y) = 0.60978 0.34928
# Poissons Ratio (z) = 0.05696 0.13924
#
# Static dielectric constant tensor:
#      x y z
#    x 1.587150 0.000000 0.000000 
#    y 0.000000 1.630300 0.000000 
#    z 0.000000 0.000000 1.637130 
# 
# From -- ./inp_files/2244.got.cif
#   From: 2010.05.17/outbox.cif.g08.bks.cpg/sg17_2_cif.got.tgz:2244.got - 2010.06.03 22:34:06.
