data_PCOD9310706
_publ_section_title
;
Structure prediction by ZEFSAII (Michael W. Deem and Ramdas Pophale) SiO2 
 PCOD9310706
Probable space group: P 2 2 21
;
_chemical_formula_sum "Si O2"
_cell_formula_units_Z 24
_cell_length_a 7.940195
_cell_length_b 12.468159
_cell_length_c 11.503871
_cell_angle_alpha 90.000000
_cell_angle_beta 90.000000
_cell_angle_gamma 90.000000
_cell_volume 1138.878786
_symmetry_space_group_name_H-M "P 2 2 21"
_symmetry_group_IT_number 17
_symmetry_cell_setting 'orthorhombic'
loop_
_space_group_symop_operation_xyz
x,y,z
-x,-y,1/2+z
x,-y,-z
-x,y,1/2-z
loop_
_atom_site_type_symbol
_atom_site_label
_atom_site_fract_x
_atom_site_fract_y
_atom_site_fract_z
Si Si1 0.000000 0.046463 0.250000
Si Si2 0.986818 0.733626 0.489430
Si Si3 0.707132 0.147229 0.369191
Si Si4 0.798616 0.441274 0.118376
Si Si5 0.000000 0.616001 0.250000
Si Si6 0.500000 0.967173 0.250000
Si Si7 0.500000 0.322411 0.250000
Si Si8 0.786693 0.087401 0.910316
O O1 0.158777 0.122039 0.232555
O O2 0.046756 0.968540 0.355313
O O3 0.047739 0.639964 0.579328
O O4 0.153328 0.805759 0.471617
O O5 0.835102 0.811774 0.530888
O O6 0.947042 0.684861 0.362482
O O7 0.589240 0.042107 0.349547
O O8 0.588311 0.245845 0.343427
O O9 0.859758 0.535570 0.202483
O O10 0.646250 0.384499 0.183412
O O11 0.744063 0.500000 0.000000
O O12 0.352207 0.900210 0.310583
O O13 0.720877 0.000000 0.000000
#
# Coordination Sequence:
#
# PCOD9310706 Si02
#       8
#     2   4   4   4   2   2   2   4
#     4  10  19  39  60  88 128 170 217 255 298 374
#     4  11  22  42  68  95 121 173 221 263 317 389
#     4  10  20  36  64  92 122 168 212 253 312 392
#     4  10  23  41  63  88 123 161 209 272 330 381
#     4  10  23  45  66  90 122 158 221 281 318 372
#     4   9  24  42  57  96 144 172 209 264 323 376
#     4  11  22  36  61  96 122 156 211 262 333 390
#     4  11  22  41  63  94 136 175 217 263 317 387
#
# _framework density 21.073357000000001
#
# number of rings (size 3 to 8) (size 9 to 14) (size 15 to 20)
#    0.000    1.667    1.667    2.500    4.667    1.333 
#    9.000    3.333    0.000    0.000    0.000    0.000 
#    0.000    0.000    0.000    0.000    0.000    0.000 
#
# Total GULP energy -133797.948837 kJ/mol
# GULP energy per Si atom -5574.914535 kJ/mol
# Density = 2.102539 g / cm^3
# Si number density = 21.073357 Si / 1000 Ang^3
#
#
#
# Elastic Constant Matrix: (Units=GPa)
#
#
# Indices 1 2 3 4 5 6 
#
# 1 78.5595 12.9468 26.9812 0.0000 0.0000 0.0000
# 2 12.9468 52.1752 19.3627 0.0000 0.0000 0.0000
# 3 26.9812 19.3627 68.2615 0.0000 0.0000 0.0000
# 4 0.0000 0.0000 0.0000 23.9501 0.0000 0.0000
# 5 0.0000 0.0000 0.0000 0.0000 46.5738 0.0000
# 6 0.0000 0.0000 0.0000 0.0000 0.0000 -4.5331
#
#
#
# Elastic Compliance Matrix: (Units=1/GPa)
#
#
# Indices 1 2 3 4 5 6 
#
# 1 0.014860 -0.001685 -0.005396 0.000000 0.000000 0.000000
# 2 -0.001685 0.021612 -0.005464 0.000000 0.000000 0.000000
# 3 -0.005396 -0.005464 0.018332 0.000000 0.000000 0.000000
# 4 0.000000 0.000000 0.000000 0.041753 0.000000 0.000000
# 5 0.000000 0.000000 0.000000 0.000000 0.021471 0.000000
# 6 0.000000 0.000000 0.000000 0.000000 0.000000 -0.220601
#
#
# Mechanical properties :
#
#
# Convention : Reuss Voigt Hill
#
# Bulk Modulus (GPa) = 33.65373 35.28640 34.47006
# Shear Modulus (GPa) = -73.99024 22.51188 -25.73918
#
# Velocity S-wave (km/s) = -5.93187 3.27197 -3.49866
# Velocity P-wave (km/s) = 5.55982 5.57273 0.26811
#
# Compressibility (1/GPa) = 0.02971439
#
# Stress axis : x y z
#
# Youngs Moduli (GPa) = 67.29462 46.27020 54.54869
#
# Poissons Ratio (x) = 0.07797 0.29433
# Poissons Ratio (y) = 0.11339 0.29807
# Poissons Ratio (z) = 0.36310 0.25284
#
# Static dielectric constant tensor:
#      x y z
#    x 1.778890 0.000000 0.000000 
#    y 0.000000 1.780990 0.000000 
#    z 0.000000 0.000000 1.822660 
# 
# From -- ./inp_files/6629.got.cif
#   From: 2010.05.17/outbox.cif.g08.bks.cpg/sg17_4_cif.got.tgz:6629.got - 2010.06.03 22:34:06.
