data_PCOD9310074
_publ_section_title
;
Structure prediction by ZEFSAII (Michael W. Deem and Ramdas Pophale) SiO2 
 PCOD9310074
Probable space group: P 2 2 2
;
_chemical_formula_sum "Si O2"
_cell_formula_units_Z 29
_cell_length_a 11.287159
_cell_length_b 12.398887
_cell_length_c 10.912529
_cell_angle_alpha 90.000000
_cell_angle_beta 90.000000
_cell_angle_gamma 90.000000
_cell_volume 1527.188889
_symmetry_space_group_name_H-M "P 2 2 2"
_symmetry_group_IT_number 16
_symmetry_cell_setting 'orthorhombic'
loop_
_space_group_symop_operation_xyz
x,y,z
-x,-y,z
x,-y,-z
-x,y,-z
loop_
_atom_site_type_symbol
_atom_site_label
_atom_site_fract_x
_atom_site_fract_y
_atom_site_fract_z
Si Si1 0.135561 0.888004 0.540693
Si Si2 0.931880 0.384700 0.220243
Si Si3 0.717931 0.340713 0.722909
Si Si4 0.000000 0.000000 0.000000
Si Si5 0.463596 0.623321 0.321830
Si Si6 0.778780 0.329980 0.455372
Si Si7 0.108575 0.818615 0.818026
Si Si8 0.305729 0.556714 0.123706
O O1 0.203305 0.796666 0.467625
O O2 0.128155 0.873868 0.685846
O O3 0.000000 0.881464 0.500000
O O4 0.187924 0.000000 0.500000
O O5 0.872085 0.374006 0.355715
O O6 0.821577 0.385952 0.124940
O O7 0.000000 0.500000 0.209402
O O8 0.009788 0.277604 0.192862
O O9 0.585400 0.310693 0.678885
O O10 0.793703 0.361325 0.598350
O O11 0.772353 0.255520 0.818775
O O12 0.712185 0.455748 0.785925
O O13 0.925738 0.086284 0.914094
O O14 0.500000 0.500000 0.348310
O O15 0.353908 0.647305 0.409999
O O16 0.407011 0.627577 0.185833
O O17 0.341152 0.500000 0.000000
#
# Coordination Sequence:
#
# PCOD9310074 Si02
#       8
#     4   4   4   1   4   4   4   4
#     4  10  19  37  61  86 126 159 207 259 307 365
#     4  11  22  38  59  94 132 159 197 250 317 386
#     4  10  21  38  58  89 125 160 205 249 305 369
#     4  12  28  44  68  84 122 164 228 256 308 374
#     4   9  20  37  58  89 126 165 206 245 304 379
#     4  10  21  36  59  94 125 167 197 248 314 378
#     4  11  24  41  60  94 118 168 205 258 313 363
#     4  10  22  37  58  83 121 172 206 248 297 366
#
# _framework density 18.989135999999998
#
# number of rings (size 3 to 8) (size 9 to 14) (size 15 to 20)
#    0.000    1.793    2.759    1.241    1.931    9.379 
#    4.966    0.000    0.000    6.621    0.000    3.862 
#    0.000    0.000    0.000    0.000    0.000    0.000 
#
# Total GULP energy -161511.472091 kJ/mol
# GULP energy per Si atom -5569.361107 kJ/mol
# Density = 1.894592 g / cm^3
# Si number density = 18.989136 Si / 1000 Ang^3
#
#
#
# Elastic Constant Matrix: (Units=GPa)
#
#
# Indices 1 2 3 4 5 6 
#
# 1 84.0380 38.0138 16.9689 0.0000 0.0000 0.0000
# 2 38.0138 103.5628 24.2496 0.0000 0.0000 0.0000
# 3 16.9689 24.2496 55.7834 0.0000 0.0000 0.0000
# 4 0.0000 0.0000 0.0000 28.8247 0.0000 0.0000
# 5 0.0000 0.0000 0.0000 0.0000 5.2233 0.0000
# 6 0.0000 0.0000 0.0000 0.0000 0.0000 19.9692
#
#
#
# Elastic Compliance Matrix: (Units=1/GPa)
#
#
# Indices 1 2 3 4 5 6 
#
# 1 0.014538 -0.004788 -0.002341 0.000000 0.000000 0.000000
# 2 -0.004788 0.012327 -0.003902 0.000000 0.000000 0.000000
# 3 -0.002341 -0.003902 0.020335 0.000000 0.000000 0.000000
# 4 0.000000 0.000000 0.000000 0.034692 0.000000 0.000000
# 5 0.000000 0.000000 0.000000 0.000000 0.191451 0.000000
# 6 0.000000 0.000000 0.000000 0.000000 0.000000 0.050077
#
#
# Mechanical properties :
#
#
# Convention : Reuss Voigt Hill
#
# Bulk Modulus (GPa) = 39.78122 44.64988 42.21555
# Shear Modulus (GPa) = 14.12979 21.74691 17.93835
#
# Velocity S-wave (km/s) = 2.73078 3.38779 3.07687
# Velocity P-wave (km/s) = 5.56218 6.23436 5.90784
#
# Compressibility (1/GPa) = 0.02513749
#
# Stress axis : x y z
#
# Youngs Moduli (GPa) = 68.78559 81.12114 49.17657
#
# Poissons Ratio (x) = 0.38842 0.11512
# Poissons Ratio (y) = 0.32936 0.19190
# Poissons Ratio (z) = 0.16102 0.31655
#
# Static dielectric constant tensor:
#      x y z
#    x 1.762920 0.000000 0.000000 
#    y 0.000000 1.697940 0.000000 
#    z 0.000000 0.000000 1.738180 
# 
# From -- ./inp_files/6911.got.cif
#   From: 2010.05.17/outbox.cif.g08.bks.cpg/sg16_4_cif.got.tgz:6911.got - 2010.06.03 22:28:35.
