data_PCOD9310535
_publ_section_title
;
Structure prediction by ZEFSAII (Michael W. Deem and Ramdas Pophale) SiO2 
 PCOD9310535
Probable space group: P 2 2 21
;
_chemical_formula_sum "Si O2"
_cell_formula_units_Z 24
_cell_length_a 10.451589
_cell_length_b 12.325030
_cell_length_c 7.865736
_cell_angle_alpha 90.000000
_cell_angle_beta 90.000000
_cell_angle_gamma 90.000000
_cell_volume 1013.233812
_symmetry_space_group_name_H-M "P 2 2 21"
_symmetry_group_IT_number 17
_symmetry_cell_setting 'orthorhombic'
loop_
_space_group_symop_operation_xyz
x,y,z
-x,-y,1/2+z
x,-y,-z
-x,y,1/2-z
loop_
_atom_site_type_symbol
_atom_site_label
_atom_site_fract_x
_atom_site_fract_y
_atom_site_fract_z
Si Si1 0.708113 0.355687 0.152786
Si Si2 0.650254 0.013609 0.704218
Si Si3 0.146370 0.166717 0.222976
Si Si4 0.759559 0.762792 0.346499
Si Si5 0.544423 0.369301 0.491400
Si Si6 0.139589 0.461926 0.803517
O O1 0.824168 0.272664 0.163727
O O2 0.619256 0.336788 0.319322
O O3 0.604187 0.339553 0.008234
O O4 0.761369 0.475024 0.184981
O O5 0.500000 0.007293 0.750000
O O6 0.717684 0.128016 0.747579
O O7 0.653301 0.000000 0.500000
O O8 0.743742 0.919672 0.771977
O O9 0.000000 0.130597 0.250000
O O10 0.174532 0.199654 0.025896
O O11 0.628285 0.696239 0.377076
O O12 0.848292 0.666615 0.277985
O O13 0.549416 0.500000 0.500000
O O14 0.000000 0.498715 0.750000
O O15 0.161784 0.500000 0.000000
#
# Coordination Sequence:
#
# PCOD9310535 Si02
#       6
#     4   4   4   4   4   4
#     4  10  20  33  61  90 119 166 204 252 301 377
#     4  10  24  43  68  94 123 163 209 265 319 370
#     4  10  21  40  65  86 125 168 215 252 308 378
#     4  10  21  41  62  89 127 164 202 268 319 365
#     4  10  18  34  59  90 126 158 204 248 317 368
#     4  12  23  41  62  89 130 168 207 254 310 379
#
# _framework density 23.686536
#
# number of rings (size 3 to 8) (size 9 to 14) (size 15 to 20)
#    0.000    1.667    5.000    0.500    7.000    2.667 
#    0.000    4.167    0.000    0.000    0.000    0.000 
#    0.000    0.000    0.000    0.000    0.000    0.000 
#
# Total GULP energy -134082.360958 kJ/mol
# GULP energy per Si atom -5586.765040 kJ/mol
# Density = 2.363262 g / cm^3
# Si number density = 23.686536 Si / 1000 Ang^3
#
#
#
# Elastic Constant Matrix: (Units=GPa)
#
#
# Indices 1 2 3 4 5 6 
#
# 1 155.5845 28.8937 22.1540 0.0000 0.0000 0.0000
# 2 28.8937 131.0473 5.2176 0.0000 0.0000 0.0000
# 3 22.1540 5.2176 64.8441 0.0000 0.0000 0.0000
# 4 0.0000 0.0000 0.0000 6.3262 0.0000 0.0000
# 5 0.0000 0.0000 0.0000 0.0000 23.3162 0.0000
# 6 0.0000 0.0000 0.0000 0.0000 0.0000 -78.6602
#
#
#
# Elastic Compliance Matrix: (Units=1/GPa)
#
#
# Indices 1 2 3 4 5 6 
#
# 1 0.007023 -0.001458 -0.002282 0.000000 0.000000 0.000000
# 2 -0.001458 0.007958 -0.000142 0.000000 0.000000 0.000000
# 3 -0.002282 -0.000142 0.016213 0.000000 0.000000 0.000000
# 4 0.000000 0.000000 0.000000 0.158072 0.000000 0.000000
# 5 0.000000 0.000000 0.000000 0.000000 0.042889 0.000000
# 6 0.000000 0.000000 0.000000 0.000000 0.000000 -0.012713
#
#
# Mechanical properties :
#
#
# Convention : Reuss Voigt Hill
#
# Bulk Modulus (GPa) = 42.68120 51.55628 47.11874
# Shear Modulus (GPa) = 21.27524 9.87716 15.57620
#
# Velocity S-wave (km/s) = 3.00025 2.04426 2.56715
# Velocity P-wave (km/s) = 5.48273 5.23310 5.35937
#
# Compressibility (1/GPa) = 0.02342952
#
# Stress axis : x y z
#
# Youngs Moduli (GPa) = 142.38880 125.66167 61.67986
#
# Poissons Ratio (x) = 0.18316 0.14076
# Poissons Ratio (y) = 0.20754 0.00878
# Poissons Ratio (z) = 0.32495 0.01789
#
# Static dielectric constant tensor:
#      x y z
#    x 1.860860 0.000000 0.000000 
#    y 0.000000 1.912380 0.000000 
#    z 0.000000 0.000000 1.986700 
# 
# From -- ./inp_files/6559.got.cif
#   From: 2010.05.17/outbox.cif.g08.bks.cpg/sg17_4_cif.got.tgz:6559.got - 2010.06.03 22:34:06.
