data_PCOD9310088
_publ_section_title
;
Structure prediction by ZEFSAII (Michael W. Deem and Ramdas Pophale) SiO2 
 PCOD9310088
Probable space group: P 2 2 2
;
_chemical_formula_sum "Si O2"
_cell_formula_units_Z 30
_cell_length_a 14.567190
_cell_length_b 10.797891
_cell_length_c 8.555865
_cell_angle_alpha 90.000000
_cell_angle_beta 90.000000
_cell_angle_gamma 90.000000
_cell_volume 1345.794185
_symmetry_space_group_name_H-M "P 2 2 2"
_symmetry_group_IT_number 16
_symmetry_cell_setting 'orthorhombic'
loop_
_space_group_symop_operation_xyz
x,y,z
-x,-y,z
x,-y,-z
-x,y,-z
loop_
_atom_site_type_symbol
_atom_site_label
_atom_site_fract_x
_atom_site_fract_y
_atom_site_fract_z
Si Si1 0.153722 0.729974 0.720604
Si Si2 0.655938 0.734723 0.200849
Si Si3 0.360682 0.438290 0.763181
Si Si4 0.500000 0.303719 0.000000
Si Si5 0.605353 0.773475 0.537193
Si Si6 0.786162 0.130019 0.414899
Si Si7 0.037497 0.232528 0.680730
Si Si8 0.851690 0.542099 0.821556
O O1 0.238001 0.751609 0.840222
O O2 0.186452 0.767864 0.546954
O O3 0.140210 0.582723 0.720810
O O4 0.059097 0.795587 0.764332
O O5 0.636568 0.587365 0.230280
O O6 0.574569 0.776284 0.091139
O O7 0.644465 0.796864 0.366333
O O8 0.386917 0.366951 0.603600
O O9 0.254316 0.411174 0.806952
O O10 0.434567 0.383796 0.885534
O O11 0.500000 0.804431 0.500000
O O12 0.682291 0.842702 0.643734
O O13 0.876795 0.138692 0.307744
O O14 0.786079 0.000000 0.500000
O O15 0.079071 0.357363 0.754152
O O16 0.000000 0.244092 0.500000
O O17 0.868992 0.500000 0.000000
#
# Coordination Sequence:
#
# PCOD9310088 Si02
#       8
#     4   4   4   2   4   4   4   4
#     4   9  21  35  56  89 123 158 203 258 310 371
#     4  10  20  32  49  82 124 163 201 247 309 376
#     4  11  20  33  53  84 125 166 207 245 302 379
#     4  12  21  32  52  80 125 176 211 242 300 393
#     4  11  21  35  56  87 116 158 206 271 319 373
#     4  10  22  41  63  88 119 164 218 271 325 374
#     4  10  21  38  61  92 127 166 209 263 317 382
#     4  11  22  38  60  94 137 172 202 245 320 402
#
# _framework density 22.291672999999999
#
# number of rings (size 3 to 8) (size 9 to 14) (size 15 to 20)
#    0.000    1.600    2.667    3.600    0.000    8.000 
#    0.000    0.000    0.000    0.800    0.000    7.467 
#    0.000    0.000    0.000    0.000    0.000    0.000 
#
# Total GULP energy -167050.673293 kJ/mol
# GULP energy per Si atom -5568.355776 kJ/mol
# Density = 2.224094 g / cm^3
# Si number density = 22.291673 Si / 1000 Ang^3
#
#
#
# Elastic Constant Matrix: (Units=GPa)
#
#
# Indices 1 2 3 4 5 6 
#
# 1 242.4755 10.0158 13.6499 0.0000 0.0000 0.0000
# 2 10.0158 36.0140 3.8679 0.0000 0.0000 0.0000
# 3 13.6499 3.8679 33.1084 0.0000 0.0000 0.0000
# 4 0.0000 0.0000 0.0000 6.5822 0.0000 0.0000
# 5 0.0000 0.0000 0.0000 0.0000 18.4770 0.0000
# 6 0.0000 0.0000 0.0000 0.0000 0.0000 -0.6372
#
#
#
# Elastic Compliance Matrix: (Units=1/GPa)
#
#
# Indices 1 2 3 4 5 6 
#
# 1 0.004258 -0.001008 -0.001638 0.000000 0.000000 0.000000
# 2 -0.001008 0.028359 -0.002897 0.000000 0.000000 0.000000
# 3 -0.001638 -0.002897 0.031218 0.000000 0.000000 0.000000
# 4 0.000000 0.000000 0.000000 0.151926 0.000000 0.000000
# 5 0.000000 0.000000 0.000000 0.000000 0.054121 0.000000
# 6 0.000000 0.000000 0.000000 0.000000 0.000000 -1.569348
#
#
# Mechanical properties :
#
#
# Convention : Reuss Voigt Hill
#
# Bulk Modulus (GPa) = 18.95824 40.74056 29.84940
# Shear Modulus (GPa) = -3.93454 23.82201 9.94373
#
# Velocity S-wave (km/s) = -1.32998 3.27257 2.11434
# Velocity P-wave (km/s) = 2.48286 5.70924 4.40227
#
# Compressibility (1/GPa) = 0.05274751
#
# Stress axis : x y z
#
# Youngs Moduli (GPa) = 234.85385 35.26267 32.03331
#
# Poissons Ratio (x) = 0.03556 0.05246
# Poissons Ratio (y) = 0.23680 0.09281
# Poissons Ratio (z) = 0.38461 0.10217
#
# Static dielectric constant tensor:
#      x y z
#    x 2.038180 0.000000 0.000000 
#    y 0.000000 1.797310 0.000000 
#    z 0.000000 0.000000 1.911230 
# 
# From -- ./inp_files/5192.got.cif
#   From: 2010.05.17/outbox.cif.g08.bks.cpg/sg16_3_cif.got.tgz:5192.got - 2010.06.03 22:28:35.
