data_PCOD9310799
_publ_section_title
;
Structure prediction by ZEFSAII (Michael W. Deem and Ramdas Pophale) SiO2 
 PCOD9310799
Probable space group: P 2 2 21
;
_chemical_formula_sum "Si O2"
_cell_formula_units_Z 32
_cell_length_a 6.750148
_cell_length_b 18.181255
_cell_length_c 14.362508
_cell_angle_alpha 90.000000
_cell_angle_beta 90.000000
_cell_angle_gamma 90.000000
_cell_volume 1762.655485
_symmetry_space_group_name_H-M "P 2 2 21"
_symmetry_group_IT_number 17
_symmetry_cell_setting 'orthorhombic'
loop_
_space_group_symop_operation_xyz
x,y,z
-x,-y,1/2+z
x,-y,-z
-x,y,1/2-z
loop_
_atom_site_type_symbol
_atom_site_label
_atom_site_fract_x
_atom_site_fract_y
_atom_site_fract_z
Si Si1 0.519847 0.091294 0.857846
Si Si2 0.610342 0.583989 0.650258
Si Si3 0.168601 0.083496 0.999820
Si Si4 0.219580 0.826689 0.505233
Si Si5 0.661762 0.658877 0.978913
Si Si6 0.611119 0.559579 0.153190
Si Si7 0.036801 0.538164 0.599570
Si Si8 0.523960 0.079598 0.142343
O O1 0.500000 0.109961 0.750000
O O2 0.586910 0.005997 0.866076
O O3 0.309095 0.093365 0.910138
O O4 0.668566 0.143025 0.913680
O O5 0.500000 0.593732 0.750000
O O6 0.537685 0.648314 0.582020
O O7 0.521736 0.506838 0.612372
O O8 0.844448 0.570283 0.650917
O O9 0.317423 0.087541 0.087278
O O10 0.004280 0.145617 0.001792
O O11 0.083840 0.000000 0.000000
O O12 0.257069 0.740668 0.515692
O O13 0.321315 0.868690 0.591256
O O14 0.820220 0.605621 0.928408
O O15 0.623360 0.625955 0.081331
O O16 0.500000 0.577953 0.250000
O O17 0.829357 0.521259 0.156435
O O18 0.982268 0.500000 0.500000
O O19 0.500000 0.097151 0.250000
#
# Coordination Sequence:
#
# PCOD9310799 Si02
#       8
#     4   4   4   4   4   4   4   4
#     4   9  19  36  58  80 104 139 185 234 276 319
#     4  10  20  36  60  81 103 138 184 231 270 314
#     4   9  18  34  56  80 106 140 182 229 278 324
#     4  11  21  34  53  79 113 148 181 220 269 329
#     4  10  22  35  51  80 113 146 178 215 272 331
#     4   9  19  35  57  82 105 135 180 226 269 316
#     4   9  18  36  58  80 108 142 180 225 273 322
#     4   9  19  36  56  80 107 139 186 233 273 320
#
# _framework density 18.154427999999999
#
# number of rings (size 3 to 8) (size 9 to 14) (size 15 to 20)
#    0.000    2.500    0.000    3.750    0.000    8.500 
#    0.000    5.000    0.000    7.500    0.000    0.000 
#    0.000    0.000    0.000    0.000    0.000    0.000 
#
# Total GULP energy -178439.177623 kJ/mol
# GULP energy per Si atom -5576.224301 kJ/mol
# Density = 1.811311 g / cm^3
# Si number density = 18.154428 Si / 1000 Ang^3
#
#
#
# Elastic Constant Matrix: (Units=GPa)
#
#
# Indices 1 2 3 4 5 6 
#
# 1 89.2672 25.4984 50.5599 0.0000 0.0000 0.0000
# 2 25.4984 71.4780 51.0500 0.0000 0.0000 0.0000
# 3 50.5599 51.0500 134.7709 0.0000 0.0000 0.0000
# 4 0.0000 0.0000 0.0000 16.6117 0.0000 0.0000
# 5 0.0000 0.0000 0.0000 0.0000 11.3059 0.0000
# 6 0.0000 0.0000 0.0000 0.0000 0.0000 39.7787
#
#
#
# Elastic Compliance Matrix: (Units=1/GPa)
#
#
# Indices 1 2 3 4 5 6 
#
# 1 0.014383 -0.001751 -0.004733 0.000000 0.000000 0.000000
# 2 -0.001751 0.019392 -0.006689 0.000000 0.000000 0.000000
# 3 -0.004733 -0.006689 0.011729 0.000000 0.000000 0.000000
# 4 0.000000 0.000000 0.000000 0.060198 0.000000 0.000000
# 5 0.000000 0.000000 0.000000 0.000000 0.088450 0.000000
# 6 0.000000 0.000000 0.000000 0.000000 0.000000 0.025139
#
#
# Mechanical properties :
#
#
# Convention : Reuss Voigt Hill
#
# Bulk Modulus (GPa) = 52.19262 61.08140 56.63701
# Shear Modulus (GPa) = 19.83954 24.76645 22.30300
#
# Velocity S-wave (km/s) = 3.30937 3.69753 3.50882
# Velocity P-wave (km/s) = 6.58895 7.20746 6.90513
#
# Compressibility (1/GPa) = 0.01915980
#
# Stress axis : x y z
#
# Youngs Moduli (GPa) = 69.52687 51.56774 85.25811
#
# Poissons Ratio (x) = 0.09028 0.40350
# Poissons Ratio (y) = 0.12172 0.57027
# Poissons Ratio (z) = 0.32905 0.34492
#
# Static dielectric constant tensor:
#      x y z
#    x 1.640430 0.000000 0.000000 
#    y 0.000000 1.604380 0.000000 
#    z 0.000000 0.000000 1.647610 
# 
# From -- ./inp_files/7831.got.cif
#   From: 2010.05.17/outbox.cif.g08.bks.cpg/sg17_4_cif.got.tgz:7831.got - 2010.06.03 22:34:06.
