data_PCOD9310926
_publ_section_title
;
Structure prediction by ZEFSAII (Michael W. Deem and Ramdas Pophale) SiO2 
 PCOD9310926
Probable space group: P 2 2 21
;
_chemical_formula_sum "Si O2"
_cell_formula_units_Z 18
_cell_length_a 16.303745
_cell_length_b 6.261193
_cell_length_c 7.528085
_cell_angle_alpha 90.000000
_cell_angle_beta 90.000000
_cell_angle_gamma 90.000000
_cell_volume 768.473647
_symmetry_space_group_name_H-M "P 2 2 21"
_symmetry_group_IT_number 17
_symmetry_cell_setting 'orthorhombic'
loop_
_space_group_symop_operation_xyz
x,y,z
-x,-y,1/2+z
x,-y,-z
-x,y,1/2-z
loop_
_atom_site_type_symbol
_atom_site_label
_atom_site_fract_x
_atom_site_fract_y
_atom_site_fract_z
Si Si1 0.926863 0.870894 0.842467
Si Si2 0.828472 0.509939 0.782453
Si Si3 0.500000 0.345218 0.250000
Si Si4 0.651357 0.377843 0.809833
Si Si5 0.043669 0.500000 0.000000
Si Si6 0.422644 0.000000 0.500000
O O1 0.852697 0.757242 0.740942
O O2 0.000000 0.000892 0.750000
O O3 0.984703 0.683526 0.925197
O O4 0.887415 0.000000 0.000000
O O5 0.740349 0.421792 0.728689
O O6 0.898618 0.407947 0.658102
O O7 0.832537 0.500000 0.000000
O O8 0.423086 0.500479 0.214189
O O9 0.476380 0.183882 0.408218
O O10 0.630840 0.131651 0.855434
O O11 0.655159 0.500000 0.000000
#
# Coordination Sequence:
#
# PCOD9310926 Si02
#       6
#     4   4   2   4   2   2
#     4  10  22  37  63  89 122 166 214 262 324 385
#     4  10  21  41  62  88 126 170 201 270 322 371
#     4  10  20  40  64  92 134 162 214 262 322 392
#     4   9  20  40  61  92 126 165 213 258 320 388
#     4  10  22  42  56  94 124 158 222 256 320 390
#     4  10  20  40  68  96 122 170 218 252 328 404
#
# _framework density 23.423055000000002
#
# number of rings (size 3 to 8) (size 9 to 14) (size 15 to 20)
#    0.000    2.222    1.111    0.667    3.111    0.000 
#   28.000    0.000    2.444    0.000    0.000    0.000 
#    0.000    0.000    0.000    0.000    0.000    0.000 
#
# Total GULP energy -100249.533904 kJ/mol
# GULP energy per Si atom -5569.418550 kJ/mol
# Density = 2.336974 g / cm^3
# Si number density = 23.423055 Si / 1000 Ang^3
#
#
#
# Elastic Constant Matrix: (Units=GPa)
#
#
# Indices 1 2 3 4 5 6 
#
# 1 178.7080 67.6524 25.9655 0.0000 0.0000 0.0000
# 2 67.6524 103.8698 16.8102 0.0000 0.0000 0.0000
# 3 25.9655 16.8102 63.1803 0.0000 0.0000 0.0000
# 4 0.0000 0.0000 0.0000 36.7379 0.0000 0.0000
# 5 0.0000 0.0000 0.0000 0.0000 30.8267 0.0000
# 6 0.0000 0.0000 0.0000 0.0000 0.0000 13.9509
#
#
#
# Elastic Compliance Matrix: (Units=1/GPa)
#
#
# Indices 1 2 3 4 5 6 
#
# 1 0.007639 -0.004668 -0.001897 0.000000 0.000000 0.000000
# 2 -0.004668 0.012913 -0.001517 0.000000 0.000000 0.000000
# 3 -0.001897 -0.001517 0.017011 0.000000 0.000000 0.000000
# 4 0.000000 0.000000 0.000000 0.027220 0.000000 0.000000
# 5 0.000000 0.000000 0.000000 0.000000 0.032439 0.000000
# 6 0.000000 0.000000 0.000000 0.000000 0.000000 0.071680
#
#
# Mechanical properties :
#
#
# Convention : Reuss Voigt Hill
#
# Bulk Modulus (GPa) = 46.73390 62.95716 54.84553
# Shear Modulus (GPa) = 26.01453 31.99177 29.00315
#
# Velocity S-wave (km/s) = 3.33624 3.69971 3.52267
# Velocity P-wave (km/s) = 5.90221 6.72214 6.32547
#
# Compressibility (1/GPa) = 0.02139774
#
# Stress axis : x y z
#
# Youngs Moduli (GPa) = 130.91487 77.43873 58.78499
#
# Poissons Ratio (x) = 0.36149 0.11153
# Poissons Ratio (y) = 0.61112 0.08920
# Poissons Ratio (z) = 0.24837 0.11750
#
# Static dielectric constant tensor:
#      x y z
#    x 1.930620 0.000000 0.000000 
#    y 0.000000 1.928280 0.000000 
#    z 0.000000 0.000000 2.114610 
# 
# From -- ./inp_files/3440.got.cif
#   From: 2010.05.17/outbox.cif.g08.bks.cpg/sg17_2_cif.got.tgz:3440.got - 2010.06.03 22:34:06.
