data_PCOD9310007
_publ_section_title
;
Structure prediction by ZEFSAII (Michael W. Deem and Ramdas Pophale) SiO2 
 PCOD9310007
Probable space group: P 2 2 2
;
_chemical_formula_sum "Si O2"
_cell_formula_units_Z 32
_cell_length_a 15.683218
_cell_length_b 14.498685
_cell_length_c 7.992682
_cell_angle_alpha 90.000000
_cell_angle_beta 90.000000
_cell_angle_gamma 90.000000
_cell_volume 1817.424290
_symmetry_space_group_name_H-M "P 2 2 2"
_symmetry_group_IT_number 16
_symmetry_cell_setting 'orthorhombic'
loop_
_space_group_symop_operation_xyz
x,y,z
-x,-y,z
x,-y,-z
-x,y,-z
loop_
_atom_site_type_symbol
_atom_site_label
_atom_site_fract_x
_atom_site_fract_y
_atom_site_fract_z
Si Si1 0.871040 0.966758 0.315088
Si Si2 0.979375 0.803344 0.303224
Si Si3 0.174356 0.673008 0.801056
Si Si4 0.722753 0.160107 0.778656
Si Si5 0.752393 0.880955 0.824982
Si Si6 0.595848 0.990827 0.202601
Si Si7 0.851273 0.288476 0.189574
Si Si8 0.903322 0.512908 0.696422
O O1 0.945814 0.902883 0.243841
O O2 0.792306 0.894829 0.329994
O O3 0.894064 0.000000 0.500000
O O4 0.831160 0.050070 0.210238
O O5 0.904974 0.728047 0.280336
O O6 0.000000 0.809102 0.500000
O O7 0.061471 0.768371 0.206476
O O8 0.258818 0.731778 0.752880
O O9 0.160030 0.566281 0.761969
O O10 0.165437 0.686684 0.998392
O O11 0.633732 0.109176 0.749343
O O12 0.742988 0.134585 0.974642
O O13 0.667744 0.931756 0.754845
O O14 0.777324 0.781404 0.750506
O O15 0.500000 0.000000 0.267855
O O16 0.591571 0.000000 0.000000
O O17 0.867075 0.385165 0.278044
O O18 0.911083 0.500000 0.500000
O O19 0.000000 0.500000 0.769206
#
# Coordination Sequence:
#
# PCOD9310007 Si02
#       8
#     4   4   4   4   4   4   4   4
#     4  10  19  30  44  62  88 127 160 192 229 270
#     4  11  21  31  43  62  89 121 164 200 231 271
#     4  10  20  34  49  67  89 121 159 200 239 278
#     4   8  17  32  49  69  96 121 155 194 230 273
#     4   9  18  32  47  69  97 122 155 194 227 277
#     4   8  13  26  51  77 100 126 151 181 226 278
#     4  11  21  32  49  67  89 123 158 198 240 278
#     4  11  22  35  51  68  90 118 158 209 246 278
#
# _framework density 17.607336
#
# number of rings (size 3 to 8) (size 9 to 14) (size 15 to 20)
#    0.000    2.250    1.250    3.375    0.000    3.250 
#    0.000    1.250    0.000   19.500    0.000    0.875 
#    0.000    7.000    0.000    0.000    0.000    0.000 
#
# Total GULP energy -178381.677778 kJ/mol
# GULP energy per Si atom -5574.427431 kJ/mol
# Density = 1.756726 g / cm^3
# Si number density = 17.607336 Si / 1000 Ang^3
#
#
#
# Elastic Constant Matrix: (Units=GPa)
#
#
# Indices 1 2 3 4 5 6 
#
# 1 93.1430 70.0059 9.2263 0.0000 0.0000 0.0000
# 2 70.0059 149.9787 15.7506 0.0000 0.0000 0.0000
# 3 9.2263 15.7506 16.6581 0.0000 0.0000 0.0000
# 4 0.0000 0.0000 0.0000 23.1331 0.0000 0.0000
# 5 0.0000 0.0000 0.0000 0.0000 -1.9036 0.0000
# 6 0.0000 0.0000 0.0000 0.0000 0.0000 17.4805
#
#
#
# Elastic Compliance Matrix: (Units=1/GPa)
#
#
# Indices 1 2 3 4 5 6 
#
# 1 0.016602 -0.007532 -0.002074 0.000000 0.000000 0.000000
# 2 -0.007532 0.010819 -0.006059 0.000000 0.000000 0.000000
# 3 -0.002074 -0.006059 0.066908 0.000000 0.000000 0.000000
# 4 0.000000 0.000000 0.000000 0.043228 0.000000 0.000000
# 5 0.000000 0.000000 0.000000 0.000000 -0.525325 0.000000
# 6 0.000000 0.000000 0.000000 0.000000 0.000000 0.057206
#
#
# Mechanical properties :
#
#
# Convention : Reuss Voigt Hill
#
# Bulk Modulus (GPa) = 15.87262 49.97168 32.92215
# Shear Modulus (GPa) = -17.97067 18.72849 0.37891
#
# Velocity S-wave (km/s) = -3.19820 3.26494 0.46440
# Velocity P-wave (km/s) = 2.14562 6.53115 4.36189
#
# Compressibility (1/GPa) = 0.06300156
#
# Stress axis : x y z
#
# Youngs Moduli (GPa) = 60.23212 92.42589 14.94585
#
# Poissons Ratio (x) = 0.69613 0.03100
# Poissons Ratio (y) = 0.45365 0.09055
# Poissons Ratio (z) = 0.12492 0.55996
#
# Static dielectric constant tensor:
#      x y z
#    x 1.614730 0.000000 0.000000 
#    y 0.000000 1.655160 0.000000 
#    z 0.000000 0.000000 1.631120 
# 
# From -- ./inp_files/5273.got.cif
#   From: 2010.05.17/outbox.cif.g08.bks.cpg/sg16_3_cif.got.tgz:5273.got - 2010.06.03 22:28:35.
