data_PCOD9310699
_publ_section_title
;
Structure prediction by ZEFSAII (Michael W. Deem and Ramdas Pophale) SiO2 
 PCOD9310699
Probable space group: P 2 2 21
;
_chemical_formula_sum "Si O2"
_cell_formula_units_Z 16
_cell_length_a 5.351730
_cell_length_b 8.321038
_cell_length_c 15.205377
_cell_angle_alpha 90.000000
_cell_angle_beta 90.000000
_cell_angle_gamma 90.000000
_cell_volume 677.125068
_symmetry_space_group_name_H-M "P 2 2 21"
_symmetry_group_IT_number 17
_symmetry_cell_setting 'orthorhombic'
loop_
_space_group_symop_operation_xyz
x,y,z
-x,-y,1/2+z
x,-y,-z
-x,y,1/2-z
loop_
_atom_site_type_symbol
_atom_site_label
_atom_site_fract_x
_atom_site_fract_y
_atom_site_fract_z
Si Si1 0.942602 0.071837 0.401783
Si Si2 0.927466 0.445937 0.101874
Si Si3 0.552757 0.090360 0.846618
Si Si4 0.571658 0.425032 0.597044
O O1 0.666485 0.037279 0.365000
O O2 0.171163 0.980783 0.353886
O O3 0.948092 0.000000 0.500000
O O4 0.001258 0.259992 0.397210
O O5 0.658221 0.483791 0.142569
O O6 0.157185 0.549488 0.139516
O O7 0.895456 0.500000 0.000000
O O8 0.500000 0.157351 0.750000
O O9 0.506758 0.239756 0.911333
O O10 0.604368 0.500000 0.500000
#
# Coordination Sequence:
#
# PCOD9310699 Si02
#       4
#     4   4   4   4
#     4  12  23  42  71  97 128 176 229 276 326 408
#     4  10  20  36  61  93 123 156 216 276 316 374
#     4  12  26  44  65  99 142 179 219 284 351 394
#     4  10  19  38  63  91 126 169 221 268 324 402
#
# _framework density 23.629311000000001
#
# number of rings (size 3 to 8) (size 9 to 14) (size 15 to 20)
#    0.000    1.000    0.000   10.500    0.000    0.000 
#    0.000    7.500    0.000    0.000    0.000    0.000 
#    0.000    0.000    0.000    0.000    0.000    0.000 
#
# Total GULP energy -89512.418333 kJ/mol
# GULP energy per Si atom -5594.526146 kJ/mol
# Density = 2.357553 g / cm^3
# Si number density = 23.629311 Si / 1000 Ang^3
#
#
#
# Elastic Constant Matrix: (Units=GPa)
#
#
# Indices 1 2 3 4 5 6 
#
# 1 145.8729 -15.8390 -4.9738 0.0000 0.0000 0.0000
# 2 -15.8390 84.6130 -18.8122 0.0000 0.0000 0.0000
# 3 -4.9738 -18.8122 38.0287 0.0000 0.0000 0.0000
# 4 0.0000 0.0000 0.0000 1.4239 0.0000 0.0000
# 5 0.0000 0.0000 0.0000 0.0000 10.9561 0.0000
# 6 0.0000 0.0000 0.0000 0.0000 0.0000 51.0376
#
#
#
# Elastic Compliance Matrix: (Units=1/GPa)
#
#
# Indices 1 2 3 4 5 6 
#
# 1 0.007104 0.001726 0.001783 0.000000 0.000000 0.000000
# 2 0.001726 0.013698 0.007002 0.000000 0.000000 0.000000
# 3 0.001783 0.007002 0.029993 0.000000 0.000000 0.000000
# 4 0.000000 0.000000 0.000000 0.702313 0.000000 0.000000
# 5 0.000000 0.000000 0.000000 0.000000 0.091273 0.000000
# 6 0.000000 0.000000 0.000000 0.000000 0.000000 0.019593
#
#
# Mechanical properties :
#
#
# Convention : Reuss Voigt Hill
#
# Bulk Modulus (GPa) = 13.92419 21.02941 17.47680
# Shear Modulus (GPa) = 5.76774 33.22614 19.49694
#
# Velocity S-wave (km/s) = 1.56404 3.75392 2.87560
# Velocity P-wave (km/s) = 3.02774 5.26387 4.29392
#
# Compressibility (1/GPa) = 0.07181746
#
# Stress axis : x y z
#
# Youngs Moduli (GPa) = 140.77563 73.00103 33.34110
#
# Poissons Ratio (x) = -0.12601 -0.05945
# Poissons Ratio (y) = -0.24300 -0.23346
# Poissons Ratio (z) = -0.25100 -0.51117
#
# Static dielectric constant tensor:
#      x y z
#    x 1.973240 0.000000 0.000000 
#    y 0.000000 1.913400 0.000000 
#    z 0.000000 0.000000 1.909240 
# 
# From -- ./inp_files/8855.got.cif
#   From: 2010.05.17/outbox.cif.g08.bks.cpg/sg17_5_cif.got.tgz:8855.got - 2010.06.03 22:34:06.
