data_PCOD9310070
_publ_section_title
;
Structure prediction by ZEFSAII (Michael W. Deem and Ramdas Pophale) SiO2 
 PCOD9310070
Probable space group: P 2 2 2
;
_chemical_formula_sum "Si O2"
_cell_formula_units_Z 17
_cell_length_a 7.247672
_cell_length_b 13.608366
_cell_length_c 7.836171
_cell_angle_alpha 90.000000
_cell_angle_beta 90.000000
_cell_angle_gamma 90.000000
_cell_volume 772.873500
_symmetry_space_group_name_H-M "P 2 2 2"
_symmetry_group_IT_number 16
_symmetry_cell_setting 'orthorhombic'
loop_
_space_group_symop_operation_xyz
x,y,z
-x,-y,z
x,-y,-z
-x,y,-z
loop_
_atom_site_type_symbol
_atom_site_label
_atom_site_fract_x
_atom_site_fract_y
_atom_site_fract_z
Si Si1 0.775998 0.504942 0.302017
Si Si2 0.757723 0.295702 0.166442
Si Si3 0.799014 0.277435 0.791548
Si Si4 0.301542 0.150218 0.538544
Si Si5 0.000000 0.000000 0.500000
O O1 0.721962 0.500000 0.500000
O O2 0.711328 0.410752 0.194357
O O3 0.724358 0.613017 0.241797
O O4 0.000000 0.500000 0.295959
O O5 0.671136 0.231554 0.315835
O O6 0.979192 0.287338 0.194518
O O7 0.723058 0.252842 0.978841
O O8 0.761578 0.205193 0.634889
O O9 0.500000 0.105412 0.500000
O O10 0.143638 0.072976 0.593349
#
# Coordination Sequence:
#
# PCOD9310070 Si02
#       5
#     4   4   4   4   1
#     4   9  15  27  57  95 135 178 220 252 297 367
#     4  10  19  36  63  96 136 178 216 258 310 374
#     4  10  19  36  63  96 136 178 216 258 310 374
#     4  12  25  44  70  97 126 163 213 269 328 392
#     4  12  26  52  74  92 124 158 210 276 346 392
#
# _framework density 21.995837999999999
#
# number of rings (size 3 to 8) (size 9 to 14) (size 15 to 20)
#    0.000    1.647    4.706    1.059    0.000    3.765 
#    0.000    4.706    0.000    5.647    0.000    0.000 
#    0.000    0.000    0.000    0.000    0.000    0.000 
#
# Total GULP energy -94954.463172 kJ/mol
# GULP energy per Si atom -5585.556657 kJ/mol
# Density = 2.194577 g / cm^3
# Si number density = 21.995838 Si / 1000 Ang^3
#
#
#
# Elastic Constant Matrix: (Units=GPa)
#
#
# Indices 1 2 3 4 5 6 
#
# 1 101.0093 20.4006 2.7710 0.0000 0.0000 0.0000
# 2 20.4006 107.9018 38.3551 0.0000 0.0000 0.0000
# 3 2.7710 38.3551 141.2013 0.0000 0.0000 0.0000
# 4 0.0000 0.0000 0.0000 -0.6520 0.0000 0.0000
# 5 0.0000 0.0000 0.0000 0.0000 3.3844 0.0000
# 6 0.0000 0.0000 0.0000 0.0000 0.0000 -13.2267
#
#
#
# Elastic Compliance Matrix: (Units=1/GPa)
#
#
# Indices 1 2 3 4 5 6 
#
# 1 0.010310 -0.002078 0.000362 0.000000 0.000000 0.000000
# 2 -0.002078 0.010677 -0.002859 0.000000 0.000000 0.000000
# 3 0.000362 -0.002859 0.007852 0.000000 0.000000 0.000000
# 4 0.000000 0.000000 0.000000 -1.533715 0.000000 0.000000
# 5 0.000000 0.000000 0.000000 0.000000 0.295477 0.000000
# 6 0.000000 0.000000 0.000000 0.000000 0.000000 -0.075605
#
#
# Mechanical properties :
#
#
# Convention : Reuss Voigt Hill
#
# Bulk Modulus (GPa) = 50.79253 52.57396 51.68325
# Shear Modulus (GPa) = -3.93921 17.14018 6.60048
#
# Velocity S-wave (km/s) = -1.33969 2.79453 1.73416
# Velocity P-wave (km/s) = 4.55510 5.86227 5.24953
#
# Compressibility (1/GPa) = 0.01968793
#
# Stress axis : x y z
#
# Youngs Moduli (GPa) = 96.99485 93.65944 127.36086
#
# Poissons Ratio (x) = 0.19462 -0.04612
# Poissons Ratio (y) = 0.20155 0.36418
# Poissons Ratio (z) = -0.03512 0.26781
#
# Static dielectric constant tensor:
#      x y z
#    x 1.904500 0.000000 0.000000 
#    y 0.000000 1.781680 0.000000 
#    z 0.000000 0.000000 1.789110 
# 
# From -- ./inp_files/3686.got.cif
#   From: 2010.05.17/outbox.cif.g08.bks.cpg/sg16_2_cif.got.tgz:3686.got - 2010.06.03 22:28:35.
