data_PCOD9310802
_publ_section_title
;
Structure prediction by ZEFSAII (Michael W. Deem and Ramdas Pophale) SiO2 
 PCOD9310802
Probable space group: P 2 2 21
;
_chemical_formula_sum "Si O2"
_cell_formula_units_Z 20
_cell_length_a 4.912506
_cell_length_b 12.924215
_cell_length_c 15.437259
_cell_angle_alpha 90.000000
_cell_angle_beta 90.000000
_cell_angle_gamma 90.000000
_cell_volume 980.115954
_symmetry_space_group_name_H-M "P 2 2 21"
_symmetry_group_IT_number 17
_symmetry_cell_setting 'orthorhombic'
loop_
_space_group_symop_operation_xyz
x,y,z
-x,-y,1/2+z
x,-y,-z
-x,y,1/2-z
loop_
_atom_site_type_symbol
_atom_site_label
_atom_site_fract_x
_atom_site_fract_y
_atom_site_fract_z
Si Si1 0.022106 0.119826 0.581326
Si Si2 0.531245 0.173982 0.465573
Si Si3 0.958740 0.657945 0.151415
Si Si4 0.754902 0.933700 0.806490
Si Si5 0.446426 0.392801 0.957827
O O1 0.801961 0.119603 0.503433
O O2 0.305700 0.140395 0.534480
O O3 0.958418 0.221508 0.638216
O O4 0.079012 0.021864 0.641414
O O5 0.406722 0.139036 0.374272
O O6 0.567533 0.297451 0.474552
O O7 0.655396 0.641297 0.117099
O O8 0.000000 0.627881 0.250000
O O9 0.154634 0.596037 0.086969
O O10 0.500000 0.977253 0.750000
O O11 0.000000 0.882906 0.750000
O O12 0.532096 0.500000 0.000000
#
# Coordination Sequence:
#
# PCOD9310802 Si02
#       5
#     4   4   4   4   4
#     4  10  21  38  60  83 115 156 195 238 291 350
#     4  10  22  40  60  83 116 159 200 236 286 355
#     4  10  20  36  60  89 114 140 189 251 295 330
#     4  12  24  37  57  88 124 159 196 241 289 347
#     4  10  21  39  62  85 115 154 194 236 290 352
#
# _framework density 20.405749
#
# number of rings (size 3 to 8) (size 9 to 14) (size 15 to 20)
#    0.000    1.600    0.000    4.800    0.000    4.800 
#    0.000    3.000    0.000    0.000    0.000    0.000 
#    0.000    0.000    0.000    0.000    0.000    0.000 
#
# Total GULP energy -111642.523225 kJ/mol
# GULP energy per Si atom -5582.126161 kJ/mol
# Density = 2.035931 g / cm^3
# Si number density = 20.405749 Si / 1000 Ang^3
#
#
#
# Elastic Constant Matrix: (Units=GPa)
#
#
# Indices 1 2 3 4 5 6 
#
# 1 73.6412 3.7166 0.4824 0.0000 0.0000 0.0000
# 2 3.7166 90.5393 43.0065 0.0000 0.0000 0.0000
# 3 0.4824 43.0065 73.4421 0.0000 0.0000 0.0000
# 4 0.0000 0.0000 0.0000 6.1593 0.0000 0.0000
# 5 0.0000 0.0000 0.0000 0.0000 -29.8313 0.0000
# 6 0.0000 0.0000 0.0000 0.0000 0.0000 45.8429
#
#
#
# Elastic Compliance Matrix: (Units=1/GPa)
#
#
# Indices 1 2 3 4 5 6 
#
# 1 0.013613 -0.000715 0.000329 0.000000 0.000000 0.000000
# 2 -0.000715 0.015339 -0.008977 0.000000 0.000000 0.000000
# 3 0.000329 -0.008977 0.018871 0.000000 0.000000 0.000000
# 4 0.000000 0.000000 0.000000 0.162356 0.000000 0.000000
# 5 0.000000 0.000000 0.000000 0.000000 -0.033522 0.000000
# 6 0.000000 0.000000 0.000000 0.000000 0.000000 0.021814
#
#
# Mechanical properties :
#
#
# Convention : Reuss Voigt Hill
#
# Bulk Modulus (GPa) = 34.36840 36.89261 35.63050
# Shear Modulus (GPa) = 22.03653 17.12865 19.58259
#
# Velocity S-wave (km/s) = 3.28978 2.90039 3.10120
# Velocity P-wave (km/s) = 5.59547 5.41619 5.50656
#
# Compressibility (1/GPa) = 0.02909650
#
# Stress axis : x y z
#
# Youngs Moduli (GPa) = 73.45759 65.19523 52.99147
#
# Poissons Ratio (x) = 0.04663 -0.01746
# Poissons Ratio (y) = 0.05254 0.47572
# Poissons Ratio (z) = -0.02420 0.58528
#
# Static dielectric constant tensor:
#      x y z
#    x 1.718020 0.000000 0.000000 
#    y 0.000000 1.898870 0.000000 
#    z 0.000000 0.000000 1.722000 
# 
# From -- ./inp_files/5941.got.cif
#   From: 2010.05.17/outbox.cif.g08.bks.cpg/sg17_3_cif.got.tgz:5941.got - 2010.06.03 22:34:06.
