data_PCOD9310460
_publ_section_title
;
Structure prediction by ZEFSAII (Michael W. Deem and Ramdas Pophale) SiO2 
 PCOD9310460
Probable space group: P 2 2 21
;
_chemical_formula_sum "Si O2"
_cell_formula_units_Z 18
_cell_length_a 8.710550
_cell_length_b 18.159939
_cell_length_c 5.449876
_cell_angle_alpha 90.000000
_cell_angle_beta 90.000000
_cell_angle_gamma 90.000000
_cell_volume 862.078044
_symmetry_space_group_name_H-M "P 2 2 21"
_symmetry_group_IT_number 17
_symmetry_cell_setting 'orthorhombic'
loop_
_space_group_symop_operation_xyz
x,y,z
-x,-y,1/2+z
x,-y,-z
-x,y,1/2-z
loop_
_atom_site_type_symbol
_atom_site_label
_atom_site_fract_x
_atom_site_fract_y
_atom_site_fract_z
Si Si1 0.746167 0.354344 0.085392
Si Si2 0.000000 0.697352 0.250000
Si Si3 0.900219 0.085580 0.498575
Si Si4 0.000000 0.545959 0.750000
Si Si5 0.749781 0.230248 0.452602
Si Si6 0.500000 0.677168 0.250000
O O1 0.728747 0.271996 0.195555
O O2 0.841530 0.405686 0.270747
O O3 0.583978 0.371067 0.959574
O O4 0.868551 0.350661 0.867672
O O5 0.918879 0.746333 0.454306
O O6 0.759311 0.142821 0.474248
O O7 0.000000 0.097032 0.250000
O O8 0.852459 0.000000 0.500000
O O9 0.000000 0.097265 0.750000
O O10 0.013355 0.500000 0.500000
O O11 0.624640 0.269649 0.623808
#
# Coordination Sequence:
#
# PCOD9310460 Si02
#       6
#     4   2   4   2   4   2
#     4  11  22  42  67 100 130 172 222 281 334 404
#     4  10  17  32  66  95 122 158 222 272 323 370
#     4  10  21  36  61  99 135 172 223 286 345 394
#     4  12  27  44  76 105 134 170 226 288 343 412
#     4  11  20  37  64  95 128 179 220 284 326 407
#     4  10  26  38  68  94 140 170 234 272 344 402
#
# _framework density 20.879781999999999
#
# number of rings (size 3 to 8) (size 9 to 14) (size 15 to 20)
#    0.000    1.333    3.333    2.667    6.222    0.000 
#    0.000    0.000    9.778    0.000    0.000    0.000 
#    0.000    0.000    0.000    0.000    0.000    0.000 
#
# Total GULP energy -100327.295501 kJ/mol
# GULP energy per Si atom -5573.738639 kJ/mol
# Density = 2.083226 g / cm^3
# Si number density = 20.879782 Si / 1000 Ang^3
#
#
#
# Elastic Constant Matrix: (Units=GPa)
#
#
# Indices 1 2 3 4 5 6 
#
# 1 88.4752 28.4963 24.4121 0.0000 0.0000 0.0000
# 2 28.4963 92.8424 29.8193 0.0000 0.0000 0.0000
# 3 24.4121 29.8193 107.8839 0.0000 0.0000 0.0000
# 4 0.0000 0.0000 0.0000 26.8461 0.0000 0.0000
# 5 0.0000 0.0000 0.0000 0.0000 43.3666 0.0000
# 6 0.0000 0.0000 0.0000 0.0000 0.0000 13.7378
#
#
#
# Elastic Compliance Matrix: (Units=1/GPa)
#
#
# Indices 1 2 3 4 5 6 
#
# 1 0.012927 -0.003323 -0.002007 0.000000 0.000000 0.000000
# 2 -0.003323 0.012675 -0.002751 0.000000 0.000000 0.000000
# 3 -0.002007 -0.002751 0.010484 0.000000 0.000000 0.000000
# 4 0.000000 0.000000 0.000000 0.037249 0.000000 0.000000
# 5 0.000000 0.000000 0.000000 0.000000 0.023059 0.000000
# 6 0.000000 0.000000 0.000000 0.000000 0.000000 0.072792
#
#
# Mechanical properties :
#
#
# Convention : Reuss Voigt Hill
#
# Bulk Modulus (GPa) = 50.19335 50.51744 50.35540
# Shear Modulus (GPa) = 26.04325 30.55503 28.29914
#
# Velocity S-wave (km/s) = 3.53554 3.82956 3.68548
# Velocity P-wave (km/s) = 6.38421 6.61823 6.50227
#
# Compressibility (1/GPa) = 0.01992296
#
# Stress axis : x y z
#
# Youngs Moduli (GPa) = 77.36015 78.89799 95.38591
#
# Poissons Ratio (x) = 0.26219 0.19139
# Poissons Ratio (y) = 0.25708 0.26244
# Poissons Ratio (z) = 0.15522 0.21707
#
# Static dielectric constant tensor:
#      x y z
#    x 1.790890 0.000000 0.000000 
#    y 0.000000 1.820910 0.000000 
#    z 0.000000 0.000000 1.835220 
# 
# From -- ./inp_files/890.got.cif
#   From: 2010.05.17/outbox.cif.g08.bks.cpg/sg17_1_cif.got.tgz:890.got - 2010.06.03 22:34:06.
