data_PCOD9310240
_publ_section_title
;
Structure prediction by ZEFSAII (Michael W. Deem and Ramdas Pophale) SiO2 
 PCOD9310240
Probable space group: P 2 2 2
;
_chemical_formula_sum "Si O2"
_cell_formula_units_Z 25
_cell_length_a 13.024334
_cell_length_b 9.700877
_cell_length_c 11.721260
_cell_angle_alpha 90.000000
_cell_angle_beta 90.000000
_cell_angle_gamma 90.000000
_cell_volume 1480.951454
_symmetry_space_group_name_H-M "P 2 2 2"
_symmetry_group_IT_number 16
_symmetry_cell_setting 'orthorhombic'
loop_
_space_group_symop_operation_xyz
x,y,z
-x,-y,z
x,-y,-z
-x,y,-z
loop_
_atom_site_type_symbol
_atom_site_label
_atom_site_fract_x
_atom_site_fract_y
_atom_site_fract_z
Si Si1 0.271701 0.263642 0.228822
Si Si2 0.287863 0.015947 0.625598
Si Si3 0.379472 0.165484 0.998942
Si Si4 0.621685 0.500195 0.628861
Si Si5 0.121883 0.508578 0.863873
Si Si6 0.267737 0.274269 0.773286
Si Si7 0.500000 0.000000 0.500000
O O1 0.268747 0.123392 0.302762
O O2 0.338722 0.368075 0.303883
O O3 0.171170 0.353039 0.192092
O O4 0.327523 0.226586 0.111160
O O5 0.240116 0.000000 0.500000
O O6 0.242950 0.140733 0.698478
O O7 0.409996 0.047079 0.592710
O O8 0.325120 0.225319 0.887262
O O9 0.500000 0.198756 0.000000
O O10 0.368525 0.000000 0.000000
O O11 0.500000 0.500000 0.623662
O O12 0.663121 0.500000 0.500000
O O13 0.657781 0.633348 0.696497
O O14 0.175421 0.375712 0.807025
O O15 0.000000 0.500000 0.848848
O O16 0.144403 0.500000 0.000000
#
# Coordination Sequence:
#
# PCOD9310240 Si02
#       7
#     4   4   4   4   4   4   1
#     4  11  21  37  57  84 116 151 195 242 289 346
#     4  10  22  35  59  85 124 153 199 228 273 337
#     4  11  22  31  53  86 124 158 179 223 291 355
#     4  10  22  33  52  78 115 157 197 229 269 335
#     4  10  22  42  63  83 110 149 200 253 307 355
#     4  11  21  37  57  84 116 151 195 242 289 346
#     4   8  24  32  60  92 118 172 200 214 274 340
#
# _framework density 16.881039000000001
#
# number of rings (size 3 to 8) (size 9 to 14) (size 15 to 20)
#    0.480    1.120    3.200    1.920    4.480    0.000 
#    0.000    3.200    0.000   21.120    0.000    0.000 
#    0.000    0.000    0.000    0.000    0.000    0.000 
#
# Total GULP energy -139196.828651 kJ/mol
# GULP energy per Si atom -5567.873146 kJ/mol
# Density = 1.684262 g / cm^3
# Si number density = 16.881039 Si / 1000 Ang^3
#
#
#
# Elastic Constant Matrix: (Units=GPa)
#
#
# Indices 1 2 3 4 5 6 
#
# 1 80.4501 43.9203 45.3556 0.0000 0.0000 0.0000
# 2 43.9203 140.6000 76.5225 0.0000 0.0000 0.0000
# 3 45.3556 76.5225 164.6631 0.0000 0.0000 0.0000
# 4 0.0000 0.0000 0.0000 -136.0027 0.0000 0.0000
# 5 0.0000 0.0000 0.0000 0.0000 23.4583 0.0000
# 6 0.0000 0.0000 0.0000 0.0000 0.0000 1.7060
#
#
#
# Elastic Compliance Matrix: (Units=1/GPa)
#
#
# Indices 1 2 3 4 5 6 
#
# 1 0.015876 -0.003452 -0.002768 0.000000 0.000000 0.000000
# 2 -0.003452 0.010271 -0.003822 0.000000 0.000000 0.000000
# 3 -0.002768 -0.003822 0.008612 0.000000 0.000000 0.000000
# 4 0.000000 0.000000 0.000000 -0.007353 0.000000 0.000000
# 5 0.000000 0.000000 0.000000 0.000000 0.042629 0.000000
# 6 0.000000 0.000000 0.000000 0.000000 0.000000 0.586174
#
#
# Mechanical properties :
#
#
# Convention : Reuss Voigt Hill
#
# Bulk Modulus (GPa) = 68.15552 79.70110 73.92831
# Shear Modulus (GPa) = 7.34014 -7.50669 -0.08328
#
# Velocity S-wave (km/s) = 2.08749 -2.11104 -0.22235
# Velocity P-wave (km/s) = 6.80234 6.43226 6.61988
#
# Compressibility (1/GPa) = 0.01467233
#
# Stress axis : x y z
#
# Youngs Moduli (GPa) = 62.98963 97.36024 116.11916
#
# Poissons Ratio (x) = 0.33613 0.32147
# Poissons Ratio (y) = 0.21747 0.44384
# Poissons Ratio (z) = 0.17438 0.37214
#
# Static dielectric constant tensor:
#      x y z
#    x 1.540400 0.000000 0.000000 
#    y 0.000000 1.575200 0.000000 
#    z 0.000000 0.000000 1.637670 
# 
# From -- ./inp_files/6843.got.cif
#   From: 2010.05.17/outbox.cif.g08.bks.cpg/sg16_4_cif.got.tgz:6843.got - 2010.06.03 22:28:35.
