data_PCOD9310523
_publ_section_title
;
Structure prediction by ZEFSAII (Michael W. Deem and Ramdas Pophale) SiO2 
 PCOD9310523
Probable space group: P 2 2 21
;
_chemical_formula_sum "Si O2"
_cell_formula_units_Z 32
_cell_length_a 19.961889
_cell_length_b 7.336757
_cell_length_c 10.198251
_cell_angle_alpha 90.000000
_cell_angle_beta 90.000000
_cell_angle_gamma 90.000000
_cell_volume 1493.590244
_symmetry_space_group_name_H-M "P 2 2 21"
_symmetry_group_IT_number 17
_symmetry_cell_setting 'orthorhombic'
loop_
_space_group_symop_operation_xyz
x,y,z
-x,-y,1/2+z
x,-y,-z
-x,y,1/2-z
loop_
_atom_site_type_symbol
_atom_site_label
_atom_site_fract_x
_atom_site_fract_y
_atom_site_fract_z
Si Si1 0.800375 0.695912 0.241641
Si Si2 0.789956 0.741376 0.762077
Si Si3 0.725061 0.723319 0.492433
Si Si4 0.704567 0.276319 0.990143
Si Si5 0.057060 0.200478 0.346366
Si Si6 0.434423 0.321465 0.592045
Si Si7 0.948020 0.769910 0.142611
Si Si8 0.418023 0.325210 0.901763
O O1 0.791943 0.478383 0.242637
O O2 0.779069 0.768882 0.381927
O O3 0.874770 0.736831 0.199030
O O4 0.749400 0.770006 0.134245
O O5 0.752684 0.797689 0.629006
O O6 0.742748 0.793900 0.882952
O O7 0.867355 0.792263 0.788780
O O8 0.723081 0.500000 0.500000
O O9 0.650151 0.775461 0.445113
O O10 0.703075 0.500000 0.000000
O O11 0.628797 0.215605 0.966198
O O12 0.051750 0.289782 0.490480
O O13 0.000000 0.275612 0.250000
O O14 0.041408 0.986999 0.362699
O O15 0.439356 0.500000 0.500000
O O16 0.415929 0.370800 0.744654
O O17 0.508439 0.234217 0.586030
O O18 0.000000 0.695376 0.250000
O O19 0.419693 0.500000 0.000000
#
# Coordination Sequence:
#
# PCOD9310523 Si02
#       8
#     4   4   4   4   4   4   4   4
#     4  10  18  33  51  73  99 129 166 199 243 290
#     4  10  20  33  51  72 101 130 163 202 248 288
#     4   9  18  29  44  69 100 132 162 206 247 283
#     4   9  16  27  44  66  92 129 164 197 239 285
#     4  10  22  39  54  74 100 128 158 199 247 293
#     4   9  16  24  38  59  91 135 171 198 240 295
#     4  10  22  38  56  74  98 127 161 200 243 294
#     4   9  16  25  36  59  95 132 168 202 241 291
#
# _framework density 21.424886999999998
#
# number of rings (size 3 to 8) (size 9 to 14) (size 15 to 20)
#    0.000    2.500    2.500    0.000    7.000    0.500 
#    0.000    0.000    0.000    0.000    0.000    0.000 
#    0.000    6.000    0.000    0.000    0.000    0.000 
#
# Total GULP energy -178407.657890 kJ/mol
# GULP energy per Si atom -5575.239309 kJ/mol
# Density = 2.137612 g / cm^3
# Si number density = 21.424887 Si / 1000 Ang^3
#
#
#
# Elastic Constant Matrix: (Units=GPa)
#
#
# Indices 1 2 3 4 5 6 
#
# 1 200.2353 -6.6616 99.0411 0.0000 0.0000 0.0000
# 2 -6.6616 56.6603 4.4049 0.0000 0.0000 0.0000
# 3 99.0411 4.4049 177.6762 0.0000 0.0000 0.0000
# 4 0.0000 0.0000 0.0000 -0.4904 0.0000 0.0000
# 5 0.0000 0.0000 0.0000 0.0000 31.3095 0.0000
# 6 0.0000 0.0000 0.0000 0.0000 0.0000 -38.0300
#
#
#
# Elastic Compliance Matrix: (Units=1/GPa)
#
#
# Indices 1 2 3 4 5 6 
#
# 1 0.006966 0.001123 -0.003911 0.000000 0.000000 0.000000
# 2 0.001123 0.017864 -0.001069 0.000000 0.000000 0.000000
# 3 -0.003911 -0.001069 0.007835 0.000000 0.000000 0.000000
# 4 0.000000 0.000000 0.000000 -2.039303 0.000000 0.000000
# 5 0.000000 0.000000 0.000000 0.000000 0.031939 0.000000
# 6 0.000000 0.000000 0.000000 0.000000 0.000000 -0.026295
#
#
# Mechanical properties :
#
#
# Convention : Reuss Voigt Hill
#
# Bulk Modulus (GPa) = 40.07789 69.79340 54.93564
# Shear Modulus (GPa) = -2.51894 21.07699 9.27903
#
# Velocity S-wave (km/s) = -1.08548 3.13990 2.08335
# Velocity P-wave (km/s) = 4.14437 6.76697 5.61105
#
# Compressibility (1/GPa) = 0.02495141
#
# Stress axis : x y z
#
# Youngs Moduli (GPa) = 143.55757 55.97794 127.63769
#
# Poissons Ratio (x) = -0.06286 0.49916
# Poissons Ratio (y) = -0.16122 0.13643
# Poissons Ratio (z) = 0.56142 0.05983
#
# Static dielectric constant tensor:
#      x y z
#    x 1.732210 0.000000 0.000000 
#    y 0.000000 1.938730 0.000000 
#    z 0.000000 0.000000 2.003950 
# 
# From -- ./inp_files/5507.got.cif
#   From: 2010.05.17/outbox.cif.g08.bks.cpg/sg17_3_cif.got.tgz:5507.got - 2010.06.03 22:34:06.
