data_PCOD9310974
_publ_section_title
;
Structure prediction by ZEFSAII (Michael W. Deem and Ramdas Pophale) SiO2 
 PCOD9310974
Probable space group: P 2 2 21
;
_chemical_formula_sum "Si O2"
_cell_formula_units_Z 32
_cell_length_a 15.566553
_cell_length_b 12.784336
_cell_length_c 9.540829
_cell_angle_alpha 90.000000
_cell_angle_beta 90.000000
_cell_angle_gamma 90.000000
_cell_volume 1898.701717
_symmetry_space_group_name_H-M "P 2 2 21"
_symmetry_group_IT_number 17
_symmetry_cell_setting 'orthorhombic'
loop_
_space_group_symop_operation_xyz
x,y,z
-x,-y,1/2+z
x,-y,-z
-x,y,1/2-z
loop_
_atom_site_type_symbol
_atom_site_label
_atom_site_fract_x
_atom_site_fract_y
_atom_site_fract_z
Si Si1 0.850232 0.733376 0.974525
Si Si2 0.314704 0.388102 0.420374
Si Si3 0.841771 0.766814 0.465870
Si Si4 0.496153 0.393607 0.085965
Si Si5 0.897959 0.127556 0.266038
Si Si6 0.102368 0.109869 0.709758
Si Si7 0.304427 0.612494 0.918743
Si Si8 0.993659 0.603312 0.417354
O O1 0.879402 0.833647 0.064134
O O2 0.916238 0.643531 0.020725
O O3 0.755437 0.688081 0.987571
O O4 0.860219 0.774226 0.817276
O O5 0.310036 0.500000 0.500000
O O6 0.411120 0.342509 0.441233
O O7 0.296326 0.401000 0.251729
O O8 0.866835 0.856080 0.576633
O O9 0.838697 0.825675 0.318063
O O10 0.762847 0.695615 0.517936
O O11 0.923017 0.690125 0.450362
O O12 0.500000 0.420045 0.250000
O O13 0.402401 0.345902 0.058085
O O14 0.496467 0.500000 0.000000
O O15 0.000000 0.136227 0.250000
O O16 0.875416 0.012164 0.212368
O O17 0.000000 0.120047 0.750000
O O18 0.295235 0.500000 0.000000
O O19 0.968290 0.500000 0.500000
O O20 0.000000 0.588034 0.250000
#
# Coordination Sequence:
#
# PCOD9310974 Si02
#       8
#     4   4   4   4   4   4   4   4
#     4  12  21  37  54  80 108 139 180 219 268 322
#     4  10  21  34  55  81 110 144 177 215 264 318
#     4  12  21  37  54  80 108 139 180 219 268 322
#     4   8  16  34  52  76 107 137 176 218 257 311
#     4  11  22  36  60  79 102 137 183 234 273 311
#     4  11  22  40  56  77 104 143 183 232 273 305
#     4  10  21  34  55  81 110 144 177 215 264 318
#     4  12  26  38  51  75 112 152 181 209 259 318
#
# _framework density 16.853622000000001
#
# number of rings (size 3 to 8) (size 9 to 14) (size 15 to 20)
#    0.000    1.250    5.000    1.500    3.500    4.000 
#    0.000    0.000    0.000    0.000    0.000    5.250 
#    0.000    0.000    0.000    0.000    0.000    0.000 
#
# Total GULP energy -178341.400576 kJ/mol
# GULP energy per Si atom -5573.168768 kJ/mol
# Density = 1.681526 g / cm^3
# Si number density = 16.853622 Si / 1000 Ang^3
#
#
#
# Elastic Constant Matrix: (Units=GPa)
#
#
# Indices 1 2 3 4 5 6 
#
# 1 99.0283 10.3158 9.8567 0.0000 0.0000 0.0000
# 2 10.3158 49.0689 -0.7228 0.0000 0.0000 0.0000
# 3 9.8567 -0.7228 34.9121 0.0000 0.0000 0.0000
# 4 0.0000 0.0000 0.0000 16.6694 0.0000 0.0000
# 5 0.0000 0.0000 0.0000 0.0000 16.9926 0.0000
# 6 0.0000 0.0000 0.0000 0.0000 0.0000 5.6506
#
#
#
# Elastic Compliance Matrix: (Units=1/GPa)
#
#
# Indices 1 2 3 4 5 6 
#
# 1 0.010640 -0.002282 -0.003051 0.000000 0.000000 0.000000
# 2 -0.002282 0.020875 0.001076 0.000000 0.000000 0.000000
# 3 -0.003051 0.001076 0.029527 0.000000 0.000000 0.000000
# 4 0.000000 0.000000 0.000000 0.059990 0.000000 0.000000
# 5 0.000000 0.000000 0.000000 0.000000 0.058849 0.000000
# 6 0.000000 0.000000 0.000000 0.000000 0.000000 0.176973
#
#
# Mechanical properties :
#
#
# Convention : Reuss Voigt Hill
#
# Bulk Modulus (GPa) = 19.03716 24.65652 21.84684
# Shear Modulus (GPa) = 13.05905 18.76650 15.91278
#
# Velocity S-wave (km/s) = 2.78664 3.34053 3.07608
# Velocity P-wave (km/s) = 4.65552 5.43511 5.06035
#
# Compressibility (1/GPa) = 0.05252884
#
# Stress axis : x y z
#
# Youngs Moduli (GPa) = 93.98937 47.90405 33.86722
#
# Poissons Ratio (x) = 0.10930 0.10333
# Poissons Ratio (y) = 0.21446 -0.03645
# Poissons Ratio (z) = 0.28677 -0.05156
#
# Static dielectric constant tensor:
#      x y z
#    x 1.588540 0.000000 0.000000 
#    y 0.000000 1.551310 0.000000 
#    z 0.000000 0.000000 1.582620 
# 
# From -- ./inp_files/5259.got.cif
#   From: 2010.05.17/outbox.cif.g08.bks.cpg/sg17_3_cif.got.tgz:5259.got - 2010.06.03 22:34:06.
