data_PCOD9310905
_publ_section_title
;
Structure prediction by ZEFSAII (Michael W. Deem and Ramdas Pophale) SiO2 
 PCOD9310905
Probable space group: P 2 2 21
;
_chemical_formula_sum "Si O2"
_cell_formula_units_Z 32
_cell_length_a 9.175673
_cell_length_b 11.924851
_cell_length_c 13.934530
_cell_angle_alpha 90.000000
_cell_angle_beta 90.000000
_cell_angle_gamma 90.000000
_cell_volume 1524.695836
_symmetry_space_group_name_H-M "P 2 2 21"
_symmetry_group_IT_number 17
_symmetry_cell_setting 'orthorhombic'
loop_
_space_group_symop_operation_xyz
x,y,z
-x,-y,1/2+z
x,-y,-z
-x,y,1/2-z
loop_
_atom_site_type_symbol
_atom_site_label
_atom_site_fract_x
_atom_site_fract_y
_atom_site_fract_z
Si Si1 0.984314 0.865382 0.975576
Si Si2 0.233517 0.235164 0.624523
Si Si3 0.824528 0.041249 0.735868
Si Si4 0.664135 0.635784 0.295153
Si Si5 0.224237 0.803644 0.695719
Si Si6 0.279795 0.167646 0.946158
Si Si7 0.641027 0.619339 0.680111
Si Si8 0.534015 0.764925 0.961704
O O1 0.911101 0.826188 0.876175
O O2 0.151075 0.829560 0.977550
O O3 0.905554 0.793896 0.059624
O O4 0.963234 0.000000 0.000000
O O5 0.254422 0.120153 0.685224
O O6 0.229204 0.328104 0.707692
O O7 0.359993 0.267720 0.549413
O O8 0.781022 0.083079 0.632065
O O9 0.000000 0.050866 0.750000
O O10 0.772236 0.915666 0.743928
O O11 0.500000 0.648454 0.250000
O O12 0.689444 0.720767 0.382877
O O13 0.688108 0.509046 0.328491
O O14 0.240922 0.696354 0.764460
O O15 0.361931 0.800573 0.624207
O O16 0.430359 0.139405 0.996801
O O17 0.500000 0.616738 0.750000
O O18 0.577313 0.673296 0.582532
#
# Coordination Sequence:
#
# PCOD9310905 Si02
#       8
#     4   4   4   4   4   4   4   4
#     4  11  21  41  63  92 132 174 217 267 327 403
#     4  10  20  39  65  98 120 167 222 272 324 391
#     4  11  21  40  66  91 132 179 214 264 339 400
#     4  10  20  40  68  95 128 164 222 279 341 384
#     4  10  22  43  64  91 131 176 219 260 333 403
#     4  11  23  39  65  99 124 168 222 271 338 391
#     4   9  21  43  63  93 129 176 214 270 343 391
#     4  10  22  41  61  98 130 160 218 282 321 389
#
# _framework density 20.987791000000001
#
# number of rings (size 3 to 8) (size 9 to 14) (size 15 to 20)
#    0.000    1.750    3.750    0.000    0.000    2.500 
#   13.500    1.875   11.000    0.000    0.000    0.000 
#    0.000    0.000    0.000    0.000    0.000    0.000 
#
# Total GULP energy -178575.539575 kJ/mol
# GULP energy per Si atom -5580.485612 kJ/mol
# Density = 2.094002 g / cm^3
# Si number density = 20.987791 Si / 1000 Ang^3
#
#
#
# Elastic Constant Matrix: (Units=GPa)
#
#
# Indices 1 2 3 4 5 6 
#
# 1 56.0391 34.3118 43.0959 0.0000 0.0000 0.0000
# 2 34.3118 132.8312 49.0981 0.0000 0.0000 0.0000
# 3 43.0959 49.0981 99.8129 0.0000 0.0000 0.0000
# 4 0.0000 0.0000 0.0000 9.7436 0.0000 0.0000
# 5 0.0000 0.0000 0.0000 0.0000 20.1071 0.0000
# 6 0.0000 0.0000 0.0000 0.0000 0.0000 21.5565
#
#
#
# Elastic Compliance Matrix: (Units=1/GPa)
#
#
# Indices 1 2 3 4 5 6 
#
# 1 0.027894 -0.003366 -0.010388 0.000000 0.000000 0.000000
# 2 -0.003366 0.009607 -0.003273 0.000000 0.000000 0.000000
# 3 -0.010388 -0.003273 0.016114 0.000000 0.000000 0.000000
# 4 0.000000 0.000000 0.000000 0.102631 0.000000 0.000000
# 5 0.000000 0.000000 0.000000 0.000000 0.049734 0.000000
# 6 0.000000 0.000000 0.000000 0.000000 0.000000 0.046390
#
#
# Mechanical properties :
#
#
# Convention : Reuss Voigt Hill
#
# Bulk Modulus (GPa) = 51.11855 60.18832 55.65343
# Shear Modulus (GPa) = 17.06809 21.09328 19.08069
#
# Velocity S-wave (km/s) = 2.85483 3.17365 3.01845
# Velocity P-wave (km/s) = 5.93935 6.49380 6.22276
#
# Compressibility (1/GPa) = 0.01956237
#
# Stress axis : x y z
#
# Youngs Moduli (GPa) = 35.84964 104.08612 62.05814
#
# Poissons Ratio (x) = 0.35031 0.64468
# Poissons Ratio (y) = 0.12066 0.20310
# Poissons Ratio (z) = 0.37242 0.34065
#
# Static dielectric constant tensor:
#      x y z
#    x 1.788950 0.000000 0.000000 
#    y 0.000000 1.743250 0.000000 
#    z 0.000000 0.000000 0.744940 
# 
# From -- ./inp_files/8312.got.cif
#   From: 2010.05.17/outbox.cif.g08.bks.cpg/sg17_5_cif.got.tgz:8312.got - 2010.06.03 22:34:06.
