data_PCOD9310795
_publ_section_title
;
Structure prediction by ZEFSAII (Michael W. Deem and Ramdas Pophale) SiO2 
 PCOD9310795
Probable space group: P 2 2 21
;
_chemical_formula_sum "Si O2"
_cell_formula_units_Z 16
_cell_length_a 19.777928
_cell_length_b 5.087022
_cell_length_c 8.099518
_cell_angle_alpha 90.000000
_cell_angle_beta 90.000000
_cell_angle_gamma 90.000000
_cell_volume 814.898620
_symmetry_space_group_name_H-M "P 2 2 21"
_symmetry_group_IT_number 17
_symmetry_cell_setting 'orthorhombic'
loop_
_space_group_symop_operation_xyz
x,y,z
-x,-y,1/2+z
x,-y,-z
-x,y,1/2-z
loop_
_atom_site_type_symbol
_atom_site_label
_atom_site_fract_x
_atom_site_fract_y
_atom_site_fract_z
Si Si1 0.440637 0.751578 0.618558
Si Si2 0.709084 0.249373 0.118956
Si Si3 0.851573 0.395557 0.188654
Si Si4 0.925825 0.106307 0.685821
O O1 0.442806 0.500000 0.500000
O O2 0.500000 0.738095 0.750000
O O3 0.365260 0.777561 0.697249
O O4 0.449415 0.000000 0.500000
O O5 0.774985 0.303630 0.228319
O O6 0.703762 0.500000 0.000000
O O7 0.721939 0.000000 0.000000
O O8 0.878463 0.638591 0.296020
O O9 0.897732 0.138751 0.208313
O O10 0.852898 0.500000 0.000000
O O11 0.000000 0.181165 0.750000
O O12 0.928912 0.000000 0.500000
#
# Coordination Sequence:
#
# PCOD9310795 Si02
#       4
#     4   4   4   4
#     4  10  20  36  58  85 118 154 194 236 281 336
#     4   9  18  34  58  85 113 150 192 232 280 342
#     4  11  21  39  63  85 110 149 195 236 282 341
#     4  12  25  41  59  85 117 149 186 236 290 343
#
# _framework density 19.634342
#
# number of rings (size 3 to 8) (size 9 to 14) (size 15 to 20)
#    0.000    1.500    0.000    7.500    0.000    0.000 
#    0.000    3.750    0.000    0.000    0.000    0.000 
#    0.000    0.000    0.000    0.000    0.000    0.000 
#
# Total GULP energy -89354.580392 kJ/mol
# GULP energy per Si atom -5584.661275 kJ/mol
# Density = 1.958965 g / cm^3
# Si number density = 19.634342 Si / 1000 Ang^3
#
#
#
# Elastic Constant Matrix: (Units=GPa)
#
#
# Indices 1 2 3 4 5 6 
#
# 1 185.8324 53.8860 57.1064 0.0000 0.0000 0.0000
# 2 53.8860 151.1488 19.9820 0.0000 0.0000 0.0000
# 3 57.1064 19.9820 50.8394 0.0000 0.0000 0.0000
# 4 0.0000 0.0000 0.0000 18.5107 0.0000 0.0000
# 5 0.0000 0.0000 0.0000 0.0000 32.3593 0.0000
# 6 0.0000 0.0000 0.0000 0.0000 0.0000 44.8419
#
#
#
# Elastic Compliance Matrix: (Units=1/GPa)
#
#
# Indices 1 2 3 4 5 6 
#
# 1 0.008712 -0.001911 -0.009034 0.000000 0.000000 0.000000
# 2 -0.001911 0.007398 -0.000761 0.000000 0.000000 0.000000
# 3 -0.009034 -0.000761 0.030117 0.000000 0.000000 0.000000
# 4 0.000000 0.000000 0.000000 0.054023 0.000000 0.000000
# 5 0.000000 0.000000 0.000000 0.000000 0.030903 0.000000
# 6 0.000000 0.000000 0.000000 0.000000 0.000000 0.022301
#
#
# Mechanical properties :
#
#
# Convention : Reuss Voigt Hill
#
# Bulk Modulus (GPa) = 43.83343 72.19661 58.01502
# Shear Modulus (GPa) = 27.10464 36.26547 31.68505
#
# Velocity S-wave (km/s) = 3.71950 4.30239 4.02152
# Velocity P-wave (km/s) = 6.38902 7.84418 7.15369
#
# Compressibility (1/GPa) = 0.02281364
#
# Stress axis : x y z
#
# Youngs Moduli (GPa) = 114.78777 135.17151 33.20406
#
# Poissons Ratio (x) = 0.25838 0.29998
# Poissons Ratio (y) = 0.21941 0.02526
# Poissons Ratio (z) = 1.03703 0.10281
#
# Static dielectric constant tensor:
#      x y z
#    x 1.754090 0.000000 0.000000 
#    y 0.000000 1.653950 0.000000 
#    z 0.000000 0.000000 1.667760 
# 
# From -- ./inp_files/5328.got.cif
#   From: 2010.05.17/outbox.cif.g08.bks.cpg/sg17_3_cif.got.tgz:5328.got - 2010.06.03 22:34:06.
