data_PCOD9310440
_publ_section_title
;
Structure prediction by ZEFSAII (Michael W. Deem and Ramdas Pophale) SiO2 
 PCOD9310440
Probable space group: P 2 2 21
;
_chemical_formula_sum "Si O2"
_cell_formula_units_Z 18
_cell_length_a 9.556845
_cell_length_b 11.997177
_cell_length_c 7.960462
_cell_angle_alpha 90.000000
_cell_angle_beta 90.000000
_cell_angle_gamma 90.000000
_cell_volume 912.708052
_symmetry_space_group_name_H-M "P 2 2 21"
_symmetry_group_IT_number 17
_symmetry_cell_setting 'orthorhombic'
loop_
_space_group_symop_operation_xyz
x,y,z
-x,-y,1/2+z
x,-y,-z
-x,y,1/2-z
loop_
_atom_site_type_symbol
_atom_site_label
_atom_site_fract_x
_atom_site_fract_y
_atom_site_fract_z
Si Si1 0.043608 0.126168 0.447130
Si Si2 0.462899 0.000000 0.000000
Si Si3 0.458877 0.373446 0.942382
Si Si4 0.740685 0.185681 0.512070
Si Si5 0.662818 0.803230 0.883116
O O1 0.187020 0.193102 0.474844
O O2 0.000000 0.129300 0.250000
O O3 0.903423 0.165630 0.540723
O O4 0.072192 0.000000 0.500000
O O5 0.353741 0.085628 0.908640
O O6 0.569077 0.911866 0.918672
O O7 0.500000 0.371858 0.750000
O O8 0.569322 0.301669 0.056021
O O9 0.448757 0.500000 0.000000
O O10 0.313810 0.306208 0.939907
O O11 0.703424 0.186274 0.312605
#
# Coordination Sequence:
#
# PCOD9310440 Si02
#       5
#     4   2   4   4   4
#     4  10  20  36  55  82 119 156 185 227 277 335
#     4  10  16  28  54  78 116 144 186 220 276 320
#     4  11  23  40  62  83 109 144 191 239 285 333
#     4  10  21  36  56  82 116 150 189 231 280 332
#     4  10  21  36  56  82 116 150 189 231 280 332
#
# _framework density 19.721530000000001
#
# number of rings (size 3 to 8) (size 9 to 14) (size 15 to 20)
#    0.000    1.778    2.222    4.000    0.000    8.889 
#    0.000    1.111    0.000    0.000    0.000    0.000 
#    0.000    0.000    0.000    0.000    0.000    0.000 
#
# Total GULP energy -100367.504075 kJ/mol
# GULP energy per Si atom -5575.972449 kJ/mol
# Density = 1.967664 g / cm^3
# Si number density = 19.721530 Si / 1000 Ang^3
#
#
#
# Elastic Constant Matrix: (Units=GPa)
#
#
# Indices 1 2 3 4 5 6 
#
# 1 125.7188 42.1414 3.7658 0.0000 0.0000 0.0000
# 2 42.1414 140.4880 9.5152 0.0000 0.0000 0.0000
# 3 3.7658 9.5152 19.0074 0.0000 0.0000 0.0000
# 4 0.0000 0.0000 0.0000 19.0259 0.0000 0.0000
# 5 0.0000 0.0000 0.0000 0.0000 19.5636 0.0000
# 6 0.0000 0.0000 0.0000 0.0000 0.0000 69.5864
#
#
#
# Elastic Compliance Matrix: (Units=1/GPa)
#
#
# Indices 1 2 3 4 5 6 
#
# 1 0.008847 -0.002624 -0.000439 0.000000 0.000000 0.000000
# 2 -0.002624 0.008146 -0.003558 0.000000 0.000000 0.000000
# 3 -0.000439 -0.003558 0.054479 0.000000 0.000000 0.000000
# 4 0.000000 0.000000 0.000000 0.052560 0.000000 0.000000
# 5 0.000000 0.000000 0.000000 0.000000 0.051115 0.000000
# 6 0.000000 0.000000 0.000000 0.000000 0.000000 0.014371
#
#
# Mechanical properties :
#
#
# Convention : Reuss Voigt Hill
#
# Bulk Modulus (GPa) = 17.17331 44.00654 30.58993
# Shear Modulus (GPa) = 22.50517 36.95462 29.72989
#
# Velocity S-wave (km/s) = 3.38175 4.33346 3.88685
# Velocity P-wave (km/s) = 4.89644 6.88483 5.97395
#
# Compressibility (1/GPa) = 0.05822988
#
# Stress axis : x y z
#
# Youngs Moduli (GPa) = 113.03260 122.75729 18.35557
#
# Poissons Ratio (x) = 0.32212 0.00806
# Poissons Ratio (y) = 0.29660 0.06531
# Poissons Ratio (z) = 0.04964 0.43678
#
# Static dielectric constant tensor:
#      x y z
#    x 1.731380 0.000000 0.000000 
#    y 0.000000 1.538380 0.000000 
#    z 0.000000 0.000000 1.820780 
# 
# From -- ./inp_files/3920.got.cif
#   From: 2010.05.17/outbox.cif.g08.bks.cpg/sg17_2_cif.got.tgz:3920.got - 2010.06.03 22:34:06.
