data_PCOD9310990
_publ_section_title
;
Structure prediction by ZEFSAII (Michael W. Deem and Ramdas Pophale) SiO2 
 PCOD9310990
Probable space group: P 2 2 21
;
_chemical_formula_sum "Si O2"
_cell_formula_units_Z 18
_cell_length_a 5.345664
_cell_length_b 6.967340
_cell_length_c 18.558969
_cell_angle_alpha 90.000000
_cell_angle_beta 90.000000
_cell_angle_gamma 90.000000
_cell_volume 691.229888
_symmetry_space_group_name_H-M "P 2 2 21"
_symmetry_group_IT_number 17
_symmetry_cell_setting 'orthorhombic'
loop_
_space_group_symop_operation_xyz
x,y,z
-x,-y,1/2+z
x,-y,-z
-x,y,1/2-z
loop_
_atom_site_type_symbol
_atom_site_label
_atom_site_fract_x
_atom_site_fract_y
_atom_site_fract_z
Si Si1 0.124143 0.425583 0.398286
Si Si2 0.365036 0.296677 0.037059
Si Si3 0.000000 0.616417 0.250000
Si Si4 0.744260 0.853777 0.059452
Si Si5 0.751894 0.018283 0.775705
O O1 0.889724 0.289680 0.418421
O O2 0.083625 0.493703 0.317171
O O3 0.386784 0.318436 0.413071
O O4 0.144035 0.636481 0.438918
O O5 0.337096 0.500000 0.000000
O O6 0.457803 0.171123 0.968831
O O7 0.781576 0.774537 0.266116
O O8 0.755798 0.930999 0.140207
O O9 0.855662 0.000000 0.000000
O O10 0.500000 0.922675 0.750000
O O11 0.000000 0.912238 0.750000
#
# Coordination Sequence:
#
# PCOD9310990 Si02
#       5
#     4   4   2   4   4
#     4  10  21  37  60  91 125 163 210 265 312 375
#     4  10  21  36  58  90 127 155 203 263 316 366
#     4   8  20  30  64  82 116 166 220 242 304 388
#     4  10  22  41  68 100 127 172 218 271 324 391
#     4   9  20  36  60  90 120 162 220 262 301 380
#
# _framework density 26.040541000000001
#
# number of rings (size 3 to 8) (size 9 to 14) (size 15 to 20)
#    0.667    1.778    0.000    2.000    9.333    1.778 
#    0.000   17.778    7.333    0.000    0.000    0.000 
#    0.000    0.000    0.000    0.000    0.000    0.000 
#
# Total GULP energy -100453.230494 kJ/mol
# GULP energy per Si atom -5580.735027 kJ/mol
# Density = 2.598127 g / cm^3
# Si number density = 26.040541 Si / 1000 Ang^3
#
#
#
# Elastic Constant Matrix: (Units=GPa)
#
#
# Indices 1 2 3 4 5 6 
#
# 1 195.6920 26.7187 41.0579 0.0000 0.0000 0.0000
# 2 26.7187 67.0872 34.1056 0.0000 0.0000 0.0000
# 3 41.0579 34.1056 111.3893 0.0000 0.0000 0.0000
# 4 0.0000 0.0000 0.0000 27.9437 0.0000 0.0000
# 5 0.0000 0.0000 0.0000 0.0000 22.5123 0.0000
# 6 0.0000 0.0000 0.0000 0.0000 0.0000 1.7721
#
#
#
# Elastic Compliance Matrix: (Units=1/GPa)
#
#
# Indices 1 2 3 4 5 6 
#
# 1 0.005649 -0.001411 -0.001650 0.000000 0.000000 0.000000
# 2 -0.001411 0.018006 -0.004993 0.000000 0.000000 0.000000
# 3 -0.001650 -0.004993 0.011115 0.000000 0.000000 0.000000
# 4 0.000000 0.000000 0.000000 0.035786 0.000000 0.000000
# 5 0.000000 0.000000 0.000000 0.000000 0.044420 0.000000
# 6 0.000000 0.000000 0.000000 0.000000 0.000000 0.564310
#
#
# Mechanical properties :
#
#
# Convention : Reuss Voigt Hill
#
# Bulk Modulus (GPa) = 53.58674 64.21477 58.90076
# Shear Modulus (GPa) = 7.12641 28.59804 17.86222
#
# Velocity S-wave (km/s) = 1.65608 3.31752 2.62189
# Velocity P-wave (km/s) = 4.92744 6.27596 5.64213
#
# Compressibility (1/GPa) = 0.01866133
#
# Stress axis : x y z
#
# Youngs Moduli (GPa) = 177.02470 55.53611 89.97162
#
# Poissons Ratio (x) = 0.07835 0.14847
# Poissons Ratio (y) = 0.24976 0.44925
# Poissons Ratio (z) = 0.29213 0.27730
#
# Static dielectric constant tensor:
#      x y z
#    x 2.123540 0.000000 0.000000 
#    y 0.000000 2.088810 0.000000 
#    z 0.000000 0.000000 2.061640 
# 
# From -- ./inp_files/9854.got.cif
#   From: 2010.05.17/outbox.cif.g08.bks.cpg/sg17_5_cif.got.tgz:9854.got - 2010.06.03 22:34:06.
