data_PCOD9310953
_publ_section_title
;
Structure prediction by ZEFSAII (Michael W. Deem and Ramdas Pophale) SiO2 
 PCOD9310953
Probable space group: P 2 2 21
;
_chemical_formula_sum "Si O2"
_cell_formula_units_Z 22
_cell_length_a 4.914843
_cell_length_b 5.845174
_cell_length_c 29.541070
_cell_angle_alpha 90.000000
_cell_angle_beta 90.000000
_cell_angle_gamma 90.000000
_cell_volume 848.659183
_symmetry_space_group_name_H-M "P 2 2 21"
_symmetry_group_IT_number 17
_symmetry_cell_setting 'orthorhombic'
loop_
_space_group_symop_operation_xyz
x,y,z
-x,-y,1/2+z
x,-y,-z
-x,y,1/2-z
loop_
_atom_site_type_symbol
_atom_site_label
_atom_site_fract_x
_atom_site_fract_y
_atom_site_fract_z
Si Si1 0.586312 0.721398 0.173255
Si Si2 0.146503 0.727149 0.414883
Si Si3 0.921936 0.009476 0.702358
Si Si4 0.753874 0.111984 0.456100
Si Si5 0.131663 0.500000 0.500000
Si Si6 0.754088 0.649859 0.631631
O O1 0.632925 0.802523 0.121448
O O2 0.871968 0.777366 0.196116
O O3 0.461843 0.470638 0.165284
O O4 0.373118 0.879183 0.198902
O O5 0.287013 0.608680 0.458003
O O6 0.954502 0.544551 0.388660
O O7 0.955309 0.924938 0.434054
O O8 0.000000 0.898758 0.750000
O O9 0.925638 0.830686 0.661100
O O10 0.941016 0.306756 0.478509
O O11 0.618365 0.231191 0.412445
O O12 0.605058 0.000000 0.500000
#
# Coordination Sequence:
#
# PCOD9310953 Si02
#       6
#     4   4   4   4   2   4
#     4  12  25  48  76 109 146 198 247 316 382 461
#     4  10  20  42  68 109 148 200 248 314 369 455
#     4  12  29  51  73 108 150 191 253 324 391 462
#     4   9  17  37  69 108 155 199 253 311 375 454
#     4   8  18  32  68 106 152 200 254 296 372 450
#     4  11  23  44  76 107 148 203 251 312 393 460
#
# _framework density 25.923245999999999
#
# number of rings (size 3 to 8) (size 9 to 14) (size 15 to 20)
#    0.000    1.455    3.636    0.545    2.545    0.727 
#    3.273    7.273    0.000   10.909    0.000    0.000 
#    0.000    0.000    0.000    0.000    0.000    0.000 
#
# Total GULP energy -123085.182331 kJ/mol
# GULP energy per Si atom -5594.781015 kJ/mol
# Density = 2.586424 g / cm^3
# Si number density = 25.923246 Si / 1000 Ang^3
#
#
#
# Elastic Constant Matrix: (Units=GPa)
#
#
# Indices 1 2 3 4 5 6 
#
# 1 74.7689 18.9143 18.2378 0.0000 0.0000 0.0000
# 2 18.9143 86.5242 47.4046 0.0000 0.0000 0.0000
# 3 18.2378 47.4046 140.8883 0.0000 0.0000 0.0000
# 4 0.0000 0.0000 0.0000 36.7760 0.0000 0.0000
# 5 0.0000 0.0000 0.0000 0.0000 25.4928 0.0000
# 6 0.0000 0.0000 0.0000 0.0000 0.0000 -42.4752
#
#
#
# Elastic Compliance Matrix: (Units=1/GPa)
#
#
# Indices 1 2 3 4 5 6 
#
# 1 0.014266 -0.002583 -0.000978 0.000000 0.000000 0.000000
# 2 -0.002583 0.014637 -0.004591 0.000000 0.000000 0.000000
# 3 -0.000978 -0.004591 0.008769 0.000000 0.000000 0.000000
# 4 0.000000 0.000000 0.000000 0.027192 0.000000 0.000000
# 5 0.000000 0.000000 0.000000 0.000000 0.039227 0.000000
# 6 0.000000 0.000000 0.000000 0.000000 0.000000 -0.023543
#
#
# Mechanical properties :
#
#
# Convention : Reuss Voigt Hill
#
# Bulk Modulus (GPa) = 46.79447 52.36610 49.58029
# Shear Modulus (GPa) = 48.08904 18.46703 33.27804
#
# Velocity S-wave (km/s) = 4.31171 2.67193 3.58678
# Velocity P-wave (km/s) = 6.54814 5.45557 6.02666
#
# Compressibility (1/GPa) = 0.02137005
#
# Stress axis : x y z
#
# Youngs Moduli (GPa) = 70.09453 68.31912 114.03837
#
# Poissons Ratio (x) = 0.17647 0.11149
# Poissons Ratio (y) = 0.18105 0.52350
# Poissons Ratio (z) = 0.06853 0.31363
#
# Static dielectric constant tensor:
#      x y z
#    x 2.027910 0.000000 0.000000 
#    y 0.000000 2.061970 0.000000 
#    z 0.000000 0.000000 2.089070 
# 
# From -- ./inp_files/11082.got.cif
#   From: 2010.05.17/outbox.cif.g08.bks.cpg/sg17_6_cif.got.tgz:11082.got - 2010.06.03 22:34:06.
