data_PCOD9310200
_publ_section_title
;
Structure prediction by ZEFSAII (Michael W. Deem and Ramdas Pophale) SiO2 
 PCOD9310200
Probable space group: P 2 2 2
;
_chemical_formula_sum "Si O2"
_cell_formula_units_Z 30
_cell_length_a 5.424346
_cell_length_b 12.021575
_cell_length_c 22.266745
_cell_angle_alpha 90.000000
_cell_angle_beta 90.000000
_cell_angle_gamma 90.000000
_cell_volume 1451.996233
_symmetry_space_group_name_H-M "P 2 2 2"
_symmetry_group_IT_number 16
_symmetry_cell_setting 'orthorhombic'
loop_
_space_group_symop_operation_xyz
x,y,z
-x,-y,z
x,-y,-z
-x,y,-z
loop_
_atom_site_type_symbol
_atom_site_label
_atom_site_fract_x
_atom_site_fract_y
_atom_site_fract_z
Si Si1 0.134724 0.833379 0.063373
Si Si2 0.468106 0.632324 0.072472
Si Si3 0.761775 0.199091 0.843542
Si Si4 0.933062 0.121051 0.612731
Si Si5 0.431690 0.205660 0.565652
Si Si6 0.929915 0.705460 0.277674
Si Si7 0.500000 0.000000 0.878953
Si Si8 0.430475 0.620209 0.325641
O O1 0.220075 0.706685 0.079600
O O2 0.350934 0.920908 0.073580
O O3 0.934638 0.867884 0.111526
O O4 0.000000 0.834237 0.000000
O O5 0.500000 0.500000 0.084574
O O6 0.650110 0.699440 0.117085
O O7 0.500000 0.644957 0.000000
O O8 0.917854 0.239383 0.787266
O O9 0.566315 0.101385 0.832062
O O10 0.662936 0.126638 0.582922
O O11 0.935758 0.204923 0.668678
O O12 0.158842 0.153140 0.568320
O O13 0.000000 0.000000 0.635630
O O14 0.500000 0.250431 0.500000
O O15 0.426932 0.297408 0.617933
O O16 0.662375 0.648582 0.283428
O O17 0.171402 0.630724 0.290416
O O18 0.500000 0.500000 0.349758
#
# Coordination Sequence:
#
# PCOD9310200 Si02
#       8
#     4   4   4   4   4   4   2   4
#     4  11  23  43  63  92 123 160 206 260 331 392
#     4  10  22  43  64  91 126 159 204 263 329 402
#     4  11  24  43  63  94 123 165 212 267 325 392
#     4  10  21  38  58  89 128 175 211 259 321 375
#     4  10  21  37  61  95 129 163 215 266 311 380
#     4  10  24  42  64  93 128 167 221 267 316 385
#     4  10  26  41  64  94 124 160 211 266 326 400
#     4  10  22  44  66  92 129 171 213 264 324 377
#
# _framework density 20.661208999999999
#
# number of rings (size 3 to 8) (size 9 to 14) (size 15 to 20)
#    0.000    1.733    1.333    1.600    3.733    5.600 
#    7.200    0.000    0.000    4.800    0.000    0.000 
#    0.000    0.000    0.000    0.000    0.000    0.000 
#
# Total GULP energy -167012.026505 kJ/mol
# GULP energy per Si atom -5567.067550 kJ/mol
# Density = 2.061418 g / cm^3
# Si number density = 20.661209 Si / 1000 Ang^3
#
#
#
# Elastic Constant Matrix: (Units=GPa)
#
#
# Indices 1 2 3 4 5 6 
#
# 1 86.8042 13.1672 19.3050 0.0000 0.0000 0.0000
# 2 13.1672 86.2197 -15.4324 0.0000 0.0000 0.0000
# 3 19.3050 -15.4324 57.6362 0.0000 0.0000 0.0000
# 4 0.0000 0.0000 0.0000 -8.8938 0.0000 0.0000
# 5 0.0000 0.0000 0.0000 0.0000 16.5091 0.0000
# 6 0.0000 0.0000 0.0000 0.0000 0.0000 15.8527
#
#
#
# Elastic Compliance Matrix: (Units=1/GPa)
#
#
# Indices 1 2 3 4 5 6 
#
# 1 0.013116 -0.002930 -0.005178 0.000000 0.000000 0.000000
# 2 -0.002930 0.012837 0.004418 0.000000 0.000000 0.000000
# 3 -0.005178 0.004418 0.020268 0.000000 0.000000 0.000000
# 4 0.000000 0.000000 0.000000 -0.112438 0.000000 0.000000
# 5 0.000000 0.000000 0.000000 0.000000 0.060573 0.000000
# 6 0.000000 0.000000 0.000000 0.000000 0.000000 0.063081
#
#
# Mechanical properties :
#
#
# Convention : Reuss Voigt Hill
#
# Bulk Modulus (GPa) = 25.74532 29.41552 27.58042
# Shear Modulus (GPa) = 64.29954 18.93495 41.61724
#
# Velocity S-wave (km/s) = 5.58466 3.03058 4.49293
# Velocity P-wave (km/s) = 7.35339 5.14916 6.34768
#
# Compressibility (1/GPa) = 0.03884202
#
# Stress axis : x y z
#
# Youngs Moduli (GPa) = 76.24221 77.90253 49.34007
#
# Poissons Ratio (x) = 0.22824 0.25547
# Poissons Ratio (y) = 0.22337 -0.21800
# Poissons Ratio (z) = 0.39476 -0.34420
#
# Static dielectric constant tensor:
#      x y z
#    x 1.793630 0.000000 0.000000 
#    y 0.000000 1.788970 0.000000 
#    z 0.000000 0.000000 1.731580 
# 
# From -- ./inp_files/6100.got.cif
#   From: 2010.05.17/outbox.cif.g08.bks.cpg/sg16_4_cif.got.tgz:6100.got - 2010.06.03 22:28:35.
