data_PCOD9310486
_publ_section_title
;
Structure prediction by ZEFSAII (Michael W. Deem and Ramdas Pophale) SiO2 
 PCOD9310486
Probable space group: P 2 2 21
;
_chemical_formula_sum "Si O2"
_cell_formula_units_Z 32
_cell_length_a 8.090153
_cell_length_b 7.602160
_cell_length_c 22.564472
_cell_angle_alpha 90.000000
_cell_angle_beta 90.000000
_cell_angle_gamma 90.000000
_cell_volume 1387.774542
_symmetry_space_group_name_H-M "P 2 2 21"
_symmetry_group_IT_number 17
_symmetry_cell_setting 'orthorhombic'
loop_
_space_group_symop_operation_xyz
x,y,z
-x,-y,1/2+z
x,-y,-z
-x,y,1/2-z
loop_
_atom_site_type_symbol
_atom_site_label
_atom_site_fract_x
_atom_site_fract_y
_atom_site_fract_z
Si Si1 0.080220 0.297018 0.566450
Si Si2 0.953459 0.177774 0.689901
Si Si3 0.569045 0.853331 0.309724
Si Si4 0.077973 0.714552 0.561017
Si Si5 0.447332 0.742791 0.685668
Si Si6 0.461731 0.196912 0.567670
Si Si7 0.533937 0.213055 0.060141
Si Si8 0.070444 0.205149 0.312944
O O1 0.099467 0.505678 0.562105
O O2 0.004676 0.234741 0.503273
O O3 0.263183 0.214736 0.571614
O O4 0.981691 0.261679 0.626220
O O5 0.764111 0.120042 0.694329
O O6 0.000000 0.282040 0.750000
O O7 0.070386 0.006107 0.691226
O O8 0.500000 0.767371 0.250000
O O9 0.529968 0.745000 0.368990
O O10 0.483320 0.045986 0.312795
O O11 0.264714 0.790396 0.560927
O O12 0.988315 0.762846 0.622542
O O13 0.500000 0.673226 0.750000
O O14 0.519091 0.691113 0.620950
O O15 0.251977 0.715986 0.682462
O O16 0.513155 0.282745 0.505001
O O17 0.514274 0.992023 0.563316
O O18 0.000000 0.266983 0.250000
#
# Coordination Sequence:
#
# PCOD9310486 Si02
#       8
#     4   4   4   4   4   4   4   4
#     4  10  19  34  54  76 100 135 176 209 246 301
#     4  11  21  33  53  79 102 133 172 209 252 304
#     4  10  18  30  48  73 101 128 159 207 256 296
#     4   9  19  33  53  75 103 137 170 207 252 301
#     4   9  15  27  47  70  99 126 154 199 249 294
#     4   9  16  30  52  73  97 124 163 211 249 295
#     4   8  15  28  49  74  95 124 164 203 247 298
#     4  10  19  33  52  78 103 131 168 209 253 303
#
# _framework density 23.058499999999999
#
# number of rings (size 3 to 8) (size 9 to 14) (size 15 to 20)
#    0.000    2.500    0.000    6.000    0.000    2.000 
#    0.000    6.250    0.000   22.500    0.000    0.875 
#    0.000    0.000    0.000    0.000    0.000    0.000 
#
# Total GULP energy -178292.702729 kJ/mol
# GULP energy per Si atom -5571.646960 kJ/mol
# Density = 2.300602 g / cm^3
# Si number density = 23.058500 Si / 1000 Ang^3
#
#
#
# Elastic Constant Matrix: (Units=GPa)
#
#
# Indices 1 2 3 4 5 6 
#
# 1 25.7520 -12.6675 27.4758 0.0000 0.0000 0.0000
# 2 -12.6675 44.9312 11.5336 0.0000 0.0000 0.0000
# 3 27.4758 11.5336 303.0799 0.0000 0.0000 0.0000
# 4 0.0000 0.0000 0.0000 17.9770 0.0000 0.0000
# 5 0.0000 0.0000 0.0000 0.0000 27.1120 0.0000
# 6 0.0000 0.0000 0.0000 0.0000 0.0000 -20.8791
#
#
#
# Elastic Compliance Matrix: (Units=1/GPa)
#
#
# Indices 1 2 3 4 5 6 
#
# 1 0.052536 0.016192 -0.005379 0.000000 0.000000 0.000000
# 2 0.016192 0.027466 -0.002513 0.000000 0.000000 0.000000
# 3 -0.005379 -0.002513 0.003883 0.000000 0.000000 0.000000
# 4 0.000000 0.000000 0.000000 0.055627 0.000000 0.000000
# 5 0.000000 0.000000 0.000000 0.000000 0.036884 0.000000
# 6 0.000000 0.000000 0.000000 0.000000 0.000000 -0.047895
#
#
# Mechanical properties :
#
#
# Convention : Reuss Voigt Hill
#
# Bulk Modulus (GPa) = 9.95168 47.38298 28.66733
# Shear Modulus (GPa) = 34.38896 28.00340 31.19618
#
# Velocity S-wave (km/s) = 3.86603 3.48868 3.68219
# Velocity P-wave (km/s) = 4.92478 6.06807 5.52607
#
# Compressibility (1/GPa) = 0.10048553
#
# Stress axis : x y z
#
# Youngs Moduli (GPa) = 19.03465 36.40799 257.55167
#
# Poissons Ratio (x) = -0.58953 1.38533
# Poissons Ratio (y) = -0.30821 0.64726
# Poissons Ratio (z) = 0.10238 0.09150
#
# Static dielectric constant tensor:
#      x y z
#    x 1.783450 0.000000 0.000000 
#    y 0.000000 1.834620 0.000000 
#    z 0.000000 0.000000 2.078940 
# 
# From -- ./inp_files/10628.got.cif
#   From: 2010.05.17/outbox.cif.g08.bks.cpg/sg17_6_cif.got.tgz:10628.got - 2010.06.03 22:34:06.
