data_PCOD9310483
_publ_section_title
;
Structure prediction by ZEFSAII (Michael W. Deem and Ramdas Pophale) SiO2 
 PCOD9310483
Probable space group: P 2 2 21
;
_chemical_formula_sum "Si O2"
_cell_formula_units_Z 18
_cell_length_a 8.729073
_cell_length_b 11.071145
_cell_length_c 8.684053
_cell_angle_alpha 90.000000
_cell_angle_beta 90.000000
_cell_angle_gamma 90.000000
_cell_volume 839.234115
_symmetry_space_group_name_H-M "P 2 2 21"
_symmetry_group_IT_number 17
_symmetry_cell_setting 'orthorhombic'
loop_
_space_group_symop_operation_xyz
x,y,z
-x,-y,1/2+z
x,-y,-z
-x,y,1/2-z
loop_
_atom_site_type_symbol
_atom_site_label
_atom_site_fract_x
_atom_site_fract_y
_atom_site_fract_z
Si Si1 0.284993 0.125615 0.936452
Si Si2 0.525841 0.500000 0.500000
Si Si3 0.000000 0.810256 0.250000
Si Si4 0.233768 0.329648 0.167307
Si Si5 0.900509 0.362394 0.021288
Si Si6 0.500000 0.308238 0.750000
O O1 0.123052 0.112464 0.846519
O O2 0.379998 0.216114 0.826787
O O3 0.263208 0.202607 0.089853
O O4 0.350195 0.000000 0.000000
O O5 0.637375 0.576477 0.613875
O O6 0.448827 0.399202 0.611405
O O7 0.083858 0.720644 0.371527
O O8 0.211855 0.313438 0.347944
O O9 0.071626 0.370236 0.094312
O O10 0.854070 0.500000 0.000000
#
# Coordination Sequence:
#
# PCOD9310483 Si02
#       6
#     4   2   2   4   4   2
#     4  10  23  45  64  90 132 174 221 269 319 399
#     4  10  20  40  60  94 128 162 226 280 332 398
#     4  10  22  36  62  98 126 170 224 264 322 384
#     4   9  19  34  57  89 132 167 204 269 332 384
#     4  10  18  29  56  96 135 165 202 264 338 398
#     4  10  24  42  70  92 130 178 214 280 340 390
#
# _framework density 21.448129000000002
#
# number of rings (size 3 to 8) (size 9 to 14) (size 15 to 20)
#    0.000    2.222    1.111    1.333    6.222    5.333 
#    0.000    7.778    0.000    0.000    0.000    0.000 
#    0.000    0.000    0.000    0.000    0.000    0.000 
#
# Total GULP energy -100442.672768 kJ/mol
# GULP energy per Si atom -5580.148487 kJ/mol
# Density = 2.139931 g / cm^3
# Si number density = 21.448129 Si / 1000 Ang^3
#
#
#
# Elastic Constant Matrix: (Units=GPa)
#
#
# Indices 1 2 3 4 5 6 
#
# 1 32.3301 40.3453 33.3966 0.0000 0.0000 0.0000
# 2 40.3453 99.5013 53.7364 0.0000 0.0000 0.0000
# 3 33.3966 53.7364 154.4049 0.0000 0.0000 0.0000
# 4 0.0000 0.0000 0.0000 18.6802 0.0000 0.0000
# 5 0.0000 0.0000 0.0000 0.0000 21.6191 0.0000
# 6 0.0000 0.0000 0.0000 0.0000 0.0000 17.8590
#
#
#
# Elastic Compliance Matrix: (Units=1/GPa)
#
#
# Indices 1 2 3 4 5 6 
#
# 1 0.067130 -0.023863 -0.006215 0.000000 0.000000 0.000000
# 2 -0.023863 0.020859 -0.002098 0.000000 0.000000 0.000000
# 3 -0.006215 -0.002098 0.008551 0.000000 0.000000 0.000000
# 4 0.000000 0.000000 0.000000 0.053533 0.000000 0.000000
# 5 0.000000 0.000000 0.000000 0.000000 0.046255 0.000000
# 6 0.000000 0.000000 0.000000 0.000000 0.000000 0.055994
#
#
# Mechanical properties :
#
#
# Convention : Reuss Voigt Hill
#
# Bulk Modulus (GPa) = 31.06754 60.13256 45.60005
# Shear Modulus (GPa) = 15.27166 22.21550 18.74358
#
# Velocity S-wave (km/s) = 2.67128 3.22184 2.95939
# Velocity P-wave (km/s) = 4.90211 6.47592 5.74318
#
# Compressibility (1/GPa) = 0.03218794
#
# Stress axis : x y z
#
# Youngs Moduli (GPa) = 14.89646 47.94066 116.94750
#
# Poissons Ratio (x) = 1.14402 0.72680
# Poissons Ratio (y) = 0.35548 0.24536
# Poissons Ratio (z) = 0.09258 0.10058
#
# Static dielectric constant tensor:
#      x y z
#    x 1.866410 0.000000 0.000000 
#    y 0.000000 2.129000 0.000000 
#    z 0.000000 0.000000 1.809540 
# 
# From -- ./inp_files/3969.got.cif
#   From: 2010.05.17/outbox.cif.g08.bks.cpg/sg17_2_cif.got.tgz:3969.got - 2010.06.03 22:34:06.
