data_PCOD9310227
_publ_section_title
;
Structure prediction by ZEFSAII (Michael W. Deem and Ramdas Pophale) SiO2 
 PCOD9310227
Probable space group: P 2 2 2
;
_chemical_formula_sum "Si O2"
_cell_formula_units_Z 25
_cell_length_a 7.344178
_cell_length_b 11.143415
_cell_length_c 12.715474
_cell_angle_alpha 90.000000
_cell_angle_beta 90.000000
_cell_angle_gamma 90.000000
_cell_volume 1040.624516
_symmetry_space_group_name_H-M "P 2 2 2"
_symmetry_group_IT_number 16
_symmetry_cell_setting 'orthorhombic'
loop_
_space_group_symop_operation_xyz
x,y,z
-x,-y,z
x,-y,-z
-x,y,-z
loop_
_atom_site_type_symbol
_atom_site_label
_atom_site_fract_x
_atom_site_fract_y
_atom_site_fract_z
Si Si1 0.296159 0.489486 0.372963
Si Si2 0.197401 0.752951 0.373804
Si Si3 0.000000 0.500000 0.000000
Si Si4 0.243343 0.114499 0.182977
Si Si5 0.195158 0.851348 0.156971
Si Si6 0.220295 0.218563 0.392285
Si Si7 0.304180 0.321273 0.031921
O O1 0.500000 0.500000 0.330563
O O2 0.300104 0.500000 0.500000
O O3 0.188570 0.610516 0.346735
O O4 0.236574 0.355046 0.349303
O O5 0.273666 0.812705 0.269918
O O6 0.289915 0.776412 0.487245
O O7 0.995637 0.802364 0.391871
O O8 0.855370 0.415359 0.938717
O O9 0.293249 0.126461 0.306107
O O10 0.335715 0.222495 0.121332
O O11 0.024525 0.136945 0.169534
O O12 0.272941 0.983410 0.135430
O O13 0.231857 0.754296 0.068045
O O14 0.500000 0.372675 0.000000
#
# Coordination Sequence:
#
# PCOD9310227 Si02
#       7
#     4   4   1   4   4   4   4
#     4   9  17  30  49  74 111 159 207 257 318 379
#     4   9  18  33  56  88 125 170 222 270 320 385
#     4  12  26  52  74 102 138 168 206 282 340 400
#     4  10  21  40  65  93 133 181 222 272 332 387
#     4  10  21  40  65  93 133 181 222 272 332 387
#     4   9  18  33  56  88 125 170 222 270 320 385
#     4  12  26  46  74 103 131 172 220 270 333 401
#
# _framework density 24.024035999999999
#
# number of rings (size 3 to 8) (size 9 to 14) (size 15 to 20)
#    0.000    2.080    1.600    1.200    0.000    7.680 
#    0.000    3.200    0.000    0.000    0.000    6.720 
#    0.000    0.000    0.000    0.000    0.000    0.000 
#
# Total GULP energy -139550.486509 kJ/mol
# GULP energy per Si atom -5582.019460 kJ/mol
# Density = 2.396936 g / cm^3
# Si number density = 24.024036 Si / 1000 Ang^3
#
#
#
# Elastic Constant Matrix: (Units=GPa)
#
#
# Indices 1 2 3 4 5 6 
#
# 1 79.1220 6.8860 1.7895 0.0000 0.0000 0.0000
# 2 6.8860 91.6639 31.5055 0.0000 0.0000 0.0000
# 3 1.7895 31.5055 100.4811 0.0000 0.0000 0.0000
# 4 0.0000 0.0000 0.0000 14.1369 0.0000 0.0000
# 5 0.0000 0.0000 0.0000 0.0000 4.8091 0.0000
# 6 0.0000 0.0000 0.0000 0.0000 0.0000 -5.6200
#
#
#
# Elastic Compliance Matrix: (Units=1/GPa)
#
#
# Indices 1 2 3 4 5 6 
#
# 1 0.012722 -0.000984 0.000082 0.000000 0.000000 0.000000
# 2 -0.000984 0.012303 -0.003840 0.000000 0.000000 0.000000
# 3 0.000082 -0.003840 0.011155 0.000000 0.000000 0.000000
# 4 0.000000 0.000000 0.000000 0.070737 0.000000 0.000000
# 5 0.000000 0.000000 0.000000 0.000000 0.207939 0.000000
# 6 0.000000 0.000000 0.000000 0.000000 0.000000 -0.177936
#
#
# Mechanical properties :
#
#
# Convention : Reuss Voigt Hill
#
# Bulk Modulus (GPa) = 37.45845 39.06988 38.26417
# Shear Modulus (GPa) = 32.19511 18.07093 25.13302
#
# Velocity S-wave (km/s) = 3.66474 2.74561 3.23795
# Velocity P-wave (km/s) = 5.79077 5.13315 5.47185
#
# Compressibility (1/GPa) = 0.02669625
#
# Stress axis : x y z
#
# Youngs Moduli (GPa) = 78.60095 81.27967 89.64817
#
# Poissons Ratio (x) = 0.07997 -0.00734
# Poissons Ratio (y) = 0.07734 0.34426
# Poissons Ratio (z) = -0.00644 0.31212
#
# Static dielectric constant tensor:
#      x y z
#    x 1.929350 0.000000 0.000000 
#    y 0.000000 1.908800 0.000000 
#    z 0.000000 0.000000 1.929880 
# 
# From -- ./inp_files/6528.got.cif
#   From: 2010.05.17/outbox.cif.g08.bks.cpg/sg16_4_cif.got.tgz:6528.got - 2010.06.03 22:28:35.
