data_PCOD9310045
_publ_section_title
;
Structure prediction by ZEFSAII (Michael W. Deem and Ramdas Pophale) SiO2 
 PCOD9310045
Probable space group: P 2 2 2
;
_chemical_formula_sum "Si O2"
_cell_formula_units_Z 24
_cell_length_a 7.510233
_cell_length_b 5.210155
_cell_length_c 27.695514
_cell_angle_alpha 90.000000
_cell_angle_beta 90.000000
_cell_angle_gamma 90.000000
_cell_volume 1083.711006
_symmetry_space_group_name_H-M "P 2 2 2"
_symmetry_group_IT_number 16
_symmetry_cell_setting 'orthorhombic'
loop_
_space_group_symop_operation_xyz
x,y,z
-x,-y,z
x,-y,-z
-x,y,-z
loop_
_atom_site_type_symbol
_atom_site_label
_atom_site_fract_x
_atom_site_fract_y
_atom_site_fract_z
Si Si1 0.128134 0.753668 0.377397
Si Si2 0.783880 0.498756 0.113842
Si Si3 0.217033 0.992369 0.944623
Si Si4 0.297472 0.748018 0.478100
Si Si5 0.311843 0.385305 0.222854
Si Si6 0.192182 0.872303 0.272162
O O1 0.268543 0.735899 0.421133
O O2 0.000000 0.500000 0.373747
O O3 0.234989 0.805367 0.327615
O O4 0.000000 0.000000 0.385694
O O5 0.730422 0.720669 0.077053
O O6 0.709326 0.583919 0.165532
O O7 0.000000 0.500000 0.118232
O O8 0.729651 0.225456 0.090924
O O9 0.000000 0.000000 0.945530
O O10 0.277358 0.000000 0.000000
O O11 0.208169 0.500000 0.500000
O O12 0.500000 0.748228 0.500000
O O13 0.212977 0.000000 0.500000
O O14 0.500000 0.500000 0.238230
O O15 0.295341 0.096747 0.243056
O O16 0.183650 0.602885 0.244738
O O17 0.000000 0.000000 0.274988
#
# Coordination Sequence:
#
# PCOD9310045 Si02
#       6
#     4   4   4   4   4   4
#     4  11  23  41  68  97 126 164 214 264 316 375
#     4  10  19  33  57  84 115 163 207 256 318 377
#     4   9  17  30  52  85 118 151 205 266 314 367
#     4  10  22  41  61  93 130 169 204 249 314 377
#     4  12  25  42  62  96 130 168 216 268 327 385
#     4  11  23  44  68  92 127 168 214 269 323 386
#
# _framework density 22.146125999999999
#
# number of rings (size 3 to 8) (size 9 to 14) (size 15 to 20)
#    0.000    1.500    0.000    6.500    0.000    5.333 
#    9.000    0.000    0.000    3.000    0.000    0.000 
#    0.000    0.000    0.000    0.000    0.000    0.000 
#
# Total GULP energy -133947.860277 kJ/mol
# GULP energy per Si atom -5581.160845 kJ/mol
# Density = 2.209572 g / cm^3
# Si number density = 22.146126 Si / 1000 Ang^3
#
#
#
# Elastic Constant Matrix: (Units=GPa)
#
#
# Indices 1 2 3 4 5 6 
#
# 1 56.1939 18.0849 23.1676 0.0000 0.0000 0.0000
# 2 18.0849 168.4058 47.4100 0.0000 0.0000 0.0000
# 3 23.1676 47.4100 175.4168 0.0000 0.0000 0.0000
# 4 0.0000 0.0000 0.0000 41.4135 0.0000 0.0000
# 5 0.0000 0.0000 0.0000 0.0000 25.7227 0.0000
# 6 0.0000 0.0000 0.0000 0.0000 0.0000 -2.7297
#
#
#
# Elastic Compliance Matrix: (Units=1/GPa)
#
#
# Indices 1 2 3 4 5 6 
#
# 1 0.019144 -0.001455 -0.002135 0.000000 0.000000 0.000000
# 2 -0.001455 0.006538 -0.001575 0.000000 0.000000 0.000000
# 3 -0.002135 -0.001575 0.006408 0.000000 0.000000 0.000000
# 4 0.000000 0.000000 0.000000 0.024147 0.000000 0.000000
# 5 0.000000 0.000000 0.000000 0.000000 0.038876 0.000000
# 6 0.000000 0.000000 0.000000 0.000000 0.000000 -0.366337
#
#
# Mechanical properties :
#
#
# Convention : Reuss Voigt Hill
#
# Bulk Modulus (GPa) = 45.95495 64.14908 55.05201
# Shear Modulus (GPa) = -19.71290 33.63823 6.96267
#
# Velocity S-wave (km/s) = -2.98674 3.90156 1.77505
# Velocity P-wave (km/s) = 2.98357 7.02321 5.39570
#
# Compressibility (1/GPa) = 0.02176044
#
# Stress axis : x y z
#
# Youngs Moduli (GPa) = 52.23568 152.96136 156.04687
#
# Poissons Ratio (x) = 0.22252 0.33319
# Poissons Ratio (y) = 0.07599 0.24574
# Poissons Ratio (z) = 0.11153 0.24088
#
# Static dielectric constant tensor:
#      x y z
#    x 1.902560 0.000000 0.000000 
#    y 0.000000 1.840570 0.000000 
#    z 0.000000 0.000000 1.842780 
# 
# From -- ./inp_files/9533.got.cif
#   From: 2010.05.17/outbox.cif.g08.bks.cpg/sg16_5_cif.got.tgz:9533.got - 2010.06.03 22:28:35.
