data_PCOD9310954
_publ_section_title
;
Structure prediction by ZEFSAII (Michael W. Deem and Ramdas Pophale) SiO2 
 PCOD9310954
Probable space group: P 2 2 21
;
_chemical_formula_sum "Si O2"
_cell_formula_units_Z 20
_cell_length_a 6.260453
_cell_length_b 6.101679
_cell_length_c 23.957087
_cell_angle_alpha 90.000000
_cell_angle_beta 90.000000
_cell_angle_gamma 90.000000
_cell_volume 915.143345
_symmetry_space_group_name_H-M "P 2 2 21"
_symmetry_group_IT_number 17
_symmetry_cell_setting 'orthorhombic'
loop_
_space_group_symop_operation_xyz
x,y,z
-x,-y,1/2+z
x,-y,-z
-x,y,1/2-z
loop_
_atom_site_type_symbol
_atom_site_label
_atom_site_fract_x
_atom_site_fract_y
_atom_site_fract_z
Si Si1 0.640170 0.000000 0.000000
Si Si2 0.226952 0.612964 0.849570
Si Si3 0.956970 0.008971 0.094089
Si Si4 0.298037 0.667785 0.048683
Si Si5 0.121920 0.270043 0.697229
Si Si6 0.500000 0.453293 0.250000
O O1 0.788268 0.094347 0.049249
O O2 0.491949 0.814467 0.026868
O O3 0.351115 0.468247 0.895474
O O4 0.375862 0.679350 0.797822
O O5 0.116648 0.810579 0.881816
O O6 0.041264 0.456816 0.824866
O O7 0.842846 0.897609 0.147097
O O8 0.101040 0.825656 0.063675
O O9 0.236959 0.500000 0.000000
O O10 0.331611 0.389907 0.718964
O O11 0.000000 0.162149 0.750000
#
# Coordination Sequence:
#
# PCOD9310954 Si02
#       6
#     2   4   4   4   4   2
#     4  12  24  38  64  94 122 164 210 256 318 378
#     4  10  22  41  64  93 129 165 208 262 315 374
#     4  11  24  43  65  94 129 166 211 262 317 373
#     4  11  24  43  64  92 127 164 211 262 314 376
#     4   9  21  40  63  93 129 167 208 260 315 371
#     4  10  20  42  68  92 126 170 212 256 314 372
#
# _framework density 21.854500000000002
#
# number of rings (size 3 to 8) (size 9 to 14) (size 15 to 20)
#    0.000    1.600    0.000    4.200    0.000    9.600 
#    0.000   10.000    0.000    0.000    0.000    0.000 
#    0.000    0.000    0.000    0.000    0.000    0.000 
#
# Total GULP energy -111921.656335 kJ/mol
# GULP energy per Si atom -5596.082817 kJ/mol
# Density = 2.180476 g / cm^3
# Si number density = 21.854500 Si / 1000 Ang^3
#
#
#
# Elastic Constant Matrix: (Units=GPa)
#
#
# Indices 1 2 3 4 5 6 
#
# 1 80.4816 30.2324 74.6039 0.0000 0.0000 0.0000
# 2 30.2324 67.8928 55.4315 0.0000 0.0000 0.0000
# 3 74.6039 55.4315 167.6878 0.0000 0.0000 0.0000
# 4 0.0000 0.0000 0.0000 29.6920 0.0000 0.0000
# 5 0.0000 0.0000 0.0000 0.0000 53.4882 0.0000
# 6 0.0000 0.0000 0.0000 0.0000 0.0000 6.7813
#
#
#
# Elastic Compliance Matrix: (Units=1/GPa)
#
#
# Indices 1 2 3 4 5 6 
#
# 1 0.021430 -0.002408 -0.008738 0.000000 0.000000 0.000000
# 2 -0.002408 0.020445 -0.005687 0.000000 0.000000 0.000000
# 3 -0.008738 -0.005687 0.011731 0.000000 0.000000 0.000000
# 4 0.000000 0.000000 0.000000 0.033679 0.000000 0.000000
# 5 0.000000 0.000000 0.000000 0.000000 0.018696 0.000000
# 6 0.000000 0.000000 0.000000 0.000000 0.000000 0.147464
#
#
# Mechanical properties :
#
#
# Convention : Reuss Voigt Hill
#
# Bulk Modulus (GPa) = 50.15333 70.73310 60.44321
# Shear Modulus (GPa) = 17.02095 28.37863 22.69979
#
# Velocity S-wave (km/s) = 2.79378 3.60742 3.22635
# Velocity P-wave (km/s) = 5.77975 7.05599 6.44952
#
# Compressibility (1/GPa) = 0.01993886
#
# Stress axis : x y z
#
# Youngs Moduli (GPa) = 46.66447 48.91289 85.24637
#
# Poissons Ratio (x) = 0.11780 0.74487
# Poissons Ratio (y) = 0.11239 0.48477
# Poissons Ratio (z) = 0.40775 0.27815
#
# Static dielectric constant tensor:
#      x y z
#    x 1.779080 0.000000 0.000000 
#    y 0.000000 1.767580 0.000000 
#    z 0.000000 0.000000 1.818460 
# 
# From -- ./inp_files/10770.got.cif
#   From: 2010.05.17/outbox.cif.g08.bks.cpg/sg17_6_cif.got.tgz:10770.got - 2010.06.03 22:34:06.
