data_PCOD9310562
_publ_section_title
;
Structure prediction by ZEFSAII (Michael W. Deem and Ramdas Pophale) SiO2 
 PCOD9310562
Probable space group: P 2 2 21
;
_chemical_formula_sum "Si O2"
_cell_formula_units_Z 16
_cell_length_a 9.569047
_cell_length_b 8.249581
_cell_length_c 8.171022
_cell_angle_alpha 90.000000
_cell_angle_beta 90.000000
_cell_angle_gamma 90.000000
_cell_volume 645.025611
_symmetry_space_group_name_H-M "P 2 2 21"
_symmetry_group_IT_number 17
_symmetry_cell_setting 'orthorhombic'
loop_
_space_group_symop_operation_xyz
x,y,z
-x,-y,1/2+z
x,-y,-z
-x,y,1/2-z
loop_
_atom_site_type_symbol
_atom_site_label
_atom_site_fract_x
_atom_site_fract_y
_atom_site_fract_z
Si Si1 0.600168 0.307799 0.886497
Si Si2 0.079848 0.338394 0.581785
Si Si3 0.030905 0.000000 0.000000
Si Si4 0.306514 0.007993 0.186643
Si Si5 0.500000 0.710674 0.750000
O O1 0.500000 0.387745 0.750000
O O2 0.757144 0.371761 0.888812
O O3 0.634099 0.126838 0.810740
O O4 0.522247 0.333933 0.057801
O O5 0.019261 0.500000 0.500000
O O6 0.000000 0.321150 0.750000
O O7 0.055139 0.166726 0.490877
O O8 0.141863 0.990359 0.151950
O O9 0.357128 0.181393 0.243270
O O10 0.366067 0.000000 0.000000
#
# Coordination Sequence:
#
# PCOD9310562 Si02
#       5
#     4   4   2   4   2
#     4  12  24  46  74 111 163 204 270 337 403 480
#     4  12  29  53  79 121 163 211 274 339 407 492
#     4  10  24  46  84 110 154 212 270 328 398 486
#     4  10  18  38  70 111 153 201 255 328 392 470
#     4  12  22  36  74 120 148 210 268 328 404 478
#
# _framework density 24.805216999999999
#
# number of rings (size 3 to 8) (size 9 to 14) (size 15 to 20)
#    0.750    0.000    6.250    0.750    3.500    3.000 
#    2.250    0.000    0.000    0.000    0.000    0.000 
#    0.000    0.000    0.000    0.000    0.000    0.000 
#
# Total GULP energy -89224.625426 kJ/mol
# GULP energy per Si atom -5576.539089 kJ/mol
# Density = 2.474876 g / cm^3
# Si number density = 24.805217 Si / 1000 Ang^3
#
#
#
# Elastic Constant Matrix: (Units=GPa)
#
#
# Indices 1 2 3 4 5 6 
#
# 1 146.5989 29.1058 47.7270 0.0000 0.0000 0.0000
# 2 29.1058 79.0652 84.0789 0.0000 0.0000 0.0000
# 3 47.7270 84.0789 208.9224 0.0000 0.0000 0.0000
# 4 0.0000 0.0000 0.0000 59.7018 0.0000 0.0000
# 5 0.0000 0.0000 0.0000 0.0000 34.9512 0.0000
# 6 0.0000 0.0000 0.0000 0.0000 0.0000 38.1365
#
#
#
# Elastic Compliance Matrix: (Units=1/GPa)
#
#
# Indices 1 2 3 4 5 6 
#
# 1 0.007489 -0.001639 -0.001051 0.000000 0.000000 0.000000
# 2 -0.001639 0.022469 -0.008668 0.000000 0.000000 0.000000
# 3 -0.001051 -0.008668 0.008515 0.000000 0.000000 0.000000
# 4 0.000000 0.000000 0.000000 0.016750 0.000000 0.000000
# 5 0.000000 0.000000 0.000000 0.000000 0.028611 0.000000
# 6 0.000000 0.000000 0.000000 0.000000 0.000000 0.026222
#
#
# Mechanical properties :
#
#
# Convention : Reuss Voigt Hill
#
# Bulk Modulus (GPa) = 63.46638 84.04554 73.75596
# Shear Modulus (GPa) = 36.22564 44.80289 40.51427
#
# Velocity S-wave (km/s) = 3.82567 4.25454 4.04579
# Velocity P-wave (km/s) = 6.71980 7.62172 7.18493
#
# Compressibility (1/GPa) = 0.01575637
#
# Stress axis : x y z
#
# Youngs Moduli (GPa) = 133.52965 44.50635 117.44089
#
# Poissons Ratio (x) = 0.07295 0.12345
# Poissons Ratio (y) = 0.21886 1.01797
# Poissons Ratio (z) = 0.14037 0.38578
#
# Static dielectric constant tensor:
#      x y z
#    x 1.961280 0.000000 0.000000 
#    y 0.000000 2.154610 0.000000 
#    z 0.000000 0.000000 2.037200 
# 
# From -- ./inp_files/3765.got.cif
#   From: 2010.05.17/outbox.cif.g08.bks.cpg/sg17_2_cif.got.tgz:3765.got - 2010.06.03 22:34:06.
