data_PCOD9310731
_publ_section_title
;
Structure prediction by ZEFSAII (Michael W. Deem and Ramdas Pophale) SiO2 
 PCOD9310731
Probable space group: P 2 2 21
;
_chemical_formula_sum "Si O2"
_cell_formula_units_Z 18
_cell_length_a 11.499427
_cell_length_b 8.607247
_cell_length_c 9.039761
_cell_angle_alpha 90.000000
_cell_angle_beta 90.000000
_cell_angle_gamma 90.000000
_cell_volume 894.741157
_symmetry_space_group_name_H-M "P 2 2 21"
_symmetry_group_IT_number 17
_symmetry_cell_setting 'orthorhombic'
loop_
_space_group_symop_operation_xyz
x,y,z
-x,-y,1/2+z
x,-y,-z
-x,y,1/2-z
loop_
_atom_site_type_symbol
_atom_site_label
_atom_site_fract_x
_atom_site_fract_y
_atom_site_fract_z
Si Si1 0.672192 0.725298 0.902676
Si Si2 0.729320 0.886815 0.361619
Si Si3 0.500000 0.941436 0.750000
Si Si4 0.638729 0.600052 0.232714
Si Si5 0.106323 0.939372 0.656859
O O1 0.558741 0.831017 0.872685
O O2 0.669032 0.580680 0.789505
O O3 0.787829 0.822248 0.871133
O O4 0.669581 0.672943 0.072420
O O5 0.703385 0.701969 0.358823
O O6 0.755411 0.000000 0.500000
O O7 0.606273 0.955472 0.305114
O O8 0.833390 0.921422 0.248175
O O9 0.500000 0.608948 0.250000
O O10 0.000000 0.872685 0.750000
O O11 0.063017 0.000000 0.500000
#
# Coordination Sequence:
#
# PCOD9310731 Si02
#       5
#     4   4   2   4   4
#     4  10  22  38  60  96 135 179 219 282 343 413
#     4  11  22  36  62  95 127 170 229 276 337 412
#     4  10  20  32  54  92 130 170 216 274 328 406
#     4  11  20  37  63  95 139 180 213 272 357 423
#     4  11  23  44  68  89 125 175 236 297 339 393
#
# _framework density 20.117549
#
# number of rings (size 3 to 8) (size 9 to 14) (size 15 to 20)
#    0.000    1.333    4.444    2.000    0.000    0.000 
#    0.000    1.111    4.889    0.000    0.000    0.000 
#    0.000    0.000    0.000    0.000    0.000    0.000 
#
# Total GULP energy -100467.464145 kJ/mol
# GULP energy per Si atom -5581.525786 kJ/mol
# Density = 2.007176 g / cm^3
# Si number density = 20.117549 Si / 1000 Ang^3
#
#
#
# Elastic Constant Matrix: (Units=GPa)
#
#
# Indices 1 2 3 4 5 6 
#
# 1 76.5140 -4.1275 15.6793 0.0000 0.0000 0.0000
# 2 -4.1275 69.6957 7.0580 0.0000 0.0000 0.0000
# 3 15.6793 7.0580 67.1614 0.0000 0.0000 0.0000
# 4 0.0000 0.0000 0.0000 26.5792 0.0000 0.0000
# 5 0.0000 0.0000 0.0000 0.0000 33.1627 0.0000
# 6 0.0000 0.0000 0.0000 0.0000 0.0000 1.0518
#
#
#
# Elastic Compliance Matrix: (Units=1/GPa)
#
#
# Indices 1 2 3 4 5 6 
#
# 1 0.013818 0.001157 -0.003348 0.000000 0.000000 0.000000
# 2 0.001157 0.014599 -0.001804 0.000000 0.000000 0.000000
# 3 -0.003348 -0.001804 0.015861 0.000000 0.000000 0.000000
# 4 0.000000 0.000000 0.000000 0.037623 0.000000 0.000000
# 5 0.000000 0.000000 0.000000 0.000000 0.030154 0.000000
# 6 0.000000 0.000000 0.000000 0.000000 0.000000 0.950730
#
#
# Mechanical properties :
#
#
# Convention : Reuss Voigt Hill
#
# Bulk Modulus (GPa) = 27.55681 27.84340 27.70011
# Shear Modulus (GPa) = 4.61735 25.14284 14.88010
#
# Velocity S-wave (km/s) = 1.51663 3.53908 2.72261
# Velocity P-wave (km/s) = 4.09811 5.52906 4.86647
#
# Compressibility (1/GPa) = 0.03628866
#
# Stress axis : x y z
#
# Youngs Moduli (GPa) = 72.36980 68.49619 63.04918
#
# Poissons Ratio (x) = -0.07927 0.21106
# Poissons Ratio (y) = -0.08375 0.11377
# Poissons Ratio (z) = 0.24226 0.12360
#
# Static dielectric constant tensor:
#      x y z
#    x 1.655730 0.000000 0.000000 
#    y 0.000000 1.753240 0.000000 
#    z 0.000000 0.000000 1.778920 
# 
# From -- ./inp_files/3914.got.cif
#   From: 2010.05.17/outbox.cif.g08.bks.cpg/sg17_2_cif.got.tgz:3914.got - 2010.06.03 22:34:06.
