data_PCOD9310086
_publ_section_title
;
Structure prediction by ZEFSAII (Michael W. Deem and Ramdas Pophale) SiO2 
 PCOD9310086
Probable space group: P 2 2 2
;
_chemical_formula_sum "Si O2"
_cell_formula_units_Z 21
_cell_length_a 5.010941
_cell_length_b 17.369995
_cell_length_c 12.980786
_cell_angle_alpha 90.000000
_cell_angle_beta 90.000000
_cell_angle_gamma 90.000000
_cell_volume 1129.847875
_symmetry_space_group_name_H-M "P 2 2 2"
_symmetry_group_IT_number 16
_symmetry_cell_setting 'orthorhombic'
loop_
_space_group_symop_operation_xyz
x,y,z
-x,-y,z
x,-y,-z
-x,y,-z
loop_
_atom_site_type_symbol
_atom_site_label
_atom_site_fract_x
_atom_site_fract_y
_atom_site_fract_z
Si Si1 0.417639 0.086664 0.266754
Si Si2 0.763898 0.449423 0.203722
Si Si3 0.015794 0.283947 0.767266
Si Si4 0.000000 0.500000 0.000000
Si Si5 0.515799 0.224356 0.878406
Si Si6 0.931581 0.148332 0.380418
O O1 0.404225 0.141073 0.166419
O O2 0.132394 0.091890 0.320879
O O3 0.633824 0.124849 0.345562
O O4 0.500000 0.000000 0.244092
O O5 0.500000 0.500000 0.220237
O O6 0.830284 0.364689 0.243723
O O7 0.823128 0.450039 0.079381
O O8 0.000000 0.500000 0.250229
O O9 0.216516 0.237219 0.839731
O O10 0.727494 0.283452 0.824053
O O11 0.002189 0.233777 0.663527
O O12 0.500000 0.231343 0.000000
O O13 0.000000 0.143952 0.500000
#
# Coordination Sequence:
#
# PCOD9310086 Si02
#       6
#     4   4   4   1   4   4
#     4  10  21  36  53  81 112 138 180 229 274 330
#     4  10  20  32  49  75 107 137 172 213 263 314
#     4  10  21  36  53  78 109 141 181 226 263 321
#     4   8  22  28  46  76 104 132 172 204 262 308
#     4  10  21  33  53  77 106 149 185 215 263 321
#     4  10  21  37  57  81 105 139 183 228 281 325
#
# _framework density 18.586570999999999
#
# number of rings (size 3 to 8) (size 9 to 14) (size 15 to 20)
#    0.571    1.524    0.000    3.143    2.667    2.667 
#    0.000    0.000    0.000    7.429    0.000    1.333 
#    0.000    0.000    0.000    0.000    0.000    0.000 
#
# Total GULP energy -116926.388634 kJ/mol
# GULP energy per Si atom -5567.923268 kJ/mol
# Density = 1.854427 g / cm^3
# Si number density = 18.586571 Si / 1000 Ang^3
#
#
#
# Elastic Constant Matrix: (Units=GPa)
#
#
# Indices 1 2 3 4 5 6 
#
# 1 94.0807 7.3224 -1.5067 0.0000 0.0000 0.0000
# 2 7.3224 100.6519 -1.6934 0.0000 0.0000 0.0000
# 3 -1.5067 -1.6934 10.3952 0.0000 0.0000 0.0000
# 4 0.0000 0.0000 0.0000 2.0496 0.0000 0.0000
# 5 0.0000 0.0000 0.0000 0.0000 -1.5024 0.0000
# 6 0.0000 0.0000 0.0000 0.0000 0.0000 27.7855
#
#
#
# Elastic Compliance Matrix: (Units=1/GPa)
#
#
# Indices 1 2 3 4 5 6 
#
# 1 0.010711 -0.000755 0.001429 0.000000 0.000000 0.000000
# 2 -0.000755 0.010016 0.001522 0.000000 0.000000 0.000000
# 3 0.001429 0.001522 0.096653 0.000000 0.000000 0.000000
# 4 0.000000 0.000000 0.000000 0.487897 0.000000 0.000000
# 5 0.000000 0.000000 0.000000 0.000000 -0.665606 0.000000
# 6 0.000000 0.000000 0.000000 0.000000 0.000000 0.035990
#
#
# Mechanical properties :
#
#
# Convention : Reuss Voigt Hill
#
# Bulk Modulus (GPa) = 8.21202 23.70804 15.96003
# Shear Modulus (GPa) = 421.60873 19.06690 220.33782
#
# Velocity S-wave (km/s) = 15.07739 3.20635 10.89973
# Velocity P-wave (km/s) = 17.53657 5.14692 12.92327
#
# Compressibility (1/GPa) = 0.12177266
#
# Stress axis : x y z
#
# Youngs Moduli (GPa) = 93.36333 99.84244 10.34626
#
# Poissons Ratio (x) = 0.07540 -0.01479
# Poissons Ratio (y) = 0.07050 -0.01575
# Poissons Ratio (z) = -0.13345 -0.15197
#
# Static dielectric constant tensor:
#      x y z
#    x 1.656400 0.000000 0.000000 
#    y 0.000000 2.121620 0.000000 
#    z 0.000000 0.000000 1.621610 
# 
# From -- ./inp_files/5909.got.cif
#   From: 2010.05.17/outbox.cif.g08.bks.cpg/sg16_3_cif.got.tgz:5909.got - 2010.06.03 22:28:35.
