data_PCOD9310345
_publ_section_title
;
Structure prediction by ZEFSAII (Michael W. Deem and Ramdas Pophale) SiO2 
 PCOD9310345
Probable space group: P 2 2 2
;
_chemical_formula_sum "Si O2"
_cell_formula_units_Z 25
_cell_length_a 9.465345
_cell_length_b 11.381285
_cell_length_c 10.407672
_cell_angle_alpha 90.000000
_cell_angle_beta 90.000000
_cell_angle_gamma 90.000000
_cell_volume 1121.195494
_symmetry_space_group_name_H-M "P 2 2 2"
_symmetry_group_IT_number 16
_symmetry_cell_setting 'orthorhombic'
loop_
_space_group_symop_operation_xyz
x,y,z
-x,-y,z
x,-y,-z
-x,y,-z
loop_
_atom_site_type_symbol
_atom_site_label
_atom_site_fract_x
_atom_site_fract_y
_atom_site_fract_z
Si Si1 0.628596 0.418880 0.823546
Si Si2 0.148306 0.850952 0.220866
Si Si3 0.667341 0.805138 0.027802
Si Si4 0.823244 0.112931 0.727443
Si Si5 0.375928 0.731422 0.574858
Si Si6 0.763539 0.614218 0.651637
Si Si7 0.000000 0.500000 0.500000
O O1 0.500000 0.500000 0.864364
O O2 0.685687 0.333824 0.935086
O O3 0.579532 0.330423 0.708649
O O4 0.729457 0.511155 0.751758
O O5 0.223106 0.740955 0.285955
O O6 0.976814 0.840963 0.223923
O O7 0.170480 0.973933 0.294339
O O8 0.225355 0.849457 0.082022
O O9 0.713333 0.871393 0.156212
O O10 0.500000 0.821553 0.000000
O O11 0.758985 0.189477 0.611737
O O12 0.500000 0.799203 0.500000
O O13 0.336391 0.630819 0.472191
O O14 0.910961 0.582173 0.590515
#
# Coordination Sequence:
#
# PCOD9310345 Si02
#       7
#     4   4   4   4   4   4   1
#     4  11  22  41  68  97 140 180 225 284 360 423
#     4  11  25  46  71 100 140 187 230 291 355 419
#     4  11  25  44  70 103 134 179 240 293 351 416
#     4  10  25  48  71  98 139 187 236 286 356 423
#     4  11  22  42  71 105 137 182 234 286 354 429
#     4  12  24  39  68 100 137 181 226 287 349 421
#     4  12  24  40  62 100 144 180 232 282 344 440
#
# _framework density 22.297626000000001
#
# number of rings (size 3 to 8) (size 9 to 14) (size 15 to 20)
#    0.000    0.960    3.200    2.880    4.480    5.440 
#    0.000    2.400    0.000    0.000    0.000    0.000 
#    0.000    0.000    0.000    0.000    0.000    0.000 
#
# Total GULP energy -139582.567837 kJ/mol
# GULP energy per Si atom -5583.302713 kJ/mol
# Density = 2.224688 g / cm^3
# Si number density = 22.297626 Si / 1000 Ang^3
#
#
#
# Elastic Constant Matrix: (Units=GPa)
#
#
# Indices 1 2 3 4 5 6 
#
# 1 118.0494 29.3240 31.8106 0.0000 0.0000 0.0000
# 2 29.3240 97.1703 16.1260 0.0000 0.0000 0.0000
# 3 31.8106 16.1260 51.1290 0.0000 0.0000 0.0000
# 4 0.0000 0.0000 0.0000 24.0706 0.0000 0.0000
# 5 0.0000 0.0000 0.0000 0.0000 35.9771 0.0000
# 6 0.0000 0.0000 0.0000 0.0000 0.0000 37.1159
#
#
#
# Elastic Compliance Matrix: (Units=1/GPa)
#
#
# Indices 1 2 3 4 5 6 
#
# 1 0.010614 -0.002224 -0.005902 0.000000 0.000000 0.000000
# 2 -0.002224 0.011325 -0.002189 0.000000 0.000000 0.000000
# 3 -0.005902 -0.002189 0.023921 0.000000 0.000000 0.000000
# 4 0.000000 0.000000 0.000000 0.041544 0.000000 0.000000
# 5 0.000000 0.000000 0.000000 0.000000 0.027795 0.000000
# 6 0.000000 0.000000 0.000000 0.000000 0.000000 0.026943
#
#
# Mechanical properties :
#
#
# Convention : Reuss Voigt Hill
#
# Bulk Modulus (GPa) = 39.63330 46.76332 43.19831
# Shear Modulus (GPa) = 29.20869 32.03858 30.62364
#
# Velocity S-wave (km/s) = 3.62324 3.79471 3.70997
# Velocity P-wave (km/s) = 5.94282 6.34173 6.14552
#
# Compressibility (1/GPa) = 0.02523131
#
# Stress axis : x y z
#
# Youngs Moduli (GPa) = 94.21667 88.29683 41.80457
#
# Poissons Ratio (x) = 0.19633 0.24674
# Poissons Ratio (y) = 0.20949 0.09149
# Poissons Ratio (z) = 0.55609 0.19325
#
# Static dielectric constant tensor:
#      x y z
#    x 1.887520 0.000000 0.000000 
#    y 0.000000 1.895800 0.000000 
#    z 0.000000 0.000000 1.805760 
# 
# From -- ./inp_files/6548.got.cif
#   From: 2010.05.17/outbox.cif.g08.bks.cpg/sg16_4_cif.got.tgz:6548.got - 2010.06.03 22:28:35.
