data_PCOD9310404
_publ_section_title
;
Structure prediction by ZEFSAII (Michael W. Deem and Ramdas Pophale) SiO2 
 PCOD9310404
Probable space group: P 2 2 2
;
_chemical_formula_sum "Si O2"
_cell_formula_units_Z 16
_cell_length_a 8.173452
_cell_length_b 7.186414
_cell_length_c 9.996825
_cell_angle_alpha 90.000000
_cell_angle_beta 90.000000
_cell_angle_gamma 90.000000
_cell_volume 587.191606
_symmetry_space_group_name_H-M "P 2 2 2"
_symmetry_group_IT_number 16
_symmetry_cell_setting 'orthorhombic'
loop_
_space_group_symop_operation_xyz
x,y,z
-x,-y,z
x,-y,-z
-x,y,-z
loop_
_atom_site_type_symbol
_atom_site_label
_atom_site_fract_x
_atom_site_fract_y
_atom_site_fract_z
Si Si1 0.677778 0.220150 0.535883
Si Si2 0.195428 0.655757 0.817822
Si Si3 0.326917 0.740378 0.078542
Si Si4 0.886421 0.819586 0.698103
O O1 0.500000 0.292500 0.500000
O O2 0.711969 0.267432 0.688053
O O3 0.817716 0.282951 0.432920
O O4 0.678439 0.000000 0.500000
O O5 0.291190 0.466230 0.860439
O O6 0.007455 0.682797 0.776022
O O7 0.205557 0.769959 0.955370
O O8 0.269676 0.861944 0.205648
O O9 0.500000 0.761742 0.000000
O O10 0.000000 0.000000 0.668676
#
# Coordination Sequence:
#
# PCOD9310404 Si02
#       4
#     4   4   4   4
#     4  11  24  45  73 111 157 207 265 338 418 489
#     4  11  23  45  76 106 154 210 264 340 404 487
#     4  11  26  49  74 111 160 211 274 338 408 496
#     4  12  25  46  76 115 158 209 274 341 412 493
#
# _framework density 27.248346000000002
#
# number of rings (size 3 to 8) (size 9 to 14) (size 15 to 20)
#    0.000    0.750    2.500    5.250    0.000    5.000 
#    0.000    6.250    0.000    0.000    0.000    0.000 
#    0.000    0.000    0.000    0.000    0.000    0.000 
#
# Total GULP energy -89465.249532 kJ/mol
# GULP energy per Si atom -5591.578096 kJ/mol
# Density = 2.718633 g / cm^3
# Si number density = 27.248346 Si / 1000 Ang^3
#
#
#
# Elastic Constant Matrix: (Units=GPa)
#
#
# Indices 1 2 3 4 5 6 
#
# 1 188.3073 22.9385 79.3044 0.0000 0.0000 0.0000
# 2 22.9385 102.2886 56.3265 0.0000 0.0000 0.0000
# 3 79.3044 56.3265 259.2432 0.0000 0.0000 0.0000
# 4 0.0000 0.0000 0.0000 43.9310 0.0000 0.0000
# 5 0.0000 0.0000 0.0000 0.0000 74.0847 0.0000
# 6 0.0000 0.0000 0.0000 0.0000 0.0000 20.9756
#
#
#
# Elastic Compliance Matrix: (Units=1/GPa)
#
#
# Indices 1 2 3 4 5 6 
#
# 1 0.006109 -0.000387 -0.001785 0.000000 0.000000 0.000000
# 2 -0.000387 0.011129 -0.002300 0.000000 0.000000 0.000000
# 3 -0.001785 -0.002300 0.004903 0.000000 0.000000 0.000000
# 4 0.000000 0.000000 0.000000 0.022763 0.000000 0.000000
# 5 0.000000 0.000000 0.000000 0.000000 0.013498 0.000000
# 6 0.000000 0.000000 0.000000 0.000000 0.000000 0.047674
#
#
# Mechanical properties :
#
#
# Convention : Reuss Voigt Hill
#
# Bulk Modulus (GPa) = 75.76655 96.33089 86.04872
# Shear Modulus (GPa) = 41.86905 53.88290 47.87598
#
# Velocity S-wave (km/s) = 3.92417 4.45170 4.19623
# Velocity P-wave (km/s) = 6.95690 7.86468 7.42468
#
# Compressibility (1/GPa) = 0.01319844
#
# Stress axis : x y z
#
# Youngs Moduli (GPa) = 163.68569 89.85179 203.95672
#
# Poissons Ratio (x) = 0.03479 0.36401
# Poissons Ratio (y) = 0.06338 0.46903
# Poissons Ratio (z) = 0.29214 0.20663
#
# Static dielectric constant tensor:
#      x y z
#    x 2.208370 0.000000 0.000000 
#    y 0.000000 2.383350 0.000000 
#    z 0.000000 0.000000 2.098220 
# 
# From -- ./inp_files/3444.got.cif
#   From: 2010.05.17/outbox.cif.g08.bks.cpg/sg16_2_cif.got.tgz:3444.got - 2010.06.03 22:28:35.
