data_PCOD9310613
_publ_section_title
;
Structure prediction by ZEFSAII (Michael W. Deem and Ramdas Pophale) SiO2 
 PCOD9310613
Probable space group: P 2 2 21
;
_chemical_formula_sum "Si O2"
_cell_formula_units_Z 32
_cell_length_a 16.257249
_cell_length_b 14.813641
_cell_length_c 7.836059
_cell_angle_alpha 90.000000
_cell_angle_beta 90.000000
_cell_angle_gamma 90.000000
_cell_volume 1887.150647
_symmetry_space_group_name_H-M "P 2 2 21"
_symmetry_group_IT_number 17
_symmetry_cell_setting 'orthorhombic'
loop_
_space_group_symop_operation_xyz
x,y,z
-x,-y,1/2+z
x,-y,-z
-x,y,1/2-z
loop_
_atom_site_type_symbol
_atom_site_label
_atom_site_fract_x
_atom_site_fract_y
_atom_site_fract_z
Si Si1 0.179450 0.394231 0.456383
Si Si2 0.663344 0.713997 0.953557
Si Si3 1.000000 0.393969 0.455076
Si Si4 0.405372 0.099581 0.455448
Si Si5 0.500000 0.394790 0.952399
Si Si6 0.179450 0.394231 0.043617
Si Si7 0.405372 0.900419 0.955448
Si Si8 0.663344 0.713997 0.546443
O O1 0.189387 0.500000 0.500000
O O2 0.256237 0.336592 0.522845
O O3 0.179163 0.389202 0.250000
O O4 0.089238 0.361111 0.517694
O O5 0.645393 0.814645 0.020639
O O6 0.675183 0.721908 0.750000
O O7 0.581712 0.654500 0.980735
O O8 1.000000 0.500000 0.500000
O O9 0.910762 0.361111 0.517694
O O10 0.000000 0.384090 0.250000
O O11 0.500000 0.106376 0.518431
O O12 0.408372 0.105737 0.250000
O O13 0.373974 0.000000 0.500000
O O14 0.500000 0.386806 0.750000
O O15 0.500000 0.500000 0.000000
O O16 0.418288 0.345500 0.019266
O O17 0.256237 0.336592 0.977155
O O18 0.189387 0.500000 0.000000
O O19 0.354607 0.814645 0.020639
O O20 0.373974 0.000000 0.000000
#
# Coordination Sequence:
#
# PCOD9310613 Si02
#       8
#     4   4   4   4   4   4   4   4
#     4   9  17  28  45  65  90 118 147 180 217 259
#     4  10  19  33  48  65  89 119 150 184 223 263
#     4   8  14  26  42  64  87 112 144 180 217 256
#     4   9  17  30  47  64  85 111 143 185 226 263
#     4  12  24  34  45  62  89 124 155 184 214 256
#     4   9  17  28  45  65  90 118 147 180 217 259
#     4   9  17  30  47  64  85 111 143 185 226 263
#     4  10  19  33  48  65  89 119 150 184 223 263
#
# _framework density 16.956782
#
# number of rings (size 3 to 8) (size 9 to 14) (size 15 to 20)
#    0.000    2.500    1.250    1.875    0.000    4.000 
#    0.000    0.000    0.000    0.000    0.000    0.875 
#    0.000    0.000    0.000    0.000    0.000    0.000 
#
# Total GULP energy -178323.990681 kJ/mol
# GULP energy per Si atom -5572.624709 kJ/mol
# Density = 1.691819 g / cm^3
# Si number density = 16.956782 Si / 1000 Ang^3
#
#
#
# Elastic Constant Matrix: (Units=GPa)
#
#
# Indices 1 2 3 4 5 6 
#
# 1 164.2700 84.9109 0.5685 0.0000 0.0000 0.0000
# 2 84.9109 135.3393 -0.3241 0.0000 0.0000 0.0000
# 3 0.5685 -0.3241 19.0984 0.0000 0.0000 0.0000
# 4 0.0000 0.0000 0.0000 18.4838 0.0000 0.0000
# 5 0.0000 0.0000 0.0000 0.0000 -1.5568 0.0000
# 6 0.0000 0.0000 0.0000 0.0000 0.0000 12.0352
#
#
#
# Elastic Compliance Matrix: (Units=1/GPa)
#
#
# Indices 1 2 3 4 5 6 
#
# 1 0.009012 -0.005655 -0.000364 0.000000 0.000000 0.000000
# 2 -0.005655 0.010937 0.000354 0.000000 0.000000 0.000000
# 3 -0.000364 0.000354 0.052377 0.000000 0.000000 0.000000
# 4 0.000000 0.000000 0.000000 0.054101 0.000000 0.000000
# 5 0.000000 0.000000 0.000000 0.000000 -0.642342 0.000000
# 6 0.000000 0.000000 0.000000 0.000000 0.000000 0.083090
#
#
# Mechanical properties :
#
#
# Convention : Reuss Voigt Hill
#
# Bulk Modulus (GPa) = 16.39443 54.33537 35.36490
# Shear Modulus (GPa) = -12.46376 21.36261 4.44942
#
# Velocity S-wave (km/s) = -2.71409 3.55325 1.62163
# Velocity P-wave (km/s) = 0.36379 6.99623 4.94039
#
# Compressibility (1/GPa) = 0.06099634
#
# Stress axis : x y z
#
# Youngs Moduli (GPa) = 110.96634 91.42901 19.09226
#
# Poissons Ratio (x) = 0.51701 0.00695
# Poissons Ratio (y) = 0.62749 -0.00676
# Poissons Ratio (z) = 0.04042 -0.03236
#
# Static dielectric constant tensor:
#      x y z
#    x 1.683590 0.000000 0.000000 
#    y 0.000000 1.560360 0.000000 
#    z 0.000000 0.000000 1.612120 
# 
# From -- ./inp_files/5308.got.cif
#   From: 2010.05.17/outbox.cif.g08.bks.cpg/sg17_3_cif.got.tgz:5308.got - 2010.06.03 22:34:06.
