data_PCOD9310598
_publ_section_title
;
Structure prediction by ZEFSAII (Michael W. Deem and Ramdas Pophale) SiO2 
 PCOD9310598
Probable space group: P 2 2 21
;
_chemical_formula_sum "Si O2"
_cell_formula_units_Z 20
_cell_length_a 5.268640
_cell_length_b 28.789175
_cell_length_c 5.192609
_cell_angle_alpha 90.000000
_cell_angle_beta 90.000000
_cell_angle_gamma 90.000000
_cell_volume 787.613889
_symmetry_space_group_name_H-M "P 2 2 21"
_symmetry_group_IT_number 17
_symmetry_cell_setting 'orthorhombic'
loop_
_space_group_symop_operation_xyz
x,y,z
-x,-y,1/2+z
x,-y,-z
-x,y,1/2-z
loop_
_atom_site_type_symbol
_atom_site_label
_atom_site_fract_x
_atom_site_fract_y
_atom_site_fract_z
Si Si1 0.750390 0.053519 0.582498
Si Si2 0.182541 0.549479 0.000166
Si Si3 0.174931 0.647774 0.995235
Si Si4 0.249838 0.848694 0.067250
Si Si5 0.254514 0.249739 0.924082
O O1 0.500000 0.056298 0.750000
O O2 0.749835 0.101644 0.418063
O O3 0.000000 0.057647 0.750000
O O4 0.754198 0.000000 0.500000
O O5 0.000000 0.548263 0.750000
O O6 0.328168 0.599039 0.005013
O O7 0.326585 0.500000 0.000000
O O8 0.000000 0.550201 0.250000
O O9 0.000000 0.642497 0.750000
O O10 0.000000 0.649500 0.250000
O O11 0.288744 0.699051 0.958776
O O12 0.500000 0.849203 0.250000
O O13 0.245378 0.799081 0.920376
O O14 0.000000 0.847695 0.250000
O O15 0.500000 0.245025 0.750000
O O16 0.000000 0.251284 0.750000
#
# Coordination Sequence:
#
# PCOD9310598 Si02
#       5
#     4   4   4   4   4
#     4  10  19  32  50  73 101 136 173 216 265 318
#     4   8  13  22  39  66  99 135 175 220 270 324
#     4   9  17  30  49  76 108 143 184 229 278 332
#     4   8  15  28  48  70  97 134 173 211 264 323
#     4   9  17  32  53  77 103 138 181 228 276 331
#
# _framework density 25.393152000000001
#
# number of rings (size 3 to 8) (size 9 to 14) (size 15 to 20)
#    0.000    3.200    0.000    0.600    0.000    0.000 
#    0.000    5.000    0.000    7.200    0.000   26.600 
#    0.000    0.000    0.000    0.000    0.000    0.000 
#
# Total GULP energy -111358.288584 kJ/mol
# GULP energy per Si atom -5567.914429 kJ/mol
# Density = 2.533536 g / cm^3
# Si number density = 25.393152 Si / 1000 Ang^3
#
#
#
# Elastic Constant Matrix: (Units=GPa)
#
#
# Indices 1 2 3 4 5 6 
#
# 1 144.5077 -3.6384 31.1321 0.0000 0.0000 0.0000
# 2 -3.6384 423.3159 -0.0242 0.0000 0.0000 0.0000
# 3 31.1321 -0.0242 97.4397 0.0000 0.0000 0.0000
# 4 0.0000 0.0000 0.0000 -7.4021 0.0000 0.0000
# 5 0.0000 0.0000 0.0000 0.0000 48.0049 0.0000
# 6 0.0000 0.0000 0.0000 0.0000 0.0000 -9.6907
#
#
#
# Elastic Compliance Matrix: (Units=1/GPa)
#
#
# Indices 1 2 3 4 5 6 
#
# 1 0.007433 0.000064 -0.002375 0.000000 0.000000 0.000000
# 2 0.000064 0.002363 -0.000020 0.000000 0.000000 0.000000
# 3 -0.002375 -0.000020 0.011022 0.000000 0.000000 0.000000
# 4 0.000000 0.000000 0.000000 -0.135097 0.000000 0.000000
# 5 0.000000 0.000000 0.000000 0.000000 0.020831 0.000000
# 6 0.000000 0.000000 0.000000 0.000000 0.000000 -0.103192
#
#
# Mechanical properties :
#
#
# Convention : Reuss Voigt Hill
#
# Bulk Modulus (GPa) = 61.89739 80.02249 70.95994
# Shear Modulus (GPa) = -26.79629 48.70203 10.95287
#
# Velocity S-wave (km/s) = -3.25200 4.38416 2.07911
# Velocity P-wave (km/s) = 3.21371 7.56370 5.81109
#
# Compressibility (1/GPa) = 0.01615577
#
# Stress axis : x y z
#
# Youngs Moduli (GPa) = 134.52986 423.21797 90.73142
#
# Poissons Ratio (x) = -0.02698 0.21548
# Poissons Ratio (y) = -0.00858 0.00179
# Poissons Ratio (z) = 0.31950 0.00837
#
# Static dielectric constant tensor:
#      x y z
#    x 1.931400 0.000000 0.000000 
#    y 0.000000 2.310150 0.000000 
#    z 0.000000 0.000000 2.046580 
# 
# From -- ./inp_files/402.got.cif
#   From: 2010.05.17/outbox.cif.g08.bks.cpg/sg17_1_cif.got.tgz:402.got - 2010.06.03 22:34:06.
