data_PCOD9310030
_publ_section_title
;
Structure prediction by ZEFSAII (Michael W. Deem and Ramdas Pophale) SiO2 
 PCOD9310030
Probable space group: P 2 2 2
;
_chemical_formula_sum "Si O2"
_cell_formula_units_Z 17
_cell_length_a 19.612578
_cell_length_b 8.104303
_cell_length_c 5.038961
_cell_angle_alpha 90.000000
_cell_angle_beta 90.000000
_cell_angle_gamma 90.000000
_cell_volume 800.924079
_symmetry_space_group_name_H-M "P 2 2 2"
_symmetry_group_IT_number 16
_symmetry_cell_setting 'orthorhombic'
loop_
_space_group_symop_operation_xyz
x,y,z
-x,-y,z
x,-y,-z
-x,y,-z
loop_
_atom_site_type_symbol
_atom_site_label
_atom_site_fract_x
_atom_site_fract_y
_atom_site_fract_z
Si Si1 0.163638 0.300915 0.515488
Si Si2 0.923012 0.300195 0.977609
Si Si3 0.500000 0.500000 0.000000
Si Si4 0.310355 0.174493 0.367572
Si Si5 0.634272 0.337532 0.135425
O O1 0.176342 0.500000 0.500000
O O2 0.103787 0.261344 0.312068
O O3 0.230316 0.209045 0.407754
O O4 0.134167 0.253312 0.803872
O O5 0.926571 0.500000 0.000000
O O6 0.000000 0.236128 0.000000
O O7 0.553813 0.620874 0.857718
O O8 0.340200 0.199083 0.072818
O O9 0.327059 0.000000 0.500000
O O10 0.343954 0.305322 0.567721
O O11 0.667141 0.500000 0.000000
#
# Coordination Sequence:
#
# PCOD9310030 Si02
#       5
#     4   4   1   4   4
#     4  10  19  32  54  81 111 153 201 240 296 354
#     4   9  17  30  51  80 111 144 195 257 299 338
#     4   8  24  42  74  90 120 154 204 246 292 350
#     4  12  24  39  60  93 128 160 197 254 302 350
#     4  10  22  42  67  88 119 158 205 237 300 358
#
# _framework density 21.225484999999999
#
# number of rings (size 3 to 8) (size 9 to 14) (size 15 to 20)
#    0.706    1.176    0.000    4.941    0.000    6.588 
#    0.000    3.529    0.000    4.235    0.000    0.000 
#    0.000    0.000    0.000    0.000    0.000    0.000 
#
# Total GULP energy -94760.575523 kJ/mol
# GULP energy per Si atom -5574.151501 kJ/mol
# Density = 2.117717 g / cm^3
# Si number density = 21.225485 Si / 1000 Ang^3
#
#
#
# Elastic Constant Matrix: (Units=GPa)
#
#
# Indices 1 2 3 4 5 6 
#
# 1 93.4372 -1.1844 -6.9632 0.0000 0.0000 0.0000
# 2 -1.1844 42.8652 -3.2870 0.0000 0.0000 0.0000
# 3 -6.9632 -3.2870 69.3826 0.0000 0.0000 0.0000
# 4 0.0000 0.0000 0.0000 18.1810 0.0000 0.0000
# 5 0.0000 0.0000 0.0000 0.0000 69.9838 0.0000
# 6 0.0000 0.0000 0.0000 0.0000 0.0000 18.6835
#
#
#
# Elastic Compliance Matrix: (Units=1/GPa)
#
#
# Indices 1 2 3 4 5 6 
#
# 1 0.010789 0.000383 0.001101 0.000000 0.000000 0.000000
# 2 0.000383 0.023428 0.001148 0.000000 0.000000 0.000000
# 3 0.001101 0.001148 0.014578 0.000000 0.000000 0.000000
# 4 0.000000 0.000000 0.000000 0.055002 0.000000 0.000000
# 5 0.000000 0.000000 0.000000 0.000000 0.014289 0.000000
# 6 0.000000 0.000000 0.000000 0.000000 0.000000 0.053523
#
#
# Mechanical properties :
#
#
# Convention : Reuss Voigt Hill
#
# Bulk Modulus (GPa) = 18.49863 20.31286 19.40574
# Shear Modulus (GPa) = 27.12010 35.84430 31.48220
#
# Velocity S-wave (km/s) = 3.57839 4.11388 3.85545
# Velocity P-wave (km/s) = 5.08010 5.67064 5.38347
#
# Compressibility (1/GPa) = 0.05405807
#
# Stress axis : x y z
#
# Youngs Moduli (GPa) = 92.68469 42.68476 68.59779
#
# Poissons Ratio (x) = -0.01633 -0.07552
# Poissons Ratio (y) = -0.03546 -0.07877
# Poissons Ratio (z) = -0.10204 -0.04901
#
# Static dielectric constant tensor:
#      x y z
#    x 1.790590 0.000000 0.000000 
#    y 0.000000 1.762030 0.000000 
#    z 0.000000 0.000000 1.755250 
# 
# From -- ./inp_files/2225.got.cif
#   From: 2010.05.17/outbox.cif.g08.bks.cpg/sg16_2_cif.got.tgz:2225.got - 2010.06.03 22:28:35.
