data_PCOD9310591
_publ_section_title
;
Structure prediction by ZEFSAII (Michael W. Deem and Ramdas Pophale) SiO2 
 PCOD9310591
Probable space group: P 2 2 21
;
_chemical_formula_sum "Si O2"
_cell_formula_units_Z 24
_cell_length_a 5.238098
_cell_length_b 28.619990
_cell_length_c 7.380214
_cell_angle_alpha 90.000000
_cell_angle_beta 90.000000
_cell_angle_gamma 90.000000
_cell_volume 1106.399707
_symmetry_space_group_name_H-M "P 2 2 21"
_symmetry_group_IT_number 17
_symmetry_cell_setting 'orthorhombic'
loop_
_space_group_symop_operation_xyz
x,y,z
-x,-y,1/2+z
x,-y,-z
-x,y,1/2-z
loop_
_atom_site_type_symbol
_atom_site_label
_atom_site_fract_x
_atom_site_fract_y
_atom_site_fract_z
Si Si1 0.480905 0.104683 0.029012
Si Si2 0.982906 0.054152 0.033743
Si Si3 0.963502 0.259572 0.035832
Si Si4 0.469730 0.788986 0.970985
Si Si5 0.749026 0.455143 0.874090
Si Si6 0.751161 0.352549 0.875640
O O1 0.500000 0.103747 0.250000
O O2 0.259122 0.070019 0.965488
O O3 0.411024 0.157723 0.980847
O O4 0.755569 0.086925 0.964565
O O5 0.000000 0.060459 0.250000
O O6 0.928253 0.000000 0.000000
O O7 0.751168 0.224150 0.961832
O O8 0.000000 0.253928 0.250000
O O9 0.246812 0.246596 0.966283
O O10 0.830318 0.309563 0.002077
O O11 0.500000 0.786426 0.750000
O O12 0.500000 0.458812 0.750000
O O13 0.727488 0.403786 0.966574
O O14 0.000000 0.455618 0.750000
O O15 0.759194 0.500000 0.000000
O O16 0.500000 0.344950 0.750000
O O17 0.000000 0.355832 0.750000
#
# Coordination Sequence:
#
# PCOD9310591 Si02
#       6
#     4   4   4   4   4   4
#     4   9  17  30  49  72  96 126 163 203 252 305
#     4  10  19  31  49  71  95 126 162 200 248 303
#     4  10  19  32  53  80 104 132 175 223 264 305
#     4   9  17  30  50  76 103 128 166 220 263 301
#     4  10  21  38  59  84 113 149 191 234 281 330
#     4  10  21  37  55  77 111 149 179 214 270 334
#
# _framework density 21.691977000000001
#
# number of rings (size 3 to 8) (size 9 to 14) (size 15 to 20)
#    0.000    2.333    0.000    3.000    0.000    4.667 
#    0.000    2.500    0.000   10.000    0.000    0.000 
#    0.000    0.000    0.000    0.000    0.000    0.000 
#
# Total GULP energy -133893.803468 kJ/mol
# GULP energy per Si atom -5578.908478 kJ/mol
# Density = 2.164261 g / cm^3
# Si number density = 21.691977 Si / 1000 Ang^3
#
#
#
# Elastic Constant Matrix: (Units=GPa)
#
#
# Indices 1 2 3 4 5 6 
#
# 1 167.7715 45.4406 9.3931 0.0000 0.0000 0.0000
# 2 45.4406 114.9608 -5.9725 0.0000 0.0000 0.0000
# 3 9.3931 -5.9725 35.4854 0.0000 0.0000 0.0000
# 4 0.0000 0.0000 0.0000 17.4035 0.0000 0.0000
# 5 0.0000 0.0000 0.0000 0.0000 3.6324 0.0000
# 6 0.0000 0.0000 0.0000 0.0000 0.0000 36.4954
#
#
#
# Elastic Compliance Matrix: (Units=1/GPa)
#
#
# Indices 1 2 3 4 5 6 
#
# 1 0.006855 -0.002829 -0.002291 0.000000 0.000000 0.000000
# 2 -0.002829 0.009942 0.002422 0.000000 0.000000 0.000000
# 3 -0.002291 0.002422 0.029195 0.000000 0.000000 0.000000
# 4 0.000000 0.000000 0.000000 0.057460 0.000000 0.000000
# 5 0.000000 0.000000 0.000000 0.000000 0.275298 0.000000
# 6 0.000000 0.000000 0.000000 0.000000 0.000000 0.027401
#
#
# Mechanical properties :
#
#
# Convention : Reuss Voigt Hill
#
# Bulk Modulus (GPa) = 24.63176 46.21556 35.42366
# Shear Modulus (GPa) = 11.76258 29.46336 20.61297
#
# Velocity S-wave (km/s) = 2.33116 3.68946 3.08597
# Velocity P-wave (km/s) = 4.31574 6.28499 5.39104
#
# Compressibility (1/GPa) = 0.04059800
#
# Stress axis : x y z
#
# Youngs Moduli (GPa) = 145.88248 100.57844 34.25294
#
# Poissons Ratio (x) = 0.28449 0.07846
# Poissons Ratio (y) = 0.41263 -0.08297
# Poissons Ratio (z) = 0.33415 -0.24361
#
# Static dielectric constant tensor:
#      x y z
#    x 1.764940 0.000000 0.000000 
#    y 0.000000 1.816990 0.000000 
#    z 0.000000 0.000000 1.856890 
# 
# From -- ./inp_files/3569.got.cif
#   From: 2010.05.17/outbox.cif.g08.bks.cpg/sg17_2_cif.got.tgz:3569.got - 2010.06.03 22:34:06.
