data_PCOD9310902
_publ_section_title
;
Structure prediction by ZEFSAII (Michael W. Deem and Ramdas Pophale) SiO2 
 PCOD9310902
Probable space group: P 2 2 21
;
_chemical_formula_sum "Si O2"
_cell_formula_units_Z 30
_cell_length_a 8.788243
_cell_length_b 12.607599
_cell_length_c 13.998171
_cell_angle_alpha 90.000000
_cell_angle_beta 90.000000
_cell_angle_gamma 90.000000
_cell_volume 1550.978361
_symmetry_space_group_name_H-M "P 2 2 21"
_symmetry_group_IT_number 17
_symmetry_cell_setting 'orthorhombic'
loop_
_space_group_symop_operation_xyz
x,y,z
-x,-y,1/2+z
x,-y,-z
-x,y,1/2-z
loop_
_atom_site_type_symbol
_atom_site_label
_atom_site_fract_x
_atom_site_fract_y
_atom_site_fract_z
Si Si1 0.425900 0.500000 0.500000
Si Si2 0.392544 0.710537 0.042374
Si Si3 0.827850 0.214690 0.224803
Si Si4 0.297975 0.958119 0.603179
Si Si5 0.587187 0.166873 0.349080
Si Si6 0.821477 0.342097 0.720128
Si Si7 0.672606 0.555974 0.791216
Si Si8 0.627146 0.827694 0.171860
O O1 0.531569 0.404196 0.534804
O O2 0.333671 0.465329 0.405517
O O3 0.248198 0.698526 0.116143
O O4 0.523605 0.789215 0.083386
O O5 0.375430 0.750904 0.933383
O O6 0.794702 0.146747 0.130253
O O7 0.749333 0.139891 0.305063
O O8 0.751199 0.330309 0.223572
O O9 0.000000 0.228553 0.250000
O O10 0.500000 0.798123 0.750000
O O11 0.475472 0.923537 0.612735
O O12 0.278879 0.064538 0.664086
O O13 0.261510 0.000000 0.500000
O O14 0.764272 0.462348 0.738019
O O15 0.730787 0.269129 0.795225
O O16 0.000000 0.334884 0.750000
O O17 0.500000 0.554550 0.750000
O O18 0.500000 0.847912 0.250000
#
# Coordination Sequence:
#
# PCOD9310902 Si02
#       8
#     2   4   4   4   4   4   4   4
#     4  12  20  34  68  94 118 162 228 270 316 374
#     4  11  21  39  65  96 125 168 224 276 323 390
#     4  11  25  43  63  93 139 173 209 264 347 404
#     4  11  21  40  70  95 122 165 231 276 319 385
#     4  10  21  41  65  99 125 171 223 280 323 388
#     4  11  24  43  61  97 139 176 212 270 347 405
#     4  12  22  43  69  93 128 173 229 280 321 393
#     4  10  20  39  65  91 122 162 217 276 318 375
#
# _framework density 19.34263
#
# number of rings (size 3 to 8) (size 9 to 14) (size 15 to 20)
#    0.000    1.067    4.000    5.600    0.000    0.533 
#    4.800    0.667    0.000    0.000    0.000    0.000 
#    0.000    0.000    0.000    0.000    0.000    0.000 
#
# Total GULP energy -167032.368001 kJ/mol
# GULP energy per Si atom -5567.745600 kJ/mol
# Density = 1.929861 g / cm^3
# Si number density = 19.342630 Si / 1000 Ang^3
#
#
#
# Elastic Constant Matrix: (Units=GPa)
#
#
# Indices 1 2 3 4 5 6 
#
# 1 72.2287 18.6570 41.8914 0.0000 0.0000 0.0000
# 2 18.6570 108.8486 29.7245 0.0000 0.0000 0.0000
# 3 41.8914 29.7245 111.4257 0.0000 0.0000 0.0000
# 4 0.0000 0.0000 0.0000 32.7013 0.0000 0.0000
# 5 0.0000 0.0000 0.0000 0.0000 7.0944 0.0000
# 6 0.0000 0.0000 0.0000 0.0000 0.0000 5.1739
#
#
#
# Elastic Compliance Matrix: (Units=1/GPa)
#
#
# Indices 1 2 3 4 5 6 
#
# 1 0.017881 -0.001326 -0.006369 0.000000 0.000000 0.000000
# 2 -0.001326 0.010007 -0.002171 0.000000 0.000000 0.000000
# 3 -0.006369 -0.002171 0.011948 0.000000 0.000000 0.000000
# 4 0.000000 0.000000 0.000000 0.030580 0.000000 0.000000
# 5 0.000000 0.000000 0.000000 0.000000 0.140956 0.000000
# 6 0.000000 0.000000 0.000000 0.000000 0.000000 0.193277
#
#
# Mechanical properties :
#
#
# Convention : Reuss Voigt Hill
#
# Bulk Modulus (GPa) = 49.73868 52.56100 51.14984
# Shear Modulus (GPa) = 11.59872 22.47593 17.03732
#
# Velocity S-wave (km/s) = 2.45142 3.41249 2.97108
# Velocity P-wave (km/s) = 5.81231 6.53907 6.18637
#
# Compressibility (1/GPa) = 0.02010508
#
# Stress axis : x y z
#
# Youngs Moduli (GPa) = 55.92457 99.92803 83.69429
#
# Poissons Ratio (x) = 0.13247 0.53305
# Poissons Ratio (y) = 0.07414 0.18172
# Poissons Ratio (z) = 0.35618 0.21696
#
# Static dielectric constant tensor:
#      x y z
#    x 1.715830 0.000000 0.000000 
#    y 0.000000 1.735790 0.000000 
#    z 0.000000 0.000000 1.898910 
# 
# From -- ./inp_files/8254.got.cif
#   From: 2010.05.17/outbox.cif.g08.bks.cpg/sg17_5_cif.got.tgz:8254.got - 2010.06.03 22:34:06.
