data_PCOD9310473
_publ_section_title
;
Structure prediction by ZEFSAII (Michael W. Deem and Ramdas Pophale) SiO2 
 PCOD9310473
Probable space group: P 2 2 21
;
_chemical_formula_sum "Si O2"
_cell_formula_units_Z 32
_cell_length_a 5.159287
_cell_length_b 11.212825
_cell_length_c 29.660086
_cell_angle_alpha 90.000000
_cell_angle_beta 90.000000
_cell_angle_gamma 90.000000
_cell_volume 1715.841381
_symmetry_space_group_name_H-M "P 2 2 21"
_symmetry_group_IT_number 17
_symmetry_cell_setting 'orthorhombic'
loop_
_space_group_symop_operation_xyz
x,y,z
-x,-y,1/2+z
x,-y,-z
-x,y,1/2-z
loop_
_atom_site_type_symbol
_atom_site_label
_atom_site_fract_x
_atom_site_fract_y
_atom_site_fract_z
Si Si1 0.473351 0.239821 0.624306
Si Si2 0.564420 0.756929 0.015943
Si Si3 0.550489 0.784781 0.580326
Si Si4 0.066412 0.620834 0.020908
Si Si5 0.067729 0.867439 0.698879
Si Si6 0.567001 0.022471 0.340442
Si Si7 0.050971 0.331950 0.377546
Si Si8 0.030565 0.606259 0.127340
O O1 0.477403 0.215226 0.569322
O O2 0.702054 0.329140 0.639748
O O3 0.208195 0.306182 0.637195
O O4 0.508598 0.113051 0.647534
O O5 0.362896 0.647583 0.008957
O O6 0.865650 0.725759 0.010125
O O7 0.485089 0.830341 0.971150
O O8 0.548216 0.896491 0.614388
O O9 0.313910 0.697413 0.594960
O O10 0.812841 0.711266 0.590845
O O11 0.047737 0.602324 0.073593
O O12 0.968539 0.500000 0.000000
O O13 0.349914 0.924813 0.692880
O O14 0.052571 0.753343 0.666104
O O15 0.000000 0.837420 0.750000
O O16 0.850774 0.958170 0.680065
O O17 0.017520 0.468002 0.361106
#
# Coordination Sequence:
#
# PCOD9310473 Si02
#       8
#     4   4   4   4   4   4   4   4
#     4  10  21  34  50  76 109 149 184 207 247 308
#     4  10  19  29  44  69 102 143 183 216 250 289
#     4  10  19  32  51  76 107 141 182 227 263 293
#     4  10  18  27  42  65  98 140 184 220 245 285
#     4  10  21  39  64  85 100 125 165 220 275 319
#     4  10  21  37  57  81 108 137 174 218 260 312
#     4  10  20  34  54  81 106 133 172 219 272 316
#     4  10  19  32  50  73 108 146 174 209 257 306
#
# _framework density 18.649743000000001
#
# number of rings (size 3 to 8) (size 9 to 14) (size 15 to 20)
#    0.000    2.000    0.000    4.500    0.000    2.500 
#    0.000    0.000    0.000   13.500    0.000    0.000 
#    0.000    0.000    0.000    0.000    0.000    0.000 
#
# Total GULP energy -178325.563752 kJ/mol
# GULP energy per Si atom -5572.673867 kJ/mol
# Density = 1.860730 g / cm^3
# Si number density = 18.649743 Si / 1000 Ang^3
#
#
#
# Elastic Constant Matrix: (Units=GPa)
#
#
# Indices 1 2 3 4 5 6 
#
# 1 88.8839 3.4048 -7.2182 0.0000 0.0000 0.0000
# 2 3.4048 47.6840 -5.4928 0.0000 0.0000 0.0000
# 3 -7.2182 -5.4928 44.4446 0.0000 0.0000 0.0000
# 4 0.0000 0.0000 0.0000 7.7445 0.0000 0.0000
# 5 0.0000 0.0000 0.0000 0.0000 17.5955 0.0000
# 6 0.0000 0.0000 0.0000 0.0000 0.0000 17.0658
#
#
#
# Elastic Compliance Matrix: (Units=1/GPa)
#
#
# Indices 1 2 3 4 5 6 
#
# 1 0.011418 -0.000610 0.001779 0.000000 0.000000 0.000000
# 2 -0.000610 0.021307 0.002534 0.000000 0.000000 0.000000
# 3 0.001779 0.002534 0.023102 0.000000 0.000000 0.000000
# 4 0.000000 0.000000 0.000000 0.129124 0.000000 0.000000
# 5 0.000000 0.000000 0.000000 0.000000 0.056833 0.000000
# 6 0.000000 0.000000 0.000000 0.000000 0.000000 0.058597
#
#
# Mechanical properties :
#
#
# Convention : Reuss Voigt Hill
#
# Bulk Modulus (GPa) = 15.81455 18.04447 16.92951
# Shear Modulus (GPa) = 15.92091 21.16909 18.54500
#
# Velocity S-wave (km/s) = 2.92495 3.37276 3.15681
# Velocity P-wave (km/s) = 4.46153 4.98636 4.73123
#
# Compressibility (1/GPa) = 0.06323291
#
# Stress axis : x y z
#
# Youngs Moduli (GPa) = 87.57732 46.93315 43.28624
#
# Poissons Ratio (x) = 0.02865 -0.07701
# Poissons Ratio (y) = 0.05346 -0.10969
# Poissons Ratio (z) = -0.15580 -0.11893
#
# Static dielectric constant tensor:
#      x y z
#    x 1.685100 0.000000 0.000000 
#    y 0.000000 1.588200 0.000000 
#    z 0.000000 0.000000 1.652270 
# 
# From -- ./inp_files/11192.got.cif
#   From: 2010.05.17/outbox.cif.g08.bks.cpg/sg17_6_cif.got.tgz:11192.got - 2010.06.03 22:34:06.
