data_PCOD9310947
_publ_section_title
;
Structure prediction by ZEFSAII (Michael W. Deem and Ramdas Pophale) SiO2 
 PCOD9310947
Probable space group: P 2 2 21
;
_chemical_formula_sum "Si O2"
_cell_formula_units_Z 22
_cell_length_a 4.902867
_cell_length_b 11.249849
_cell_length_c 12.981608
_cell_angle_alpha 90.000000
_cell_angle_beta 90.000000
_cell_angle_gamma 90.000000
_cell_volume 716.020236
_symmetry_space_group_name_H-M "P 2 2 21"
_symmetry_group_IT_number 17
_symmetry_cell_setting 'orthorhombic'
loop_
_space_group_symop_operation_xyz
x,y,z
-x,-y,1/2+z
x,-y,-z
-x,y,1/2-z
loop_
_atom_site_type_symbol
_atom_site_label
_atom_site_fract_x
_atom_site_fract_y
_atom_site_fract_z
Si Si1 0.500000 0.294197 0.750000
Si Si2 0.304390 0.356149 0.348314
Si Si3 0.292425 0.249796 0.964936
Si Si4 0.233273 0.903262 0.681728
Si Si5 0.479295 0.500000 0.500000
Si Si6 0.982247 0.568571 0.346042
Si Si7 0.461048 0.000000 0.000000
O O1 0.448963 0.229094 0.856087
O O2 0.773554 0.373381 0.761211
O O3 0.500000 0.360846 0.250000
O O4 0.518783 0.331814 0.456615
O O5 0.148448 0.230988 0.352203
O O6 0.218811 0.479939 0.408343
O O7 0.014488 0.310043 0.927010
O O8 0.280809 0.118220 0.009673
O O9 0.500000 0.882939 0.750000
O O10 0.332629 0.988655 0.594000
O O11 0.000000 0.958688 0.750000
O O12 0.695523 0.531780 0.407138
O O13 0.000000 0.443793 0.250000
#
# Coordination Sequence:
#
# PCOD9310947 Si02
#       7
#     2   4   4   4   2   4   2
#     4   8  22  44  70 114 144 210 264 328 412 474
#     4  11  24  46  79 119 173 215 278 346 437 514
#     4  10  24  44  79 112 161 211 274 345 414 502
#     4  11  28  56  89 123 172 240 292 361 445 532
#     4  12  22  42  70 124 152 204 268 338 406 502
#     4  10  20  41  75 113 154 202 266 339 408 485
#     4  12  26  58  84 124 176 226 298 356 438 534
#
# _framework density 30.725387999999999
#
# number of rings (size 3 to 8) (size 9 to 14) (size 15 to 20)
#    1.091    0.364    1.818    2.727    3.818    2.909 
#    4.909    9.091    4.000    0.000    0.000    0.000 
#    0.000    0.000    0.000    0.000    0.000    0.000 
#
# Total GULP energy -122912.646525 kJ/mol
# GULP energy per Si atom -5586.938478 kJ/mol
# Density = 3.065546 g / cm^3
# Si number density = 30.725388 Si / 1000 Ang^3
#
#
#
# Elastic Constant Matrix: (Units=GPa)
#
#
# Indices 1 2 3 4 5 6 
#
# 1 183.1792 61.0966 34.3403 0.0000 0.0000 0.0000
# 2 61.0966 162.5720 50.7118 0.0000 0.0000 0.0000
# 3 34.3403 50.7118 234.8907 0.0000 0.0000 0.0000
# 4 0.0000 0.0000 0.0000 80.7162 0.0000 0.0000
# 5 0.0000 0.0000 0.0000 0.0000 98.0841 0.0000
# 6 0.0000 0.0000 0.0000 0.0000 0.0000 41.6811
#
#
#
# Elastic Compliance Matrix: (Units=1/GPa)
#
#
# Indices 1 2 3 4 5 6 
#
# 1 0.006283 -0.002225 -0.000438 0.000000 0.000000 0.000000
# 2 -0.002225 0.007383 -0.001269 0.000000 0.000000 0.000000
# 3 -0.000438 -0.001269 0.004595 0.000000 0.000000 0.000000
# 4 0.000000 0.000000 0.000000 0.012389 0.000000 0.000000
# 5 0.000000 0.000000 0.000000 0.000000 0.010195 0.000000
# 6 0.000000 0.000000 0.000000 0.000000 0.000000 0.023992
#
#
# Mechanical properties :
#
#
# Convention : Reuss Voigt Hill
#
# Bulk Modulus (GPa) = 96.17030 96.99328 96.58179
# Shear Modulus (GPa) = 65.64525 73.06248 69.35387
#
# Velocity S-wave (km/s) = 4.62726 4.88168 4.75617
# Velocity P-wave (km/s) = 7.74058 7.96309 7.85262
#
# Compressibility (1/GPa) = 0.01039822
#
# Stress axis : x y z
#
# Youngs Moduli (GPa) = 159.15222 135.44790 217.61430
#
# Poissons Ratio (x) = 0.30132 0.09538
# Poissons Ratio (y) = 0.35405 0.27609
# Poissons Ratio (z) = 0.06976 0.17184
#
# Static dielectric constant tensor:
#      x y z
#    x 1.234040 0.000000 0.000000 
#    y 0.000000 2.894080 0.000000 
#    z 0.000000 0.000000 2.033640 
# 
# From -- ./inp_files/7677.got.cif
#   From: 2010.05.17/outbox.cif.g08.bks.cpg/sg17_4_cif.got.tgz:7677.got - 2010.06.03 22:34:06.
