data_PCOD9310102
_publ_section_title
;
Structure prediction by ZEFSAII (Michael W. Deem and Ramdas Pophale) SiO2 
 PCOD9310102
Probable space group: P 2 2 2
;
_chemical_formula_sum "Si O2"
_cell_formula_units_Z 24
_cell_length_a 10.010260
_cell_length_b 7.331060
_cell_length_c 15.869519
_cell_angle_alpha 90.000000
_cell_angle_beta 90.000000
_cell_angle_gamma 90.000000
_cell_volume 1164.597612
_symmetry_space_group_name_H-M "P 2 2 2"
_symmetry_group_IT_number 16
_symmetry_cell_setting 'orthorhombic'
loop_
_space_group_symop_operation_xyz
x,y,z
-x,-y,z
x,-y,-z
-x,y,-z
loop_
_atom_site_type_symbol
_atom_site_label
_atom_site_fract_x
_atom_site_fract_y
_atom_site_fract_z
Si Si1 0.578411 0.311315 0.919748
Si Si2 0.755391 0.730145 0.729982
Si Si3 0.821796 0.147836 0.729596
Si Si4 0.463570 0.799919 0.734652
Si Si5 0.858671 0.566187 0.133007
Si Si6 0.026634 0.715737 0.404128
O O1 0.500000 0.500000 0.904230
O O2 0.560399 0.196047 0.835516
O O3 0.734549 0.369291 0.925546
O O4 0.500000 0.231200 0.000000
O O5 0.598245 0.688778 0.720645
O O6 0.810709 0.592654 0.801359
O O7 0.829169 0.726958 0.640032
O O8 0.782910 0.942035 0.755470
O O9 0.683250 0.246924 0.702082
O O10 0.882504 0.258088 0.807676
O O11 0.925233 0.172648 0.654668
O O12 0.500000 0.000000 0.701658
O O13 0.000000 0.500000 0.096421
O O14 0.000000 0.500000 0.398199
O O15 0.000000 0.770975 0.500000
#
# Coordination Sequence:
#
# PCOD9310102 Si02
#       6
#     4   4   4   4   4   4
#     4  10  20  35  56  81 116 150 188 228 285 345
#     4  11  19  35  57  83 113 147 189 239 283 332
#     4  10  20  34  56  86 111 144 197 232 282 343
#     4   9  20  35  57  85 109 145 194 238 278 337
#     4  11  20  35  57  86 113 149 187 240 280 330
#     4  11  22  37  56  83 119 154 190 235 292 344
#
# _framework density 20.607975
#
# number of rings (size 3 to 8) (size 9 to 14) (size 15 to 20)
#    0.000    1.667    5.000    0.500    0.000    1.667 
#    0.000    2.500    0.000    5.000    0.000    0.000 
#    0.000    0.000    0.000    0.000    0.000    0.000 
#
# Total GULP energy -133733.352698 kJ/mol
# GULP energy per Si atom -5572.223029 kJ/mol
# Density = 2.056107 g / cm^3
# Si number density = 20.607975 Si / 1000 Ang^3
#
#
#
# Elastic Constant Matrix: (Units=GPa)
#
#
# Indices 1 2 3 4 5 6 
#
# 1 177.6822 -0.2322 50.3600 0.0000 0.0000 0.0000
# 2 -0.2322 76.7446 4.3211 0.0000 0.0000 0.0000
# 3 50.3600 4.3211 89.8313 0.0000 0.0000 0.0000
# 4 0.0000 0.0000 0.0000 9.9609 0.0000 0.0000
# 5 0.0000 0.0000 0.0000 0.0000 22.0532 0.0000
# 6 0.0000 0.0000 0.0000 0.0000 0.0000 26.5337
#
#
#
# Elastic Compliance Matrix: (Units=1/GPa)
#
#
# Indices 1 2 3 4 5 6 
#
# 1 0.006695 0.000232 -0.003765 0.000000 0.000000 0.000000
# 2 0.000232 0.013074 -0.000759 0.000000 0.000000 0.000000
# 3 -0.003765 -0.000759 0.013279 0.000000 0.000000 0.000000
# 4 0.000000 0.000000 0.000000 0.100393 0.000000 0.000000
# 5 0.000000 0.000000 0.000000 0.000000 0.045345 0.000000
# 6 0.000000 0.000000 0.000000 0.000000 0.000000 0.037688
#
#
# Mechanical properties :
#
#
# Convention : Reuss Voigt Hill
#
# Bulk Modulus (GPa) = 40.87463 50.35065 45.61264
# Shear Modulus (GPa) = 21.43978 31.03019 26.23498
#
# Velocity S-wave (km/s) = 3.22897 3.88459 3.57185
# Velocity P-wave (km/s) = 5.81198 6.67875 6.26038
#
# Compressibility (1/GPa) = 0.02446505
#
# Stress axis : x y z
#
# Youngs Moduli (GPa) = 149.35805 76.48960 75.30717
#
# Poissons Ratio (x) = -0.01776 0.28350
# Poissons Ratio (y) = -0.03469 0.05716
# Poissons Ratio (z) = 0.56227 0.05806
#
# Static dielectric constant tensor:
#      x y z
#    x 1.815870 0.000000 0.000000 
#    y 0.000000 1.801590 0.000000 
#    z 0.000000 0.000000 1.760330 
# 
# From -- ./inp_files/8874.got.cif
#   From: 2010.05.17/outbox.cif.g08.bks.cpg/sg16_5_cif.got.tgz:8874.got - 2010.06.03 22:28:35.
