data_PCOD9310780
_publ_section_title
;
Structure prediction by ZEFSAII (Michael W. Deem and Ramdas Pophale) SiO2 
 PCOD9310780
Probable space group: P 2 2 21
;
_chemical_formula_sum "Si O2"
_cell_formula_units_Z 28
_cell_length_a 7.940700
_cell_length_b 19.271718
_cell_length_c 9.058642
_cell_angle_alpha 90.000000
_cell_angle_beta 90.000000
_cell_angle_gamma 90.000000
_cell_volume 1386.252420
_symmetry_space_group_name_H-M "P 2 2 21"
_symmetry_group_IT_number 17
_symmetry_cell_setting 'orthorhombic'
loop_
_space_group_symop_operation_xyz
x,y,z
-x,-y,1/2+z
x,-y,-z
-x,y,1/2-z
loop_
_atom_site_type_symbol
_atom_site_label
_atom_site_fract_x
_atom_site_fract_y
_atom_site_fract_z
Si Si1 0.824121 0.074422 0.434297
Si Si2 0.347098 0.300734 0.032238
Si Si3 0.436436 0.571966 0.582985
Si Si4 0.669316 0.209940 0.962834
Si Si5 0.827513 0.798106 0.342529
Si Si6 0.768755 0.931862 0.904391
Si Si7 0.174480 0.683452 0.663837
O O1 0.791627 0.138945 0.543904
O O2 0.743001 0.073983 0.271653
O O3 0.028130 0.075120 0.420186
O O4 0.776443 0.000000 0.500000
O O5 0.423163 0.377441 0.008883
O O6 0.297234 0.294817 0.202514
O O7 0.499515 0.249139 0.001001
O O8 0.193193 0.273688 0.932863
O O9 0.417598 0.500000 0.500000
O O10 0.500000 0.559997 0.750000
O O11 0.262635 0.615915 0.592746
O O12 0.695204 0.206705 0.789294
O O13 0.677937 0.133141 0.024048
O O14 0.816699 0.254845 0.044592
O O15 0.000000 0.809063 0.250000
O O16 0.722611 0.000000 0.000000
O O17 0.000000 0.671418 0.750000
#
# Coordination Sequence:
#
# PCOD9310780 Si02
#       7
#     4   4   4   4   4   4   4
#     4  10  21  34  55  85 123 159 206 261 311 375
#     4  10  23  41  60  90 124 161 207 251 313 379
#     4   9  20  40  66  91 126 169 205 246 307 379
#     4  11  21  35  59  86 121 162 202 257 311 372
#     4  12  22  36  58  91 123 158 208 263 313 364
#     4  10  20  35  57  85 118 163 208 255 314 372
#     4  10  21  39  64  95 124 160 210 260 306 366
#
# _framework density 20.198343000000001
#
# number of rings (size 3 to 8) (size 9 to 14) (size 15 to 20)
#    0.000    1.714    1.429    4.286    4.000    2.286 
#    0.000    3.571    0.000    6.000    0.000    0.000 
#    0.000    0.000    0.000    0.000    0.000    0.000 
#
# Total GULP energy -156298.995744 kJ/mol
# GULP energy per Si atom -5582.106991 kJ/mol
# Density = 2.015237 g / cm^3
# Si number density = 20.198343 Si / 1000 Ang^3
#
#
#
# Elastic Constant Matrix: (Units=GPa)
#
#
# Indices 1 2 3 4 5 6 
#
# 1 63.5476 34.1819 26.3345 0.0000 0.0000 0.0000
# 2 34.1819 167.3486 86.1659 0.0000 0.0000 0.0000
# 3 26.3345 86.1659 135.4900 0.0000 0.0000 0.0000
# 4 0.0000 0.0000 0.0000 46.1405 0.0000 0.0000
# 5 0.0000 0.0000 0.0000 0.0000 24.6660 0.0000
# 6 0.0000 0.0000 0.0000 0.0000 0.0000 18.9136
#
#
#
# Elastic Compliance Matrix: (Units=1/GPa)
#
#
# Indices 1 2 3 4 5 6 
#
# 1 0.017944 -0.002780 -0.001720 0.000000 0.000000 0.000000
# 2 -0.002780 0.009315 -0.005384 0.000000 0.000000 0.000000
# 3 -0.001720 -0.005384 0.011139 0.000000 0.000000 0.000000
# 4 0.000000 0.000000 0.000000 0.021673 0.000000 0.000000
# 5 0.000000 0.000000 0.000000 0.000000 0.040542 0.000000
# 6 0.000000 0.000000 0.000000 0.000000 0.000000 0.052872
#
#
# Mechanical properties :
#
#
# Convention : Reuss Voigt Hill
#
# Bulk Modulus (GPa) = 53.67299 73.30566 63.48933
# Shear Modulus (GPa) = 27.86094 32.59093 30.22593
#
# Velocity S-wave (km/s) = 3.71801 4.02125 3.87260
# Velocity P-wave (km/s) = 6.71283 7.61133 7.17616
#
# Compressibility (1/GPa) = 0.01863134
#
# Stress axis : x y z
#
# Youngs Moduli (GPa) = 55.72854 107.34860 89.77533
#
# Poissons Ratio (x) = 0.29838 0.15442
# Poissons Ratio (y) = 0.15490 0.48335
# Poissons Ratio (z) = 0.09585 0.57796
#
# Static dielectric constant tensor:
#      x y z
#    x 1.800450 0.000000 0.000000 
#    y 0.000000 1.683840 0.000000 
#    z 0.000000 0.000000 1.749020 
# 
# From -- ./inp_files/4401.got.cif
#   From: 2010.05.17/outbox.cif.g08.bks.cpg/sg17_3_cif.got.tgz:4401.got - 2010.06.03 22:34:06.
