data_PCOD9310335
_publ_section_title
;
Structure prediction by ZEFSAII (Michael W. Deem and Ramdas Pophale) SiO2 
 PCOD9310335
Probable space group: P 2 2 2
;
_chemical_formula_sum "Si O2"
_cell_formula_units_Z 12
_cell_length_a 5.174493
_cell_length_b 5.064079
_cell_length_c 17.831344
_cell_angle_alpha 90.000000
_cell_angle_beta 90.000000
_cell_angle_gamma 90.000000
_cell_volume 467.253275
_symmetry_space_group_name_H-M "P 2 2 2"
_symmetry_group_IT_number 16
_symmetry_cell_setting 'orthorhombic'
loop_
_space_group_symop_operation_xyz
x,y,z
-x,-y,z
x,-y,-z
-x,y,-z
loop_
_atom_site_type_symbol
_atom_site_label
_atom_site_fract_x
_atom_site_fract_y
_atom_site_fract_z
Si Si1 0.815885 0.243309 0.131424
Si Si2 0.000000 0.000000 0.500000
Si Si3 0.500000 0.000000 0.000000
Si Si4 0.763599 0.831947 0.644933
Si Si5 0.500000 0.500000 0.253294
O O1 0.591916 0.282649 0.193068
O O2 0.000000 0.500000 0.129827
O O3 0.677681 0.179991 0.053050
O O4 0.000000 0.000000 0.149175
O O5 0.829485 0.824990 0.556711
O O6 0.724740 0.554155 0.685716
O O7 0.500000 0.000000 0.654919
O O8 0.000000 0.000000 0.677954
#
# Coordination Sequence:
#
# PCOD9310335 Si02
#       5
#     4   1   1   4   2
#     4  12  30  51  82 121 169 225 282 356 426 517
#     4   8  22  48  76 108 166 220 290 348 432 508
#     4  12  30  58  80 124 172 220 290 342 434 514
#     4  10  24  46  77 112 162 221 283 357 422 516
#     4  12  28  45  79 122 166 214 290 348 436 500
#
# _framework density 25.682001
#
# number of rings (size 3 to 8) (size 9 to 14) (size 15 to 20)
#    1.000    0.000    0.000    4.000   11.667   10.000 
#    0.000    5.000    0.000    0.000    0.000    0.000 
#    0.000    0.000    0.000    0.000    0.000    0.000 
#
# Total GULP energy -67013.996453 kJ/mol
# GULP energy per Si atom -5584.499704 kJ/mol
# Density = 2.562355 g / cm^3
# Si number density = 25.682001 Si / 1000 Ang^3
#
#
#
# Elastic Constant Matrix: (Units=GPa)
#
#
# Indices 1 2 3 4 5 6 
#
# 1 192.3667 94.1959 69.3328 0.0000 0.0000 0.0000
# 2 94.1959 182.6357 66.0566 0.0000 0.0000 0.0000
# 3 69.3328 66.0566 227.8616 0.0000 0.0000 0.0000
# 4 0.0000 0.0000 0.0000 -103.7896 0.0000 0.0000
# 5 0.0000 0.0000 0.0000 0.0000 -182.5516 0.0000
# 6 0.0000 0.0000 0.0000 0.0000 0.0000 60.4095
#
#
#
# Elastic Compliance Matrix: (Units=1/GPa)
#
#
# Indices 1 2 3 4 5 6 
#
# 1 0.007263 -0.003292 -0.001256 0.000000 0.000000 0.000000
# 2 -0.003292 0.007609 -0.001204 0.000000 0.000000 0.000000
# 3 -0.001256 -0.001204 0.005120 0.000000 0.000000 0.000000
# 4 0.000000 0.000000 0.000000 -0.009635 0.000000 0.000000
# 5 0.000000 0.000000 0.000000 0.000000 -0.005478 0.000000
# 6 0.000000 0.000000 0.000000 0.000000 0.000000 0.016554
#
#
# Mechanical properties :
#
#
# Convention : Reuss Voigt Hill
#
# Bulk Modulus (GPa) = 117.81017 118.00385 117.90701
# Shear Modulus (GPa) = 139.80353 -20.30109 59.75122
#
# Velocity S-wave (km/s) = 7.38611 -2.81460 4.82870
# Velocity P-wave (km/s) = 10.89549 5.95695 8.78057
#
# Compressibility (1/GPa) = 0.00848823
#
# Stress axis : x y z
#
# Youngs Moduli (GPa) = 137.68787 131.42981 195.32140
#
# Poissons Ratio (x) = 0.43263 0.24525
# Poissons Ratio (y) = 0.45323 0.23519
# Poissons Ratio (z) = 0.17289 0.15826
#
# Static dielectric constant tensor:
#      x y z
#    x 2.023890 0.000000 0.000000 
#    y 0.000000 2.193750 0.000000 
#    z 0.000000 0.000000 1.995870 
# 
# From -- ./inp_files/8415.got.cif
#   From: 2010.05.17/outbox.cif.g08.bks.cpg/sg16_5_cif.got.tgz:8415.got - 2010.06.03 22:28:35.
