data_PCOD9310601
_publ_section_title
;
Structure prediction by ZEFSAII (Michael W. Deem and Ramdas Pophale) SiO2 
 PCOD9310601
Probable space group: P 2 2 21
;
_chemical_formula_sum "Si O2"
_cell_formula_units_Z 32
_cell_length_a 21.326409
_cell_length_b 16.582376
_cell_length_c 5.064505
_cell_angle_alpha 90.000000
_cell_angle_beta 90.000000
_cell_angle_gamma 90.000000
_cell_volume 1791.024375
_symmetry_space_group_name_H-M "P 2 2 21"
_symmetry_group_IT_number 17
_symmetry_cell_setting 'orthorhombic'
loop_
_space_group_symop_operation_xyz
x,y,z
-x,-y,1/2+z
x,-y,-z
-x,y,1/2-z
loop_
_atom_site_type_symbol
_atom_site_label
_atom_site_fract_x
_atom_site_fract_y
_atom_site_fract_z
Si Si1 0.671531 0.188426 0.404613
Si Si2 0.574181 0.056080 0.251012
Si Si3 0.244401 0.554799 0.239925
Si Si4 0.959942 0.283967 0.980416
Si Si5 0.291193 0.725182 0.404648
Si Si6 0.100185 0.444975 0.757669
Si Si7 0.802443 0.091991 0.411162
Si Si8 0.840037 0.820831 0.087160
O O1 0.615081 0.135565 0.291221
O O2 0.666817 0.224580 0.697402
O O3 0.732756 0.130625 0.413427
O O4 0.684650 0.260793 0.199856
O O5 0.500000 0.074822 0.250000
O O6 0.587392 0.000000 0.500000
O O7 0.589414 0.000000 0.000000
O O8 0.242093 0.500000 0.500000
O O9 0.283137 0.634413 0.305993
O O10 0.171996 0.578332 0.169628
O O11 0.268238 0.500000 0.000000
O O12 0.936778 0.366377 0.837162
O O13 0.897920 0.231063 0.018616
O O14 0.000000 0.241813 0.750000
O O15 0.000000 0.296235 0.250000
O O16 0.221597 0.764305 0.406311
O O17 0.102496 0.500000 0.500000
O O18 0.074798 0.500000 0.000000
O O19 0.844065 0.142623 0.620137
O O20 0.800163 0.000000 0.500000
O O21 0.827359 0.107310 0.118074
#
# Coordination Sequence:
#
# PCOD9310601 Si02
#       8
#     4   4   4   4   4   4   4   4
#     4  10  20  31  53  81 111 142 178 223 257 310
#     4  10  20  34  52  77 117 161 192 218 256 315
#     4  10  19  32  53  76 106 140 168 207 267 331
#     4  12  24  38  57  75 100 136 173 214 256 322
#     4  10  19  34  52  78 109 137 175 223 268 311
#     4  10  21  36  54  76 101 132 166 205 252 315
#     4  10  20  34  57  79 101 132 166 220 270 316
#     4  10  21  37  53  76 104 128 170 212 270 326
#
# _framework density 17.866869000000001
#
# number of rings (size 3 to 8) (size 9 to 14) (size 15 to 20)
#    0.000    1.750    1.250    3.750    0.000    3.000 
#    0.000    0.000    0.000    7.500    0.000    0.000 
#    0.000   10.000    0.000    0.000    0.000    0.000 
#
# Total GULP energy -178545.611664 kJ/mol
# GULP energy per Si atom -5579.550364 kJ/mol
# Density = 1.782620 g / cm^3
# Si number density = 17.866869 Si / 1000 Ang^3
#
#
#
# Elastic Constant Matrix: (Units=GPa)
#
#
# Indices 1 2 3 4 5 6 
#
# 1 38.2843 27.1135 17.6088 0.0000 0.0000 0.0000
# 2 27.1135 87.5458 26.3688 0.0000 0.0000 0.0000
# 3 17.6088 26.3688 111.9184 0.0000 0.0000 0.0000
# 4 0.0000 0.0000 0.0000 44.6203 0.0000 0.0000
# 5 0.0000 0.0000 0.0000 0.0000 50.1818 0.0000
# 6 0.0000 0.0000 0.0000 0.0000 0.0000 60.5972
#
#
#
# Elastic Compliance Matrix: (Units=1/GPa)
#
#
# Indices 1 2 3 4 5 6 
#
# 1 0.034448 -0.009726 -0.003128 0.000000 0.000000 0.000000
# 2 -0.009726 0.015041 -0.002014 0.000000 0.000000 0.000000
# 3 -0.003128 -0.002014 0.009902 0.000000 0.000000 0.000000
# 4 0.000000 0.000000 0.000000 0.022411 0.000000 0.000000
# 5 0.000000 0.000000 0.000000 0.000000 0.019928 0.000000
# 6 0.000000 0.000000 0.000000 0.000000 0.000000 0.016502
#
#
# Mechanical properties :
#
#
# Convention : Reuss Voigt Hill
#
# Bulk Modulus (GPa) = 33.72199 42.21454 37.96826
# Shear Modulus (GPa) = 31.67505 42.19036 36.93270
#
# Velocity S-wave (km/s) = 4.21507 4.86467 4.55148
# Velocity P-wave (km/s) = 6.52719 7.43182 6.99414
#
# Compressibility (1/GPa) = 0.02965424
#
# Stress axis : x y z
#
# Youngs Moduli (GPa) = 29.02966 66.48318 100.99302
#
# Poissons Ratio (x) = 0.64664 0.31593
# Poissons Ratio (y) = 0.28235 0.20335
# Poissons Ratio (z) = 0.09081 0.13387
#
# Static dielectric constant tensor:
#      x y z
#    x 1.594930 0.000000 0.000000 
#    y 0.000000 1.590710 0.000000 
#    z 0.000000 0.000000 1.604160 
# 
# From -- ./inp_files/2725.got.cif
#   From: 2010.05.17/outbox.cif.g08.bks.cpg/sg17_2_cif.got.tgz:2725.got - 2010.06.03 22:34:06.
