data_PCOD9310332
_publ_section_title
;
Structure prediction by ZEFSAII (Michael W. Deem and Ramdas Pophale) SiO2 
 PCOD9310332
Probable space group: P 2 2 2
;
_chemical_formula_sum "Si O2"
_cell_formula_units_Z 16
_cell_length_a 5.770571
_cell_length_b 22.712597
_cell_length_c 5.077821
_cell_angle_alpha 90.000000
_cell_angle_beta 90.000000
_cell_angle_gamma 90.000000
_cell_volume 665.522850
_symmetry_space_group_name_H-M "P 2 2 2"
_symmetry_group_IT_number 16
_symmetry_cell_setting 'orthorhombic'
loop_
_space_group_symop_operation_xyz
x,y,z
-x,-y,z
x,-y,-z
-x,y,-z
loop_
_atom_site_type_symbol
_atom_site_label
_atom_site_fract_x
_atom_site_fract_y
_atom_site_fract_z
Si Si1 0.337403 0.590324 0.744938
Si Si2 0.338945 0.906619 0.246597
Si Si3 0.000000 0.500000 0.000000
Si Si4 0.000000 0.811205 0.000000
Si Si5 0.000000 0.000000 0.500000
Si Si6 0.664247 0.276580 0.743648
O O1 0.500000 0.575378 0.500000
O O2 0.243726 0.656711 0.705434
O O3 0.147788 0.542379 0.812550
O O4 0.500000 0.592251 0.000000
O O5 0.500000 0.893697 0.500000
O O6 0.183620 0.852016 0.151452
O O7 0.500000 0.922942 0.000000
O O8 0.164967 0.958521 0.327139
O O9 0.865201 0.769508 0.202763
O O10 0.500000 0.261933 0.500000
O O11 0.500000 0.276111 0.000000
#
# Coordination Sequence:
#
# PCOD9310332 Si02
#       6
#     4   4   1   2   1   4
#     4  10  24  45  68 104 145 188 245 303 362 435
#     4  12  30  51  76 113 151 189 244 304 357 429
#     4  12  24  42  76 104 142 198 242 304 376 436
#     4  12  27  47  78 113 145 194 244 298 372 436
#     4  12  30  54  80 104 148 206 242 288 368 436
#     4  10  24  46  72 103 146 192 241 301 363 435
#
# _framework density 24.041246999999998
#
# number of rings (size 3 to 8) (size 9 to 14) (size 15 to 20)
#    0.000    1.000    0.000    3.750    0.000   22.500 
#    0.000    7.500    0.000    4.500    0.000    0.000 
#    0.000    0.000    0.000    0.000    0.000    0.000 
#
# Total GULP energy -89871.704994 kJ/mol
# GULP energy per Si atom -5616.981562 kJ/mol
# Density = 2.398653 g / cm^3
# Si number density = 24.041247 Si / 1000 Ang^3
#
#
#
# Elastic Constant Matrix: (Units=GPa)
#
#
# Indices 1 2 3 4 5 6 
#
# 1 170.7260 142.6535 105.9817 0.0000 0.0000 0.0000
# 2 142.6535 223.3194 87.6483 0.0000 0.0000 0.0000
# 3 105.9817 87.6483 213.2403 0.0000 0.0000 0.0000
# 4 0.0000 0.0000 0.0000 -34.1554 0.0000 0.0000
# 5 0.0000 0.0000 0.0000 0.0000 29.4865 0.0000
# 6 0.0000 0.0000 0.0000 0.0000 0.0000 55.7168
#
#
#
# Elastic Compliance Matrix: (Units=1/GPa)
#
#
# Indices 1 2 3 4 5 6 
#
# 1 0.015238 -0.008062 -0.004260 0.000000 0.000000 0.000000
# 2 -0.008062 0.009605 0.000059 0.000000 0.000000 0.000000
# 3 -0.004260 0.000059 0.006782 0.000000 0.000000 0.000000
# 4 0.000000 0.000000 0.000000 -0.029278 0.000000 0.000000
# 5 0.000000 0.000000 0.000000 0.000000 0.033914 0.000000
# 6 0.000000 0.000000 0.000000 0.000000 0.000000 0.017948
#
#
# Mechanical properties :
#
#
# Convention : Reuss Voigt Hill
#
# Bulk Modulus (GPa) = 140.84930 142.20585 141.52758
# Shear Modulus (GPa) = 61.65210 28.27641 44.96425
#
# Velocity S-wave (km/s) = 5.06951 3.43324 4.32938
# Velocity P-wave (km/s) = 9.64263 8.65999 9.16449
#
# Compressibility (1/GPa) = 0.00709979
#
# Stress axis : x y z
#
# Youngs Moduli (GPa) = 65.62578 104.11693 147.44215
#
# Poissons Ratio (x) = 0.83939 0.62805
# Poissons Ratio (y) = 0.52907 -0.00871
# Poissons Ratio (z) = 0.27954 -0.00615
#
# Static dielectric constant tensor:
#      x y z
#    x 1.884130 0.000000 0.000000 
#    y 0.000000 1.922070 0.000000 
#    z 0.000000 0.000000 1.854140 
# 
# From -- ./inp_files/296.got.cif
#   From: 2010.05.17/outbox.cif.g08.bks.cpg/sg16_1_cif.got.tgz:296.got - 2010.06.03 22:28:35.
