data_PCOD9310421
_publ_section_title
;
Structure prediction by ZEFSAII (Michael W. Deem and Ramdas Pophale) SiO2 
 PCOD9310421
Probable space group: P 2 2 2
;
_chemical_formula_sum "Si O2"
_cell_formula_units_Z 10
_cell_length_a 6.907177
_cell_length_b 11.449034
_cell_length_c 5.526976
_cell_angle_alpha 90.000000
_cell_angle_beta 90.000000
_cell_angle_gamma 90.000000
_cell_volume 437.076049
_symmetry_space_group_name_H-M "P 2 2 2"
_symmetry_group_IT_number 16
_symmetry_cell_setting 'orthorhombic'
loop_
_space_group_symop_operation_xyz
x,y,z
-x,-y,z
x,-y,-z
-x,y,-z
loop_
_atom_site_type_symbol
_atom_site_label
_atom_site_fract_x
_atom_site_fract_y
_atom_site_fract_z
Si Si1 0.000000 0.500000 0.000000
Si Si2 0.500000 0.000000 0.500000
Si Si3 0.814572 0.282705 0.239908
Si Si4 0.244305 0.806296 0.737010
O O1 0.119885 0.412706 0.829927
O O2 0.356644 0.923098 0.666054
O O3 0.718005 0.274784 0.501058
O O4 0.008495 0.200955 0.253616
O O5 0.703679 0.236937 0.004549
#
# Coordination Sequence:
#
# PCOD9310421 Si02
#       4
#     1   1   4   4
#     4   8  16  34  68  82 108 146 192 256 296 316
#     4  12  24  40  60  84 128 168 184 246 304 330
#     4   9  19  38  58  87 111 145 199 241 281 355
#     4   9  21  35  56  83 116 150 197 233 283 350
#
# _framework density 22.879314999999998
#
# number of rings (size 3 to 8) (size 9 to 14) (size 15 to 20)
#    0.000    3.200    0.000    0.000    0.000   20.800 
#    0.000   12.000    0.000   28.800    0.000    0.000 
#    0.000    0.000    0.000    0.000    0.000    0.000 
#
# Total GULP energy -55676.289689 kJ/mol
# GULP energy per Si atom -5567.628969 kJ/mol
# Density = 2.282724 g / cm^3
# Si number density = 22.879315 Si / 1000 Ang^3
#
#
#
# Elastic Constant Matrix: (Units=GPa)
#
#
# Indices 1 2 3 4 5 6 
#
# 1 140.4467 54.1471 32.2975 0.0000 0.0000 0.0000
# 2 54.1471 143.9679 62.1088 0.0000 0.0000 0.0000
# 3 32.2975 62.1088 245.2325 0.0000 0.0000 0.0000
# 4 0.0000 0.0000 0.0000 14.1802 0.0000 0.0000
# 5 0.0000 0.0000 0.0000 0.0000 -14.5181 0.0000
# 6 0.0000 0.0000 0.0000 0.0000 0.0000 -84.2828
#
#
#
# Elastic Compliance Matrix: (Units=1/GPa)
#
#
# Indices 1 2 3 4 5 6 
#
# 1 0.008353 -0.002994 -0.000342 0.000000 0.000000 0.000000
# 2 -0.002994 0.008871 -0.001852 0.000000 0.000000 0.000000
# 3 -0.000342 -0.001852 0.004592 0.000000 0.000000 0.000000
# 4 0.000000 0.000000 0.000000 0.070521 0.000000 0.000000
# 5 0.000000 0.000000 0.000000 0.000000 -0.068880 0.000000
# 6 0.000000 0.000000 0.000000 0.000000 0.000000 -0.011865
#
#
# Mechanical properties :
#
#
# Convention : Reuss Voigt Hill
#
# Bulk Modulus (GPa) = 87.41672 91.86155 89.63913
# Shear Modulus (GPa) = 193.92917 8.48212 101.20564
#
# Velocity S-wave (km/s) = 9.21660 1.92753 6.65812
# Velocity P-wave (km/s) = 12.31064 6.72246 9.91825
#
# Compressibility (1/GPa) = 0.01143946
#
# Stress axis : x y z
#
# Youngs Moduli (GPa) = 119.71600 112.72328 217.77308
#
# Poissons Ratio (x) = 0.33752 0.07443
# Poissons Ratio (y) = 0.35845 0.40341
# Poissons Ratio (z) = 0.04092 0.20881
#
# Static dielectric constant tensor:
#      x y z
#    x 1.957330 0.000000 0.000000 
#    y 0.000000 1.825880 0.000000 
#    z 0.000000 0.000000 1.928090 
# 
# From -- ./inp_files/426.got.cif
#   From: 2010.05.17/outbox.cif.g08.bks.cpg/sg16_1_cif.got.tgz:426.got - 2010.06.03 22:28:35.
