data_PCOD9310574
_publ_section_title
;
Structure prediction by ZEFSAII (Michael W. Deem and Ramdas Pophale) SiO2 
 PCOD9310574
Probable space group: P 2 2 21
;
_chemical_formula_sum "Si O2"
_cell_formula_units_Z 16
_cell_length_a 5.202148
_cell_length_b 19.603943
_cell_length_c 7.165222
_cell_angle_alpha 90.000000
_cell_angle_beta 90.000000
_cell_angle_gamma 90.000000
_cell_volume 730.728061
_symmetry_space_group_name_H-M "P 2 2 21"
_symmetry_group_IT_number 17
_symmetry_cell_setting 'orthorhombic'
loop_
_space_group_symop_operation_xyz
x,y,z
-x,-y,1/2+z
x,-y,-z
-x,y,1/2-z
loop_
_atom_site_type_symbol
_atom_site_label
_atom_site_fract_x
_atom_site_fract_y
_atom_site_fract_z
Si Si1 0.249008 0.216531 0.882654
Si Si2 0.462150 0.422374 0.528918
Si Si3 0.250807 0.067629 0.878790
Si Si4 0.041965 0.645402 0.023902
O O1 0.500000 0.228808 0.750000
O O2 0.271454 0.142110 0.977162
O O3 0.176313 0.281395 0.008378
O O4 0.000000 0.210922 0.750000
O O5 0.378970 0.500000 0.500000
O O6 0.500000 0.411003 0.750000
O O7 0.749021 0.409250 0.455630
O O8 0.243457 0.371254 0.454838
O O9 0.500000 0.064249 0.750000
O O10 0.000000 0.067270 0.750000
O O11 0.243078 0.000000 0.000000
O O12 0.000000 0.641119 0.250000
#
# Coordination Sequence:
#
# PCOD9310574 Si02
#       4
#     4   4   4   4
#     4   9  16  28  48  73  96 122 163 208 242 281
#     4  10  19  30  46  67  91 119 151 192 240 287
#     4  10  20  34  54  80 109 140 174 216 263 312
#     4   9  16  28  46  68  90 117 158 200 233 272
#
# _framework density 21.895969999999998
#
# number of rings (size 3 to 8) (size 9 to 14) (size 15 to 20)
#    0.000    2.500    0.000    5.250    0.000    0.000 
#    0.000    0.000    0.000    4.500    0.000    0.000 
#    0.000    0.000    0.000    0.000    0.000    0.000 
#
# Total GULP energy -89169.484454 kJ/mol
# GULP energy per Si atom -5573.092778 kJ/mol
# Density = 2.184613 g / cm^3
# Si number density = 21.895970 Si / 1000 Ang^3
#
#
#
# Elastic Constant Matrix: (Units=GPa)
#
#
# Indices 1 2 3 4 5 6 
#
# 1 173.1519 54.9232 10.4948 0.0000 0.0000 0.0000
# 2 54.9232 170.1986 0.6656 0.0000 0.0000 0.0000
# 3 10.4948 0.6656 35.6171 0.0000 0.0000 0.0000
# 4 0.0000 0.0000 0.0000 20.2714 0.0000 0.0000
# 5 0.0000 0.0000 0.0000 0.0000 -2.4568 0.0000
# 6 0.0000 0.0000 0.0000 0.0000 0.0000 35.0909
#
#
#
# Elastic Compliance Matrix: (Units=1/GPa)
#
#
# Indices 1 2 3 4 5 6 
#
# 1 0.006559 -0.002109 -0.001893 0.000000 0.000000 0.000000
# 2 -0.002109 0.006554 0.000499 0.000000 0.000000 0.000000
# 3 -0.001893 0.000499 0.028625 0.000000 0.000000 0.000000
# 4 0.000000 0.000000 0.000000 0.049330 0.000000 0.000000
# 5 0.000000 0.000000 0.000000 0.000000 -0.407033 0.000000
# 6 0.000000 0.000000 0.000000 0.000000 0.000000 0.028497
#
#
# Mechanical properties :
#
#
# Convention : Reuss Voigt Hill
#
# Bulk Modulus (GPa) = 28.79253 56.79276 42.79264
# Shear Modulus (GPa) = -18.59547 31.44004 6.42229
#
# Velocity S-wave (km/s) = -2.91738 3.79341 1.71448
# Velocity P-wave (km/s) = 1.35282 6.72164 4.84823
#
# Compressibility (1/GPa) = 0.03473124
#
# Stress axis : x y z
#
# Youngs Moduli (GPa) = 152.46089 152.57438 34.93463
#
# Poissons Ratio (x) = 0.32181 0.06614
# Poissons Ratio (y) = 0.32157 -0.01743
# Poissons Ratio (z) = 0.28865 -0.07614
#
# Static dielectric constant tensor:
#      x y z
#    x 1.787000 0.000000 0.000000 
#    y 0.000000 1.893030 0.000000 
#    z 0.000000 0.000000 1.846320 
# 
# From -- ./inp_files/3412.got.cif
#   From: 2010.05.17/outbox.cif.g08.bks.cpg/sg17_2_cif.got.tgz:3412.got - 2010.06.03 22:34:06.
