data_PCOD9310694
_publ_section_title
;
Structure prediction by ZEFSAII (Michael W. Deem and Ramdas Pophale) SiO2 
 PCOD9310694
Probable space group: P 2 2 21
;
_chemical_formula_sum "Si O2"
_cell_formula_units_Z 20
_cell_length_a 8.718029
_cell_length_b 14.569924
_cell_length_c 8.852429
_cell_angle_alpha 90.000000
_cell_angle_beta 90.000000
_cell_angle_gamma 90.000000
_cell_volume 1124.444561
_symmetry_space_group_name_H-M "P 2 2 21"
_symmetry_group_IT_number 17
_symmetry_cell_setting 'orthorhombic'
loop_
_space_group_symop_operation_xyz
x,y,z
-x,-y,1/2+z
x,-y,-z
-x,y,1/2-z
loop_
_atom_site_type_symbol
_atom_site_label
_atom_site_fract_x
_atom_site_fract_y
_atom_site_fract_z
Si Si1 0.006952 0.096030 0.431236
Si Si2 0.981074 0.282167 0.569245
Si Si3 0.500000 0.279262 0.750000
Si Si4 0.286835 0.207454 0.499808
Si Si5 0.500000 0.285854 0.250000
Si Si6 0.688270 0.608904 0.500704
O O1 0.182490 0.117409 0.482756
O O2 0.000000 0.097628 0.250000
O O3 0.920794 0.184107 0.503761
O O4 0.954980 0.000000 0.500000
O O5 0.864234 0.359564 0.518281
O O6 0.000000 0.278103 0.750000
O O7 0.153527 0.286130 0.503095
O O8 0.384116 0.218135 0.651443
O O9 0.403697 0.343395 0.863129
O O10 0.398691 0.224393 0.361402
O O11 0.612403 0.348537 0.349798
O O12 0.673509 0.500000 0.500000
#
# Coordination Sequence:
#
# PCOD9310694 Si02
#       6
#     4   4   2   4   2   4
#     4  10  20  35  60  90 114 143 185 232 285 338
#     4  10  20  39  58  83 113 149 190 239 274 330
#     4  10  19  38  57  78 116 160 183 234 283 336
#     4   9  21  37  60  81 116 152 189 227 290 329
#     4  10  21  38  55  80 116 156 181 236 283 342
#     4  11  21  36  56  84 113 153 194 232 282 333
#
# _framework density 17.786557999999999
#
# number of rings (size 3 to 8) (size 9 to 14) (size 15 to 20)
#    1.200    0.800    2.000    2.400    0.000    0.000 
#    3.600    2.000    0.000    4.800    0.000    0.000 
#    0.000    0.000    0.000    0.000    0.000    0.000 
#
# Total GULP energy -111375.170028 kJ/mol
# GULP energy per Si atom -5568.758501 kJ/mol
# Density = 1.774608 g / cm^3
# Si number density = 17.786558 Si / 1000 Ang^3
#
#
#
# Elastic Constant Matrix: (Units=GPa)
#
#
# Indices 1 2 3 4 5 6 
#
# 1 64.4290 -13.2312 11.4846 0.0000 0.0000 0.0000
# 2 -13.2312 42.9365 9.6726 0.0000 0.0000 0.0000
# 3 11.4846 9.6726 92.4380 0.0000 0.0000 0.0000
# 4 0.0000 0.0000 0.0000 3.0819 0.0000 0.0000
# 5 0.0000 0.0000 0.0000 0.0000 27.6867 0.0000
# 6 0.0000 0.0000 0.0000 0.0000 0.0000 21.0291
#
#
#
# Elastic Compliance Matrix: (Units=1/GPa)
#
#
# Indices 1 2 3 4 5 6 
#
# 1 0.017231 0.005932 -0.002762 0.000000 0.000000 0.000000
# 2 0.005932 0.025895 -0.003447 0.000000 0.000000 0.000000
# 3 -0.002762 -0.003447 0.011522 0.000000 0.000000 0.000000
# 4 0.000000 0.000000 0.000000 0.324471 0.000000 0.000000
# 5 0.000000 0.000000 0.000000 0.000000 0.036118 0.000000
# 6 0.000000 0.000000 0.000000 0.000000 0.000000 0.047553
#
#
# Mechanical properties :
#
#
# Convention : Reuss Voigt Hill
#
# Bulk Modulus (GPa) = 18.48575 23.96173 21.22374
# Shear Modulus (GPa) = 10.38691 23.15138 16.76914
#
# Velocity S-wave (km/s) = 2.41918 3.61171 3.07383
# Velocity P-wave (km/s) = 4.26836 5.55821 4.95543
#
# Compressibility (1/GPa) = 0.05409572
#
# Stress axis : x y z
#
# Youngs Moduli (GPa) = 58.03349 38.61806 86.79193
#
# Poissons Ratio (x) = -0.22909 0.23968
# Poissons Ratio (y) = -0.34426 0.29914
# Poissons Ratio (z) = 0.16026 0.13310
#
# Static dielectric constant tensor:
#      x y z
#    x 1.618950 0.000000 0.000000 
#    y 0.000000 1.567870 0.000000 
#    z 0.000000 0.000000 1.603580 
# 
# From -- ./inp_files/4216.got.cif
#   From: 2010.05.17/outbox.cif.g08.bks.cpg/sg17_3_cif.got.tgz:4216.got - 2010.06.03 22:34:06.
