data_PCOD9310724
_publ_section_title
;
Structure prediction by ZEFSAII (Michael W. Deem and Ramdas Pophale) SiO2 
 PCOD9310724
Probable space group: P 2 2 21
;
_chemical_formula_sum "Si O2"
_cell_formula_units_Z 22
_cell_length_a 14.576913
_cell_length_b 16.892166
_cell_length_c 5.237678
_cell_angle_alpha 90.000000
_cell_angle_beta 90.000000
_cell_angle_gamma 90.000000
_cell_volume 1289.702964
_symmetry_space_group_name_H-M "P 2 2 21"
_symmetry_group_IT_number 17
_symmetry_cell_setting 'orthorhombic'
loop_
_space_group_symop_operation_xyz
x,y,z
-x,-y,1/2+z
x,-y,-z
-x,y,1/2-z
loop_
_atom_site_type_symbol
_atom_site_label
_atom_site_fract_x
_atom_site_fract_y
_atom_site_fract_z
Si Si1 0.907991 0.427154 0.636986
Si Si2 0.390674 0.552006 0.249065
Si Si3 0.000000 0.305296 0.250000
Si Si4 0.755205 0.312906 0.759166
Si Si5 0.186938 0.776572 0.734505
Si Si6 0.108550 0.946836 0.750628
O O1 0.857958 0.500000 0.500000
O O2 0.953172 0.361250 0.457274
O O3 0.836178 0.378714 0.805682
O O4 0.000000 0.465495 0.750000
O O5 0.367528 0.500000 0.500000
O O6 0.500000 0.566828 0.250000
O O7 0.334954 0.633635 0.237904
O O8 0.369462 0.500000 0.000000
O O9 0.915895 0.252348 0.158527
O O10 0.780373 0.265518 0.498170
O O11 0.752492 0.254106 0.998905
O O12 0.173687 0.870298 0.759574
O O13 0.000000 0.923378 0.750000
O O14 0.124108 0.000000 0.500000
O O15 0.122777 0.000000 0.000000
#
# Coordination Sequence:
#
# PCOD9310724 Si02
#       6
#     4   4   2   4   4   4
#     4  11  20  30  43  62  97 139 184 209 247 289
#     4  10  21  39  60  80 106 140 182 231 276 317
#     4  10  20  32  42  64  96 142 174 216 250 296
#     4  11  23  34  53  77 103 140 176 223 269 313
#     4  11  21  35  52  74 108 135 177 216 265 313
#     4  10  20  34  53  75 101 142 184 219 257 314
#
# _framework density 17.058192999999999
#
# number of rings (size 3 to 8) (size 9 to 14) (size 15 to 20)
#    0.000    1.455    3.636    2.727    0.000    2.182 
#    0.000    0.000    0.000    0.000    0.000    0.000 
#    0.000   14.545    0.000    0.000    0.000    0.000 
#
# Total GULP energy -122667.066116 kJ/mol
# GULP energy per Si atom -5575.775733 kJ/mol
# Density = 1.701937 g / cm^3
# Si number density = 17.058193 Si / 1000 Ang^3
#
#
#
# Elastic Constant Matrix: (Units=GPa)
#
#
# Indices 1 2 3 4 5 6 
#
# 1 59.0450 43.1206 30.4999 0.0000 0.0000 0.0000
# 2 43.1206 130.9590 63.9573 0.0000 0.0000 0.0000
# 3 30.4999 63.9573 124.4995 0.0000 0.0000 0.0000
# 4 0.0000 0.0000 0.0000 17.8573 0.0000 0.0000
# 5 0.0000 0.0000 0.0000 0.0000 4.1502 0.0000
# 6 0.0000 0.0000 0.0000 0.0000 0.0000 43.0998
#
#
#
# Elastic Compliance Matrix: (Units=1/GPa)
#
#
# Indices 1 2 3 4 5 6 
#
# 1 0.022784 -0.006376 -0.002306 0.000000 0.000000 0.000000
# 2 -0.006376 0.011977 -0.004591 0.000000 0.000000 0.000000
# 3 -0.002306 -0.004591 0.010956 0.000000 0.000000 0.000000
# 4 0.000000 0.000000 0.000000 0.056000 0.000000 0.000000
# 5 0.000000 0.000000 0.000000 0.000000 0.240953 0.000000
# 6 0.000000 0.000000 0.000000 0.000000 0.000000 0.023202
#
#
# Mechanical properties :
#
#
# Convention : Reuss Voigt Hill
#
# Bulk Modulus (GPa) = 52.16269 65.51769 58.84019
# Shear Modulus (GPa) = 12.53738 24.81650 18.67694
#
# Velocity S-wave (km/s) = 2.71399 3.81834 3.31251
# Velocity P-wave (km/s) = 6.36134 7.61126 7.01420
#
# Compressibility (1/GPa) = 0.01917079
#
# Stress axis : x y z
#
# Youngs Moduli (GPa) = 43.89111 83.49026 91.27686
#
# Poissons Ratio (x) = 0.53230 0.21051
# Poissons Ratio (y) = 0.27983 0.41906
# Poissons Ratio (z) = 0.10123 0.38331
#
# Static dielectric constant tensor:
#      x y z
#    x 1.580570 0.000000 0.000000 
#    y 0.000000 1.576340 0.000000 
#    z 0.000000 0.000000 1.687190 
# 
# From -- ./inp_files/2145.got.cif
#   From: 2010.05.17/outbox.cif.g08.bks.cpg/sg17_2_cif.got.tgz:2145.got - 2010.06.03 22:34:06.
