data_PCOD9310392
_publ_section_title
;
Structure prediction by ZEFSAII (Michael W. Deem and Ramdas Pophale) SiO2 
 PCOD9310392
Probable space group: P 2 2 2
;
_chemical_formula_sum "Si O2"
_cell_formula_units_Z 20
_cell_length_a 7.741161
_cell_length_b 12.172245
_cell_length_c 8.756102
_cell_angle_alpha 90.000000
_cell_angle_beta 90.000000
_cell_angle_gamma 90.000000
_cell_volume 825.063922
_symmetry_space_group_name_H-M "P 2 2 2"
_symmetry_group_IT_number 16
_symmetry_cell_setting 'orthorhombic'
loop_
_space_group_symop_operation_xyz
x,y,z
-x,-y,z
x,-y,-z
-x,y,-z
loop_
_atom_site_type_symbol
_atom_site_label
_atom_site_fract_x
_atom_site_fract_y
_atom_site_fract_z
Si Si1 0.810273 0.454039 0.780623
Si Si2 0.311908 0.661420 0.075869
Si Si3 0.686891 0.169024 0.320298
Si Si4 0.801404 0.964880 0.167355
Si Si5 0.287986 0.235798 0.354312
O O1 0.686043 0.558377 0.807272
O O2 0.750397 0.363979 0.660428
O O3 0.000000 0.500000 0.749732
O O4 0.804697 0.384846 0.939121
O O5 0.245091 0.764603 0.172288
O O6 0.500000 0.681833 0.000000
O O7 0.698741 0.040794 0.286171
O O8 0.491753 0.212152 0.337365
O O9 0.775415 0.195386 0.480623
O O10 0.788495 0.839347 0.218772
O O11 0.000000 0.000000 0.175104
O O12 0.735891 0.000000 0.000000
#
# Coordination Sequence:
#
# PCOD9310392 Si02
#       5
#     4   4   4   4   4
#     4  11  24  42  68 102 141 183 234 295 348 414
#     4  11  22  42  69 101 134 186 242 292 342 410
#     4  11  25  44  73 103 141 184 233 290 355 428
#     4  11  26  46  72 105 138 181 233 289 355 432
#     4  11  25  46  69 104 144 183 230 292 357 426
#
# _framework density 24.240546999999999
#
# number of rings (size 3 to 8) (size 9 to 14) (size 15 to 20)
#    0.000    1.000    2.000    4.800    2.800    4.800 
#    3.600    4.000    0.000    0.000    0.000    0.000 
#    0.000    0.000    0.000    0.000    0.000    0.000 
#
# Total GULP energy -111939.772189 kJ/mol
# GULP energy per Si atom -5596.988609 kJ/mol
# Density = 2.418537 g / cm^3
# Si number density = 24.240547 Si / 1000 Ang^3
#
#
#
# Elastic Constant Matrix: (Units=GPa)
#
#
# Indices 1 2 3 4 5 6 
#
# 1 65.1681 4.4144 -1.2580 0.0000 0.0000 0.0000
# 2 4.4144 123.3164 18.3405 0.0000 0.0000 0.0000
# 3 -1.2580 18.3405 82.2235 0.0000 0.0000 0.0000
# 4 0.0000 0.0000 0.0000 30.7997 0.0000 0.0000
# 5 0.0000 0.0000 0.0000 0.0000 0.3730 0.0000
# 6 0.0000 0.0000 0.0000 0.0000 0.0000 25.1255
#
#
#
# Elastic Compliance Matrix: (Units=1/GPa)
#
#
# Indices 1 2 3 4 5 6 
#
# 1 0.015393 -0.000606 0.000371 0.000000 0.000000 0.000000
# 2 -0.000606 0.008411 -0.001885 0.000000 0.000000 0.000000
# 3 0.000371 -0.001885 0.012588 0.000000 0.000000 0.000000
# 4 0.000000 0.000000 0.000000 0.032468 0.000000 0.000000
# 5 0.000000 0.000000 0.000000 0.000000 2.680867 0.000000
# 6 0.000000 0.000000 0.000000 0.000000 0.000000 0.039800
#
#
# Mechanical properties :
#
#
# Convention : Reuss Voigt Hill
#
# Bulk Modulus (GPa) = 31.10339 34.85577 32.97958
# Shear Modulus (GPa) = 1.78286 27.87372 14.82829
#
# Velocity S-wave (km/s) = 0.85853 3.39467 2.47597
# Velocity P-wave (km/s) = 3.72045 5.45668 4.66996
#
# Compressibility (1/GPa) = 0.03215083
#
# Stress axis : x y z
#
# Youngs Moduli (GPa) = 64.96397 118.88704 79.43942
#
# Poissons Ratio (x) = 0.07207 -0.02945
# Poissons Ratio (y) = 0.03938 0.14978
# Poissons Ratio (z) = -0.02408 0.22416
#
# Static dielectric constant tensor:
#      x y z
#    x 1.947130 0.000000 0.000000 
#    y 0.000000 1.939290 0.000000 
#    z 0.000000 0.000000 1.998480 
# 
# From -- ./inp_files/3795.got.cif
#   From: 2010.05.17/outbox.cif.g08.bks.cpg/sg16_2_cif.got.tgz:3795.got - 2010.06.03 22:28:35.
