data_PCOD9310525
_publ_section_title
;
Structure prediction by ZEFSAII (Michael W. Deem and Ramdas Pophale) SiO2 
 PCOD9310525
Probable space group: P 2 2 21
;
_chemical_formula_sum "Si O2"
_cell_formula_units_Z 28
_cell_length_a 5.263137
_cell_length_b 11.156588
_cell_length_c 22.736066
_cell_angle_alpha 90.000000
_cell_angle_beta 90.000000
_cell_angle_gamma 90.000000
_cell_volume 1335.031127
_symmetry_space_group_name_H-M "P 2 2 21"
_symmetry_group_IT_number 17
_symmetry_cell_setting 'orthorhombic'
loop_
_space_group_symop_operation_xyz
x,y,z
-x,-y,1/2+z
x,-y,-z
-x,y,1/2-z
loop_
_atom_site_type_symbol
_atom_site_label
_atom_site_fract_x
_atom_site_fract_y
_atom_site_fract_z
Si Si1 0.618330 0.184469 0.186369
Si Si2 0.145348 0.027565 0.916135
Si Si3 0.981256 0.491814 0.070099
Si Si4 0.115516 0.763672 0.880294
Si Si5 0.357831 0.158109 0.565094
Si Si6 0.482742 0.585870 0.055997
Si Si7 0.482737 0.091796 0.816977
O O1 0.500000 0.212125 0.250000
O O2 0.405960 0.233929 0.141621
O O3 0.900907 0.227588 0.170982
O O4 0.614464 0.039599 0.180450
O O5 0.085786 0.887177 0.916508
O O6 0.413478 0.064658 0.944751
O O7 0.207486 0.064900 0.847498
O O8 0.916643 0.102350 0.943716
O O9 0.059471 0.357999 0.085874
O O10 0.208039 0.582770 0.086411
O O11 0.708421 0.530185 0.094687
O O12 0.941352 0.500000 0.000000
O O13 0.426050 0.283375 0.535847
O O14 0.384080 0.177791 0.635928
O O15 0.442641 0.500000 0.000000
O O16 0.500000 0.131592 0.750000
#
# Coordination Sequence:
#
# PCOD9310525 Si02
#       7
#     4   4   4   4   4   4   4
#     4  10  19  31  53  88 121 148 183 218 284 355
#     4   9  18  30  51  85 110 144 171 225 292 333
#     4  10  22  38  61  82 103 147 206 239 277 340
#     4  11  18  35  56  84 118 149 183 236 285 336
#     4  10  18  33  53  80 112 141 185 226 281 335
#     4  10  21  38  59  79 103 145 201 239 272 336
#     4   8  17  29  49  82 116 145 175 218 273 346
#
# _framework density 20.973295
#
# number of rings (size 3 to 8) (size 9 to 14) (size 15 to 20)
#    0.857    1.429    1.429    2.143    0.000    0.571 
#    0.000    0.000    0.000   25.714    0.000    0.000 
#    0.000    0.000    0.000    0.000    0.000    0.000 
#
# Total GULP energy -156007.950917 kJ/mol
# GULP energy per Si atom -5571.712533 kJ/mol
# Density = 2.092556 g / cm^3
# Si number density = 20.973295 Si / 1000 Ang^3
#
#
#
# Elastic Constant Matrix: (Units=GPa)
#
#
# Indices 1 2 3 4 5 6 
#
# 1 111.5584 -11.4351 -2.4845 0.0000 0.0000 0.0000
# 2 -11.4351 45.0752 10.9104 0.0000 0.0000 0.0000
# 3 -2.4845 10.9104 58.6082 0.0000 0.0000 0.0000
# 4 0.0000 0.0000 0.0000 20.3503 0.0000 0.0000
# 5 0.0000 0.0000 0.0000 0.0000 70.7411 0.0000
# 6 0.0000 0.0000 0.0000 0.0000 0.0000 29.6765
#
#
#
# Elastic Compliance Matrix: (Units=1/GPa)
#
#
# Indices 1 2 3 4 5 6 
#
# 1 0.009203 0.002346 -0.000047 0.000000 0.000000 0.000000
# 2 0.002346 0.023830 -0.004337 0.000000 0.000000 0.000000
# 3 -0.000047 -0.004337 0.017868 0.000000 0.000000 0.000000
# 4 0.000000 0.000000 0.000000 0.049139 0.000000 0.000000
# 5 0.000000 0.000000 0.000000 0.000000 0.014136 0.000000
# 6 0.000000 0.000000 0.000000 0.000000 0.000000 0.033697
#
#
# Mechanical properties :
#
#
# Convention : Reuss Voigt Hill
#
# Bulk Modulus (GPa) = 21.35534 23.24706 22.30120
# Shear Modulus (GPa) = 29.84064 38.70363 34.27213
#
# Velocity S-wave (km/s) = 3.77608 4.30045 4.04677
# Velocity P-wave (km/s) = 5.40518 5.98052 5.70012
#
# Compressibility (1/GPa) = 0.04682670
#
# Stress axis : x y z
#
# Youngs Moduli (GPa) = 108.65605 41.96383 55.96661
#
# Poissons Ratio (x) = -0.09845 0.00261
# Poissons Ratio (y) = -0.25491 0.24271
# Poissons Ratio (z) = 0.00506 0.18199
#
# Static dielectric constant tensor:
#      x y z
#    x 1.854840 0.000000 0.000000 
#    y 0.000000 1.688800 0.000000 
#    z 0.000000 0.000000 1.644350 
# 
# From -- ./inp_files/10908.got.cif
#   From: 2010.05.17/outbox.cif.g08.bks.cpg/sg17_6_cif.got.tgz:10908.got - 2010.06.03 22:34:06.
