data_PCOD9310172
_publ_section_title
;
Structure prediction by ZEFSAII (Michael W. Deem and Ramdas Pophale) SiO2 
 PCOD9310172
Probable space group: P 2 2 2
;
_chemical_formula_sum "Si O2"
_cell_formula_units_Z 13
_cell_length_a 5.752640
_cell_length_b 11.533782
_cell_length_c 8.127493
_cell_angle_alpha 90.000000
_cell_angle_beta 90.000000
_cell_angle_gamma 90.000000
_cell_volume 539.256687
_symmetry_space_group_name_H-M "P 2 2 2"
_symmetry_group_IT_number 16
_symmetry_cell_setting 'orthorhombic'
loop_
_space_group_symop_operation_xyz
x,y,z
-x,-y,z
x,-y,-z
-x,y,-z
loop_
_atom_site_type_symbol
_atom_site_label
_atom_site_fract_x
_atom_site_fract_y
_atom_site_fract_z
Si Si1 0.000000 0.297417 0.000000
Si Si2 0.500000 0.000000 0.000000
Si Si3 0.500000 0.000000 0.500000
Si Si4 0.344878 0.386659 0.758743
Si Si5 0.296161 0.825125 0.746472
Si Si6 0.000000 0.500000 0.500000
O O1 0.217908 0.368243 0.933419
O O2 0.930874 0.231713 0.829843
O O3 0.645617 0.085048 0.890165
O O4 0.674193 0.089218 0.592885
O O5 0.500000 0.500000 0.762932
O O6 0.509816 0.275523 0.727234
O O7 0.158750 0.417772 0.615357
#
# Coordination Sequence:
#
# PCOD9310172 Si02
#       6
#     2   1   1   4   4   1
#     4  12  26  48  84 114 154 213 267 308 416 466
#     4  10  20  52  70 106 158 202 252 330 368 450
#     4  10  28  50  80 110 168 212 260 338 388 438
#     4  12  28  49  78 114 157 200 265 333 392 481
#     4  11  25  49  78 113 156 207 262 330 381 472
#     4  12  30  46  80 112 160 206 254 332 426 460
#
# _framework density 24.107256
#
# number of rings (size 3 to 8) (size 9 to 14) (size 15 to 20)
#    0.000    0.615    3.077    2.308    8.615    9.846 
#    0.000    1.538    0.000    0.000    0.000    0.000 
#    0.000    0.000    0.000    0.000    0.000    0.000 
#
# Total GULP energy -72618.409645 kJ/mol
# GULP energy per Si atom -5586.031511 kJ/mol
# Density = 2.405239 g / cm^3
# Si number density = 24.107256 Si / 1000 Ang^3
#
#
#
# Elastic Constant Matrix: (Units=GPa)
#
#
# Indices 1 2 3 4 5 6 
#
# 1 93.6017 65.3552 39.1109 0.0000 0.0000 0.0000
# 2 65.3552 194.7301 63.3560 0.0000 0.0000 0.0000
# 3 39.1109 63.3560 109.3004 0.0000 0.0000 0.0000
# 4 0.0000 0.0000 0.0000 108.9166 0.0000 0.0000
# 5 0.0000 0.0000 0.0000 0.0000 55.9949 0.0000
# 6 0.0000 0.0000 0.0000 0.0000 0.0000 24.4973
#
#
#
# Elastic Compliance Matrix: (Units=1/GPa)
#
#
# Indices 1 2 3 4 5 6 
#
# 1 0.014690 -0.003968 -0.002956 0.000000 0.000000 0.000000
# 2 -0.003968 0.007401 -0.002870 0.000000 0.000000 0.000000
# 3 -0.002956 -0.002870 0.011870 0.000000 0.000000 0.000000
# 4 0.000000 0.000000 0.000000 0.009181 0.000000 0.000000
# 5 0.000000 0.000000 0.000000 0.000000 0.017859 0.000000
# 6 0.000000 0.000000 0.000000 0.000000 0.000000 0.040821
#
#
# Mechanical properties :
#
#
# Convention : Reuss Voigt Hill
#
# Bulk Modulus (GPa) = 69.57912 81.47516 75.52714
# Shear Modulus (GPa) = 39.61922 53.20243 46.41083
#
# Velocity S-wave (km/s) = 4.05835 4.70287 4.39245
# Velocity P-wave (km/s) = 7.13339 7.95987 7.55794
#
# Compressibility (1/GPa) = 0.01437213
#
# Stress axis : x y z
#
# Youngs Moduli (GPa) = 68.07562 135.11864 84.24280
#
# Poissons Ratio (x) = 0.53619 0.24903
# Poissons Ratio (y) = 0.27015 0.24177
# Poissons Ratio (z) = 0.20124 0.38778
#
# Static dielectric constant tensor:
#      x y z
#    x 1.521350 0.000000 0.000000 
#    y 0.000000 1.772100 0.000000 
#    z 0.000000 0.000000 1.973600 
# 
# From -- ./inp_files/542.got.cif
#   From: 2010.05.17/outbox.cif.g08.bks.cpg/sg16_1_cif.got.tgz:542.got - 2010.06.03 22:28:35.
