data_PCOD9310067
_publ_section_title
;
Structure prediction by ZEFSAII (Michael W. Deem and Ramdas Pophale) SiO2 
 PCOD9310067
Probable space group: P 2 2 2
;
_chemical_formula_sum "Si O2"
_cell_formula_units_Z 32
_cell_length_a 11.792122
_cell_length_b 14.040956
_cell_length_c 9.347055
_cell_angle_alpha 90.000000
_cell_angle_beta 90.000000
_cell_angle_gamma 90.000000
_cell_volume 1547.616817
_symmetry_space_group_name_H-M "P 2 2 2"
_symmetry_group_IT_number 16
_symmetry_cell_setting 'orthorhombic'
loop_
_space_group_symop_operation_xyz
x,y,z
-x,-y,z
x,-y,-z
-x,y,-z
loop_
_atom_site_type_symbol
_atom_site_label
_atom_site_fract_x
_atom_site_fract_y
_atom_site_fract_z
Si Si1 0.906662 0.765143 0.223942
Si Si2 0.449861 0.904290 0.840594
Si Si3 0.479199 0.689498 0.826929
Si Si4 0.208902 0.895379 0.981548
Si Si5 0.262617 0.386682 0.327728
Si Si6 0.822942 0.782828 0.753311
Si Si7 0.309648 0.392205 0.665159
Si Si8 0.863527 0.894227 0.479260
O O1 0.864786 0.806466 0.074044
O O2 0.853841 0.666731 0.282725
O O3 0.853713 0.845668 0.327605
O O4 0.041860 0.771027 0.227906
O O5 0.483212 0.800967 0.780338
O O6 0.316400 0.909648 0.878173
O O7 0.500000 0.000000 0.769559
O O8 0.500000 0.902618 0.000000
O O9 0.354805 0.655056 0.782123
O O10 0.566432 0.626872 0.732658
O O11 0.500000 0.682228 0.000000
O O12 0.236674 0.856251 0.138883
O O13 0.153105 0.000000 0.000000
O O14 0.298184 0.369814 0.494592
O O15 0.266203 0.500559 0.313770
O O16 0.766805 0.680589 0.754263
O O17 0.809860 0.827036 0.596679
O O18 0.000000 0.897907 0.500000
O O19 0.819143 0.000000 0.500000
#
# Coordination Sequence:
#
# PCOD9310067 Si02
#       8
#     4   4   4   4   4   4   4   4
#     4  11  23  41  62  91 134 171 216 269 326 387
#     4  10  19  36  61  93 127 169 208 250 317 384
#     4  11  23  43  69  97 132 169 212 273 329 401
#     4  12  23  39  66  96 134 172 215 265 325 399
#     4  11  24  45  66  95 127 173 222 278 332 385
#     4  11  23  40  62  96 128 171 220 268 324 387
#     4  11  25  42  69  94 127 172 225 276 331 387
#     4   9  18  36  59  83 119 165 211 256 307 378
#
# _framework density 20.676953000000001
#
# number of rings (size 3 to 8) (size 9 to 14) (size 15 to 20)
#    0.000    1.250    3.750    3.375    0.000    4.500 
#    0.000    1.250    0.000    2.250    0.000    0.875 
#    0.000    0.000    0.000    0.000    0.000    0.000 
#
# Total GULP energy -178441.235378 kJ/mol
# GULP energy per Si atom -5576.288606 kJ/mol
# Density = 2.062989 g / cm^3
# Si number density = 20.676953 Si / 1000 Ang^3
#
#
#
# Elastic Constant Matrix: (Units=GPa)
#
#
# Indices 1 2 3 4 5 6 
#
# 1 65.5111 18.1261 5.5122 0.0000 0.0000 0.0000
# 2 18.1261 134.9883 16.9413 0.0000 0.0000 0.0000
# 3 5.5122 16.9413 55.9341 0.0000 0.0000 0.0000
# 4 0.0000 0.0000 0.0000 27.8154 0.0000 0.0000
# 5 0.0000 0.0000 0.0000 0.0000 18.8077 0.0000
# 6 0.0000 0.0000 0.0000 0.0000 0.0000 12.9761
#
#
#
# Elastic Compliance Matrix: (Units=1/GPa)
#
#
# Indices 1 2 3 4 5 6 
#
# 1 0.015903 -0.002015 -0.000957 0.000000 0.000000 0.000000
# 2 -0.002015 0.007956 -0.002211 0.000000 0.000000 0.000000
# 3 -0.000957 -0.002211 0.018642 0.000000 0.000000 0.000000
# 4 0.000000 0.000000 0.000000 0.035951 0.000000 0.000000
# 5 0.000000 0.000000 0.000000 0.000000 0.053170 0.000000
# 6 0.000000 0.000000 0.000000 0.000000 0.000000 0.077065
#
#
# Mechanical properties :
#
#
# Convention : Reuss Voigt Hill
#
# Bulk Modulus (GPa) = 31.11916 37.51029 34.31472
# Shear Modulus (GPa) = 21.76135 26.31008 24.03572
#
# Velocity S-wave (km/s) = 3.24766 3.57099 3.41316
# Velocity P-wave (km/s) = 5.39869 5.93154 5.67138
#
# Compressibility (1/GPa) = 0.03213455
#
# Stress axis : x y z
#
# Youngs Moduli (GPa) = 62.88234 125.68862 53.64175
#
# Poissons Ratio (x) = 0.25330 0.05132
# Poissons Ratio (y) = 0.12673 0.11861
# Poissons Ratio (z) = 0.06017 0.27792
#
# Static dielectric constant tensor:
#      x y z
#    x 1.718950 0.000000 0.000000 
#    y 0.000000 1.802420 0.000000 
#    z 0.000000 0.000000 1.727500 
# 
# From -- ./inp_files/4837.got.cif
#   From: 2010.05.17/outbox.cif.g08.bks.cpg/sg16_3_cif.got.tgz:4837.got - 2010.06.03 22:28:35.
