data_PCOD9310121
_publ_section_title
;
Structure prediction by ZEFSAII (Michael W. Deem and Ramdas Pophale) SiO2 
 PCOD9310121
Probable space group: P 2 2 2
;
_chemical_formula_sum "Si O2"
_cell_formula_units_Z 32
_cell_length_a 12.254678
_cell_length_b 15.221211
_cell_length_c 9.274311
_cell_angle_alpha 90.000000
_cell_angle_beta 90.000000
_cell_angle_gamma 90.000000
_cell_volume 1729.946872
_symmetry_space_group_name_H-M "P 2 2 2"
_symmetry_group_IT_number 16
_symmetry_cell_setting 'orthorhombic'
loop_
_space_group_symop_operation_xyz
x,y,z
-x,-y,z
x,-y,-z
-x,y,-z
loop_
_atom_site_type_symbol
_atom_site_label
_atom_site_fract_x
_atom_site_fract_y
_atom_site_fract_z
Si Si1 0.705431 0.657476 0.333843
Si Si2 0.219686 0.140887 0.337257
Si Si3 0.279242 0.655405 0.334429
Si Si4 0.126812 0.505332 0.675015
Si Si5 0.902048 0.798083 0.592123
Si Si6 0.538496 0.095837 0.664694
Si Si7 0.494104 0.720534 0.173657
Si Si8 0.025676 0.897486 0.841936
O O1 0.753429 0.755762 0.331108
O O2 0.678678 0.635811 0.501885
O O3 0.802470 0.591856 0.287526
O O4 0.595571 0.664083 0.239240
O O5 0.148038 0.131051 0.481337
O O6 0.331690 0.091027 0.343410
O O7 0.150674 0.114994 0.199771
O O8 0.204228 0.575556 0.279479
O O9 0.193883 0.734831 0.357195
O O10 0.380442 0.681250 0.234025
O O11 0.121635 0.500000 0.500000
O O12 0.000000 0.500000 0.725231
O O13 0.000000 0.751698 0.500000
O O14 0.956123 0.844233 0.726775
O O15 0.500000 0.111819 0.500000
O O16 0.505526 0.180090 0.761081
O O17 0.500000 0.000000 0.714772
O O18 0.500000 0.721892 0.000000
O O19 0.000000 0.000000 0.833164
O O20 0.000000 0.864558 0.000000
#
# Coordination Sequence:
#
# PCOD9310121 Si02
#       8
#     4   4   4   4   4   4   4   4
#     4   9  19  38  60  83 119 146 187 244 296 348
#     4   9  19  35  56  80 110 148 179 230 288 339
#     4  10  20  35  61  89 113 149 190 242 295 346
#     4   9  19  32  61  95 117 141 187 249 304 348
#     4   9  19  32  56  82 110 144 184 227 288 350
#     4  10  21  38  62  89 115 144 190 247 300 343
#     4  11  23  39  58  82 117 162 202 232 284 348
#     4  10  22  36  50  74 108 148 190 229 275 334
#
# _framework density 18.497676999999999
#
# number of rings (size 3 to 8) (size 9 to 14) (size 15 to 20)
#    0.000    2.375    0.000    2.625    7.000    8.000 
#    0.000    5.625    0.000    0.750    0.000    0.000 
#    0.000    0.000    0.000    0.000    0.000    0.000 
#
# Total GULP energy -178394.812418 kJ/mol
# GULP energy per Si atom -5574.837888 kJ/mol
# Density = 1.845558 g / cm^3
# Si number density = 18.497677 Si / 1000 Ang^3
#
#
#
# Elastic Constant Matrix: (Units=GPa)
#
#
# Indices 1 2 3 4 5 6 
#
# 1 171.7274 49.8226 72.7481 0.0000 0.0000 0.0000
# 2 49.8226 63.8985 29.7262 0.0000 0.0000 0.0000
# 3 72.7481 29.7262 107.6304 0.0000 0.0000 0.0000
# 4 0.0000 0.0000 0.0000 7.6059 0.0000 0.0000
# 5 0.0000 0.0000 0.0000 0.0000 -202.0759 0.0000
# 6 0.0000 0.0000 0.0000 0.0000 0.0000 76.3990
#
#
#
# Elastic Compliance Matrix: (Units=1/GPa)
#
#
# Indices 1 2 3 4 5 6 
#
# 1 0.009373 -0.005004 -0.004953 0.000000 0.000000 0.000000
# 2 -0.005004 0.020629 -0.002315 0.000000 0.000000 0.000000
# 3 -0.004953 -0.002315 0.013279 0.000000 0.000000 0.000000
# 4 0.000000 0.000000 0.000000 0.131476 0.000000 0.000000
# 5 0.000000 0.000000 0.000000 0.000000 -0.004949 0.000000
# 6 0.000000 0.000000 0.000000 0.000000 0.000000 0.013089
#
#
# Mechanical properties :
#
#
# Convention : Reuss Voigt Hill
#
# Bulk Modulus (GPa) = 53.37536 71.98333 62.67934
# Shear Modulus (GPa) = 23.39863 -10.88356 6.25753
#
# Velocity S-wave (km/s) = 3.56047 -2.42828 1.84125
# Velocity P-wave (km/s) = 6.76908 5.58008 6.20313
#
# Compressibility (1/GPa) = 0.01873524
#
# Stress axis : x y z
#
# Youngs Moduli (GPa) = 106.68425 48.47626 75.30959
#
# Poissons Ratio (x) = 0.24259 0.37304
# Poissons Ratio (y) = 0.53387 0.17434
# Poissons Ratio (z) = 0.52846 0.11222
#
# Static dielectric constant tensor:
#      x y z
#    x 1.655390 0.000000 0.000000 
#    y 0.000000 1.688400 0.000000 
#    z 0.000000 0.000000 1.620480 
# 
# From -- ./inp_files/4868.got.cif
#   From: 2010.05.17/outbox.cif.g08.bks.cpg/sg16_3_cif.got.tgz:4868.got - 2010.06.03 22:28:35.
