data_PCOD9310501
_publ_section_title
;
Structure prediction by ZEFSAII (Michael W. Deem and Ramdas Pophale) SiO2 
 PCOD9310501
Probable space group: P 2 2 21
;
_chemical_formula_sum "Si O2"
_cell_formula_units_Z 32
_cell_length_a 9.929290
_cell_length_b 14.389655
_cell_length_c 12.373370
_cell_angle_alpha 90.000000
_cell_angle_beta 90.000000
_cell_angle_gamma 90.000000
_cell_volume 1767.895444
_symmetry_space_group_name_H-M "P 2 2 21"
_symmetry_group_IT_number 17
_symmetry_cell_setting 'orthorhombic'
loop_
_space_group_symop_operation_xyz
x,y,z
-x,-y,1/2+z
x,-y,-z
-x,y,1/2-z
loop_
_atom_site_type_symbol
_atom_site_label
_atom_site_fract_x
_atom_site_fract_y
_atom_site_fract_z
Si Si1 0.827923 0.727529 0.866480
Si Si2 0.676173 0.608353 0.472891
Si Si3 0.127451 0.041390 0.112794
Si Si4 0.828799 0.091205 0.028676
Si Si5 0.658850 0.698627 0.246679
Si Si6 0.640528 0.609077 0.015267
Si Si7 0.853281 0.867897 0.222857
Si Si8 0.856079 0.741896 0.618660
O O1 0.770949 0.829636 0.896033
O O2 0.831648 0.708056 0.740261
O O3 0.984017 0.731457 0.905267
O O4 0.735287 0.657147 0.928810
O O5 0.704065 0.500000 0.500000
O O6 0.692168 0.630682 0.346074
O O7 0.518925 0.628005 0.499845
O O8 0.769419 0.680294 0.537723
O O9 0.176188 0.147460 0.123642
O O10 0.965942 0.056846 0.089947
O O11 0.153922 0.966118 0.208632
O O12 0.180503 0.000000 0.000000
O O13 0.853493 0.128142 0.907680
O O14 0.743167 0.000000 0.000000
O O15 0.500000 0.719560 0.250000
O O16 0.682769 0.647675 0.132674
O O17 0.740760 0.794328 0.256734
O O18 0.656981 0.500000 0.000000
O O19 0.000000 0.829177 0.250000
#
# Coordination Sequence:
#
# PCOD9310501 Si02
#       8
#     4   4   4   4   4   4   4   4
#     4  10  21  37  57  87 124 155 189 248 303 346
#     4  10  23  41  64  88 113 157 204 251 303 364
#     4  10  19  31  53  85 118 150 191 240 284 336
#     4  10  18  31  53  85 119 148 197 238 280 346
#     4  10  23  41  60  89 125 152 198 262 304 354
#     4  10  22  41  65  86 114 158 204 248 303 364
#     4  12  20  33  62  89 112 161 204 238 291 361
#     4  10  22  37  58  88 125 153 193 248 301 351
#
# _framework density 18.100618999999998
#
# number of rings (size 3 to 8) (size 9 to 14) (size 15 to 20)
#    0.000    1.750    3.750    1.500    5.250    1.000 
#    0.000    0.000    5.500    0.000    0.000    0.000 
#    0.000    0.000    0.000    0.000    0.000    0.000 
#
# Total GULP energy -178248.920258 kJ/mol
# GULP energy per Si atom -5570.278758 kJ/mol
# Density = 1.805942 g / cm^3
# Si number density = 18.100619 Si / 1000 Ang^3
#
#
#
# Elastic Constant Matrix: (Units=GPa)
#
#
# Indices 1 2 3 4 5 6 
#
# 1 37.9927 52.0092 34.1341 0.0000 0.0000 0.0000
# 2 52.0092 104.7728 38.3919 0.0000 0.0000 0.0000
# 3 34.1341 38.3919 89.0593 0.0000 0.0000 0.0000
# 4 0.0000 0.0000 0.0000 27.2114 0.0000 0.0000
# 5 0.0000 0.0000 0.0000 0.0000 21.5299 0.0000
# 6 0.0000 0.0000 0.0000 0.0000 0.0000 22.7027
#
#
#
# Elastic Compliance Matrix: (Units=1/GPa)
#
#
# Indices 1 2 3 4 5 6 
#
# 1 0.109356 -0.046228 -0.021985 0.000000 0.000000 0.000000
# 2 -0.046228 0.030877 0.004408 0.000000 0.000000 0.000000
# 3 -0.021985 0.004408 0.017755 0.000000 0.000000 0.000000
# 4 0.000000 0.000000 0.000000 0.036749 0.000000 0.000000
# 5 0.000000 0.000000 0.000000 0.000000 0.046447 0.000000
# 6 0.000000 0.000000 0.000000 0.000000 0.000000 0.044048
#
#
# Mechanical properties :
#
#
# Convention : Reuss Voigt Hill
#
# Bulk Modulus (GPa) = 32.92050 53.43281 43.17665
# Shear Modulus (GPa) = 11.82119 21.44147 16.63133
#
# Velocity S-wave (km/s) = 2.55832 3.44549 3.03450
# Velocity P-wave (km/s) = 5.19169 6.73888 6.01524
#
# Compressibility (1/GPa) = 0.03037621
#
# Stress axis : x y z
#
# Youngs Moduli (GPa) = 9.14443 32.38639 56.32290
#
# Poissons Ratio (x) = 1.49717 1.23826
# Poissons Ratio (y) = 0.42273 -0.24824
# Poissons Ratio (z) = 0.20104 -0.14274
#
# Static dielectric constant tensor:
#      x y z
#    x 1.605780 0.000000 0.000000 
#    y 0.000000 1.673500 0.000000 
#    z 0.000000 0.000000 1.645210 
# 
# From -- ./inp_files/6720.got.cif
#   From: 2010.05.17/outbox.cif.g08.bks.cpg/sg17_4_cif.got.tgz:6720.got - 2010.06.03 22:34:06.
