data_PCOD9310567
_publ_section_title
;
Structure prediction by ZEFSAII (Michael W. Deem and Ramdas Pophale) SiO2 
 PCOD9310567
Probable space group: P 2 2 21
;
_chemical_formula_sum "Si O2"
_cell_formula_units_Z 26
_cell_length_a 8.622803
_cell_length_b 5.053806
_cell_length_c 27.330851
_cell_angle_alpha 90.000000
_cell_angle_beta 90.000000
_cell_angle_gamma 90.000000
_cell_volume 1191.023102
_symmetry_space_group_name_H-M "P 2 2 21"
_symmetry_group_IT_number 17
_symmetry_cell_setting 'orthorhombic'
loop_
_space_group_symop_operation_xyz
x,y,z
-x,-y,1/2+z
x,-y,-z
-x,y,1/2-z
loop_
_atom_site_type_symbol
_atom_site_label
_atom_site_fract_x
_atom_site_fract_y
_atom_site_fract_z
Si Si1 0.660836 0.000705 0.276296
Si Si2 0.663878 0.508134 0.341472
Si Si3 0.165027 0.850779 0.319527
Si Si4 0.411291 0.000000 0.500000
Si Si5 0.402923 0.246744 0.599017
Si Si6 0.999727 0.673170 0.858948
Si Si7 0.836892 0.604755 0.953859
O O1 0.500000 0.938505 0.250000
O O2 0.649452 0.299846 0.296625
O O3 0.678764 0.804956 0.321641
O O4 0.784876 0.917208 0.235473
O O5 0.516201 0.532827 0.377346
O O6 0.825599 0.422315 0.364657
O O7 0.317315 0.902692 0.355149
O O8 0.100607 0.556466 0.331215
O O9 0.028382 0.056596 0.330606
O O10 0.485945 0.110655 0.551231
O O11 0.298374 0.218490 0.476465
O O12 0.251810 0.372841 0.574106
O O13 0.936084 0.738353 0.912652
O O14 0.931886 0.500000 0.000000
#
# Coordination Sequence:
#
# PCOD9310567 Si02
#       7
#     4   4   4   2   4   4   4
#     4  12  26  43  68  99 133 185 231 280 334 413
#     4  12  27  42  67 101 143 173 227 288 354 396
#     4  11  23  43  70  92 135 181 232 269 340 409
#     4  10  18  40  70 100 124 174 240 276 336 412
#     4  10  22  39  68 100 133 177 231 291 328 414
#     4  11  24  43  66  99 136 178 215 291 344 408
#     4   9  20  38  66  95 123 173 230 270 330 417
#
# _framework density 21.829971
#
# number of rings (size 3 to 8) (size 9 to 14) (size 15 to 20)
#    0.000    1.231    3.077    2.308    6.462    3.692 
#    0.000    2.308    0.000    0.923    0.000    0.000 
#    0.000    0.000    0.000    0.000    0.000    0.000 
#
# Total GULP energy -144893.804610 kJ/mol
# GULP energy per Si atom -5572.838639 kJ/mol
# Density = 2.178029 g / cm^3
# Si number density = 21.829971 Si / 1000 Ang^3
#
#
#
# Elastic Constant Matrix: (Units=GPa)
#
#
# Indices 1 2 3 4 5 6 
#
# 1 55.1478 -4.6264 9.7082 0.0000 0.0000 0.0000
# 2 -4.6264 64.9554 1.6970 0.0000 0.0000 0.0000
# 3 9.7082 1.6970 85.8287 0.0000 0.0000 0.0000
# 4 0.0000 0.0000 0.0000 34.1648 0.0000 0.0000
# 5 0.0000 0.0000 0.0000 0.0000 15.3624 0.0000
# 6 0.0000 0.0000 0.0000 0.0000 0.0000 26.6443
#
#
#
# Elastic Compliance Matrix: (Units=1/GPa)
#
#
# Indices 1 2 3 4 5 6 
#
# 1 0.018625 0.001382 -0.002134 0.000000 0.000000 0.000000
# 2 0.001382 0.015506 -0.000463 0.000000 0.000000 0.000000
# 3 -0.002134 -0.000463 0.011902 0.000000 0.000000 0.000000
# 4 0.000000 0.000000 0.000000 0.029270 0.000000 0.000000
# 5 0.000000 0.000000 0.000000 0.000000 0.065094 0.000000
# 6 0.000000 0.000000 0.000000 0.000000 0.000000 0.037532
#
#
# Mechanical properties :
#
#
# Convention : Reuss Voigt Hill
#
# Bulk Modulus (GPa) = 22.93432 24.38773 23.66102
# Shear Modulus (GPa) = 25.65536 28.51117 27.08327
#
# Velocity S-wave (km/s) = 3.43189 3.61786 3.52610
# Velocity P-wave (km/s) = 5.12177 5.35237 5.23834
#
# Compressibility (1/GPa) = 0.04360278
#
# Stress axis : x y z
#
# Youngs Moduli (GPa) = 53.69209 64.49235 84.02195
#
# Poissons Ratio (x) = -0.08915 0.17930
# Poissons Ratio (y) = -0.07422 0.03890
# Poissons Ratio (z) = 0.11458 0.02986
#
# Static dielectric constant tensor:
#      x y z
#    x 1.816860 0.000000 0.000000 
#    y 0.000000 1.876830 0.000000 
#    z 0.000000 0.000000 2.001850 
# 
# From -- ./inp_files/10860.got.cif
#   From: 2010.05.17/outbox.cif.g08.bks.cpg/sg17_6_cif.got.tgz:10860.got - 2010.06.03 22:34:06.
