data_PCOD9310636
_publ_section_title
;
Structure prediction by ZEFSAII (Michael W. Deem and Ramdas Pophale) SiO2 
 PCOD9310636
Probable space group: P 2 2 21
;
_chemical_formula_sum "Si O2"
_cell_formula_units_Z 26
_cell_length_a 20.732515
_cell_length_b 8.046242
_cell_length_c 8.489911
_cell_angle_alpha 90.000000
_cell_angle_beta 90.000000
_cell_angle_gamma 90.000000
_cell_volume 1416.277045
_symmetry_space_group_name_H-M "P 2 2 21"
_symmetry_group_IT_number 17
_symmetry_cell_setting 'orthorhombic'
loop_
_space_group_symop_operation_xyz
x,y,z
-x,-y,1/2+z
x,-y,-z
-x,y,1/2-z
loop_
_atom_site_type_symbol
_atom_site_label
_atom_site_fract_x
_atom_site_fract_y
_atom_site_fract_z
Si Si1 0.572097 0.819627 0.311571
Si Si2 0.977077 0.669042 0.071672
Si Si3 0.938298 0.875087 0.642991
Si Si4 0.356069 0.506885 0.323135
Si Si5 0.229896 0.500000 0.500000
Si Si6 0.427857 0.805933 0.812523
Si Si7 0.144607 0.174173 0.445707
O O1 0.500000 0.787225 0.250000
O O2 0.618640 0.674311 0.254823
O O3 0.570049 0.813983 0.499597
O O4 0.590366 0.006938 0.257341
O O5 0.000000 0.654231 0.250000
O O6 0.949265 0.500000 0.000000
O O7 0.920179 0.802240 0.051237
O O8 0.034614 0.716542 0.952342
O O9 0.881592 0.837331 0.766052
O O10 0.000000 0.932445 0.750000
O O11 0.922743 0.000000 0.500000
O O12 0.279402 0.513159 0.352740
O O13 0.380259 0.340509 0.238863
O O14 0.615363 0.500000 0.000000
O O15 0.188792 0.333367 0.476892
O O16 0.500000 0.770565 0.750000
O O17 0.175049 0.000000 0.500000
#
# Coordination Sequence:
#
# PCOD9310636 Si02
#       7
#     4   4   4   4   2   4   4
#     4  10  20  35  61  95 124 148 186 240 304 362
#     4  11  20  33  60  96 126 154 189 245 311 369
#     4  10  19  34  58  95 122 151 193 242 317 377
#     4  10  22  38  59  79 115 161 198 246 280 348
#     4  10  26  42  60  82 112 164 226 232 290 344
#     4  10  20  35  61  95 123 149 188 238 302 366
#     4  11  22  40  64  83 120 159 203 255 295 358
#
# _framework density 18.357990999999998
#
# number of rings (size 3 to 8) (size 9 to 14) (size 15 to 20)
#    0.462    1.231    0.769    6.462    0.000    3.077 
#    0.000    0.000   16.923    0.000    0.000    0.000 
#    0.000    0.000    0.000    0.000    0.000    0.000 
#
# Total GULP energy -144968.591297 kJ/mol
# GULP energy per Si atom -5575.715050 kJ/mol
# Density = 1.831621 g / cm^3
# Si number density = 18.357991 Si / 1000 Ang^3
#
#
#
# Elastic Constant Matrix: (Units=GPa)
#
#
# Indices 1 2 3 4 5 6 
#
# 1 86.9579 75.2237 45.3086 0.0000 0.0000 0.0000
# 2 75.2237 146.5879 49.8517 0.0000 0.0000 0.0000
# 3 45.3086 49.8517 105.8626 0.0000 0.0000 0.0000
# 4 0.0000 0.0000 0.0000 19.2187 0.0000 0.0000
# 5 0.0000 0.0000 0.0000 0.0000 24.6568 0.0000
# 6 0.0000 0.0000 0.0000 0.0000 0.0000 30.3924
#
#
#
# Elastic Compliance Matrix: (Units=1/GPa)
#
#
# Indices 1 2 3 4 5 6 
#
# 1 0.022738 -0.009953 -0.005045 0.000000 0.000000 0.000000
# 2 -0.009953 0.012479 -0.001617 0.000000 0.000000 0.000000
# 3 -0.005045 -0.001617 0.012367 0.000000 0.000000 0.000000
# 4 0.000000 0.000000 0.000000 0.052033 0.000000 0.000000
# 5 0.000000 0.000000 0.000000 0.000000 0.040557 0.000000
# 6 0.000000 0.000000 0.000000 0.000000 0.000000 0.032903
#
#
# Mechanical properties :
#
#
# Convention : Reuss Voigt Hill
#
# Bulk Modulus (GPa) = 69.66201 75.57515 72.61858
# Shear Modulus (GPa) = 23.68653 26.12187 24.90420
#
# Velocity S-wave (km/s) = 3.59591 3.77625 3.68718
# Velocity P-wave (km/s) = 7.43435 7.76339 7.60065
#
# Compressibility (1/GPa) = 0.01435503
#
# Stress axis : x y z
#
# Youngs Moduli (GPa) = 43.97894 80.13414 80.86166
#
# Poissons Ratio (x) = 0.79755 0.40795
# Poissons Ratio (y) = 0.43771 0.13074
# Poissons Ratio (z) = 0.22187 0.12956
#
# Static dielectric constant tensor:
#      x y z
#    x 1.610700 0.000000 0.000000 
#    y 0.000000 1.704680 0.000000 
#    z 0.000000 0.000000 1.634190 
# 
# From -- ./inp_files/5475.got.cif
#   From: 2010.05.17/outbox.cif.g08.bks.cpg/sg17_3_cif.got.tgz:5475.got - 2010.06.03 22:34:06.
