data_PCOD9310916
_publ_section_title
;
Structure prediction by ZEFSAII (Michael W. Deem and Ramdas Pophale) SiO2 
 PCOD9310916
Probable space group: P 2 2 21
;
_chemical_formula_sum "Si O2"
_cell_formula_units_Z 24
_cell_length_a 9.192282
_cell_length_b 23.461963
_cell_length_c 5.093346
_cell_angle_alpha 90.000000
_cell_angle_beta 90.000000
_cell_angle_gamma 90.000000
_cell_volume 1098.476737
_symmetry_space_group_name_H-M "P 2 2 21"
_symmetry_group_IT_number 17
_symmetry_cell_setting 'orthorhombic'
loop_
_space_group_symop_operation_xyz
x,y,z
-x,-y,1/2+z
x,-y,-z
-x,y,1/2-z
loop_
_atom_site_type_symbol
_atom_site_label
_atom_site_fract_x
_atom_site_fract_y
_atom_site_fract_z
Si Si1 0.675085 0.668285 0.733778
Si Si2 0.834602 0.715072 0.235790
Si Si3 0.641681 0.123201 0.076509
Si Si4 0.250288 0.000000 0.500000
Si Si5 0.000000 0.067120 0.750000
Si Si6 0.323108 0.464882 0.252200
Si Si7 0.803347 0.158227 0.555093
O O1 0.500000 0.676234 0.750000
O O2 0.730632 0.685191 0.447394
O O3 0.712442 0.601595 0.769984
O O4 0.760540 0.704551 0.953876
O O5 0.841787 0.780424 0.332760
O O6 0.000000 0.692645 0.250000
O O7 0.500000 0.136992 0.250000
O O8 0.662021 0.054594 0.098969
O O9 0.754999 0.158005 0.254172
O O10 0.678900 0.136755 0.769855
O O11 0.136402 0.973074 0.297669
O O12 0.934263 0.112678 0.548944
O O13 0.270373 0.500000 0.500000
O O14 0.500000 0.466371 0.250000
O O15 0.272837 0.500000 0.000000
#
# Coordination Sequence:
#
# PCOD9310916 Si02
#       7
#     4   4   4   2   2   4   4
#     4  11  24  41  68 102 135 175 226 281 335 392
#     4  12  25  44  66  96 134 181 226 279 335 395
#     4  11  25  41  62  93 123 157 196 250 324 391
#     4  10  22  38  66  88 122 154 190 258 308 376
#     4  10  20  40  60  90 108 150 208 244 290 358
#     4   9  17  33  60  94 130 170 220 274 324 383
#     4  11  24  42  65  86 118 163 211 257 302 375
#
# _framework density 21.848437000000001
#
# number of rings (size 3 to 8) (size 9 to 14) (size 15 to 20)
#    0.000    1.333    0.833    4.500    0.000   13.333 
#    0.000    0.000    0.000   10.000    0.000    0.000 
#    0.000    0.000    0.000    0.000    0.000    0.000 
#
# Total GULP energy -133830.734145 kJ/mol
# GULP energy per Si atom -5576.280589 kJ/mol
# Density = 2.179871 g / cm^3
# Si number density = 21.848437 Si / 1000 Ang^3
#
#
#
# Elastic Constant Matrix: (Units=GPa)
#
#
# Indices 1 2 3 4 5 6 
#
# 1 61.3324 -11.6995 -1.1344 0.0000 0.0000 0.0000
# 2 -11.6995 94.1538 6.4628 0.0000 0.0000 0.0000
# 3 -1.1344 6.4628 101.5008 0.0000 0.0000 0.0000
# 4 0.0000 0.0000 0.0000 60.8921 0.0000 0.0000
# 5 0.0000 0.0000 0.0000 0.0000 17.8355 0.0000
# 6 0.0000 0.0000 0.0000 0.0000 0.0000 236.5563
#
#
#
# Elastic Compliance Matrix: (Units=1/GPa)
#
#
# Indices 1 2 3 4 5 6 
#
# 1 0.016701 0.002071 0.000055 0.000000 0.000000 0.000000
# 2 0.002071 0.010924 -0.000672 0.000000 0.000000 0.000000
# 3 0.000055 -0.000672 0.009896 0.000000 0.000000 0.000000
# 4 0.000000 0.000000 0.000000 0.016423 0.000000 0.000000
# 5 0.000000 0.000000 0.000000 0.000000 0.056068 0.000000
# 6 0.000000 0.000000 0.000000 0.000000 0.000000 0.004227
#
#
# Mechanical properties :
#
#
# Convention : Reuss Voigt Hill
#
# Bulk Modulus (GPa) = 24.73512 27.13833 25.93672
# Shear Modulus (GPa) = 40.06186 80.61399 60.33792
#
# Velocity S-wave (km/s) = 4.28673 6.08087 5.26085
# Velocity P-wave (km/s) = 5.98726 7.85817 6.98563
#
# Compressibility (1/GPa) = 0.04042834
#
# Stress axis : x y z
#
# Youngs Moduli (GPa) = 59.87758 91.53757 101.05536
#
# Poissons Ratio (x) = -0.18962 -0.00553
# Poissons Ratio (y) = -0.12403 0.06795
# Poissons Ratio (z) = -0.00328 0.06155
#
# Static dielectric constant tensor:
#      x y z
#    x 1.386140 0.000000 0.000000 
#    y 0.000000 1.790100 0.000000 
#    z 0.000000 0.000000 1.730430 
# 
# From -- ./inp_files/1032.got.cif
#   From: 2010.05.17/outbox.cif.g08.bks.cpg/sg17_1_cif.got.tgz:1032.got - 2010.06.03 22:34:06.
