data_PCOD9310001
_publ_section_title
;
Structure prediction by ZEFSAII (Michael W. Deem and Ramdas Pophale) SiO2 
 PCOD9310001
Probable space group: P 2 2 2
;
_chemical_formula_sum "Si O2"
_cell_formula_units_Z 18
_cell_length_a 21.495001
_cell_length_b 6.557017
_cell_length_c 5.136215
_cell_angle_alpha 90.000000
_cell_angle_beta 90.000000
_cell_angle_gamma 90.000000
_cell_volume 723.913997
_symmetry_space_group_name_H-M "P 2 2 2"
_symmetry_group_IT_number 16
_symmetry_cell_setting 'orthorhombic'
loop_
_space_group_symop_operation_xyz
x,y,z
-x,-y,z
x,-y,-z
-x,y,-z
loop_
_atom_site_type_symbol
_atom_site_label
_atom_site_fract_x
_atom_site_fract_y
_atom_site_fract_z
Si Si1 0.500000 0.500000 0.500000
Si Si2 0.728332 0.363597 0.247557
Si Si3 0.000000 0.000000 0.500000
Si Si4 0.500000 0.000000 0.000000
Si Si5 0.403456 0.208621 0.623207
Si Si6 0.096113 0.711280 0.614386
Si Si7 0.199685 0.000000 0.500000
Si Si8 0.000000 0.500000 0.000000
O O1 0.445274 0.337611 0.417203
O O2 0.738911 0.500000 0.500000
O O3 0.654261 0.320591 0.246378
O O4 0.762105 0.149097 0.309254
O O5 0.747040 0.500000 0.000000
O O6 0.052475 0.163733 0.591817
O O7 0.454223 0.140028 0.831889
O O8 0.378707 0.000000 0.500000
O O9 0.119249 0.500000 0.500000
O O10 0.154203 0.854307 0.669603
O O11 0.047650 0.642783 0.835849
#
# Coordination Sequence:
#
# PCOD9310001 Si02
#       8
#     1   4   1   1   4   4   2   1
#     4  12  22  46  68 110 158 204 264 342 422 498
#     4  12  30  56  84 118 165 226 290 358 425 511
#     4  10  18  42  68 102 162 186 234 312 392 460
#     4  12  26  42  72 122 158 208 270 352 422 520
#     4  12  26  46  75 115 161 212 280 347 432 505
#     4  11  23  48  75 118 157 205 260 330 407 506
#     4  11  28  57  82 113 172 219 286 344 426 513
#     4  12  22  46  84 118 162 192 262 328 418 488
#
# _framework density 24.864833999999998
#
# number of rings (size 3 to 8) (size 9 to 14) (size 15 to 20)
#    0.000    0.444    6.667    0.667    6.222    1.333 
#   12.000    0.000    0.000    0.000    0.000    0.000 
#    0.000    0.000    0.000    0.000    0.000    0.000 
#
# Total GULP energy -100217.896935 kJ/mol
# GULP energy per Si atom -5567.660941 kJ/mol
# Density = 2.480824 g / cm^3
# Si number density = 24.864834 Si / 1000 Ang^3
#
#
#
# Elastic Constant Matrix: (Units=GPa)
#
#
# Indices 1 2 3 4 5 6 
#
# 1 180.6213 91.3915 50.0122 0.0000 0.0000 0.0000
# 2 91.3915 173.3519 53.7534 0.0000 0.0000 0.0000
# 3 50.0122 53.7534 117.1093 0.0000 0.0000 0.0000
# 4 0.0000 0.0000 0.0000 22.6272 0.0000 0.0000
# 5 0.0000 0.0000 0.0000 0.0000 -22.6036 0.0000
# 6 0.0000 0.0000 0.0000 0.0000 0.0000 46.8727
#
#
#
# Elastic Compliance Matrix: (Units=1/GPa)
#
#
# Indices 1 2 3 4 5 6 
#
# 1 0.007827 -0.003603 -0.001689 0.000000 0.000000 0.000000
# 2 -0.003603 0.008384 -0.002310 0.000000 0.000000 0.000000
# 3 -0.001689 -0.002310 0.010320 0.000000 0.000000 0.000000
# 4 0.000000 0.000000 0.000000 0.044195 0.000000 0.000000
# 5 0.000000 0.000000 0.000000 0.000000 -0.044241 0.000000
# 6 0.000000 0.000000 0.000000 0.000000 0.000000 0.021334
#
#
# Mechanical properties :
#
#
# Convention : Reuss Voigt Hill
#
# Bulk Modulus (GPa) = 88.27030 95.71074 91.99052
# Shear Modulus (GPa) = 74.85137 27.77429 51.31283
#
# Velocity S-wave (km/s) = 5.49260 3.34580 4.54769
# Velocity P-wave (km/s) = 8.70643 7.31449 8.04064
#
# Compressibility (1/GPa) = 0.01132884
#
# Stress axis : x y z
#
# Youngs Moduli (GPa) = 127.76276 119.27190 96.89455
#
# Poissons Ratio (x) = 0.42970 0.16365
# Poissons Ratio (y) = 0.46029 0.22381
# Poissons Ratio (z) = 0.21578 0.27549
#
# Static dielectric constant tensor:
#      x y z
#    x 1.942020 0.000000 0.000000 
#    y 0.000000 2.083540 0.000000 
#    z 0.000000 0.000000 2.007250 
# 
# From -- ./inp_files/321.got.cif
#   From: 2010.05.17/outbox.cif.g08.bks.cpg/sg16_1_cif.got.tgz:321.got - 2010.06.03 22:28:35.
