data_PCOD9310782
_publ_section_title
;
Structure prediction by ZEFSAII (Michael W. Deem and Ramdas Pophale) SiO2 
 PCOD9310782
Probable space group: P 2 2 21
;
_chemical_formula_sum "Si O2"
_cell_formula_units_Z 20
_cell_length_a 12.054381
_cell_length_b 10.324486
_cell_length_c 7.651741
_cell_angle_alpha 90.000000
_cell_angle_beta 90.000000
_cell_angle_gamma 90.000000
_cell_volume 952.299629
_symmetry_space_group_name_H-M "P 2 2 21"
_symmetry_group_IT_number 17
_symmetry_cell_setting 'orthorhombic'
loop_
_space_group_symop_operation_xyz
x,y,z
-x,-y,1/2+z
x,-y,-z
-x,y,1/2-z
loop_
_atom_site_type_symbol
_atom_site_label
_atom_site_fract_x
_atom_site_fract_y
_atom_site_fract_z
Si Si1 0.372773 0.780966 0.293492
Si Si2 0.793964 0.140054 0.504297
Si Si3 0.919669 0.616486 0.600679
Si Si4 0.295344 0.508383 0.704772
Si Si5 0.377308 0.212155 0.296996
O O1 0.500000 0.810682 0.250000
O O2 0.350179 0.628755 0.250688
O O3 0.353237 0.808038 0.498192
O O4 0.288804 0.855258 0.168444
O O5 0.875744 0.262559 0.509696
O O6 0.716707 0.158912 0.332313
O O7 0.849983 0.000000 0.500000
O O8 0.979941 0.500000 0.500000
O O9 0.813712 0.544031 0.686199
O O10 0.000000 0.668164 0.750000
O O11 0.267168 0.500000 0.500000
O O12 0.374209 0.632006 0.730549
O O13 0.500000 0.162895 0.250000
#
# Coordination Sequence:
#
# PCOD9310782 Si02
#       5
#     4   4   4   4   4
#     4  11  20  36  62  95 132 181 213 257 321 384
#     4  11  25  43  63  92 134 173 214 267 319 384
#     4  11  22  42  72  95 123 158 217 276 335 383
#     4   9  19  34  59  93 129 157 210 273 325 373
#     4  10  20  35  57  93 128 173 220 262 306 384
#
# _framework density 21.001794
#
# number of rings (size 3 to 8) (size 9 to 14) (size 15 to 20)
#    0.000    1.600    4.000    1.200    0.000    1.600 
#    0.000    1.000    0.000    0.000    0.000    0.000 
#    0.000    0.000    0.000    0.000    0.000    0.000 
#
# Total GULP energy -111743.341230 kJ/mol
# GULP energy per Si atom -5587.167062 kJ/mol
# Density = 2.095399 g / cm^3
# Si number density = 21.001794 Si / 1000 Ang^3
#
#
#
# Elastic Constant Matrix: (Units=GPa)
#
#
# Indices 1 2 3 4 5 6 
#
# 1 41.5521 1.4799 8.8981 0.0000 0.0000 0.0000
# 2 1.4799 115.9455 19.2557 0.0000 0.0000 0.0000
# 3 8.8981 19.2557 70.2000 0.0000 0.0000 0.0000
# 4 0.0000 0.0000 0.0000 -21.3096 0.0000 0.0000
# 5 0.0000 0.0000 0.0000 0.0000 27.5237 0.0000
# 6 0.0000 0.0000 0.0000 0.0000 0.0000 -0.0185
#
#
#
# Elastic Compliance Matrix: (Units=1/GPa)
#
#
# Indices 1 2 3 4 5 6 
#
# 1 0.024743 0.000215 -0.003195 0.000000 0.000000 0.000000
# 2 0.000215 0.009038 -0.002506 0.000000 0.000000 0.000000
# 3 -0.003195 -0.002506 0.015338 0.000000 0.000000 0.000000
# 4 0.000000 0.000000 0.000000 -0.046927 0.000000 0.000000
# 5 0.000000 0.000000 0.000000 0.000000 0.036332 0.000000
# 6 0.000000 0.000000 0.000000 0.000000 0.000000-54.106239
#
#
# Mechanical properties :
#
#
# Convention : Reuss Voigt Hill
#
# Bulk Modulus (GPa) = 26.21574 31.88501 29.05037
# Shear Modulus (GPa) = -0.09252 14.44339 7.17543
#
# Velocity S-wave (km/s) = -0.21011 2.62529 1.85041
# Velocity P-wave (km/s) = 3.52858 4.94009 4.29275
#
# Compressibility (1/GPa) = 0.03814503
#
# Stress axis : x y z
#
# Youngs Moduli (GPa) = 40.41593 110.64084 65.19964
#
# Poissons Ratio (x) = -0.02377 0.20832
# Poissons Ratio (y) = -0.00868 0.16342
# Poissons Ratio (z) = 0.12913 0.27731
#
# Static dielectric constant tensor:
#      x y z
#    x 1.712950 0.000000 0.000000 
#    y 0.000000 1.777820 0.000000 
#    z 0.000000 0.000000 1.765800 
# 
# From -- ./inp_files/4638.got.cif
#   From: 2010.05.17/outbox.cif.g08.bks.cpg/sg17_3_cif.got.tgz:4638.got - 2010.06.03 22:34:06.
