data_PCOD9310987
_publ_section_title
;
Structure prediction by ZEFSAII (Michael W. Deem and Ramdas Pophale) SiO2 
 PCOD9310987
Probable space group: P 2 2 21
;
_chemical_formula_sum "Si O2"
_cell_formula_units_Z 24
_cell_length_a 5.468721
_cell_length_b 23.260486
_cell_length_c 9.074480
_cell_angle_alpha 90.000000
_cell_angle_beta 90.000000
_cell_angle_gamma 90.000000
_cell_volume 1154.320211
_symmetry_space_group_name_H-M "P 2 2 21"
_symmetry_group_IT_number 17
_symmetry_cell_setting 'orthorhombic'
loop_
_space_group_symop_operation_xyz
x,y,z
-x,-y,1/2+z
x,-y,-z
-x,y,1/2-z
loop_
_atom_site_type_symbol
_atom_site_label
_atom_site_fract_x
_atom_site_fract_y
_atom_site_fract_z
Si Si1 0.364605 0.391864 0.900707
Si Si2 0.671534 0.500000 0.000000
Si Si3 0.250099 0.855250 0.176788
Si Si4 0.751098 0.175546 0.334190
Si Si5 0.749937 0.007761 0.676101
Si Si6 0.000000 0.473452 0.750000
Si Si7 0.249629 0.314194 0.166952
O O1 0.500000 0.372822 0.750000
O O2 0.135144 0.430648 0.858845
O O3 0.531547 0.440444 0.976179
O O4 0.279418 0.341571 0.006354
O O5 0.820284 0.490767 0.150071
O O6 0.500000 0.831713 0.250000
O O7 0.250172 0.923742 0.204899
O O8 0.000000 0.831758 0.250000
O O9 0.250353 0.846308 0.001618
O O10 0.500000 0.158999 0.250000
O O11 0.756064 0.245038 0.340933
O O12 0.000000 0.157385 0.250000
O O13 0.500000 0.984441 0.750000
O O14 0.000000 0.984596 0.750000
O O15 0.749865 0.000000 0.500000
O O16 0.500000 0.330674 0.250000
O O17 0.000000 0.332555 0.250000
#
# Coordination Sequence:
#
# PCOD9310987 Si02
#       7
#     4   2   4   4   4   2   4
#     4  10  23  41  58  86 116 148 191 235 283 345
#     4  10  22  40  58  84 112 144 188 228 280 334
#     4  10  21  37  58  89 119 156 202 250 298 353
#     4  10  21  40  61  87 119 151 197 247 294 357
#     4  10  21  36  55  83 122 159 205 249 296 354
#     4  10  22  40  58  82 114 144 186 234 272 340
#     4  10  24  42  62  89 117 152 193 238 292 348
#
# _framework density 20.791459
#
# number of rings (size 3 to 8) (size 9 to 14) (size 15 to 20)
#    0.000    2.000    0.000    2.000    4.667    5.333 
#    3.000    0.000    0.000    0.000    0.000    0.000 
#    0.000    0.000    0.000    0.000    0.000    0.000 
#
# Total GULP energy -134000.299046 kJ/mol
# GULP energy per Si atom -5583.345794 kJ/mol
# Density = 2.074414 g / cm^3
# Si number density = 20.791459 Si / 1000 Ang^3
#
#
#
# Elastic Constant Matrix: (Units=GPa)
#
#
# Indices 1 2 3 4 5 6 
#
# 1 188.6288 32.4757 72.5648 0.0000 0.0000 0.0000
# 2 32.4757 33.7392 29.8058 0.0000 0.0000 0.0000
# 3 72.5648 29.8058 83.7713 0.0000 0.0000 0.0000
# 4 0.0000 0.0000 0.0000 50.5941 0.0000 0.0000
# 5 0.0000 0.0000 0.0000 0.0000 1201.5253 0.0000
# 6 0.0000 0.0000 0.0000 0.0000 0.0000 -14.4154
#
#
#
# Elastic Compliance Matrix: (Units=1/GPa)
#
#
# Indices 1 2 3 4 5 6 
#
# 1 0.008074 -0.002323 -0.006167 0.000000 0.000000 0.000000
# 2 -0.002323 0.043894 -0.013605 0.000000 0.000000 0.000000
# 3 -0.006167 -0.013605 0.022120 0.000000 0.000000 0.000000
# 4 0.000000 0.000000 0.000000 0.019765 0.000000 0.000000
# 5 0.000000 0.000000 0.000000 0.000000 0.000832 0.000000
# 6 0.000000 0.000000 0.000000 0.000000 0.000000 -0.069370
#
#
# Mechanical properties :
#
#
# Convention : Reuss Voigt Hill
#
# Bulk Modulus (GPa) = 33.44791 63.98131 48.71461
# Shear Modulus (GPa) = 62.91448 258.96032 160.93740
#
# Velocity S-wave (km/s) = 5.50686 11.17236 8.80759
# Velocity P-wave (km/s) = 7.52039 14.04523 11.26554
#
# Compressibility (1/GPa) = 0.02989723
#
# Stress axis : x y z
#
# Youngs Moduli (GPa) = 123.85568 22.78190 45.20768
#
# Poissons Ratio (x) = 0.05293 0.27880
# Poissons Ratio (y) = 0.28776 0.61506
# Poissons Ratio (z) = 0.76384 0.30995
#
# Static dielectric constant tensor:
#      x y z
#    x 1.793550 0.000000 0.000000 
#    y 0.000000 1.676170 0.000000 
#    z 0.000000 0.000000 1.703400 
# 
# From -- ./inp_files/3578.got.cif
#   From: 2010.05.17/outbox.cif.g08.bks.cpg/sg17_2_cif.got.tgz:3578.got - 2010.06.03 22:34:06.
