data_PCOD9310350
_publ_section_title
;
Structure prediction by ZEFSAII (Michael W. Deem and Ramdas Pophale) SiO2 
 PCOD9310350
Probable space group: P 2 2 2
;
_chemical_formula_sum "Si O2"
_cell_formula_units_Z 14
_cell_length_a 5.758284
_cell_length_b 19.870473
_cell_length_c 5.167945
_cell_angle_alpha 90.000000
_cell_angle_beta 90.000000
_cell_angle_gamma 90.000000
_cell_volume 591.315372
_symmetry_space_group_name_H-M "P 2 2 2"
_symmetry_group_IT_number 16
_symmetry_cell_setting 'orthorhombic'
loop_
_space_group_symop_operation_xyz
x,y,z
-x,-y,z
x,-y,-z
-x,y,-z
loop_
_atom_site_type_symbol
_atom_site_label
_atom_site_fract_x
_atom_site_fract_y
_atom_site_fract_z
Si Si1 0.000000 0.000000 0.500000
Si Si2 0.752513 0.750000 0.146447
Si Si3 0.000000 0.500000 0.500000
Si Si4 0.658557 0.100918 0.743271
Si Si5 0.341443 0.399083 0.256729
O O1 0.862593 0.048643 0.697014
O O2 0.746463 0.822108 0.284690
O O3 0.746462 0.677892 0.284692
O O4 0.500000 0.750000 0.000000
O O5 0.000000 0.750000 0.000000
O O6 0.137407 0.451357 0.302985
O O7 0.500000 0.086816 0.500000
O O8 0.500000 0.094166 0.000000
O O9 0.500000 0.413185 0.500000
O O10 0.500000 0.405834 0.000000
#
# Coordination Sequence:
#
# PCOD9310350 Si02
#       5
#     1   4   1   4   4
#     4  12  30  48  84 112 172 212 266 330 418 496
#     4  10  25  51  83 115 154 208 274 337 395 474
#     4  12  30  48  84 112 172 212 266 330 418 496
#     4  11  28  52  77 115 157 207 269 330 402 480
#     4  11  28  52  77 115 157 207 269 330 402 480
#
# _framework density 23.676027999999999
#
# number of rings (size 3 to 8) (size 9 to 14) (size 15 to 20)
#    0.000    1.143    0.000    1.714   16.000    8.000 
#    0.000    0.000    0.000    0.000    0.000    0.000 
#    0.000    0.000    0.000    0.000    0.000    0.000 
#
# Total GULP energy -78252.839363 kJ/mol
# GULP energy per Si atom -5589.488526 kJ/mol
# Density = 2.362214 g / cm^3
# Si number density = 23.676028 Si / 1000 Ang^3
#
#
#
# Elastic Constant Matrix: (Units=GPa)
#
#
# Indices 1 2 3 4 5 6 
#
# 1 121.9355 79.5766 35.9803 0.0000 0.0000 0.0000
# 2 79.5766 247.3448 38.5612 0.0000 0.0000 0.0000
# 3 35.9803 38.5612 131.6043 0.0000 0.0000 0.0000
# 4 0.0000 0.0000 0.0000 48.0604 0.0000 0.0000
# 5 0.0000 0.0000 0.0000 0.0000 16.7296 0.0000
# 6 0.0000 0.0000 0.0000 0.0000 0.0000 75.9419
#
#
#
# Elastic Compliance Matrix: (Units=1/GPa)
#
#
# Indices 1 2 3 4 5 6 
#
# 1 0.010880 -0.003182 -0.002042 0.000000 0.000000 0.000000
# 2 -0.003182 0.005167 -0.000644 0.000000 0.000000 0.000000
# 3 -0.002042 -0.000644 0.008346 0.000000 0.000000 0.000000
# 4 0.000000 0.000000 0.000000 0.020807 0.000000 0.000000
# 5 0.000000 0.000000 0.000000 0.000000 0.059774 0.000000
# 6 0.000000 0.000000 0.000000 0.000000 0.000000 0.013168
#
#
# Mechanical properties :
#
#
# Convention : Reuss Voigt Hill
#
# Bulk Modulus (GPa) = 79.01225 89.90228 84.45727
# Shear Modulus (GPa) = 37.28617 51.26415 44.27516
#
# Velocity S-wave (km/s) = 3.97274 4.65826 4.32909
# Velocity P-wave (km/s) = 7.38162 8.18454 7.79343
#
# Compressibility (1/GPa) = 0.01265627
#
# Stress axis : x y z
#
# Youngs Moduli (GPa) = 91.90884 193.53260 119.82361
#
# Poissons Ratio (x) = 0.61583 0.24471
# Poissons Ratio (y) = 0.29246 0.07717
# Poissons Ratio (z) = 0.18770 0.12464
#
# Static dielectric constant tensor:
#      x y z
#    x 2.004110 0.000000 0.000000 
#    y 0.000000 1.731260 0.000000 
#    z 0.000000 0.000000 1.894190 
# 
# From -- ./inp_files/194.got.cif
#   From: 2010.05.17/outbox.cif.g08.bks.cpg/sg16_1_cif.got.tgz:194.got - 2010.06.03 22:28:35.
