data_PCOD9310654
_publ_section_title
;
Structure prediction by ZEFSAII (Michael W. Deem and Ramdas Pophale) SiO2 
 PCOD9310654
Probable space group: P 2 2 21
;
_chemical_formula_sum "Si O2"
_cell_formula_units_Z 22
_cell_length_a 7.914065
_cell_length_b 7.031387
_cell_length_c 14.586547
_cell_angle_alpha 90.000000
_cell_angle_beta 90.000000
_cell_angle_gamma 90.000000
_cell_volume 811.695448
_symmetry_space_group_name_H-M "P 2 2 21"
_symmetry_group_IT_number 17
_symmetry_cell_setting 'orthorhombic'
loop_
_space_group_symop_operation_xyz
x,y,z
-x,-y,1/2+z
x,-y,-z
-x,y,1/2-z
loop_
_atom_site_type_symbol
_atom_site_label
_atom_site_fract_x
_atom_site_fract_y
_atom_site_fract_z
Si Si1 0.517350 0.118840 0.407723
Si Si2 0.391989 0.500000 0.000000
Si Si3 0.799040 0.384138 0.673880
Si Si4 0.824473 0.668359 0.131536
Si Si5 0.820529 0.772799 0.930353
Si Si6 0.866199 0.164602 0.327094
O O1 0.521768 0.341089 0.438129
O O2 0.323179 0.113067 0.373831
O O3 0.681261 0.078819 0.345615
O O4 0.536539 0.000000 0.500000
O O5 0.296120 0.378786 0.922358
O O6 0.728682 0.310624 0.771464
O O7 0.829279 0.610711 0.690312
O O8 0.980115 0.291451 0.653921
O O9 0.821614 0.445493 0.103374
O O10 0.776827 0.773566 0.038184
O O11 0.012087 0.841382 0.915904
O O12 0.000000 0.101760 0.250000
#
# Coordination Sequence:
#
# PCOD9310654 Si02
#       6
#     4   2   4   4   4   4
#     4  11  25  42  66  96 130 166 219 269 326 397
#     4  10  20  38  64  88 128 174 204 268 332 374
#     4   9  15  30  60  98 125 167 226 266 318 400
#     4   9  15  29  58  94 130 167 216 266 323 390
#     4  10  19  35  60  91 128 170 215 268 327 385
#     4  10  19  39  65  94 125 177 221 264 335 392
#
# _framework density 27.103763000000001
#
# number of rings (size 3 to 8) (size 9 to 14) (size 15 to 20)
#    0.000    2.182    3.636    4.364    0.000    1.455 
#    0.000    2.727   16.000    0.000    0.000    0.000 
#    0.000    0.000    0.000    0.000    0.000    0.000 
#
# Total GULP energy -122915.902740 kJ/mol
# GULP energy per Si atom -5587.086488 kJ/mol
# Density = 2.704207 g / cm^3
# Si number density = 27.103763 Si / 1000 Ang^3
#
#
#
# Elastic Constant Matrix: (Units=GPa)
#
#
# Indices 1 2 3 4 5 6 
#
# 1 101.5207 7.9237 45.2540 0.0000 0.0000 0.0000
# 2 7.9237 85.8413 4.6798 0.0000 0.0000 0.0000
# 3 45.2540 4.6798 173.0083 0.0000 0.0000 0.0000
# 4 0.0000 0.0000 0.0000 33.1219 0.0000 0.0000
# 5 0.0000 0.0000 0.0000 0.0000 29.5192 0.0000
# 6 0.0000 0.0000 0.0000 0.0000 0.0000 8.6885
#
#
#
# Elastic Compliance Matrix: (Units=1/GPa)
#
#
# Indices 1 2 3 4 5 6 
#
# 1 0.011216 -0.000877 -0.002910 0.000000 0.000000 0.000000
# 2 -0.000877 0.011735 -0.000088 0.000000 0.000000 0.000000
# 3 -0.002910 -0.000088 0.006544 0.000000 0.000000 0.000000
# 4 0.000000 0.000000 0.000000 0.030191 0.000000 0.000000
# 5 0.000000 0.000000 0.000000 0.000000 0.033876 0.000000
# 6 0.000000 0.000000 0.000000 0.000000 0.000000 0.115095
#
#
# Mechanical properties :
#
#
# Convention : Reuss Voigt Hill
#
# Bulk Modulus (GPa) = 45.98761 52.89836 49.44298
# Shear Modulus (GPa) = 22.35582 34.43344 28.39463
#
# Velocity S-wave (km/s) = 2.87509 3.56818 3.24022
# Velocity P-wave (km/s) = 5.29392 6.04443 5.68158
#
# Compressibility (1/GPa) = 0.02174499
#
# Stress axis : x y z
#
# Youngs Moduli (GPa) = 89.15986 85.21425 152.82036
#
# Poissons Ratio (x) = 0.07470 0.44471
# Poissons Ratio (y) = 0.07816 0.01347
# Poissons Ratio (z) = 0.25946 0.00751
#
# Static dielectric constant tensor:
#      x y z
#    x 2.144910 0.000000 0.000000 
#    y 0.000000 2.188240 0.000000 
#    z 0.000000 0.000000 2.134820 
# 
# From -- ./inp_files/8102.got.cif
#   From: 2010.05.17/outbox.cif.g08.bks.cpg/sg17_5_cif.got.tgz:8102.got - 2010.06.03 22:34:06.
