data_PCOD9310528
_publ_section_title
;
Structure prediction by ZEFSAII (Michael W. Deem and Ramdas Pophale) SiO2 
 PCOD9310528
Probable space group: P 2 2 21
;
_chemical_formula_sum "Si O2"
_cell_formula_units_Z 20
_cell_length_a 18.393929
_cell_length_b 11.634171
_cell_length_c 5.124586
_cell_angle_alpha 90.000000
_cell_angle_beta 90.000000
_cell_angle_gamma 90.000000
_cell_volume 1096.651746
_symmetry_space_group_name_H-M "P 2 2 21"
_symmetry_group_IT_number 17
_symmetry_cell_setting 'orthorhombic'
loop_
_space_group_symop_operation_xyz
x,y,z
-x,-y,1/2+z
x,-y,-z
-x,y,1/2-z
loop_
_atom_site_type_symbol
_atom_site_label
_atom_site_fract_x
_atom_site_fract_y
_atom_site_fract_z
Si Si1 0.372533 0.000000 0.500000
Si Si2 0.500000 0.885745 0.750000
Si Si3 0.500000 0.275695 0.750000
Si Si4 0.262615 0.788364 0.457768
Si Si5 0.048263 0.000000 0.000000
Si Si6 0.811124 0.129341 0.471643
Si Si7 0.356394 0.577926 0.251074
O O1 0.427868 0.037038 0.270857
O O2 0.322487 0.109819 0.561546
O O3 0.492166 0.804613 0.500690
O O4 0.570209 0.352730 0.691897
O O5 0.230127 0.799503 0.748841
O O6 0.298282 0.670701 0.358114
O O7 0.199202 0.816181 0.253370
O O8 0.000000 0.029859 0.750000
O O9 0.104570 0.898717 0.917289
O O10 0.777899 0.000000 0.500000
O O11 0.372786 0.500000 0.500000
O O12 0.335436 0.500000 0.000000
#
# Coordination Sequence:
#
# PCOD9310528 Si02
#       7
#     2   2   2   4   2   4   4
#     4  12  24  39  57  84 118 146 194 252 322 390
#     4  12  27  37  56  88 110 143 201 252 326 390
#     4  12  25  45  60  78 112 149 209 280 324 376
#     4  12  23  39  61  82 122 159 199 256 309 370
#     4  10  18  33  59  90 140 174 188 220 272 360
#     4  10  21  35  57  93 124 161 197 226 285 362
#     4  12  26  44  61  81 109 158 217 270 324 370
#
# _framework density 18.237328000000002
#
# number of rings (size 3 to 8) (size 9 to 14) (size 15 to 20)
#    0.600    0.000    4.000    4.800    2.800    1.600 
#    0.000    0.000    0.000    0.000    0.000    0.000 
#    0.000   44.800    0.000    0.000    0.000    0.000 
#
# Total GULP energy -111606.442587 kJ/mol
# GULP energy per Si atom -5580.322129 kJ/mol
# Density = 1.819582 g / cm^3
# Si number density = 18.237328 Si / 1000 Ang^3
#
#
#
# Elastic Constant Matrix: (Units=GPa)
#
#
# Indices 1 2 3 4 5 6 
#
# 1 78.2200 20.4765 16.1591 0.0000 0.0000 0.0000
# 2 20.4765 71.4631 33.5921 0.0000 0.0000 0.0000
# 3 16.1591 33.5921 116.8047 0.0000 0.0000 0.0000
# 4 0.0000 0.0000 0.0000 42.2735 0.0000 0.0000
# 5 0.0000 0.0000 0.0000 0.0000 34.0891 0.0000
# 6 0.0000 0.0000 0.0000 0.0000 0.0000 2.1896
#
#
#
# Elastic Compliance Matrix: (Units=1/GPa)
#
#
# Indices 1 2 3 4 5 6 
#
# 1 0.013902 -0.003561 -0.000899 0.000000 0.000000 0.000000
# 2 -0.003561 0.017093 -0.004423 0.000000 0.000000 0.000000
# 3 -0.000899 -0.004423 0.009958 0.000000 0.000000 0.000000
# 4 0.000000 0.000000 0.000000 0.023655 0.000000 0.000000
# 5 0.000000 0.000000 0.000000 0.000000 0.029335 0.000000
# 6 0.000000 0.000000 0.000000 0.000000 0.000000 0.456713
#
#
# Mechanical properties :
#
#
# Convention : Reuss Voigt Hill
#
# Bulk Modulus (GPa) = 43.12849 45.21591 44.17220
# Shear Modulus (GPa) = 8.67828 28.79446 18.73637
#
# Velocity S-wave (km/s) = 2.18377 3.97782 3.20873
# Velocity P-wave (km/s) = 5.48254 6.77822 6.16452
#
# Compressibility (1/GPa) = 0.02318653
#
# Stress axis : x y z
#
# Youngs Moduli (GPa) = 71.93022 58.50469 100.42429
#
# Poissons Ratio (x) = 0.20832 0.09031
# Poissons Ratio (y) = 0.25613 0.44419
# Poissons Ratio (z) = 0.06468 0.25877
#
# Static dielectric constant tensor:
#      x y z
#    x 1.649400 0.000000 0.000000 
#    y 0.000000 1.678050 0.000000 
#    z 0.000000 0.000000 1.640780 
# 
# From -- ./inp_files/2578.got.cif
#   From: 2010.05.17/outbox.cif.g08.bks.cpg/sg17_2_cif.got.tgz:2578.got - 2010.06.03 22:34:06.
