data_PCOD9310757
_publ_section_title
;
Structure prediction by ZEFSAII (Michael W. Deem and Ramdas Pophale) SiO2 
 PCOD9310757
Probable space group: P 2 2 21
;
_chemical_formula_sum "Si O2"
_cell_formula_units_Z 30
_cell_length_a 17.077011
_cell_length_b 8.490129
_cell_length_c 10.172650
_cell_angle_alpha 90.000000
_cell_angle_beta 90.000000
_cell_angle_gamma 90.000000
_cell_volume 1474.892101
_symmetry_space_group_name_H-M "P 2 2 21"
_symmetry_group_IT_number 17
_symmetry_cell_setting 'orthorhombic'
loop_
_space_group_symop_operation_xyz
x,y,z
-x,-y,1/2+z
x,-y,-z
-x,y,1/2-z
loop_
_atom_site_type_symbol
_atom_site_label
_atom_site_fract_x
_atom_site_fract_y
_atom_site_fract_z
Si Si1 0.427399 0.290161 0.147186
Si Si2 0.737670 0.229362 0.740863
Si Si3 0.991187 0.182885 0.517895
Si Si4 0.575157 0.665036 0.337643
Si Si5 0.120883 0.396764 0.630865
Si Si6 0.000000 0.379739 0.250000
Si Si7 0.167558 0.318479 0.997255
Si Si8 0.269516 0.096344 0.139940
O O1 0.500000 0.257036 0.250000
O O2 0.408996 0.476570 0.161658
O O3 0.350890 0.182559 0.173918
O O4 0.439591 0.275785 0.987846
O O5 0.645612 0.253195 0.740923
O O6 0.795601 0.323893 0.834659
O O7 0.759441 0.306005 0.600032
O O8 0.753337 0.042821 0.739295
O O9 0.903295 0.219536 0.565742
O O10 0.058163 0.259226 0.605189
O O11 0.992947 0.273968 0.378790
O O12 0.002684 0.000000 0.500000
O O13 0.500000 0.692265 0.250000
O O14 0.127741 0.500000 0.500000
O O15 0.076730 0.511346 0.733483
O O16 0.200702 0.225908 0.123550
O O17 0.145245 0.500000 0.000000
O O18 0.276901 0.000000 0.000000
#
# Coordination Sequence:
#
# PCOD9310757 Si02
#       8
#     4   4   4   4   4   2   4   4
#     4  10  20  39  63  94 126 160 209 269 310 387
#     4  11  21  37  62  87 125 163 203 269 313 374
#     4  11  23  38  61  92 125 163 211 266 321 384
#     4  10  21  39  65  92 124 168 213 252 321 388
#     4  10  22  42  61  88 124 168 220 264 319 389
#     4  10  22  40  62  88 122 166 208 256 322 382
#     4  11  20  34  60  91 119 159 213 255 306 377
#     4  10  20  34  56  94 125 158 207 255 321 377
#
# _framework density 20.34047
#
# number of rings (size 3 to 8) (size 9 to 14) (size 15 to 20)
#    0.000    1.600    2.667    4.800    0.000    3.200 
#    4.800    1.333    0.000    0.000    0.000    0.000 
#    0.000    0.000    0.000    0.000    0.000    0.000 
#
# Total GULP energy -167356.849423 kJ/mol
# GULP energy per Si atom -5578.561647 kJ/mol
# Density = 2.029417 g / cm^3
# Si number density = 20.340470 Si / 1000 Ang^3
#
#
#
# Elastic Constant Matrix: (Units=GPa)
#
#
# Indices 1 2 3 4 5 6 
#
# 1 115.4645 61.0995 37.8181 0.0000 0.0000 0.0000
# 2 61.0995 130.6089 46.6380 0.0000 0.0000 0.0000
# 3 37.8181 46.6380 54.5298 0.0000 0.0000 0.0000
# 4 0.0000 0.0000 0.0000 15.3343 0.0000 0.0000
# 5 0.0000 0.0000 0.0000 0.0000 33.0140 0.0000
# 6 0.0000 0.0000 0.0000 0.0000 0.0000 26.7116
#
#
#
# Elastic Compliance Matrix: (Units=1/GPa)
#
#
# Indices 1 2 3 4 5 6 
#
# 1 0.012481 -0.003956 -0.005272 0.000000 0.000000 0.000000
# 2 -0.003956 0.012277 -0.007756 0.000000 0.000000 0.000000
# 3 -0.005272 -0.007756 0.028629 0.000000 0.000000 0.000000
# 4 0.000000 0.000000 0.000000 0.065213 0.000000 0.000000
# 5 0.000000 0.000000 0.000000 0.000000 0.030290 0.000000
# 6 0.000000 0.000000 0.000000 0.000000 0.000000 0.037437
#
#
# Mechanical properties :
#
#
# Convention : Reuss Voigt Hill
#
# Bulk Modulus (GPa) = 51.50112 65.74605 58.62358
# Shear Modulus (GPa) = 22.04885 25.34849 23.69867
#
# Velocity S-wave (km/s) = 3.29597 3.53400 3.41706
# Velocity P-wave (km/s) = 6.31340 7.00322 6.66724
#
# Compressibility (1/GPa) = 0.01941706
#
# Stress axis : x y z
#
# Youngs Moduli (GPa) = 80.12247 81.45503 34.92949
#
# Poissons Ratio (x) = 0.32223 0.18417
# Poissons Ratio (y) = 0.31696 0.27093
# Poissons Ratio (z) = 0.42245 0.63180
#
# Static dielectric constant tensor:
#      x y z
#    x 1.729770 0.000000 0.000000 
#    y 0.000000 1.740150 0.000000 
#    z 0.000000 0.000000 1.790640 
# 
# From -- ./inp_files/7261.got.cif
#   From: 2010.05.17/outbox.cif.g08.bks.cpg/sg17_4_cif.got.tgz:7261.got - 2010.06.03 22:34:06.
