data_PCOD9310866
_publ_section_title
;
Structure prediction by ZEFSAII (Michael W. Deem and Ramdas Pophale) SiO2 
 PCOD9310866
Probable space group: P 2 2 21
;
_chemical_formula_sum "Si O2"
_cell_formula_units_Z 22
_cell_length_a 6.860898
_cell_length_b 14.888469
_cell_length_c 8.385569
_cell_angle_alpha 90.000000
_cell_angle_beta 90.000000
_cell_angle_gamma 90.000000
_cell_volume 856.571343
_symmetry_space_group_name_H-M "P 2 2 21"
_symmetry_group_IT_number 17
_symmetry_cell_setting 'orthorhombic'
loop_
_space_group_symop_operation_xyz
x,y,z
-x,-y,1/2+z
x,-y,-z
-x,y,1/2-z
loop_
_atom_site_type_symbol
_atom_site_label
_atom_site_fract_x
_atom_site_fract_y
_atom_site_fract_z
Si Si1 0.767419 0.676565 0.688311
Si Si2 0.668342 0.874160 0.557901
Si Si3 0.000000 0.606582 0.250000
Si Si4 0.777864 0.735214 0.014256
Si Si5 0.791025 0.919958 0.879484
Si Si6 0.500000 0.834672 0.250000
Si Si7 0.752854 0.500000 0.500000
O O1 0.721120 0.770418 0.598461
O O2 0.689955 0.593372 0.585539
O O3 0.000000 0.667633 0.750000
O O4 0.679883 0.687343 0.864337
O O5 0.803198 0.927027 0.686749
O O6 0.443419 0.901204 0.597431
O O7 0.653316 0.885945 0.365780
O O8 0.913672 0.669349 0.112355
O O9 0.855778 0.542836 0.345014
O O10 0.622632 0.771061 0.137826
O O11 0.876360 0.826111 0.945825
O O12 0.838800 0.000000 0.000000
#
# Coordination Sequence:
#
# PCOD9310866 Si02
#       7
#     4   4   2   4   4   2   2
#     4  11  21  40  65  98 128 171 225 281 337 403
#     4   9  20  37  62  93 132 170 217 273 340 390
#     4  12  20  38  62  92 126 166 218 270 328 396
#     4  10  22  37  64  93 133 171 220 271 340 396
#     4   9  19  39  67  94 126 176 229 271 323 409
#     4  10  20  38  62  98 128 176 222 264 334 416
#     4  12  22  36  64 100 120 170 230 276 322 414
#
# _framework density 25.683792
#
# number of rings (size 3 to 8) (size 9 to 14) (size 15 to 20)
#    0.000    1.818    2.727    2.182    0.000    5.818 
#    0.000    0.000    8.000   63.273    0.000    0.000 
#    0.000    0.000    0.000    0.000    0.000    0.000 
#
# Total GULP energy -122662.932359 kJ/mol
# GULP energy per Si atom -5575.587835 kJ/mol
# Density = 2.562533 g / cm^3
# Si number density = 25.683792 Si / 1000 Ang^3
#
#
#
# Elastic Constant Matrix: (Units=GPa)
#
#
# Indices 1 2 3 4 5 6 
#
# 1 60.4681 36.8395 24.2899 0.0000 0.0000 0.0000
# 2 36.8395 199.7211 79.2465 0.0000 0.0000 0.0000
# 3 24.2899 79.2465 221.4639 0.0000 0.0000 0.0000
# 4 0.0000 0.0000 0.0000 51.1251 0.0000 0.0000
# 5 0.0000 0.0000 0.0000 0.0000 45.1983 0.0000
# 6 0.0000 0.0000 0.0000 0.0000 0.0000 49.9677
#
#
#
# Elastic Compliance Matrix: (Units=1/GPa)
#
#
# Indices 1 2 3 4 5 6 
#
# 1 0.018804 -0.003089 -0.000957 0.000000 0.000000 0.000000
# 2 -0.003089 0.006343 -0.001931 0.000000 0.000000 0.000000
# 3 -0.000957 -0.001931 0.005311 0.000000 0.000000 0.000000
# 4 0.000000 0.000000 0.000000 0.019560 0.000000 0.000000
# 5 0.000000 0.000000 0.000000 0.000000 0.022125 0.000000
# 6 0.000000 0.000000 0.000000 0.000000 0.000000 0.020013
#
#
# Mechanical properties :
#
#
# Convention : Reuss Voigt Hill
#
# Bulk Modulus (GPa) = 54.04073 84.71165 69.37619
# Shear Modulus (GPa) = 45.34027 52.01003 48.67515
#
# Velocity S-wave (km/s) = 4.20614 4.50490 4.35808
# Velocity P-wave (km/s) = 6.68395 7.75325 7.23838
#
# Compressibility (1/GPa) = 0.01850456
#
# Stress axis : x y z
#
# Youngs Moduli (GPa) = 53.18058 157.65766 188.27692
#
# Poissons Ratio (x) = 0.48695 0.18021
# Poissons Ratio (y) = 0.16426 0.36354
# Poissons Ratio (z) = 0.05090 0.30442
#
# Static dielectric constant tensor:
#      x y z
#    x 2.336680 0.000000 0.000000 
#    y 0.000000 2.008070 0.000000 
#    z 0.000000 0.000000 2.097880 
# 
# From -- ./inp_files/4289.got.cif
#   From: 2010.05.17/outbox.cif.g08.bks.cpg/sg17_3_cif.got.tgz:4289.got - 2010.06.03 22:34:06.
