data_PCOD9310983
_publ_section_title
;
Structure prediction by ZEFSAII (Michael W. Deem and Ramdas Pophale) SiO2 
 PCOD9310983
Probable space group: P 2 2 21
;
_chemical_formula_sum "Si O2"
_cell_formula_units_Z 16
_cell_length_a 10.494109
_cell_length_b 13.986535
_cell_length_c 5.281595
_cell_angle_alpha 90.000000
_cell_angle_beta 90.000000
_cell_angle_gamma 90.000000
_cell_volume 775.212565
_symmetry_space_group_name_H-M "P 2 2 21"
_symmetry_group_IT_number 17
_symmetry_cell_setting 'orthorhombic'
loop_
_space_group_symop_operation_xyz
x,y,z
-x,-y,1/2+z
x,-y,-z
-x,y,1/2-z
loop_
_atom_site_type_symbol
_atom_site_label
_atom_site_fract_x
_atom_site_fract_y
_atom_site_fract_z
Si Si1 0.606308 0.398029 0.080029
Si Si2 0.778449 0.734959 0.198989
Si Si3 0.135040 0.642739 0.791555
Si Si4 0.650720 0.937350 0.250496
O O1 0.500000 0.347629 0.250000
O O2 0.653819 0.668903 0.146081
O O3 0.737289 0.417449 0.236648
O O4 0.554203 0.500000 0.000000
O O5 0.851599 0.690094 0.435516
O O6 0.734120 0.841901 0.247564
O O7 0.854078 0.721581 0.934444
O O8 0.000000 0.591956 0.750000
O O9 0.500000 0.911866 0.250000
O O10 0.675229 0.000000 0.500000
O O11 0.674851 0.000000 0.000000
#
# Coordination Sequence:
#
# PCOD9310983 Si02
#       4
#     4   4   4   4
#     4  10  26  39  64  98 133 167 213 267 326 391
#     4  10  23  39  66  89 128 168 210 267 327 372
#     4  10  23  43  64  91 125 174 221 261 318 390
#     4  10  21  35  60  94 128 161 208 263 322 391
#
# _framework density 20.639498
#
# number of rings (size 3 to 8) (size 9 to 14) (size 15 to 20)
#    1.500    0.500    0.000    2.250    7.000    1.000 
#    4.500    0.000    0.000   15.000    0.000    0.000 
#    0.000    0.000    0.000    0.000    0.000    0.000 
#
# Total GULP energy -89225.117376 kJ/mol
# GULP energy per Si atom -5576.569836 kJ/mol
# Density = 2.059252 g / cm^3
# Si number density = 20.639498 Si / 1000 Ang^3
#
#
#
# Elastic Constant Matrix: (Units=GPa)
#
#
# Indices 1 2 3 4 5 6 
#
# 1 79.4309 -6.0405 30.2701 0.0000 0.0000 0.0000
# 2 -6.0405 40.0628 14.9299 0.0000 0.0000 0.0000
# 3 30.2701 14.9299 142.0859 0.0000 0.0000 0.0000
# 4 0.0000 0.0000 0.0000 19.8650 0.0000 0.0000
# 5 0.0000 0.0000 0.0000 0.0000 20.9900 0.0000
# 6 0.0000 0.0000 0.0000 0.0000 0.0000 13.0328
#
#
#
# Elastic Compliance Matrix: (Units=1/GPa)
#
#
# Indices 1 2 3 4 5 6 
#
# 1 0.014130 0.003385 -0.003366 0.000000 0.000000 0.000000
# 2 0.003385 0.026789 -0.003536 0.000000 0.000000 0.000000
# 3 -0.003366 -0.003536 0.008127 0.000000 0.000000 0.000000
# 4 0.000000 0.000000 0.000000 0.050340 0.000000 0.000000
# 5 0.000000 0.000000 0.000000 0.000000 0.047642 0.000000
# 6 0.000000 0.000000 0.000000 0.000000 0.000000 0.076730
#
#
# Mechanical properties :
#
#
# Convention : Reuss Voigt Hill
#
# Bulk Modulus (GPa) = 23.80331 37.76652 30.78492
# Shear Modulus (GPa) = 20.42532 25.60556 23.01544
#
# Velocity S-wave (km/s) = 3.14924 3.52605 3.34296
# Velocity P-wave (km/s) = 4.97811 5.90891 5.46337
#
# Compressibility (1/GPa) = 0.04201096
#
# Stress axis : x y z
#
# Youngs Moduli (GPa) = 70.77318 37.32893 123.05254
#
# Poissons Ratio (x) = -0.12635 0.41418
# Poissons Ratio (y) = -0.23955 0.43511
# Poissons Ratio (z) = 0.23821 0.13199
#
# Static dielectric constant tensor:
#      x y z
#    x 1.798460 0.000000 0.000000 
#    y 0.000000 1.675070 0.000000 
#    z 0.000000 0.000000 1.783510 
# 
# From -- ./inp_files/1197.got.cif
#   From: 2010.05.17/outbox.cif.g08.bks.cpg/sg17_1_cif.got.tgz:1197.got - 2010.06.03 22:34:06.
