data_PCOD9310565
_publ_section_title
;
Structure prediction by ZEFSAII (Michael W. Deem and Ramdas Pophale) SiO2 
 PCOD9310565
Probable space group: P 2 2 21
;
_chemical_formula_sum "Si O2"
_cell_formula_units_Z 26
_cell_length_a 10.275636
_cell_length_b 5.158173
_cell_length_c 25.141986
_cell_angle_alpha 90.000000
_cell_angle_beta 90.000000
_cell_angle_gamma 90.000000
_cell_volume 1332.613460
_symmetry_space_group_name_H-M "P 2 2 21"
_symmetry_group_IT_number 17
_symmetry_cell_setting 'orthorhombic'
loop_
_space_group_symop_operation_xyz
x,y,z
-x,-y,1/2+z
x,-y,-z
-x,y,1/2-z
loop_
_atom_site_type_symbol
_atom_site_label
_atom_site_fract_x
_atom_site_fract_y
_atom_site_fract_z
Si Si1 0.180714 0.093521 0.688362
Si Si2 0.167998 0.393379 0.447150
Si Si3 0.967027 0.000000 0.500000
Si Si4 0.763703 0.260581 0.697623
Si Si5 0.587708 0.760501 0.698971
Si Si6 0.673575 0.611601 0.847769
Si Si7 0.964326 0.220690 0.608149
O O1 0.157350 0.184360 0.748871
O O2 0.277602 0.319374 0.665287
O O3 0.055776 0.058127 0.649554
O O4 0.252133 0.817891 0.689644
O O5 0.235355 0.500000 0.500000
O O6 0.274511 0.306977 0.405617
O O7 0.065668 0.195117 0.471410
O O8 0.072707 0.586776 0.415462
O O9 0.899619 0.111562 0.553316
O O10 0.675576 0.509143 0.710101
O O11 0.855191 0.326749 0.647656
O O12 0.674278 0.009490 0.684424
O O13 0.500000 0.832610 0.750000
O O14 0.478974 0.661461 0.657470
#
# Coordination Sequence:
#
# PCOD9310565 Si02
#       7
#     4   4   2   4   4   4   4
#     4  11  20  37  60  91 125 152 193 258 299 362
#     4   9  20  38  63  92 113 155 199 262 309 351
#     4  10  18  40  64  86 118 156 200 248 314 362
#     4  12  24  38  61  90 125 165 197 246 301 375
#     4  12  23  40  60  84 123 170 206 237 295 361
#     4  11  21  37  62  87 120 155 206 246 295 352
#     4  10  23  36  61  93 122 154 201 251 316 360
#
# _framework density 19.510532999999999
#
# number of rings (size 3 to 8) (size 9 to 14) (size 15 to 20)
#    0.000    1.231    4.615    1.846    2.154    0.000 
#    0.000    3.077    3.385    0.000    0.000    0.000 
#    0.000    0.000    0.000    0.000    0.000    0.000 
#
# Total GULP energy -144759.158760 kJ/mol
# GULP energy per Si atom -5567.659952 kJ/mol
# Density = 1.946613 g / cm^3
# Si number density = 19.510533 Si / 1000 Ang^3
#
#
#
# Elastic Constant Matrix: (Units=GPa)
#
#
# Indices 1 2 3 4 5 6 
#
# 1 55.0218 1.9853 27.6805 0.0000 0.0000 0.0000
# 2 1.9853 55.9869 -2.5604 0.0000 0.0000 0.0000
# 3 27.6805 -2.5604 136.1149 0.0000 0.0000 0.0000
# 4 0.0000 0.0000 0.0000 22.0453 0.0000 0.0000
# 5 0.0000 0.0000 0.0000 0.0000 24.1042 0.0000
# 6 0.0000 0.0000 0.0000 0.0000 0.0000-2175.4529
#
#
#
# Elastic Compliance Matrix: (Units=1/GPa)
#
#
# Indices 1 2 3 4 5 6 
#
# 1 0.020292 -0.000909 -0.004144 0.000000 0.000000 0.000000
# 2 -0.000909 0.017917 0.000522 0.000000 0.000000 0.000000
# 3 -0.004144 0.000522 0.008199 0.000000 0.000000 0.000000
# 4 0.000000 0.000000 0.000000 0.045361 0.000000 0.000000
# 5 0.000000 0.000000 0.000000 0.000000 0.041487 0.000000
# 6 0.000000 0.000000 0.000000 0.000000 0.000000 -0.000460
#
#
# Mechanical properties :
#
#
# Convention : Reuss Voigt Hill
#
# Bulk Modulus (GPa) = 26.77593 33.48159 30.12876
# Shear Modulus (GPa) = 32.40283 -411.19281 -189.39499
#
# Velocity S-wave (km/s) = 4.07970 -14.53313 -9.86326
# Velocity P-wave (km/s) = 5.99546 16.26093 10.68813
#
# Compressibility (1/GPa) = 0.03734698
#
# Stress axis : x y z
#
# Youngs Moduli (GPa) = 49.28044 55.81156 121.96277
#
# Poissons Ratio (x) = 0.05073 0.50538
# Poissons Ratio (y) = 0.04480 -0.06365
# Poissons Ratio (z) = 0.20420 -0.02913
#
# Static dielectric constant tensor:
#      x y z
#    x 1.677230 0.000000 0.000000 
#    y 0.000000 1.803750 0.000000 
#    z 0.000000 0.000000 58.810370 
# 
# From -- ./inp_files/10562.got.cif
#   From: 2010.05.17/outbox.cif.g08.bks.cpg/sg17_6_cif.got.tgz:10562.got - 2010.06.03 22:34:06.
