data_PCOD9310592
_publ_section_title
;
Structure prediction by ZEFSAII (Michael W. Deem and Ramdas Pophale) SiO2 
 PCOD9310592
Probable space group: P 2 2 21
;
_chemical_formula_sum "Si O2"
_cell_formula_units_Z 32
_cell_length_a 11.545957
_cell_length_b 14.443565
_cell_length_c 9.583591
_cell_angle_alpha 90.000000
_cell_angle_beta 90.000000
_cell_angle_gamma 90.000000
_cell_volume 1598.205449
_symmetry_space_group_name_H-M "P 2 2 21"
_symmetry_group_IT_number 17
_symmetry_cell_setting 'orthorhombic'
loop_
_space_group_symop_operation_xyz
x,y,z
-x,-y,1/2+z
x,-y,-z
-x,y,1/2-z
loop_
_atom_site_type_symbol
_atom_site_label
_atom_site_fract_x
_atom_site_fract_y
_atom_site_fract_z
Si Si1 0.774286 0.349911 0.773215
Si Si2 0.475839 0.094398 0.085847
Si Si3 0.950748 0.224087 0.613694
Si Si4 0.890237 0.267461 0.143786
Si Si5 0.387176 0.610531 0.015292
Si Si6 0.746921 0.220418 0.391010
Si Si7 0.098925 0.525876 0.638132
Si Si8 0.572463 0.247057 0.895396
O O1 0.886408 0.308808 0.694406
O O2 0.680208 0.377205 0.659181
O O3 0.810309 0.444275 0.846012
O O4 0.704241 0.274200 0.861959
O O5 0.500000 0.080002 0.250000
O O6 0.355710 0.150176 0.079802
O O7 0.562928 0.162136 0.002083
O O8 0.469839 0.000000 0.000000
O O9 0.846895 0.198113 0.505960
O O10 0.000000 0.168687 0.750000
O O11 0.056663 0.241760 0.506651
O O12 0.796425 0.211945 0.234092
O O13 0.847919 0.372882 0.133408
O O14 0.000000 0.268383 0.250000
O O15 0.306699 0.675113 0.913167
O O16 0.399350 0.500000 0.000000
O O17 0.508073 0.665026 0.033088
O O18 0.030088 0.500000 0.500000
O O19 0.000000 0.525136 0.750000
O O20 0.500000 0.227220 0.750000
#
# Coordination Sequence:
#
# PCOD9310592 Si02
#       8
#     4   4   4   4   4   4   4   4
#     4  10  19  31  50  76 112 157 203 247 290 336
#     4  11  24  43  69  95 117 144 185 242 303 364
#     4  10  19  33  55  81 112 155 197 237 284 338
#     4   9  18  32  50  77 115 158 203 246 284 331
#     4   9  17  32  53  78 114 160 202 244 296 347
#     4   9  20  38  59  85 118 153 191 240 294 347
#     4  11  21  30  43  68 107 155 205 246 276 319
#     4   9  20  39  59  84 118 154 197 248 299 356
#
# _framework density 20.022458
#
# number of rings (size 3 to 8) (size 9 to 14) (size 15 to 20)
#    0.000    2.250    0.000    3.750    0.000    5.000 
#    0.000    8.750    0.000    2.250    0.000    0.875 
#    0.000    0.000    0.000    0.000    0.000    0.000 
#
# Total GULP energy -178171.807205 kJ/mol
# GULP energy per Si atom -5567.868975 kJ/mol
# Density = 1.997689 g / cm^3
# Si number density = 20.022458 Si / 1000 Ang^3
#
#
#
# Elastic Constant Matrix: (Units=GPa)
#
#
# Indices 1 2 3 4 5 6 
#
# 1 75.9453 36.9271 43.8512 0.0000 0.0000 0.0000
# 2 36.9271 99.4456 44.8604 0.0000 0.0000 0.0000
# 3 43.8512 44.8604 143.4185 0.0000 0.0000 0.0000
# 4 0.0000 0.0000 0.0000 18.3690 0.0000 0.0000
# 5 0.0000 0.0000 0.0000 0.0000 25.8527 0.0000
# 6 0.0000 0.0000 0.0000 0.0000 0.0000 4.1385
#
#
#
# Elastic Compliance Matrix: (Units=1/GPa)
#
#
# Indices 1 2 3 4 5 6 
#
# 1 0.017784 -0.004833 -0.003926 0.000000 0.000000 0.000000
# 2 -0.004833 0.013021 -0.002595 0.000000 0.000000 0.000000
# 3 -0.003926 -0.002595 0.008985 0.000000 0.000000 0.000000
# 4 0.000000 0.000000 0.000000 0.054440 0.000000 0.000000
# 5 0.000000 0.000000 0.000000 0.000000 0.038681 0.000000
# 6 0.000000 0.000000 0.000000 0.000000 0.000000 0.241634
#
#
# Mechanical properties :
#
#
# Convention : Reuss Voigt Hill
#
# Bulk Modulus (GPa) = 58.54122 63.34297 60.94210
# Shear Modulus (GPa) = 12.40860 22.55009 17.47934
#
# Velocity S-wave (km/s) = 2.49215 3.35959 2.95784
# Velocity P-wave (km/s) = 6.13044 6.83767 6.49369
#
# Compressibility (1/GPa) = 0.01708198
#
# Stress axis : x y z
#
# Youngs Moduli (GPa) = 56.23008 76.79887 111.29957
#
# Poissons Ratio (x) = 0.37115 0.43696
# Poissons Ratio (y) = 0.27175 0.28885
# Poissons Ratio (z) = 0.22076 0.19931
#
# Static dielectric constant tensor:
#      x y z
#    x 1.734480 0.000000 0.000000 
#    y 0.000000 1.699260 0.000000 
#    z 0.000000 0.000000 1.786200 
# 
# From -- ./inp_files/4946.got.cif
#   From: 2010.05.17/outbox.cif.g08.bks.cpg/sg17_3_cif.got.tgz:4946.got - 2010.06.03 22:34:06.
