data_PCOD9310221
_publ_section_title
;
Structure prediction by ZEFSAII (Michael W. Deem and Ramdas Pophale) SiO2 
 PCOD9310221
Probable space group: P 2 2 2
;
_chemical_formula_sum "Si O2"
_cell_formula_units_Z 32
_cell_length_a 14.105238
_cell_length_b 11.238625
_cell_length_c 9.527856
_cell_angle_alpha 90.000000
_cell_angle_beta 90.000000
_cell_angle_gamma 90.000000
_cell_volume 1510.388894
_symmetry_space_group_name_H-M "P 2 2 2"
_symmetry_group_IT_number 16
_symmetry_cell_setting 'orthorhombic'
loop_
_space_group_symop_operation_xyz
x,y,z
-x,-y,z
x,-y,-z
-x,y,-z
loop_
_atom_site_type_symbol
_atom_site_label
_atom_site_fract_x
_atom_site_fract_y
_atom_site_fract_z
Si Si1 0.122214 0.327362 0.368262
Si Si2 0.032438 0.638679 0.152382
Si Si3 0.407474 0.583752 0.290820
Si Si4 0.401455 0.181198 0.535891
Si Si5 0.188445 0.403421 0.660789
Si Si6 0.298930 0.211198 0.244293
Si Si7 0.613997 0.962127 0.792805
Si Si8 0.390257 0.729004 0.025983
O O1 0.153388 0.318694 0.532568
O O2 0.140399 0.468033 0.351082
O O3 0.192961 0.247477 0.277435
O O4 0.021799 0.309630 0.290388
O O5 0.144154 0.646381 0.193227
O O6 0.000000 0.500000 0.144594
O O7 0.000000 0.688783 0.000000
O O8 0.500000 0.500000 0.308038
O O9 0.431106 0.705762 0.370914
O O10 0.300039 0.563740 0.346664
O O11 0.388183 0.617849 0.130118
O O12 0.500000 0.122752 0.500000
O O13 0.350261 0.219779 0.394932
O O14 0.354012 0.089237 0.641284
O O15 0.325561 0.080698 0.188448
O O16 0.339943 0.294171 0.121621
O O17 0.637643 0.851997 0.895173
O O18 0.500000 0.000000 0.800823
O O19 0.500000 0.750404 0.000000
#
# Coordination Sequence:
#
# PCOD9310221 Si02
#       8
#     4   4   4   4   4   4   4   4
#     4  10  22  37  60  93 120 154 208 264 314 377
#     4   9  19  38  64  91 117 155 205 263 318 375
#     4  11  26  41  56  85 131 179 214 253 308 386
#     4  11  22  37  58  84 117 164 221 262 307 371
#     4  10  21  40  61  84 125 171 201 254 318 376
#     4  12  22  36  59  89 119 157 217 276 320 368
#     4  11  21  37  60  80 115 162 216 273 315 366
#     4  11  24  40  54  81 120 173 221 261 311 377
#
# _framework density 21.186596000000002
#
# number of rings (size 3 to 8) (size 9 to 14) (size 15 to 20)
#    0.000    1.375    3.750    1.875    5.250    2.000 
#    0.000    0.625    0.000    0.000    0.000    3.500 
#    0.000    0.000    0.000    0.000    0.000    0.000 
#
# Total GULP energy -178164.789004 kJ/mol
# GULP energy per Si atom -5567.649656 kJ/mol
# Density = 2.113837 g / cm^3
# Si number density = 21.186596 Si / 1000 Ang^3
#
#
#
# Elastic Constant Matrix: (Units=GPa)
#
#
# Indices 1 2 3 4 5 6 
#
# 1 105.0299 12.5775 35.9738 0.0000 0.0000 0.0000
# 2 12.5775 39.8928 11.8178 0.0000 0.0000 0.0000
# 3 35.9738 11.8178 127.1703 0.0000 0.0000 0.0000
# 4 0.0000 0.0000 0.0000 7.4770 0.0000 0.0000
# 5 0.0000 0.0000 0.0000 0.0000 21.8947 0.0000
# 6 0.0000 0.0000 0.0000 0.0000 0.0000 9.1719
#
#
#
# Elastic Compliance Matrix: (Units=1/GPa)
#
#
# Indices 1 2 3 4 5 6 
#
# 1 0.010793 -0.002569 -0.002814 0.000000 0.000000 0.000000
# 2 -0.002569 0.026388 -0.001726 0.000000 0.000000 0.000000
# 3 -0.002814 -0.001726 0.008820 0.000000 0.000000 0.000000
# 4 0.000000 0.000000 0.000000 0.133743 0.000000 0.000000
# 5 0.000000 0.000000 0.000000 0.000000 0.045673 0.000000
# 6 0.000000 0.000000 0.000000 0.000000 0.000000 0.109029
#
#
# Mechanical properties :
#
#
# Convention : Reuss Voigt Hill
#
# Bulk Modulus (GPa) = 31.46313 43.64792 37.55553
# Shear Modulus (GPa) = 13.91760 21.82366 17.87063
#
# Velocity S-wave (km/s) = 2.56580 3.21295 2.90744
# Velocity P-wave (km/s) = 4.86420 5.86604 5.38846
#
# Compressibility (1/GPa) = 0.03178323
#
# Stress axis : x y z
#
# Youngs Moduli (GPa) = 92.65554 37.89558 113.37969
#
# Poissons Ratio (x) = 0.09736 0.31908
# Poissons Ratio (y) = 0.23804 0.19564
# Poissons Ratio (z) = 0.26076 0.06539
#
# Static dielectric constant tensor:
#      x y z
#    x 1.812250 0.000000 0.000000 
#    y 0.000000 1.781520 0.000000 
#    z 0.000000 0.000000 1.924050 
# 
# From -- ./inp_files/5230.got.cif
#   From: 2010.05.17/outbox.cif.g08.bks.cpg/sg16_3_cif.got.tgz:5230.got - 2010.06.03 22:28:35.
