data_PCOD9310502
_publ_section_title
;
Structure prediction by ZEFSAII (Michael W. Deem and Ramdas Pophale) SiO2 
 PCOD9310502
Probable space group: P 2 2 21
;
_chemical_formula_sum "Si O2"
_cell_formula_units_Z 32
_cell_length_a 23.189661
_cell_length_b 13.167839
_cell_length_c 5.132998
_cell_angle_alpha 90.000000
_cell_angle_beta 90.000000
_cell_angle_gamma 90.000000
_cell_volume 1567.400579
_symmetry_space_group_name_H-M "P 2 2 21"
_symmetry_group_IT_number 17
_symmetry_cell_setting 'orthorhombic'
loop_
_space_group_symop_operation_xyz
x,y,z
-x,-y,1/2+z
x,-y,-z
-x,y,1/2-z
loop_
_atom_site_type_symbol
_atom_site_label
_atom_site_fract_x
_atom_site_fract_y
_atom_site_fract_z
Si Si1 0.066803 0.097778 0.818049
Si Si2 0.452821 0.879242 0.028886
Si Si3 0.275790 0.264421 0.495330
Si Si4 0.383790 0.877234 0.510310
Si Si5 0.759462 0.379464 0.531592
Si Si6 0.177674 0.111456 0.458915
Si Si7 0.866024 0.259114 0.435163
Si Si8 0.933309 0.430070 0.244881
O O1 0.114507 0.103972 0.589826
O O2 0.000000 0.086512 0.750000
O O3 0.077849 0.208057 0.941706
O O4 0.080403 0.000000 0.000000
O O5 0.500000 0.844076 0.250000
O O6 0.397633 0.855487 0.207335
O O7 0.434277 0.852572 0.728722
O O8 0.463401 0.000000 0.000000
O O9 0.329185 0.191812 0.426579
O O10 0.258546 0.328745 0.241646
O O11 0.223820 0.188720 0.574416
O O12 0.282025 0.340967 0.737604
O O13 0.375511 0.000000 0.500000
O O14 0.761427 0.500000 0.500000
O O15 0.822970 0.332565 0.588710
O O16 0.167499 0.160529 0.175097
O O17 0.202523 0.000000 0.500000
O O18 0.891125 0.334718 0.220718
O O19 0.923353 0.500000 0.500000
O O20 0.000000 0.396643 0.250000
O O21 0.924493 0.500000 0.000000
#
# Coordination Sequence:
#
# PCOD9310502 Si02
#       8
#     4   4   4   4   4   4   4   4
#     4  12  26  41  61  87 121 155 202 253 312 390
#     4  10  18  31  53  86 136 189 229 256 295 346
#     4  11  23  41  64  92 122 164 209 263 320 382
#     4  10  20  34  55  91 132 179 222 262 301 359
#     4  11  24  43  65  88 117 154 205 269 334 397
#     4  11  23  41  60  85 118 155 197 246 310 377
#     4  11  25  40  62  85 110 151 191 245 316 387
#     4  10  24  41  60  84 111 139 179 235 302 378
#
# _framework density 20.415969
#
# number of rings (size 3 to 8) (size 9 to 14) (size 15 to 20)
#    0.000    1.250    2.500    3.750    3.500    2.500 
#    0.000    1.875    0.000    0.000    0.000    0.000 
#    0.000   28.000    0.000    0.000    0.000    0.000 
#
# Total GULP energy -178189.694934 kJ/mol
# GULP energy per Si atom -5568.427967 kJ/mol
# Density = 2.036950 g / cm^3
# Si number density = 20.415969 Si / 1000 Ang^3
#
#
#
# Elastic Constant Matrix: (Units=GPa)
#
#
# Indices 1 2 3 4 5 6 
#
# 1 63.0909 43.2419 19.6669 0.0000 0.0000 0.0000
# 2 43.2419 110.3532 35.5357 0.0000 0.0000 0.0000
# 3 19.6669 35.5357 109.8494 0.0000 0.0000 0.0000
# 4 0.0000 0.0000 0.0000 20.0669 0.0000 0.0000
# 5 0.0000 0.0000 0.0000 0.0000 23.6560 0.0000
# 6 0.0000 0.0000 0.0000 0.0000 0.0000 141.2008
#
#
#
# Elastic Compliance Matrix: (Units=1/GPa)
#
#
# Indices 1 2 3 4 5 6 
#
# 1 0.021829 -0.008143 -0.001274 0.000000 0.000000 0.000000
# 2 -0.008143 0.013154 -0.002797 0.000000 0.000000 0.000000
# 3 -0.001274 -0.002797 0.010236 0.000000 0.000000 0.000000
# 4 0.000000 0.000000 0.000000 0.049833 0.000000 0.000000
# 5 0.000000 0.000000 0.000000 0.000000 0.042273 0.000000
# 6 0.000000 0.000000 0.000000 0.000000 0.000000 0.007082
#
#
# Mechanical properties :
#
#
# Convention : Reuss Voigt Hill
#
# Bulk Modulus (GPa) = 48.10034 53.35358 50.72696
# Shear Modulus (GPa) = 28.44711 49.30801 38.87756
#
# Velocity S-wave (km/s) = 3.73684 4.91977 4.36853
# Velocity P-wave (km/s) = 6.49846 7.64605 7.09550
#
# Compressibility (1/GPa) = 0.02078988
#
# Stress axis : x y z
#
# Youngs Moduli (GPa) = 45.81157 76.02536 97.69175
#
# Poissons Ratio (x) = 0.61910 0.12443
# Poissons Ratio (y) = 0.37306 0.27326
# Poissons Ratio (z) = 0.05835 0.21265
#
# Static dielectric constant tensor:
#      x y z
#    x 1.788230 0.000000 0.000000 
#    y 0.000000 1.704970 0.000000 
#    z 0.000000 0.000000 1.708740 
# 
# From -- ./inp_files/3119.got.cif
#   From: 2010.05.17/outbox.cif.g08.bks.cpg/sg17_2_cif.got.tgz:3119.got - 2010.06.03 22:34:06.
