data_PCOD9310131
_publ_section_title
;
Structure prediction by ZEFSAII (Michael W. Deem and Ramdas Pophale) SiO2 
 PCOD9310131
Probable space group: P 2 2 2
;
_chemical_formula_sum "Si O2"
_cell_formula_units_Z 32
_cell_length_a 11.978643
_cell_length_b 14.315728
_cell_length_c 9.278873
_cell_angle_alpha 90.000000
_cell_angle_beta 90.000000
_cell_angle_gamma 90.000000
_cell_volume 1591.168932
_symmetry_space_group_name_H-M "P 2 2 2"
_symmetry_group_IT_number 16
_symmetry_cell_setting 'orthorhombic'
loop_
_space_group_symop_operation_xyz
x,y,z
-x,-y,z
x,-y,-z
-x,y,-z
loop_
_atom_site_type_symbol
_atom_site_label
_atom_site_fract_x
_atom_site_fract_y
_atom_site_fract_z
Si Si1 0.577201 0.370411 0.771568
Si Si2 0.632005 0.973233 0.165999
Si Si3 0.732878 0.847772 0.721260
Si Si4 0.325034 0.567033 0.266342
Si Si5 0.986729 0.888524 0.666227
Si Si6 0.286780 0.701535 0.036000
Si Si7 0.311650 0.292332 0.475845
Si Si8 0.203384 0.800633 0.784177
O O1 0.451140 0.403572 0.777721
O O2 0.662754 0.455855 0.736422
O O3 0.617488 0.325396 0.920246
O O4 0.583475 0.306983 0.629330
O O5 0.693348 0.046836 0.267952
O O6 0.500000 0.000000 0.182112
O O7 0.689465 0.872144 0.198491
O O8 0.659271 0.000000 0.000000
O O9 0.688385 0.796045 0.580184
O O10 0.867266 0.851487 0.720032
O O11 0.686624 0.785862 0.854252
O O12 0.297694 0.618492 0.417150
O O13 0.255756 0.614303 0.137443
O O14 0.090312 0.854452 0.758845
O O15 0.000000 0.857705 0.500000
O O16 0.000000 0.000000 0.667044
O O17 0.194502 0.740528 0.928594
O O18 0.221305 0.267260 0.352872
#
# Coordination Sequence:
#
# PCOD9310131 Si02
#       8
#     4   4   4   4   4   4   4   4
#     4  10  20  36  59  88 122 166 210 248 301 364
#     4  11  24  40  57  82 130 173 200 237 292 379
#     4  11  22  41  60  92 118 160 214 249 314 355
#     4  10  20  36  59  88 122 166 210 248 301 364
#     4  11  22  39  71  85 116 156 207 282 305 349
#     4  10  22  35  56  86 125 152 196 257 296 365
#     4  10  22  35  56  86 127 150 198 259 304 367
#     4  11  22  41  60  92 118 160 214 249 314 355
#
# _framework density 20.111001000000002
#
# number of rings (size 3 to 8) (size 9 to 14) (size 15 to 20)
#    0.000    1.500    3.750    1.500    0.000    9.000 
#    0.000    1.875    0.000    0.000    0.000   61.250 
#    0.000    0.000    0.000    0.000    0.000    0.000 
#
# Total GULP energy -178320.442627 kJ/mol
# GULP energy per Si atom -5572.513832 kJ/mol
# Density = 2.006523 g / cm^3
# Si number density = 20.111001 Si / 1000 Ang^3
#
#
#
# Elastic Constant Matrix: (Units=GPa)
#
#
# Indices 1 2 3 4 5 6 
#
# 1 70.4438 27.7594 22.5239 0.0000 0.0000 0.0000
# 2 27.7594 82.1794 35.8663 0.0000 0.0000 0.0000
# 3 22.5239 35.8663 136.2617 0.0000 0.0000 0.0000
# 4 0.0000 0.0000 0.0000 26.5488 0.0000 0.0000
# 5 0.0000 0.0000 0.0000 0.0000 13.2436 0.0000
# 6 0.0000 0.0000 0.0000 0.0000 0.0000 22.4115
#
#
#
# Elastic Compliance Matrix: (Units=1/GPa)
#
#
# Indices 1 2 3 4 5 6 
#
# 1 0.016620 -0.004988 -0.001434 0.000000 0.000000 0.000000
# 2 -0.004988 0.015245 -0.003188 0.000000 0.000000 0.000000
# 3 -0.001434 -0.003188 0.008415 0.000000 0.000000 0.000000
# 4 0.000000 0.000000 0.000000 0.037666 0.000000 0.000000
# 5 0.000000 0.000000 0.000000 0.000000 0.075508 0.000000
# 6 0.000000 0.000000 0.000000 0.000000 0.000000 0.044620
#
#
# Mechanical properties :
#
#
# Convention : Reuss Voigt Hill
#
# Bulk Modulus (GPa) = 47.48612 51.24267 49.36439
# Shear Modulus (GPa) = 22.29008 25.95647 24.12327
#
# Velocity S-wave (km/s) = 3.33280 3.59647 3.46715
# Velocity P-wave (km/s) = 6.20269 6.54075 6.37396
#
# Compressibility (1/GPa) = 0.02105879
#
# Stress axis : x y z
#
# Youngs Moduli (GPa) = 60.16868 65.59583 118.83410
#
# Poissons Ratio (x) = 0.32720 0.17045
# Poissons Ratio (y) = 0.30013 0.37886
# Poissons Ratio (z) = 0.08630 0.20913
#
# Static dielectric constant tensor:
#      x y z
#    x 1.721560 0.000000 0.000000 
#    y 0.000000 1.780550 0.000000 
#    z 0.000000 0.000000 1.729130 
# 
# From -- ./inp_files/4881.got.cif
#   From: 2010.05.17/outbox.cif.g08.bks.cpg/sg16_3_cif.got.tgz:4881.got - 2010.06.03 22:28:35.
