data_PCOD9310952
_publ_section_title
;
Structure prediction by ZEFSAII (Michael W. Deem and Ramdas Pophale) SiO2 
 PCOD9310952
Probable space group: P 2 2 21
;
_chemical_formula_sum "Si O2"
_cell_formula_units_Z 24
_cell_length_a 8.961955
_cell_length_b 11.707218
_cell_length_c 11.492757
_cell_angle_alpha 90.000000
_cell_angle_beta 90.000000
_cell_angle_gamma 90.000000
_cell_volume 1205.815018
_symmetry_space_group_name_H-M "P 2 2 21"
_symmetry_group_IT_number 17
_symmetry_cell_setting 'orthorhombic'
loop_
_space_group_symop_operation_xyz
x,y,z
-x,-y,1/2+z
x,-y,-z
-x,y,1/2-z
loop_
_atom_site_type_symbol
_atom_site_label
_atom_site_fract_x
_atom_site_fract_y
_atom_site_fract_z
Si Si1 0.486818 0.792504 0.114907
Si Si2 0.312223 0.000000 0.000000
Si Si3 0.970648 0.706507 0.570515
Si Si4 0.000000 0.482464 0.250000
Si Si5 0.752046 0.132146 0.037106
Si Si6 0.167648 0.888180 0.783955
Si Si7 0.754125 0.596056 0.399771
O O1 0.500000 0.828417 0.250000
O O2 0.391794 0.674614 0.117686
O O3 0.404073 0.889579 0.039503
O O4 0.644526 0.795454 0.047142
O O5 0.220005 0.032891 0.112879
O O6 0.033720 0.596089 0.636782
O O7 0.092419 0.800459 0.539769
O O8 0.857273 0.762612 0.663041
O O9 0.879213 0.675477 0.457928
O O10 0.846316 0.546349 0.288933
O O11 0.720203 0.121018 0.175731
O O12 0.762328 0.000000 0.000000
O O13 0.000000 0.926931 0.750000
O O14 0.724486 0.500000 0.500000
#
# Coordination Sequence:
#
# PCOD9310952 Si02
#       7
#     4   2   4   2   4   4   4
#     4  12  27  46  62 101 146 183 230 274 342 420
#     4  12  24  44  68  96 144 186 218 290 338 422
#     4  10  20  42  67  99 128 165 234 287 339 404
#     4  10  20  44  70  94 124 172 230 296 340 396
#     4  11  23  41  68 100 140 179 224 272 346 425
#     4  10  22  39  68 101 128 175 230 280 345 406
#     4  10  24  45  68  95 130 177 230 293 342 394
#
# _framework density 19.903549000000002
#
# number of rings (size 3 to 8) (size 9 to 14) (size 15 to 20)
#    0.000    1.333    5.000    1.000    7.000    0.000 
#    4.500    0.000    0.000    0.000    0.000    0.000 
#    0.000    0.000    0.000    0.000    0.000    0.000 
#
# Total GULP energy -133699.782307 kJ/mol
# GULP energy per Si atom -5570.824263 kJ/mol
# Density = 1.985825 g / cm^3
# Si number density = 19.903549 Si / 1000 Ang^3
#
#
#
# Elastic Constant Matrix: (Units=GPa)
#
#
# Indices 1 2 3 4 5 6 
#
# 1 56.2168 34.5075 30.4595 0.0000 0.0000 0.0000
# 2 34.5075 78.8123 12.3148 0.0000 0.0000 0.0000
# 3 30.4595 12.3148 85.3027 0.0000 0.0000 0.0000
# 4 0.0000 0.0000 0.0000 25.3247 0.0000 0.0000
# 5 0.0000 0.0000 0.0000 0.0000 30.5645 0.0000
# 6 0.0000 0.0000 0.0000 0.0000 0.0000 69.9205
#
#
#
# Elastic Compliance Matrix: (Units=1/GPa)
#
#
# Indices 1 2 3 4 5 6 
#
# 1 0.029787 -0.011643 -0.008955 0.000000 0.000000 0.000000
# 2 -0.011643 0.017532 0.001626 0.000000 0.000000 0.000000
# 3 -0.008955 0.001626 0.014686 0.000000 0.000000 0.000000
# 4 0.000000 0.000000 0.000000 0.039487 0.000000 0.000000
# 5 0.000000 0.000000 0.000000 0.000000 0.032718 0.000000
# 6 0.000000 0.000000 0.000000 0.000000 0.000000 0.014302
#
#
# Mechanical properties :
#
#
# Convention : Reuss Voigt Hill
#
# Bulk Modulus (GPa) = 41.56054 41.65504 41.60779
# Shear Modulus (GPa) = 25.71009 34.69862 30.20435
#
# Velocity S-wave (km/s) = 3.59797 4.17986 3.89978
# Velocity P-wave (km/s) = 6.17955 6.65348 6.42089
#
# Compressibility (1/GPa) = 0.02406129
#
# Stress axis : x y z
#
# Youngs Moduli (GPa) = 33.57144 57.03867 68.09225
#
# Poissons Ratio (x) = 0.66409 0.60980
# Poissons Ratio (y) = 0.39087 -0.11074
# Poissons Ratio (z) = 0.30065 -0.09276
#
# Static dielectric constant tensor:
#      x y z
#    x 1.745540 0.000000 0.000000 
#    y 0.000000 1.754960 0.000000 
#    z 0.000000 0.000000 1.759600 
# 
# From -- ./inp_files/6592.got.cif
#   From: 2010.05.17/outbox.cif.g08.bks.cpg/sg17_4_cif.got.tgz:6592.got - 2010.06.03 22:34:06.
