data_PCOD9310025
_publ_section_title
;
Structure prediction by ZEFSAII (Michael W. Deem and Ramdas Pophale) SiO2 
 PCOD9310025
Probable space group: P 2 2 2
;
_chemical_formula_sum "Si O2"
_cell_formula_units_Z 25
_cell_length_a 5.301348
_cell_length_b 8.476363
_cell_length_c 29.369384
_cell_angle_alpha 90.000000
_cell_angle_beta 90.000000
_cell_angle_gamma 90.000000
_cell_volume 1319.747046
_symmetry_space_group_name_H-M "P 2 2 2"
_symmetry_group_IT_number 16
_symmetry_cell_setting 'orthorhombic'
loop_
_space_group_symop_operation_xyz
x,y,z
-x,-y,z
x,-y,-z
-x,y,-z
loop_
_atom_site_type_symbol
_atom_site_label
_atom_site_fract_x
_atom_site_fract_y
_atom_site_fract_z
Si Si1 0.999545 0.190984 0.265013
Si Si2 0.500499 0.807111 0.893854
Si Si3 0.037275 0.685066 0.632521
Si Si4 0.535064 0.170972 0.406145
Si Si5 0.500000 0.000000 0.500000
Si Si6 0.000201 0.807175 0.947492
Si Si7 0.500684 0.807567 0.211069
O O1 0.246038 0.241875 0.236915
O O2 0.009715 0.254166 0.316048
O O3 0.746850 0.241955 0.238780
O O4 0.000000 0.000000 0.266750
O O5 0.749801 0.756957 0.920844
O O6 0.503154 0.755535 0.841382
O O7 0.249816 0.757079 0.920517
O O8 0.500000 0.000000 0.893491
O O9 0.815859 0.768131 0.603167
O O10 0.000000 0.500000 0.631180
O O11 0.314310 0.722708 0.613627
O O12 0.485344 0.133892 0.459200
O O13 0.500000 0.000000 0.382318
O O14 0.000000 0.000000 0.947809
O O15 0.000000 0.756083 0.000000
O O16 0.500000 0.000000 0.210406
#
# Coordination Sequence:
#
# PCOD9310025 Si02
#       7
#     4   4   4   4   1   4   4
#     4  10  19  32  51  74 101 138 183 222 268 329
#     4   9  15  23  34  50  76 110 154 213 263 300
#     4  12  24  39  60  93 125 154 189 241 296 342
#     4  10  22  42  67  88 119 158 202 234 279 338
#     4   8  24  42  74  90 120 154 214 234 280 330
#     4   9  15  21  30  46  72 110 156 201 255 322
#     4   9  17  28  44  66  91 123 174 228 267 314
#
# _framework density 18.943024999999999
#
# number of rings (size 3 to 8) (size 9 to 14) (size 15 to 20)
#    0.480    1.760    0.000    4.320    0.000    8.320 
#    0.000    2.400    0.000    0.000    0.000    0.000 
#    0.000    0.000    0.000    0.000    0.000   56.000 
#
# Total GULP energy -139218.040587 kJ/mol
# GULP energy per Si atom -5568.721623 kJ/mol
# Density = 1.889991 g / cm^3
# Si number density = 18.943025 Si / 1000 Ang^3
#
#
#
# Elastic Constant Matrix: (Units=GPa)
#
#
# Indices 1 2 3 4 5 6 
#
# 1 95.9472 -7.3234 23.4204 0.0000 0.0000 0.0000
# 2 -7.3234 24.6856 -10.6232 0.0000 0.0000 0.0000
# 3 23.4204 -10.6232 135.3081 0.0000 0.0000 0.0000
# 4 0.0000 0.0000 0.0000 7.9515 0.0000 0.0000
# 5 0.0000 0.0000 0.0000 0.0000 13.3528 0.0000
# 6 0.0000 0.0000 0.0000 0.0000 0.0000 11.6155
#
#
#
# Elastic Compliance Matrix: (Units=1/GPa)
#
#
# Indices 1 2 3 4 5 6 
#
# 1 0.011034 0.002537 -0.001711 0.000000 0.000000 0.000000
# 2 0.002537 0.042509 0.002898 0.000000 0.000000 0.000000
# 3 -0.001711 0.002898 0.007914 0.000000 0.000000 0.000000
# 4 0.000000 0.000000 0.000000 0.125763 0.000000 0.000000
# 5 0.000000 0.000000 0.000000 0.000000 0.074891 0.000000
# 6 0.000000 0.000000 0.000000 0.000000 0.000000 0.086092
#
#
# Mechanical properties :
#
#
# Convention : Reuss Voigt Hill
#
# Bulk Modulus (GPa) = 14.51231 29.65427 22.08329
# Shear Modulus (GPa) = 13.74677 23.28176 18.51427
#
# Velocity S-wave (km/s) = 2.69679 3.50957 3.12968
# Velocity P-wave (km/s) = 4.16828 5.66668 4.97422
#
# Compressibility (1/GPa) = 0.06890701
#
# Stress axis : x y z
#
# Youngs Moduli (GPa) = 90.63217 23.52417 126.35552
#
# Poissons Ratio (x) = -0.05968 0.21614
# Poissons Ratio (y) = -0.22995 -0.36622
# Poissons Ratio (z) = 0.15504 -0.06818
#
# Static dielectric constant tensor:
#      x y z
#    x 1.545700 0.000000 0.000000 
#    y 0.000000 1.669580 0.000000 
#    z 0.000000 0.000000 1.624150 
# 
# From -- ./inp_files/9623.got.cif
#   From: 2010.05.17/outbox.cif.g08.bks.cpg/sg16_5_cif.got.tgz:9623.got - 2010.06.03 22:28:35.
