data_PCOD9310767
_publ_section_title
;
Structure prediction by ZEFSAII (Michael W. Deem and Ramdas Pophale) SiO2 
 PCOD9310767
Probable space group: P 2 2 21
;
_chemical_formula_sum "Si O2"
_cell_formula_units_Z 20
_cell_length_a 4.866760
_cell_length_b 10.676580
_cell_length_c 17.067432
_cell_angle_alpha 90.000000
_cell_angle_beta 90.000000
_cell_angle_gamma 90.000000
_cell_volume 886.829783
_symmetry_space_group_name_H-M "P 2 2 21"
_symmetry_group_IT_number 17
_symmetry_cell_setting 'orthorhombic'
loop_
_space_group_symop_operation_xyz
x,y,z
-x,-y,1/2+z
x,-y,-z
-x,y,1/2-z
loop_
_atom_site_type_symbol
_atom_site_label
_atom_site_fract_x
_atom_site_fract_y
_atom_site_fract_z
Si Si1 0.512423 0.508700 0.594976
Si Si2 0.753407 0.124074 0.697216
Si Si3 0.275307 0.918847 0.927748
Si Si4 0.024425 0.647052 0.395202
Si Si5 0.211102 0.748596 0.563302
O O1 0.496514 0.500000 0.500000
O O2 0.823323 0.472467 0.612717
O O3 0.370144 0.641130 0.611875
O O4 0.321998 0.400167 0.630784
O O5 0.500000 0.165655 0.750000
O O6 0.891676 0.238321 0.650289
O O7 0.000000 0.071149 0.750000
O O8 0.648331 0.017390 0.638760
O O9 0.541823 0.843655 0.957385
O O10 0.038331 0.824768 0.898730
O O11 0.158818 0.000000 0.000000
O O12 0.070309 0.689577 0.485381
#
# Coordination Sequence:
#
# PCOD9310767 Si02
#       5
#     4   4   4   4   4
#     4  10  20  34  62  96 130 158 204 267 340 388
#     4  12  27  44  65  94 136 183 224 273 343 408
#     4  12  24  40  68  95 135 174 227 279 329 396
#     4  11  21  39  63  93 132 166 214 276 331 397
#     4  11  22  38  66 100 132 167 216 284 337 381
#
# _framework density 22.552242
#
# number of rings (size 3 to 8) (size 9 to 14) (size 15 to 20)
#    0.000    0.800    2.000    8.400    2.800    0.000 
#    0.000    0.000    0.000   24.000    0.000    0.000 
#    0.000    0.000    0.000    0.000    0.000    0.000 
#
# Total GULP energy -111780.940251 kJ/mol
# GULP energy per Si atom -5589.047013 kJ/mol
# Density = 2.250091 g / cm^3
# Si number density = 22.552242 Si / 1000 Ang^3
#
#
#
# Elastic Constant Matrix: (Units=GPa)
#
#
# Indices 1 2 3 4 5 6 
#
# 1 121.2952 24.1132 10.7334 0.0000 0.0000 0.0000
# 2 24.1132 83.5314 20.7532 0.0000 0.0000 0.0000
# 3 10.7334 20.7532 32.3547 0.0000 0.0000 0.0000
# 4 0.0000 0.0000 0.0000 16.9168 0.0000 0.0000
# 5 0.0000 0.0000 0.0000 0.0000 18.6351 0.0000
# 6 0.0000 0.0000 0.0000 0.0000 0.0000 44.0079
#
#
#
# Elastic Compliance Matrix: (Units=1/GPa)
#
#
# Indices 1 2 3 4 5 6 
#
# 1 0.008810 -0.002162 -0.001536 0.000000 0.000000 0.000000
# 2 -0.002162 0.014771 -0.008758 0.000000 0.000000 0.000000
# 3 -0.001536 -0.008758 0.037034 0.000000 0.000000 0.000000
# 4 0.000000 0.000000 0.000000 0.059113 0.000000 0.000000
# 5 0.000000 0.000000 0.000000 0.000000 0.053662 0.000000
# 6 0.000000 0.000000 0.000000 0.000000 0.000000 0.022723
#
#
# Mechanical properties :
#
#
# Convention : Reuss Voigt Hill
#
# Bulk Modulus (GPa) = 28.00726 38.70898 33.35812
# Shear Modulus (GPa) = 21.46600 28.01739 24.74170
#
# Velocity S-wave (km/s) = 3.08853 3.52850 3.31582
# Velocity P-wave (km/s) = 5.01642 5.81393 5.42984
#
# Compressibility (1/GPa) = 0.03570503
#
# Stress axis : x y z
#
# Youngs Moduli (GPa) = 113.50739 67.69872 27.00187
#
# Poissons Ratio (x) = 0.14633 0.04148
# Poissons Ratio (y) = 0.24535 0.23647
# Poissons Ratio (z) = 0.17437 0.59288
#
# Static dielectric constant tensor:
#      x y z
#    x 1.814240 0.000000 0.000000 
#    y 0.000000 1.882790 0.000000 
#    z 0.000000 0.000000 1.819760 
# 
# From -- ./inp_files/7594.got.cif
#   From: 2010.05.17/outbox.cif.g08.bks.cpg/sg17_4_cif.got.tgz:7594.got - 2010.06.03 22:34:06.
