data_PCOD9310008
_publ_section_title
;
Structure prediction by ZEFSAII (Michael W. Deem and Ramdas Pophale) SiO2 
 PCOD9310008
Probable space group: P 2 2 2
;
_chemical_formula_sum "Si O2"
_cell_formula_units_Z 28
_cell_length_a 21.047106
_cell_length_b 13.551772
_cell_length_c 5.237645
_cell_angle_alpha 90.000000
_cell_angle_beta 90.000000
_cell_angle_gamma 90.000000
_cell_volume 1493.910342
_symmetry_space_group_name_H-M "P 2 2 2"
_symmetry_group_IT_number 16
_symmetry_cell_setting 'orthorhombic'
loop_
_space_group_symop_operation_xyz
x,y,z
-x,-y,z
x,-y,-z
-x,y,-z
loop_
_atom_site_type_symbol
_atom_site_label
_atom_site_fract_x
_atom_site_fract_y
_atom_site_fract_z
Si Si1 0.258032 0.272583 0.420100
Si Si2 0.409235 0.733506 0.587193
Si Si3 0.428790 0.044452 0.258997
Si Si4 0.589358 0.607335 0.907245
Si Si5 0.740844 0.394112 0.094748
Si Si6 0.927429 0.880378 0.007717
Si Si7 0.848274 0.881478 0.506175
O O1 0.333298 0.253757 0.454642
O O2 0.236166 0.351269 0.635847
O O3 0.217425 0.175126 0.467286
O O4 0.249817 0.317246 0.136872
O O5 0.434583 0.840705 0.672084
O O6 0.433576 0.671047 0.339825
O O7 0.418937 0.670731 0.840311
O O8 0.500000 0.000000 0.253867
O O9 0.392608 0.000000 0.500000
O O10 0.399487 0.000000 0.000000
O O11 0.664869 0.593334 0.861525
O O12 0.565891 0.500000 0.000000
O O13 0.765600 0.500000 0.000000
O O14 0.884087 0.852356 0.766829
O O15 0.893558 0.853255 0.270358
O O16 0.000000 0.844173 0.000000
O O17 0.930457 0.000000 0.000000
O O18 0.839775 0.000000 0.500000
#
# Coordination Sequence:
#
# PCOD9310008 Si02
#       7
#     4   4   4   4   4   4   4
#     4  10  19  30  46  72 104 133 161 198 249 309
#     4  10  19  32  51  76 105 137 171 207 252 307
#     4  10  21  37  55  76  99 134 182 224 251 280
#     4   9  17  30  50  77 105 132 162 203 258 318
#     4   9  17  30  47  67  97 133 166 201 242 295
#     4   9  17  30  47  64  87 125 170 208 243 285
#     4  10  19  30  44  67 100 132 158 196 246 293
#
# _framework density 18.742760000000001
#
# number of rings (size 3 to 8) (size 9 to 14) (size 15 to 20)
#    0.000    2.429    0.000    3.000    0.000    5.714 
#    0.000    2.143    0.000    0.000    0.000   30.000 
#    0.000   40.000    0.000    0.000    0.000    0.000 
#
# Total GULP energy -155987.011684 kJ/mol
# GULP energy per Si atom -5570.964703 kJ/mol
# Density = 1.870010 g / cm^3
# Si number density = 18.742760 Si / 1000 Ang^3
#
#
#
# Elastic Constant Matrix: (Units=GPa)
#
#
# Indices 1 2 3 4 5 6 
#
# 1 51.1363 30.0250 31.5777 0.0000 0.0000 0.0000
# 2 30.0250 111.7030 22.1467 0.0000 0.0000 0.0000
# 3 31.5777 22.1467 106.3378 0.0000 0.0000 0.0000
# 4 0.0000 0.0000 0.0000 23.5831 0.0000 0.0000
# 5 0.0000 0.0000 0.0000 0.0000 19.9403 0.0000
# 6 0.0000 0.0000 0.0000 0.0000 0.0000 172.7324
#
#
#
# Elastic Compliance Matrix: (Units=1/GPa)
#
#
# Indices 1 2 3 4 5 6 
#
# 1 0.027304 -0.005978 -0.006863 0.000000 0.000000 0.000000
# 2 -0.005978 0.010647 -0.000442 0.000000 0.000000 0.000000
# 3 -0.006863 -0.000442 0.011534 0.000000 0.000000 0.000000
# 4 0.000000 0.000000 0.000000 0.042403 0.000000 0.000000
# 5 0.000000 0.000000 0.000000 0.000000 0.050150 0.000000
# 6 0.000000 0.000000 0.000000 0.000000 0.000000 0.005789
#
#
# Mechanical properties :
#
#
# Convention : Reuss Voigt Hill
#
# Bulk Modulus (GPa) = 43.63391 48.51954 46.07673
# Shear Modulus (GPa) = 27.46748 55.61298 41.54023
#
# Velocity S-wave (km/s) = 3.83234 5.45308 4.71290
# Velocity P-wave (km/s) = 6.55083 8.09886 7.36562
#
# Compressibility (1/GPa) = 0.02291795
#
# Stress axis : x y z
#
# Youngs Moduli (GPa) = 36.62487 93.92395 86.69970
#
# Poissons Ratio (x) = 0.56152 0.59502
# Poissons Ratio (y) = 0.21896 0.03833
# Poissons Ratio (z) = 0.25135 0.04152
#
# Static dielectric constant tensor:
#      x y z
#    x 1.660220 0.000000 0.000000 
#    y 0.000000 1.754670 0.000000 
#    z 0.000000 0.000000 1.575140 
# 
# From -- ./inp_files/2651.got.cif
#   From: 2010.05.17/outbox.cif.g08.bks.cpg/sg16_2_cif.got.tgz:2651.got - 2010.06.03 22:28:35.
