data_PCOD9310203
_publ_section_title
;
Structure prediction by ZEFSAII (Michael W. Deem and Ramdas Pophale) SiO2 
 PCOD9310203
Probable space group: P 2 2 2
;
_chemical_formula_sum "Si O2"
_cell_formula_units_Z 17
_cell_length_a 5.041786
_cell_length_b 9.326857
_cell_length_c 18.400166
_cell_angle_alpha 90.000000
_cell_angle_beta 90.000000
_cell_angle_gamma 90.000000
_cell_volume 865.249720
_symmetry_space_group_name_H-M "P 2 2 2"
_symmetry_group_IT_number 16
_symmetry_cell_setting 'orthorhombic'
loop_
_space_group_symop_operation_xyz
x,y,z
-x,-y,z
x,-y,-z
-x,y,-z
loop_
_atom_site_type_symbol
_atom_site_label
_atom_site_fract_x
_atom_site_fract_y
_atom_site_fract_z
Si Si1 0.489551 0.670796 0.648112
Si Si2 0.747522 0.273843 0.047806
Si Si3 0.744072 0.596280 0.798217
Si Si4 0.500000 0.000000 0.000000
Si Si5 0.980319 0.168209 0.412919
O O1 0.500000 0.500000 0.630441
O O2 0.609628 0.677165 0.730111
O O3 0.202563 0.738201 0.630035
O O4 0.696163 0.764270 0.603445
O O5 0.808624 0.316015 0.130011
O O6 0.500000 0.333749 0.000000
O O7 0.000000 0.307041 0.000000
O O8 0.680161 0.104807 0.047251
O O9 0.500000 0.500000 0.824512
O O10 0.000000 0.500000 0.775778
O O11 0.000000 0.177201 0.500000
O O12 0.000000 0.000000 0.392239
#
# Coordination Sequence:
#
# PCOD9310203 Si02
#       5
#     4   4   4   1   4
#     4  11  23  42  66  94 131 170 216 266 321 387
#     4  10  21  38  60  85 121 161 209 263 315 371
#     4  11  23  40  62  91 128 163 207 268 323 377
#     4   8  22  40  56  84 126 156 212 274 310 364
#     4  11  24  43  65  96 133 168 212 267 324 388
#
# _framework density 19.647504999999999
#
# number of rings (size 3 to 8) (size 9 to 14) (size 15 to 20)
#    0.706    0.706    0.000    6.706    0.000    7.529 
#    4.235    0.000    0.000    0.000    0.000    0.000 
#    0.000    0.000    0.000    0.000    0.000    0.000 
#
# Total GULP energy -94701.653589 kJ/mol
# GULP energy per Si atom -5570.685505 kJ/mol
# Density = 1.960279 g / cm^3
# Si number density = 19.647505 Si / 1000 Ang^3
#
#
#
# Elastic Constant Matrix: (Units=GPa)
#
#
# Indices 1 2 3 4 5 6 
#
# 1 96.8277 2.8823 -8.4645 0.0000 0.0000 0.0000
# 2 2.8823 76.7675 28.9788 0.0000 0.0000 0.0000
# 3 -8.4645 28.9788 76.5511 0.0000 0.0000 0.0000
# 4 0.0000 0.0000 0.0000 1.4478 0.0000 0.0000
# 5 0.0000 0.0000 0.0000 0.0000 35.6982 0.0000
# 6 0.0000 0.0000 0.0000 0.0000 0.0000 48.2816
#
#
#
# Elastic Compliance Matrix: (Units=1/GPa)
#
#
# Indices 1 2 3 4 5 6 
#
# 1 0.010490 -0.000970 0.001527 0.000000 0.000000 0.000000
# 2 -0.000970 0.015288 -0.005895 0.000000 0.000000 0.000000
# 3 0.001527 -0.005895 0.015463 0.000000 0.000000 0.000000
# 4 0.000000 0.000000 0.000000 0.690711 0.000000 0.000000
# 5 0.000000 0.000000 0.000000 0.000000 0.028013 0.000000
# 6 0.000000 0.000000 0.000000 0.000000 0.000000 0.020712
#
#
# Mechanical properties :
#
#
# Convention : Reuss Voigt Hill
#
# Bulk Modulus (GPa) = 32.71615 32.99328 32.85472
# Shear Modulus (GPa) = 6.23798 32.20215 19.22007
#
# Velocity S-wave (km/s) = 1.78377 4.05284 3.13108
# Velocity P-wave (km/s) = 4.57495 6.22332 5.46168
#
# Compressibility (1/GPa) = 0.03056594
#
# Stress axis : x y z
#
# Youngs Moduli (GPa) = 95.32873 65.41112 64.66850
#
# Poissons Ratio (x) = 0.06347 -0.09876
# Poissons Ratio (y) = 0.09250 0.38120
# Poissons Ratio (z) = -0.14559 0.38557
#
# Static dielectric constant tensor:
#      x y z
#    x 1.669700 0.000000 0.000000 
#    y 0.000000 1.417600 0.000000 
#    z 0.000000 0.000000 1.707400 
# 
# From -- ./inp_files/8475.got.cif
#   From: 2010.05.17/outbox.cif.g08.bks.cpg/sg16_5_cif.got.tgz:8475.got - 2010.06.03 22:28:35.
