data_PCOD9310540
_publ_section_title
;
Structure prediction by ZEFSAII (Michael W. Deem and Ramdas Pophale) SiO2 
 PCOD9310540
Probable space group: P 2 2 21
;
_chemical_formula_sum "Si O2"
_cell_formula_units_Z 22
_cell_length_a 7.996158
_cell_length_b 9.103301
_cell_length_c 15.318971
_cell_angle_alpha 90.000000
_cell_angle_beta 90.000000
_cell_angle_gamma 90.000000
_cell_volume 1115.089853
_symmetry_space_group_name_H-M "P 2 2 21"
_symmetry_group_IT_number 17
_symmetry_cell_setting 'orthorhombic'
loop_
_space_group_symop_operation_xyz
x,y,z
-x,-y,1/2+z
x,-y,-z
-x,y,1/2-z
loop_
_atom_site_type_symbol
_atom_site_label
_atom_site_fract_x
_atom_site_fract_y
_atom_site_fract_z
Si Si1 0.514841 0.417522 0.093031
Si Si2 0.169461 0.333790 0.033406
Si Si3 0.500000 0.648137 0.250000
Si Si4 0.841846 0.274098 0.144592
Si Si5 0.188851 0.226388 0.846192
Si Si6 0.000000 0.024442 0.250000
Si Si7 0.000000 0.524943 0.250000
O O1 0.330225 0.345578 0.096638
O O2 0.531974 0.540400 0.167976
O O3 0.663030 0.299575 0.101066
O O4 0.525823 0.500000 0.000000
O O5 0.000214 0.279294 0.078772
O O6 0.139894 0.500000 0.000000
O O7 0.221031 0.238676 0.948950
O O8 0.652080 0.748484 0.283737
O O9 0.868250 0.415288 0.207100
O O10 0.867320 0.129496 0.202038
O O11 0.073984 0.367198 0.822276
O O12 0.091484 0.080939 0.818814
#
# Coordination Sequence:
#
# PCOD9310540 Si02
#       7
#     4   4   2   4   4   2   2
#     4  11  23  37  68 113 123 163 232 290 339 384
#     4  11  21  40  68 101 132 167 220 292 339 382
#     4  12  20  40  68  98 136 166 222 298 328 390
#     4  11  22  41  65  97 133 173 218 278 329 397
#     4  11  22  42  64  95 134 176 220 269 337 401
#     4  10  28  44  62  96 136 190 220 254 350 418
#     4  10  18  34  66  92 122 168 222 270 320 382
#
# _framework density 19.729351999999999
#
# number of rings (size 3 to 8) (size 9 to 14) (size 15 to 20)
#    0.000    1.091    7.273    0.545    2.545    0.727 
#    3.273    0.000    0.000    0.000    0.000    0.000 
#    0.000    0.000    0.000    0.000    0.000    0.000 
#
# Total GULP energy -122843.643688 kJ/mol
# GULP energy per Si atom -5583.801986 kJ/mol
# Density = 1.968445 g / cm^3
# Si number density = 19.729352 Si / 1000 Ang^3
#
#
#
# Elastic Constant Matrix: (Units=GPa)
#
#
# Indices 1 2 3 4 5 6 
#
# 1 71.8616 21.7763 12.4752 0.0000 0.0000 0.0000
# 2 21.7763 87.2179 15.9051 0.0000 0.0000 0.0000
# 3 12.4752 15.9051 75.7510 0.0000 0.0000 0.0000
# 4 0.0000 0.0000 0.0000 16.4590 0.0000 0.0000
# 5 0.0000 0.0000 0.0000 0.0000 36.7111 0.0000
# 6 0.0000 0.0000 0.0000 0.0000 0.0000 7.5149
#
#
#
# Elastic Compliance Matrix: (Units=1/GPa)
#
#
# Indices 1 2 3 4 5 6 
#
# 1 0.015283 -0.003491 -0.001784 0.000000 0.000000 0.000000
# 2 -0.003491 0.012719 -0.002096 0.000000 0.000000 0.000000
# 3 -0.001784 -0.002096 0.013935 0.000000 0.000000 0.000000
# 4 0.000000 0.000000 0.000000 0.060757 0.000000 0.000000
# 5 0.000000 0.000000 0.000000 0.000000 0.027240 0.000000
# 6 0.000000 0.000000 0.000000 0.000000 0.000000 0.133069
#
#
# Mechanical properties :
#
#
# Convention : Reuss Voigt Hill
#
# Bulk Modulus (GPa) = 36.76918 37.23820 37.00369
# Shear Modulus (GPa) = 17.43322 24.44860 20.94091
#
# Velocity S-wave (km/s) = 2.97580 3.52405 3.26146
# Velocity P-wave (km/s) = 5.52127 5.95601 5.74275
#
# Compressibility (1/GPa) = 0.02719669
#
# Stress axis : x y z
#
# Youngs Moduli (GPa) = 65.43185 78.62113 71.76178
#
# Poissons Ratio (x) = 0.27443 0.12803
# Poissons Ratio (y) = 0.22839 0.15040
# Poissons Ratio (z) = 0.11673 0.16477
#
# Static dielectric constant tensor:
#      x y z
#    x 1.739320 0.000000 0.000000 
#    y 0.000000 1.663470 0.000000 
#    z 0.000000 0.000000 1.735770 
# 
# From -- ./inp_files/8053.got.cif
#   From: 2010.05.17/outbox.cif.g08.bks.cpg/sg17_5_cif.got.tgz:8053.got - 2010.06.03 22:34:06.
