data_PCOD9310193
_publ_section_title
;
Structure prediction by ZEFSAII (Michael W. Deem and Ramdas Pophale) SiO2 
 PCOD9310193
Probable space group: P 2 2 2
;
_chemical_formula_sum "Si O2"
_cell_formula_units_Z 28
_cell_length_a 12.854085
_cell_length_b 20.770371
_cell_length_c 5.181431
_cell_angle_alpha 90.000000
_cell_angle_beta 90.000000
_cell_angle_gamma 90.000000
_cell_volume 1383.359766
_symmetry_space_group_name_H-M "P 2 2 2"
_symmetry_group_IT_number 16
_symmetry_cell_setting 'orthorhombic'
loop_
_space_group_symop_operation_xyz
x,y,z
-x,-y,z
x,-y,-z
-x,y,-z
loop_
_atom_site_type_symbol
_atom_site_label
_atom_site_fract_x
_atom_site_fract_y
_atom_site_fract_z
Si Si1 0.622579 0.120651 0.455060
Si Si2 0.761201 0.243856 0.449134
Si Si3 0.453071 0.572353 0.742991
Si Si4 0.878659 0.572659 0.925776
Si Si5 0.739329 0.926955 0.045546
Si Si6 0.232377 0.613645 0.597564
Si Si7 0.122367 0.803194 0.949800
O O1 0.500000 0.117519 0.500000
O O2 0.666460 0.193642 0.468210
O O3 0.682394 0.082379 0.680998
O O4 0.658663 0.092840 0.180056
O O5 0.730739 0.317195 0.498767
O O6 0.843314 0.223632 0.671743
O O7 0.816306 0.234769 0.173948
O O8 0.500000 0.500000 0.746849
O O9 0.500000 0.608188 0.500000
O O10 0.331351 0.571117 0.684037
O O11 0.500000 0.602768 0.000000
O O12 0.840720 0.585741 0.632904
O O13 0.845822 0.500000 0.000000
O O14 0.827667 0.620204 0.132868
O O15 0.000000 0.576092 0.000000
O O16 0.833928 0.876208 0.033788
O O17 0.772514 0.000000 0.000000
O O18 0.000000 0.799458 0.000000
#
# Coordination Sequence:
#
# PCOD9310193 Si02
#       7
#     4   4   4   4   4   4   4
#     4  10  21  38  58  81 122 162 191 250 301 344
#     4  10  23  39  58  91 117 154 208 245 297 364
#     4  10  23  39  60  91 117 151 198 243 305 371
#     4  11  26  43  63  92 123 158 199 247 315 381
#     4  10  21  36  57  90 120 152 207 247 289 362
#     4  12  24  41  68  90 123 162 199 259 311 366
#     4  10  21  39  61  85 122 163 196 249 306 348
#
# _framework density 20.240575
#
# number of rings (size 3 to 8) (size 9 to 14) (size 15 to 20)
#    0.000    1.571    0.000    3.857    6.000    7.143 
#    0.000    2.857    0.000    5.143    0.000    0.000 
#    0.000    0.000    0.000    0.000    0.000    0.000 
#
# Total GULP energy -156282.766029 kJ/mol
# GULP energy per Si atom -5581.527358 kJ/mol
# Density = 2.019451 g / cm^3
# Si number density = 20.240575 Si / 1000 Ang^3
#
#
#
# Elastic Constant Matrix: (Units=GPa)
#
#
# Indices 1 2 3 4 5 6 
#
# 1 82.5342 4.5882 13.9810 0.0000 0.0000 0.0000
# 2 4.5882 89.5218 -6.9305 0.0000 0.0000 0.0000
# 3 13.9810 -6.9305 119.3376 0.0000 0.0000 0.0000
# 4 0.0000 0.0000 0.0000 16.4225 0.0000 0.0000
# 5 0.0000 0.0000 0.0000 0.0000 28.2765 0.0000
# 6 0.0000 0.0000 0.0000 0.0000 0.0000 4.3667
#
#
#
# Elastic Compliance Matrix: (Units=1/GPa)
#
#
# Indices 1 2 3 4 5 6 
#
# 1 0.012412 -0.000752 -0.001498 0.000000 0.000000 0.000000
# 2 -0.000752 0.011266 0.000742 0.000000 0.000000 0.000000
# 3 -0.001498 0.000742 0.008598 0.000000 0.000000 0.000000
# 4 0.000000 0.000000 0.000000 0.060892 0.000000 0.000000
# 5 0.000000 0.000000 0.000000 0.000000 0.035365 0.000000
# 6 0.000000 0.000000 0.000000 0.000000 0.000000 0.229003
#
#
# Mechanical properties :
#
#
# Convention : Reuss Voigt Hill
#
# Bulk Modulus (GPa) = 34.17460 34.96343 34.56901
# Shear Modulus (GPa) = 13.50237 28.46348 20.98293
#
# Velocity S-wave (km/s) = 2.58562 3.75408 3.22324
# Velocity P-wave (km/s) = 5.08279 6.00851 5.56494
#
# Compressibility (1/GPa) = 0.02926150
#
# Stress axis : x y z
#
# Youngs Moduli (GPa) = 80.56906 88.75881 116.30370
#
# Poissons Ratio (x) = 0.06675 0.17420
# Poissons Ratio (y) = 0.06059 -0.08635
# Poissons Ratio (z) = 0.12067 -0.06590
#
# Static dielectric constant tensor:
#      x y z
#    x 1.814690 0.000000 0.000000 
#    y 0.000000 1.720800 0.000000 
#    z 0.000000 0.000000 1.730680 
# 
# From -- ./inp_files/1655.got.cif
#   From: 2010.05.17/outbox.cif.g08.bks.cpg/sg16_1_cif.got.tgz:1655.got - 2010.06.03 22:28:35.
