data_PCOD9310610
_publ_section_title
;
Structure prediction by ZEFSAII (Michael W. Deem and Ramdas Pophale) SiO2 
 PCOD9310610
Probable space group: P 2 2 21
;
_chemical_formula_sum "Si O2"
_cell_formula_units_Z 24
_cell_length_a 4.949844
_cell_length_b 8.253454
_cell_length_c 25.789192
_cell_angle_alpha 90.000000
_cell_angle_beta 90.000000
_cell_angle_gamma 90.000000
_cell_volume 1053.573849
_symmetry_space_group_name_H-M "P 2 2 21"
_symmetry_group_IT_number 17
_symmetry_cell_setting 'orthorhombic'
loop_
_space_group_symop_operation_xyz
x,y,z
-x,-y,1/2+z
x,-y,-z
-x,y,1/2-z
loop_
_atom_site_type_symbol
_atom_site_label
_atom_site_fract_x
_atom_site_fract_y
_atom_site_fract_z
Si Si1 0.922179 0.828455 0.805018
Si Si2 0.069236 0.360244 0.403785
Si Si3 0.718171 0.167144 0.903653
Si Si4 0.259190 0.176942 0.715083
Si Si5 0.784273 0.957723 0.599857
Si Si6 0.586339 0.529127 0.443020
O O1 0.000000 0.755885 0.750000
O O2 0.836337 0.693936 0.846271
O O3 0.155765 0.919444 0.839116
O O4 0.733492 0.980441 0.791442
O O5 0.901758 0.205205 0.425644
O O6 0.840409 0.499586 0.404946
O O7 0.339428 0.405215 0.433385
O O8 0.729745 0.233100 0.844399
O O9 0.567382 0.301225 0.936882
O O10 0.522152 0.009688 0.906523
O O11 0.016544 0.103834 0.916332
O O12 0.500000 0.237895 0.750000
O O13 0.000000 0.212652 0.750000
O O14 0.700069 0.500000 0.500000
#
# Coordination Sequence:
#
# PCOD9310610 Si02
#       6
#     4   4   4   4   4   4
#     4   8  17  33  62  90 122 152 192 239 302 361
#     4  10  23  41  64  92 122 159 206 256 305 374
#     4  11  20  39  62  90 121 163 198 257 296 363
#     4  10  19  32  59  96 123 160 197 241 302 369
#     4   9  20  36  66  92 121 150 207 250 299 350
#     4  12  26  45  62  84 124 172 205 256 331 369
#
# _framework density 22.779609000000001
#
# number of rings (size 3 to 8) (size 9 to 14) (size 15 to 20)
#    1.000    1.000    0.000    5.500    0.000    0.000 
#    0.000    7.500    0.000    1.000    0.000    0.000 
#    0.000    0.000    0.000    0.000    0.000    0.000 
#
# Total GULP energy -133803.895745 kJ/mol
# GULP energy per Si atom -5575.162323 kJ/mol
# Density = 2.272776 g / cm^3
# Si number density = 22.779609 Si / 1000 Ang^3
#
#
#
# Elastic Constant Matrix: (Units=GPa)
#
#
# Indices 1 2 3 4 5 6 
#
# 1 105.9832 -1.4946 1.1219 0.0000 0.0000 0.0000
# 2 -1.4946 42.9702 14.3232 0.0000 0.0000 0.0000
# 3 1.1219 14.3232 32.1248 0.0000 0.0000 0.0000
# 4 0.0000 0.0000 0.0000 27.5782 0.0000 0.0000
# 5 0.0000 0.0000 0.0000 0.0000 19.6850 0.0000
# 6 0.0000 0.0000 0.0000 0.0000 0.0000 29.9766
#
#
#
# Elastic Compliance Matrix: (Units=1/GPa)
#
#
# Indices 1 2 3 4 5 6 
#
# 1 0.009449 0.000515 -0.000560 0.000000 0.000000 0.000000
# 2 0.000515 0.027362 -0.012218 0.000000 0.000000 0.000000
# 3 -0.000560 -0.012218 0.036596 0.000000 0.000000 0.000000
# 4 0.000000 0.000000 0.000000 0.036261 0.000000 0.000000
# 5 0.000000 0.000000 0.000000 0.000000 0.050800 0.000000
# 6 0.000000 0.000000 0.000000 0.000000 0.000000 0.033359
#
#
# Mechanical properties :
#
#
# Convention : Reuss Voigt Hill
#
# Bulk Modulus (GPa) = 20.45741 23.21992 21.83867
# Shear Modulus (GPa) = 21.30878 26.58980 23.94929
#
# Velocity S-wave (km/s) = 3.06180 3.42023 3.24597
# Velocity P-wave (km/s) = 4.63676 5.08062 4.86376
#
# Compressibility (1/GPa) = 0.04888204
#
# Stress axis : x y z
#
# Youngs Moduli (GPa) = 105.83527 36.54656 27.32572
#
# Poissons Ratio (x) = -0.01883 0.01529
# Poissons Ratio (y) = -0.05453 0.33386
# Poissons Ratio (z) = 0.05924 0.44652
#
# Static dielectric constant tensor:
#      x y z
#    x 1.612750 0.000000 0.000000 
#    y 0.000000 1.928630 0.000000 
#    z 0.000000 0.000000 1.844790 
# 
# From -- ./inp_files/10826.got.cif
#   From: 2010.05.17/outbox.cif.g08.bks.cpg/sg17_6_cif.got.tgz:10826.got - 2010.06.03 22:34:06.
