data_PCOD9310371
_publ_section_title
;
Structure prediction by ZEFSAII (Michael W. Deem and Ramdas Pophale) SiO2 
 PCOD9310371
Probable space group: P 2 2 2
;
_chemical_formula_sum "Si O2"
_cell_formula_units_Z 21
_cell_length_a 11.826447
_cell_length_b 9.493253
_cell_length_c 8.490666
_cell_angle_alpha 90.000000
_cell_angle_beta 90.000000
_cell_angle_gamma 90.000000
_cell_volume 953.259413
_symmetry_space_group_name_H-M "P 2 2 2"
_symmetry_group_IT_number 16
_symmetry_cell_setting 'orthorhombic'
loop_
_space_group_symop_operation_xyz
x,y,z
-x,-y,z
x,-y,-z
-x,y,-z
loop_
_atom_site_type_symbol
_atom_site_label
_atom_site_fract_x
_atom_site_fract_y
_atom_site_fract_z
Si Si1 0.670235 0.786300 0.163573
Si Si2 0.500000 0.000000 0.000000
Si Si3 0.038016 0.695521 0.685599
Si Si4 0.837445 0.969088 0.320605
Si Si5 0.275704 0.476382 0.317421
Si Si6 0.815021 0.735184 0.854128
O O1 0.726008 0.874373 0.304380
O O2 0.641261 0.633085 0.230922
O O3 0.577513 0.891130 0.096071
O O4 0.765994 0.758750 0.028279
O O5 0.067064 0.857613 0.726255
O O6 0.150803 0.600157 0.692849
O O7 0.000000 0.686475 0.500000
O O8 0.937592 0.667356 0.810358
O O9 0.859178 0.000000 0.500000
O O10 0.819435 0.110550 0.223668
O O11 0.300743 0.500000 0.500000
O O12 0.268546 0.625661 0.231002
#
# Coordination Sequence:
#
# PCOD9310371 Si02
#       6
#     4   1   4   4   4   4
#     4  11  26  46  73 101 129 187 232 316 368 436
#     4  12  24  56  80  94 136 176 256 312 420 430
#     4  11  21  35  63 100 148 206 233 264 330 427
#     4  11  21  38  64 100 141 187 235 286 343 416
#     4  11  23  41  68 105 150 188 234 281 356 433
#     4  12  21  38  64 100 150 182 241 274 347 428
#
# _framework density 22.029681
#
# number of rings (size 3 to 8) (size 9 to 14) (size 15 to 20)
#    0.000    0.762    5.714    2.857    0.000    3.048 
#    0.000   10.000    0.000    1.143    0.000    0.000 
#    0.000    0.000    0.000    0.000    0.000    0.000 
#
# Total GULP energy -117194.703987 kJ/mol
# GULP energy per Si atom -5580.700190 kJ/mol
# Density = 2.197954 g / cm^3
# Si number density = 22.029681 Si / 1000 Ang^3
#
#
#
# Elastic Constant Matrix: (Units=GPa)
#
#
# Indices 1 2 3 4 5 6 
#
# 1 42.0910 11.5165 18.5705 0.0000 0.0000 0.0000
# 2 11.5165 153.2980 47.5702 0.0000 0.0000 0.0000
# 3 18.5705 47.5702 94.4921 0.0000 0.0000 0.0000
# 4 0.0000 0.0000 0.0000 42.3234 0.0000 0.0000
# 5 0.0000 0.0000 0.0000 0.0000 -6.8343 0.0000
# 6 0.0000 0.0000 0.0000 0.0000 0.0000 13.0499
#
#
#
# Elastic Compliance Matrix: (Units=1/GPa)
#
#
# Indices 1 2 3 4 5 6 
#
# 1 0.026038 -0.000436 -0.004898 0.000000 0.000000 0.000000
# 2 -0.000436 0.007738 -0.003810 0.000000 0.000000 0.000000
# 3 -0.004898 -0.003810 0.013463 0.000000 0.000000 0.000000
# 4 0.000000 0.000000 0.000000 0.023628 0.000000 0.000000
# 5 0.000000 0.000000 0.000000 0.000000 -0.146321 0.000000
# 6 0.000000 0.000000 0.000000 0.000000 0.000000 0.076629
#
#
# Mechanical properties :
#
#
# Convention : Reuss Voigt Hill
#
# Bulk Modulus (GPa) = 34.53968 49.46617 42.00292
# Shear Modulus (GPa) = 171.73621 23.85607 97.79614
#
# Velocity S-wave (km/s) = 8.83889 3.29432 6.67003
# Velocity P-wave (km/s) = 10.94900 6.08056 8.85590
#
# Compressibility (1/GPa) = 0.02895221
#
# Stress axis : x y z
#
# Youngs Moduli (GPa) = 38.40505 129.22749 74.27512
#
# Poissons Ratio (x) = 0.05639 0.36377
# Poissons Ratio (y) = 0.01676 0.28298
# Poissons Ratio (z) = 0.18809 0.49235
#
# Static dielectric constant tensor:
#      x y z
#    x 1.936290 0.000000 0.000000 
#    y 0.000000 1.874960 0.000000 
#    z 0.000000 0.000000 1.842740 
# 
# From -- ./inp_files/5060.got.cif
#   From: 2010.05.17/outbox.cif.g08.bks.cpg/sg16_3_cif.got.tgz:5060.got - 2010.06.03 22:28:35.
