data_PCOD9310235
_publ_section_title
;
Structure prediction by ZEFSAII (Michael W. Deem and Ramdas Pophale) SiO2 
 PCOD9310235
Probable space group: P 2 2 2
;
_chemical_formula_sum "Si O2"
_cell_formula_units_Z 19
_cell_length_a 10.895101
_cell_length_b 9.178260
_cell_length_c 9.089768
_cell_angle_alpha 90.000000
_cell_angle_beta 90.000000
_cell_angle_gamma 90.000000
_cell_volume 908.959254
_symmetry_space_group_name_H-M "P 2 2 2"
_symmetry_group_IT_number 16
_symmetry_cell_setting 'orthorhombic'
loop_
_space_group_symop_operation_xyz
x,y,z
-x,-y,z
x,-y,-z
-x,y,-z
loop_
_atom_site_type_symbol
_atom_site_label
_atom_site_fract_x
_atom_site_fract_y
_atom_site_fract_z
Si Si1 0.644821 0.531143 0.822610
Si Si2 0.874977 0.059556 0.665853
Si Si3 0.000000 0.500000 0.000000
Si Si4 0.500000 0.000000 0.000000
Si Si5 0.500000 0.000000 0.500000
Si Si6 0.886672 0.394108 0.721666
Si Si7 0.342408 0.136384 0.754250
O O1 0.500000 0.500000 0.788843
O O2 0.744235 0.441897 0.726008
O O3 0.685515 0.694684 0.776816
O O4 0.657349 0.500000 0.000000
O O5 0.886568 0.232822 0.659012
O O6 0.864566 0.000000 0.500000
O O7 0.764946 0.983263 0.751570
O O8 0.000000 0.000000 0.732904
O O9 0.079046 0.602050 0.894679
O O10 0.576812 0.101054 0.105402
O O11 0.418590 0.101439 0.606174
O O12 0.000000 0.500000 0.664911
#
# Coordination Sequence:
#
# PCOD9310235 Si02
#       7
#     4   4   1   1   1   4   4
#     4  11  23  38  65 100 138 171 226 283 352 406
#     4  11  25  45  70  98 138 185 239 279 345 417
#     4   8  20  40  68  90 132 172 228 274 360 404
#     4  10  24  38  72 102 140 186 230 276 368 394
#     4  10  24  46  68  90 144 190 226 280 348 418
#     4  10  21  43  68  96 135 176 226 288 350 417
#     4  11  24  44  69 100 143 182 235 289 345 426
#
# _framework density 20.903027000000002
#
# number of rings (size 3 to 8) (size 9 to 14) (size 15 to 20)
#    0.632    0.842    2.105    2.526    8.842    0.000 
#    0.000   10.000    0.000    0.000    0.000    0.000 
#    0.000    0.000    0.000    0.000    0.000    0.000 
#
# Total GULP energy -105834.996378 kJ/mol
# GULP energy per Si atom -5570.262967 kJ/mol
# Density = 2.085545 g / cm^3
# Si number density = 20.903027 Si / 1000 Ang^3
#
#
#
# Elastic Constant Matrix: (Units=GPa)
#
#
# Indices 1 2 3 4 5 6 
#
# 1 146.3774 52.2917 24.7409 0.0000 0.0000 0.0000
# 2 52.2917 179.8070 37.0558 0.0000 0.0000 0.0000
# 3 24.7409 37.0558 82.2338 0.0000 0.0000 0.0000
# 4 0.0000 0.0000 0.0000 47.7873 0.0000 0.0000
# 5 0.0000 0.0000 0.0000 0.0000 -12.6803 0.0000
# 6 0.0000 0.0000 0.0000 0.0000 0.0000 34.3659
#
#
#
# Elastic Compliance Matrix: (Units=1/GPa)
#
#
# Indices 1 2 3 4 5 6 
#
# 1 0.007779 -0.001962 -0.001456 0.000000 0.000000 0.000000
# 2 -0.001962 0.006626 -0.002395 0.000000 0.000000 0.000000
# 3 -0.001456 -0.002395 0.013678 0.000000 0.000000 0.000000
# 4 0.000000 0.000000 0.000000 0.020926 0.000000 0.000000
# 5 0.000000 0.000000 0.000000 0.000000 -0.078862 0.000000
# 6 0.000000 0.000000 0.000000 0.000000 0.000000 0.029099
#
#
# Mechanical properties :
#
#
# Convention : Reuss Voigt Hill
#
# Bulk Modulus (GPa) = 60.77110 70.73278 65.75194
# Shear Modulus (GPa) = 305.67492 33.51656 169.59574
#
# Velocity S-wave (km/s) = 12.10588 4.00863 9.01724
# Velocity P-wave (km/s) = 14.98462 7.43892 11.82955
#
# Compressibility (1/GPa) = 0.01645519
#
# Stress axis : x y z
#
# Youngs Moduli (GPa) = 128.55583 150.92520 73.11048
#
# Poissons Ratio (x) = 0.29613 0.10646
# Poissons Ratio (y) = 0.25224 0.17513
# Poissons Ratio (z) = 0.18720 0.36152
#
# Static dielectric constant tensor:
#      x y z
#    x 1.759110 0.000000 0.000000 
#    y 0.000000 2.117660 0.000000 
#    z 0.000000 0.000000 1.759480 
# 
# From -- ./inp_files/4558.got.cif
#   From: 2010.05.17/outbox.cif.g08.bks.cpg/sg16_3_cif.got.tgz:4558.got - 2010.06.03 22:28:35.
