data_PCOD9310790
_publ_section_title
;
Structure prediction by ZEFSAII (Michael W. Deem and Ramdas Pophale) SiO2 
 PCOD9310790
Probable space group: P 2 2 21
;
_chemical_formula_sum "Si O2"
_cell_formula_units_Z 28
_cell_length_a 22.178532
_cell_length_b 12.100668
_cell_length_c 5.415075
_cell_angle_alpha 90.000000
_cell_angle_beta 90.000000
_cell_angle_gamma 90.000000
_cell_volume 1453.271037
_symmetry_space_group_name_H-M "P 2 2 21"
_symmetry_group_IT_number 17
_symmetry_cell_setting 'orthorhombic'
loop_
_space_group_symop_operation_xyz
x,y,z
-x,-y,1/2+z
x,-y,-z
-x,y,1/2-z
loop_
_atom_site_type_symbol
_atom_site_label
_atom_site_fract_x
_atom_site_fract_y
_atom_site_fract_z
Si Si1 0.195048 0.877299 0.447004
Si Si2 0.347205 0.246188 0.056021
Si Si3 0.871107 0.677597 0.296555
Si Si4 0.334903 0.119351 0.580386
Si Si5 0.468211 0.367924 0.002105
Si Si6 0.776521 0.687110 0.673996
Si Si7 0.793412 0.500000 0.000000
Si Si8 0.000000 0.425527 0.750000
O O1 0.151673 0.800037 0.281432
O O2 0.263396 0.894580 0.352784
O O3 0.208161 0.799850 0.683320
O O4 0.170469 0.000000 0.500000
O O5 0.343093 0.197549 0.336853
O O6 0.398410 0.337158 0.029364
O O7 0.279556 0.289826 0.996285
O O8 0.362569 0.161169 0.836205
O O9 0.840657 0.654698 0.559538
O O10 0.836055 0.588725 0.131051
O O11 0.940911 0.650721 0.278740
O O12 0.357852 0.000000 0.500000
O O13 0.500000 0.323780 0.250000
O O14 0.474564 0.500000 0.000000
O O15 0.500000 0.326700 0.750000
O O16 0.755292 0.581061 0.829075
O O17 0.004809 0.500000 0.500000
#
# Coordination Sequence:
#
# PCOD9310790 Si02
#       8
#     4   4   4   4   4   4   2   2
#     4   9  20  37  59  87 123 160 199 252 309 367
#     4  11  21  38  61  92 117 158 204 249 307 353
#     4  11  21  39  59  87 120 159 207 246 306 367
#     4  10  20  37  61  92 124 154 198 247 307 371
#     4  10  22  41  60  83 119 165 205 242 295 366
#     4  10  21  35  59  90 123 157 199 256 317 360
#     4  10  20  36  52  84 128 152 190 258 304 364
#     4  12  26  42  66  88 120 172 208 250 306 378
#
# _framework density 19.266881999999999
#
# number of rings (size 3 to 8) (size 9 to 14) (size 15 to 20)
#    0.000    1.714    2.143    2.571    2.000    1.714 
#    3.857    0.000    3.143    8.571    0.000    0.000 
#    0.000    0.000    0.000    0.000    0.000    0.000 
#
# Total GULP energy -155925.675620 kJ/mol
# GULP energy per Si atom -5568.774129 kJ/mol
# Density = 1.922303 g / cm^3
# Si number density = 19.266882 Si / 1000 Ang^3
#
#
#
# Elastic Constant Matrix: (Units=GPa)
#
#
# Indices 1 2 3 4 5 6 
#
# 1 61.2201 0.9972 22.0526 0.0000 0.0000 0.0000
# 2 0.9972 91.3624 31.0854 0.0000 0.0000 0.0000
# 3 22.0526 31.0854 83.9549 0.0000 0.0000 0.0000
# 4 0.0000 0.0000 0.0000 19.5614 0.0000 0.0000
# 5 0.0000 0.0000 0.0000 0.0000 2.0107 0.0000
# 6 0.0000 0.0000 0.0000 0.0000 0.0000 27.0184
#
#
#
# Elastic Compliance Matrix: (Units=1/GPa)
#
#
# Indices 1 2 3 4 5 6 
#
# 1 0.018253 0.001639 -0.005401 0.000000 0.000000 0.000000
# 2 0.001639 0.012670 -0.005122 0.000000 0.000000 0.000000
# 3 -0.005401 -0.005122 0.015226 0.000000 0.000000 0.000000
# 4 0.000000 0.000000 0.000000 0.051121 0.000000 0.000000
# 5 0.000000 0.000000 0.000000 0.000000 0.497338 0.000000
# 6 0.000000 0.000000 0.000000 0.000000 0.000000 0.037012
#
#
# Mechanical properties :
#
#
# Convention : Reuss Voigt Hill
#
# Bulk Modulus (GPa) = 35.23494 38.31198 36.77346
# Shear Modulus (GPa) = 7.58898 21.87825 14.73361
#
# Velocity S-wave (km/s) = 1.98681 3.37343 2.76834
# Velocity P-wave (km/s) = 4.85703 5.92464 5.41720
#
# Compressibility (1/GPa) = 0.02838092
#
# Stress axis : x y z
#
# Youngs Moduli (GPa) = 54.78404 78.92567 65.67580
#
# Poissons Ratio (x) = -0.12932 0.35474
# Poissons Ratio (y) = -0.08977 0.33637
# Poissons Ratio (z) = 0.29591 0.40423
#
# Static dielectric constant tensor:
#      x y z
#    x 1.639660 0.000000 0.000000 
#    y 0.000000 1.704910 0.000000 
#    z 0.000000 0.000000 1.836570 
# 
# From -- ./inp_files/2919.got.cif
#   From: 2010.05.17/outbox.cif.g08.bks.cpg/sg17_2_cif.got.tgz:2919.got - 2010.06.03 22:34:06.
