data_PCOD9310593
_publ_section_title
;
Structure prediction by ZEFSAII (Michael W. Deem and Ramdas Pophale) SiO2 
 PCOD9310593
Probable space group: P 2 2 21
;
_chemical_formula_sum "Si O2"
_cell_formula_units_Z 24
_cell_length_a 14.811483
_cell_length_b 5.021239
_cell_length_c 17.045420
_cell_angle_alpha 90.000000
_cell_angle_beta 90.000000
_cell_angle_gamma 90.000000
_cell_volume 1267.701910
_symmetry_space_group_name_H-M "P 2 2 21"
_symmetry_group_IT_number 17
_symmetry_cell_setting 'orthorhombic'
loop_
_space_group_symop_operation_xyz
x,y,z
-x,-y,1/2+z
x,-y,-z
-x,y,1/2-z
loop_
_atom_site_type_symbol
_atom_site_label
_atom_site_fract_x
_atom_site_fract_y
_atom_site_fract_z
Si Si1 0.105086 0.080740 0.767837
Si Si2 0.674751 0.620921 0.642851
Si Si3 0.502325 0.243012 0.445147
Si Si4 0.782019 0.873932 0.415499
Si Si5 0.790925 0.571338 0.787619
Si Si6 0.702723 0.759005 0.945652
O O1 0.132769 0.158334 0.857201
O O2 0.160811 0.286191 0.713456
O O3 0.000000 0.101662 0.750000
O O4 0.140723 0.783523 0.751349
O O5 0.570756 0.670524 0.622871
O O6 0.723137 0.396929 0.588198
O O7 0.703517 0.546737 0.730913
O O8 0.720425 0.902704 0.624827
O O9 0.496924 0.500000 0.500000
O O10 0.400443 0.171822 0.419892
O O11 0.537313 0.000000 0.500000
O O12 0.804572 0.000000 0.500000
O O13 0.761548 0.685549 0.870749
O O14 0.698862 0.500000 0.000000
O O15 0.736149 0.000000 0.000000
#
# Coordination Sequence:
#
# PCOD9310593 Si02
#       6
#     4   4   4   4   4   4
#     4  10  21  38  58  80 107 139 177 224 277 331
#     4  10  19  31  52  79 107 141 176 215 264 318
#     4  10  19  31  50  77 109 144 179 215 257 306
#     4  10  19  32  52  78 108 138 173 218 269 323
#     4  10  21  37  57  79 105 141 179 221 276 324
#     4  10  21  37  55  77 108 145 184 223 261 310
#
# _framework density 18.931895999999998
#
# number of rings (size 3 to 8) (size 9 to 14) (size 15 to 20)
#    0.000    2.000    0.000    4.500    0.000    0.667 
#    0.000    2.500    0.000   14.000    0.000    0.000 
#    0.000    0.000    0.000    0.000    0.000    0.000 
#
# Total GULP energy -133850.146417 kJ/mol
# GULP energy per Si atom -5577.089434 kJ/mol
# Density = 1.888881 g / cm^3
# Si number density = 18.931896 Si / 1000 Ang^3
#
#
#
# Elastic Constant Matrix: (Units=GPa)
#
#
# Indices 1 2 3 4 5 6 
#
# 1 36.9512 -16.9937 20.8975 0.0000 0.0000 0.0000
# 2 -16.9937 85.8025 -4.2670 0.0000 0.0000 0.0000
# 3 20.8975 -4.2670 81.8402 0.0000 0.0000 0.0000
# 4 0.0000 0.0000 0.0000 30.5764 0.0000 0.0000
# 5 0.0000 0.0000 0.0000 0.0000 17.1892 0.0000
# 6 0.0000 0.0000 0.0000 0.0000 0.0000 25.3580
#
#
#
# Elastic Compliance Matrix: (Units=1/GPa)
#
#
# Indices 1 2 3 4 5 6 
#
# 1 0.034892 0.006484 -0.008572 0.000000 0.000000 0.000000
# 2 0.006484 0.012890 -0.000984 0.000000 0.000000 0.000000
# 3 -0.008572 -0.000984 0.014356 0.000000 0.000000 0.000000
# 4 0.000000 0.000000 0.000000 0.032705 0.000000 0.000000
# 5 0.000000 0.000000 0.000000 0.000000 0.058176 0.000000
# 6 0.000000 0.000000 0.000000 0.000000 0.000000 0.039435
#
#
# Mechanical properties :
#
#
# Convention : Reuss Voigt Hill
#
# Bulk Modulus (GPa) = 17.85806 22.65194 20.25500
# Shear Modulus (GPa) = 23.01366 28.28854 25.65110
#
# Velocity S-wave (km/s) = 3.49033 3.86972 3.68491
# Velocity P-wave (km/s) = 5.06917 5.65307 5.36906
#
# Compressibility (1/GPa) = 0.05599713
#
# Stress axis : x y z
#
# Youngs Moduli (GPa) = 28.65955 77.57937 69.65566
#
# Poissons Ratio (x) = -0.50305 0.59705
# Poissons Ratio (y) = -0.18584 0.06852
# Poissons Ratio (z) = 0.24566 0.07631
#
# Static dielectric constant tensor:
#      x y z
#    x 1.663970 0.000000 0.000000 
#    y 0.000000 1.650850 0.000000 
#    z 0.000000 0.000000 1.675510 
# 
# From -- ./inp_files/8608.got.cif
#   From: 2010.05.17/outbox.cif.g08.bks.cpg/sg17_5_cif.got.tgz:8608.got - 2010.06.03 22:34:06.
