data_PCOD9310882
_publ_section_title
;
Structure prediction by ZEFSAII (Michael W. Deem and Ramdas Pophale) SiO2 
 PCOD9310882
Probable space group: P 2 2 21
;
_chemical_formula_sum "Si O2"
_cell_formula_units_Z 26
_cell_length_a 5.977234
_cell_length_b 9.370258
_cell_length_c 20.571049
_cell_angle_alpha 90.000000
_cell_angle_beta 90.000000
_cell_angle_gamma 90.000000
_cell_volume 1152.147935
_symmetry_space_group_name_H-M "P 2 2 21"
_symmetry_group_IT_number 17
_symmetry_cell_setting 'orthorhombic'
loop_
_space_group_symop_operation_xyz
x,y,z
-x,-y,1/2+z
x,-y,-z
-x,y,1/2-z
loop_
_atom_site_type_symbol
_atom_site_label
_atom_site_fract_x
_atom_site_fract_y
_atom_site_fract_z
Si Si1 0.993096 0.263139 0.963344
Si Si2 0.097346 0.137044 0.178414
Si Si3 0.390752 0.382185 0.618118
Si Si4 0.310111 0.500000 0.000000
Si Si5 0.290362 0.859242 0.577369
Si Si6 0.632705 0.909907 0.387897
Si Si7 0.538841 0.343726 0.323258
O O1 0.859884 0.354011 0.908358
O O2 0.807632 0.192445 0.009230
O O3 0.144401 0.366142 0.007946
O O4 0.162248 0.151625 0.930472
O O5 0.206398 0.292790 0.164972
O O6 0.000000 0.136085 0.250000
O O7 0.279109 0.011870 0.169398
O O8 0.914631 0.100971 0.124164
O O9 0.533001 0.450746 0.558674
O O10 0.494645 0.228322 0.634052
O O11 0.445090 0.495950 0.673897
O O12 0.468895 0.985210 0.573119
O O13 0.406435 0.734140 0.618890
O O14 0.500000 0.287732 0.250000
#
# Coordination Sequence:
#
# PCOD9310882 Si02
#       7
#     4   4   4   2   4   4   4
#     4  11  23  42  68 103 140 187 229 288 363 422
#     4  11  23  45  70  97 132 183 244 293 353 417
#     4  11  23  42  62  99 139 180 223 291 351 413
#     4  10  20  38  66  96 138 176 230 278 342 418
#     4  11  23  43  72  97 138 184 234 297 351 422
#     4  10  26  43  65 102 139 179 233 289 355 429
#     4  11  23  43  67 101 131 182 243 293 341 428
#
# _framework density 22.566547
#
# number of rings (size 3 to 8) (size 9 to 14) (size 15 to 20)
#    0.000    1.231    1.538    4.154    0.000    8.615 
#    5.538    0.000    0.000    0.000    0.000    0.000 
#    0.000    0.000    0.000    0.000    0.000    0.000 
#
# Total GULP energy -145314.416369 kJ/mol
# GULP energy per Si atom -5589.016014 kJ/mol
# Density = 2.251518 g / cm^3
# Si number density = 22.566547 Si / 1000 Ang^3
#
#
#
# Elastic Constant Matrix: (Units=GPa)
#
#
# Indices 1 2 3 4 5 6 
#
# 1 95.6445 39.4425 24.3586 0.0000 0.0000 0.0000
# 2 39.4425 124.3677 18.5665 0.0000 0.0000 0.0000
# 3 24.3586 18.5665 57.5711 0.0000 0.0000 0.0000
# 4 0.0000 0.0000 0.0000 19.8341 0.0000 0.0000
# 5 0.0000 0.0000 0.0000 0.0000 30.2565 0.0000
# 6 0.0000 0.0000 0.0000 0.0000 0.0000 26.6525
#
#
#
# Elastic Compliance Matrix: (Units=1/GPa)
#
#
# Indices 1 2 3 4 5 6 
#
# 1 0.013002 -0.003469 -0.004382 0.000000 0.000000 0.000000
# 2 -0.003469 0.009373 -0.001555 0.000000 0.000000 0.000000
# 3 -0.004382 -0.001555 0.019725 0.000000 0.000000 0.000000
# 4 0.000000 0.000000 0.000000 0.050418 0.000000 0.000000
# 5 0.000000 0.000000 0.000000 0.000000 0.033051 0.000000
# 6 0.000000 0.000000 0.000000 0.000000 0.000000 0.037520
#
#
# Mechanical properties :
#
#
# Convention : Reuss Voigt Hill
#
# Bulk Modulus (GPa) = 42.94161 49.14651 46.04406
# Shear Modulus (GPa) = 26.36220 28.36300 27.36260
#
# Velocity S-wave (km/s) = 3.42160 3.54907 3.48592
# Velocity P-wave (km/s) = 5.88897 6.21452 6.05393
#
# Compressibility (1/GPa) = 0.02328743
#
# Stress axis : x y z
#
# Youngs Moduli (GPa) = 76.91008 106.68853 50.69582
#
# Poissons Ratio (x) = 0.37014 0.22217
# Poissons Ratio (y) = 0.26683 0.07883
# Poissons Ratio (z) = 0.33705 0.16589
#
# Static dielectric constant tensor:
#      x y z
#    x 1.898530 0.000000 0.000000 
#    y 0.000000 1.913710 0.000000 
#    z 0.000000 0.000000 1.825800 
# 
# From -- ./inp_files/10455.got.cif
#   From: 2010.05.17/outbox.cif.g08.bks.cpg/sg17_6_cif.got.tgz:10455.got - 2010.06.03 22:34:06.
