data_PCOD9310349
_publ_section_title
;
Structure prediction by ZEFSAII (Michael W. Deem and Ramdas Pophale) SiO2 
 PCOD9310349
Probable space group: P 2 2 2
;
_chemical_formula_sum "Si O2"
_cell_formula_units_Z 22
_cell_length_a 8.372232
_cell_length_b 9.286619
_cell_length_c 12.578739
_cell_angle_alpha 90.000000
_cell_angle_beta 90.000000
_cell_angle_gamma 90.000000
_cell_volume 977.993545
_symmetry_space_group_name_H-M "P 2 2 2"
_symmetry_group_IT_number 16
_symmetry_cell_setting 'orthorhombic'
loop_
_space_group_symop_operation_xyz
x,y,z
-x,-y,z
x,-y,-z
-x,y,-z
loop_
_atom_site_type_symbol
_atom_site_label
_atom_site_fract_x
_atom_site_fract_y
_atom_site_fract_z
Si Si1 0.625154 0.222501 0.582424
Si Si2 0.170311 0.575610 0.108470
Si Si3 0.500000 0.000000 0.754386
Si Si4 0.849438 0.898099 0.818591
Si Si5 0.310834 0.499068 0.673042
Si Si6 0.143079 0.778785 0.418650
O O1 0.500000 0.291629 0.500000
O O2 0.735913 0.340918 0.638673
O O3 0.727860 0.143426 0.493390
O O4 0.542671 0.132031 0.675150
O O5 0.152361 0.749142 0.113444
O O6 0.283626 0.533155 0.204298
O O7 0.000000 0.500000 0.131234
O O8 0.225205 0.500000 0.000000
O O9 0.666991 0.964177 0.816764
O O10 0.880782 0.855414 0.694438
O O11 0.000000 0.000000 0.850084
O O12 0.500000 0.500000 0.656625
O O13 0.211576 0.378781 0.611305
O O14 0.000000 0.768805 0.500000
#
# Coordination Sequence:
#
# PCOD9310349 Si02
#       6
#     4   4   2   4   4   4
#     4  12  22  37  60  93 147 202 232 288 355 427
#     4  10  25  51  78 107 139 185 252 322 397 458
#     4  12  25  42  68 105 154 194 253 300 371 452
#     4  11  25  46  74 111 148 196 246 310 379 455
#     4  11  23  40  65 100 141 187 249 311 371 431
#     4  11  24  38  60 104 145 197 250 295 352 445
#
# _framework density 22.495035999999999
#
# number of rings (size 3 to 8) (size 9 to 14) (size 15 to 20)
#    0.000    0.909    3.636    3.000    7.636    2.909 
#    0.000    1.818    0.000    1.091    0.000    0.000 
#    0.000    0.000    0.000    0.000    0.000    0.000 
#
# Total GULP energy -122717.835456 kJ/mol
# GULP energy per Si atom -5578.083430 kJ/mol
# Density = 2.244384 g / cm^3
# Si number density = 22.495036 Si / 1000 Ang^3
#
#
#
# Elastic Constant Matrix: (Units=GPa)
#
#
# Indices 1 2 3 4 5 6 
#
# 1 88.2133 25.9059 47.8404 0.0000 0.0000 0.0000
# 2 25.9059 135.4167 52.7720 0.0000 0.0000 0.0000
# 3 47.8404 52.7720 76.3416 0.0000 0.0000 0.0000
# 4 0.0000 0.0000 0.0000 -1.6944 0.0000 0.0000
# 5 0.0000 0.0000 0.0000 0.0000 19.4429 0.0000
# 6 0.0000 0.0000 0.0000 0.0000 0.0000 20.8992
#
#
#
# Elastic Compliance Matrix: (Units=1/GPa)
#
#
# Indices 1 2 3 4 5 6 
#
# 1 0.017327 0.001255 -0.011725 0.000000 0.000000 0.000000
# 2 0.001255 0.010198 -0.007836 0.000000 0.000000 0.000000
# 3 -0.011725 -0.007836 0.025863 0.000000 0.000000 0.000000
# 4 0.000000 0.000000 0.000000 -0.590179 0.000000 0.000000
# 5 0.000000 0.000000 0.000000 0.000000 0.051433 0.000000
# 6 0.000000 0.000000 0.000000 0.000000 0.000000 0.047849
#
#
# Mechanical properties :
#
#
# Convention : Reuss Voigt Hill
#
# Bulk Modulus (GPa) = 59.61131 61.44536 60.52834
# Shear Modulus (GPa) = -12.64847 19.29309 3.32231
#
# Velocity S-wave (km/s) = -2.37381 2.93176 1.21660
# Velocity P-wave (km/s) = 4.36394 6.23175 5.37953
#
# Compressibility (1/GPa) = 0.01677534
#
# Stress axis : x y z
#
# Youngs Moduli (GPa) = 57.71476 98.05594 38.66461
#
# Poissons Ratio (x) = -0.12303 0.45335
# Poissons Ratio (y) = -0.07241 0.30297
# Poissons Ratio (z) = 0.67672 0.76836
#
# Static dielectric constant tensor:
#      x y z
#    x 2.612730 0.000000 0.000000 
#    y 0.000000 1.930470 0.000000 
#    z 0.000000 0.000000 1.807300 
# 
# From -- ./inp_files/7841.got.cif
#   From: 2010.05.17/outbox.cif.g08.bks.cpg/sg16_4_cif.got.tgz:7841.got - 2010.06.03 22:28:35.
