data_PCOD9310684
_publ_section_title
;
Structure prediction by ZEFSAII (Michael W. Deem and Ramdas Pophale) SiO2 
 PCOD9310684
Probable space group: P 2 2 21
;
_chemical_formula_sum "Si O2"
_cell_formula_units_Z 28
_cell_length_a 12.088856
_cell_length_b 12.110193
_cell_length_c 10.350939
_cell_angle_alpha 90.000000
_cell_angle_beta 90.000000
_cell_angle_gamma 90.000000
_cell_volume 1515.360694
_symmetry_space_group_name_H-M "P 2 2 21"
_symmetry_group_IT_number 17
_symmetry_cell_setting 'orthorhombic'
loop_
_space_group_symop_operation_xyz
x,y,z
-x,-y,1/2+z
x,-y,-z
-x,y,1/2-z
loop_
_atom_site_type_symbol
_atom_site_label
_atom_site_fract_x
_atom_site_fract_y
_atom_site_fract_z
Si Si1 0.872992 0.421602 0.303958
Si Si2 0.399009 0.029296 0.348786
Si Si3 0.774026 0.127631 0.717963
Si Si4 0.776781 0.773175 0.817215
Si Si5 0.137009 0.340681 0.899845
Si Si6 0.064735 0.193972 0.555253
Si Si7 0.912060 0.067306 0.361323
O O1 0.779104 0.354678 0.225019
O O2 0.853435 0.552785 0.308968
O O3 0.858991 0.380782 0.451825
O O4 0.000000 0.400396 0.250000
O O5 0.500000 0.046455 0.250000
O O6 0.323976 0.141591 0.342082
O O7 0.424198 0.000000 0.500000
O O8 0.331855 0.924724 0.288403
O O9 0.777440 0.242841 0.639627
O O10 0.863647 0.144957 0.830676
O O11 0.821841 0.028941 0.631229
O O12 0.846880 0.829924 0.701758
O O13 0.849485 0.772015 0.946110
O O14 0.014734 0.288535 0.893065
O O15 0.982817 0.110178 0.481814
O O16 0.000000 0.036744 0.250000
#
# Coordination Sequence:
#
# PCOD9310684 Si02
#       7
#     4   4   4   4   4   4   4
#     4  11  20  38  54  84 133 173 209 242 286 367
#     4  11  25  46  69  92 121 158 213 285 343 389
#     4  11  23  36  55  88 121 159 204 251 312 382
#     4  10  19  37  61  83 118 168 208 244 311 373
#     4  11  23  33  56  90 130 174 207 242 294 362
#     4  11  18  36  54  84 128 165 203 234 293 377
#     4   9  18  29  48  81 117 157 188 237 287 366
#
# _framework density 18.477447999999999
#
# number of rings (size 3 to 8) (size 9 to 14) (size 15 to 20)
#    0.000    1.429    4.286    2.571    0.000    5.143 
#    0.000    0.000    0.000    0.857    0.000    0.000 
#    0.000    0.000    0.000    0.000    0.000    0.000 
#
# Total GULP energy -156032.638294 kJ/mol
# GULP energy per Si atom -5572.594225 kJ/mol
# Density = 1.843539 g / cm^3
# Si number density = 18.477448 Si / 1000 Ang^3
#
#
#
# Elastic Constant Matrix: (Units=GPa)
#
#
# Indices 1 2 3 4 5 6 
#
# 1 56.7182 32.0728 21.8632 0.0000 0.0000 0.0000
# 2 32.0728 137.6740 39.5642 0.0000 0.0000 0.0000
# 3 21.8632 39.5642 94.5975 0.0000 0.0000 0.0000
# 4 0.0000 0.0000 0.0000 57.3233 0.0000 0.0000
# 5 0.0000 0.0000 0.0000 0.0000 26.7695 0.0000
# 6 0.0000 0.0000 0.0000 0.0000 0.0000 19.2569
#
#
#
# Elastic Compliance Matrix: (Units=1/GPa)
#
#
# Indices 1 2 3 4 5 6 
#
# 1 0.021131 -0.004000 -0.003211 0.000000 0.000000 0.000000
# 2 -0.004000 0.009013 -0.002845 0.000000 0.000000 0.000000
# 3 -0.003211 -0.002845 0.012503 0.000000 0.000000 0.000000
# 4 0.000000 0.000000 0.000000 0.017445 0.000000 0.000000
# 5 0.000000 0.000000 0.000000 0.000000 0.037356 0.000000
# 6 0.000000 0.000000 0.000000 0.000000 0.000000 0.051929
#
#
# Mechanical properties :
#
#
# Convention : Reuss Voigt Hill
#
# Bulk Modulus (GPa) = 44.37525 52.88777 48.63151
# Shear Modulus (GPa) = 28.24858 33.70257 30.97557
#
# Velocity S-wave (km/s) = 3.91425 4.27545 4.09883
# Velocity P-wave (km/s) = 6.67057 7.28406 6.98406
#
# Compressibility (1/GPa) = 0.02253508
#
# Stress axis : x y z
#
# Youngs Moduli (GPa) = 47.32491 110.95105 79.98019
#
# Poissons Ratio (x) = 0.44380 0.25679
# Poissons Ratio (y) = 0.18930 0.22755
# Poissons Ratio (z) = 0.15195 0.31567
#
# Static dielectric constant tensor:
#      x y z
#    x 1.499810 0.000000 0.000000 
#    y 0.000000 1.721400 0.000000 
#    z 0.000000 0.000000 1.752190 
# 
# From -- ./inp_files/7045.got.cif
#   From: 2010.05.17/outbox.cif.g08.bks.cpg/sg17_4_cif.got.tgz:7045.got - 2010.06.03 22:34:06.
