data_PCOD9310233
_publ_section_title
;
Structure prediction by ZEFSAII (Michael W. Deem and Ramdas Pophale) SiO2 
 PCOD9310233
Probable space group: P 2 2 2
;
_chemical_formula_sum "Si O2"
_cell_formula_units_Z 18
_cell_length_a 5.565272
_cell_length_b 6.879040
_cell_length_c 19.461592
_cell_angle_alpha 90.000000
_cell_angle_beta 90.000000
_cell_angle_gamma 90.000000
_cell_volume 745.062308
_symmetry_space_group_name_H-M "P 2 2 2"
_symmetry_group_IT_number 16
_symmetry_cell_setting 'orthorhombic'
loop_
_space_group_symop_operation_xyz
x,y,z
-x,-y,z
x,-y,-z
-x,y,-z
loop_
_atom_site_type_symbol
_atom_site_label
_atom_site_fract_x
_atom_site_fract_y
_atom_site_fract_z
Si Si1 0.755001 0.254066 0.111388
Si Si2 0.749732 0.312037 0.835767
Si Si3 0.753812 0.248864 0.679422
Si Si4 0.743213 0.815479 0.627421
Si Si5 0.000000 0.000000 0.000000
Si Si6 0.500000 0.000000 0.500000
O O1 0.752759 0.490412 0.118701
O O2 0.493770 0.206003 0.141510
O O3 0.997621 0.207268 0.153074
O O4 0.821138 0.145753 0.041072
O O5 0.748298 0.342964 0.754474
O O6 0.497132 0.296795 0.647103
O O7 0.002861 0.286869 0.639500
O O8 0.750073 0.010396 0.675517
O O9 0.679999 0.884948 0.550568
#
# Coordination Sequence:
#
# PCOD9310233 Si02
#       6
#     4   4   4   4   1   1
#     4  10  25  42  67  90 126 165 208 269 329 407
#     4  10  21  43  64  90 121 170 213 264 336 396
#     4   9  17  30  51  80 117 156 214 260 310 360
#     4   9  18  27  48  83 124 171 207 264 299 375
#     4  12  28  48  68 106 132 168 224 272 344 412
#     4   8  16  30  44  78 140 184 216 242 328 374
#
# _framework density 24.159056
#
# number of rings (size 3 to 8) (size 9 to 14) (size 15 to 20)
#    0.000    2.667    0.000    1.333    0.000   16.889 
#    0.000    4.444    0.000    0.000    0.000    0.000 
#    0.000  369.778    0.000    1.778    0.000    8.000 
#
# Total GULP energy -100246.619789 kJ/mol
# GULP energy per Si atom -5569.256655 kJ/mol
# Density = 2.410407 g / cm^3
# Si number density = 24.159056 Si / 1000 Ang^3
#
#
#
# Elastic Constant Matrix: (Units=GPa)
#
#
# Indices 1 2 3 4 5 6 
#
# 1 318.7237 31.8470 77.5233 0.0000 0.0000 0.0000
# 2 31.8470 151.3040 39.4766 0.0000 0.0000 0.0000
# 3 77.5233 39.4766 143.8054 0.0000 0.0000 0.0000
# 4 0.0000 0.0000 0.0000 -27.4261 0.0000 0.0000
# 5 0.0000 0.0000 0.0000 0.0000 -29.6405 0.0000
# 6 0.0000 0.0000 0.0000 0.0000 0.0000 -38.6282
#
#
#
# Elastic Compliance Matrix: (Units=1/GPa)
#
#
# Indices 1 2 3 4 5 6 
#
# 1 0.003621 -0.000272 -0.001877 0.000000 0.000000 0.000000
# 2 -0.000272 0.007140 -0.001813 0.000000 0.000000 0.000000
# 3 -0.001877 -0.001813 0.008464 0.000000 0.000000 0.000000
# 4 0.000000 0.000000 0.000000 -0.036462 0.000000 0.000000
# 5 0.000000 0.000000 0.000000 0.000000 -0.033738 0.000000
# 6 0.000000 0.000000 0.000000 0.000000 0.000000 -0.025888
#
#
# Mechanical properties :
#
#
# Convention : Reuss Voigt Hill
#
# Bulk Modulus (GPa) = 88.50505 101.28076 94.89291
# Shear Modulus (GPa) = -76.72210 11.86011 -32.43099
#
# Velocity S-wave (km/s) = -5.64146 2.21807 -3.66785
# Velocity P-wave (km/s) = 2.39183 6.96945 4.62885
#
# Compressibility (1/GPa) = 0.01129879
#
# Stress axis : x y z
#
# Youngs Moduli (GPa) = 276.13729 140.06400 118.15217
#
# Poissons Ratio (x) = 0.03815 0.22183
# Poissons Ratio (y) = 0.07522 0.21422
# Poissons Ratio (z) = 0.51844 0.25395
#
# Static dielectric constant tensor:
#      x y z
#    x 2.001890 0.000000 0.000000 
#    y 0.000000 2.271180 0.000000 
#    z 0.000000 0.000000 1.928100 
# 
# From -- ./inp_files/8552.got.cif
#   From: 2010.05.17/outbox.cif.g08.bks.cpg/sg16_5_cif.got.tgz:8552.got - 2010.06.03 22:28:35.
