data_PCOD9310488
_publ_section_title
;
Structure prediction by ZEFSAII (Michael W. Deem and Ramdas Pophale) SiO2 
 PCOD9310488
Probable space group: P 2 2 21
;
_chemical_formula_sum "Si O2"
_cell_formula_units_Z 28
_cell_length_a 11.356232
_cell_length_b 10.354275
_cell_length_c 13.198194
_cell_angle_alpha 90.000000
_cell_angle_beta 90.000000
_cell_angle_gamma 90.000000
_cell_volume 1551.916889
_symmetry_space_group_name_H-M "P 2 2 21"
_symmetry_group_IT_number 17
_symmetry_cell_setting 'orthorhombic'
loop_
_space_group_symop_operation_xyz
x,y,z
-x,-y,1/2+z
x,-y,-z
-x,y,1/2-z
loop_
_atom_site_type_symbol
_atom_site_label
_atom_site_fract_x
_atom_site_fract_y
_atom_site_fract_z
Si Si1 0.704372 0.360414 0.355004
Si Si2 0.640191 0.382318 0.752327
Si Si3 0.372545 0.236968 0.948335
Si Si4 0.122378 0.142958 0.191821
Si Si5 0.305452 0.077692 0.364937
Si Si6 0.797711 0.000000 0.500000
Si Si7 0.500000 0.193039 0.250000
Si Si8 0.654030 0.791666 0.057475
O O1 0.706802 0.495005 0.295166
O O2 0.664247 0.350618 0.472669
O O3 0.825237 0.280964 0.343467
O O4 0.601037 0.279212 0.299338
O O5 0.500000 0.415638 0.750000
O O6 0.651990 0.272173 0.667753
O O7 0.676247 0.323980 0.861939
O O8 0.512211 0.211139 0.956873
O O9 0.290545 0.117204 0.975795
O O10 0.217198 0.091474 0.272554
O O11 0.000000 0.152173 0.250000
O O12 0.124990 0.047768 0.095106
O O13 0.438697 0.101960 0.330528
O O14 0.286740 0.194512 0.446321
O O15 0.304658 0.930261 0.400268
#
# Coordination Sequence:
#
# PCOD9310488 Si02
#       8
#     4   4   4   4   4   2   2   4
#     4  10  19  35  53  73 113 148 193 230 273 343
#     4  10  20  31  50  81 120 152 184 227 278 349
#     4  10  19  31  52  85 117 150 182 225 293 354
#     4  10  23  39  58  80 104 152 194 237 284 331
#     4  10  20  33  55  80 116 141 181 233 287 347
#     4  10  20  36  60  82 110 144 186 240 286 348
#     4  10  18  30  48  76 102 144 176 216 290 334
#     4  10  20  31  52  89 121 146 177 231 295 353
#
# _framework density 18.042202
#
# number of rings (size 3 to 8) (size 9 to 14) (size 15 to 20)
#    0.000    2.000    2.143    2.143    7.000    1.143 
#    0.000    2.857    0.000   10.286    0.000    0.000 
#    0.000    0.000    0.000    0.000    0.000    0.000 
#
# Total GULP energy -155880.019646 kJ/mol
# GULP energy per Si atom -5567.143559 kJ/mol
# Density = 1.800114 g / cm^3
# Si number density = 18.042202 Si / 1000 Ang^3
#
#
#
# Elastic Constant Matrix: (Units=GPa)
#
#
# Indices 1 2 3 4 5 6 
#
# 1 51.3598 17.9418 25.4134 0.0000 0.0000 0.0000
# 2 17.9418 59.4953 22.0722 0.0000 0.0000 0.0000
# 3 25.4134 22.0722 104.7950 0.0000 0.0000 0.0000
# 4 0.0000 0.0000 0.0000 31.8911 0.0000 0.0000
# 5 0.0000 0.0000 0.0000 0.0000 23.4219 0.0000
# 6 0.0000 0.0000 0.0000 0.0000 0.0000 2.6800
#
#
#
# Elastic Compliance Matrix: (Units=1/GPa)
#
#
# Indices 1 2 3 4 5 6 
#
# 1 0.023637 -0.005425 -0.004589 0.000000 0.000000 0.000000
# 2 -0.005425 0.019478 -0.002787 0.000000 0.000000 0.000000
# 3 -0.004589 -0.002787 0.011242 0.000000 0.000000 0.000000
# 4 0.000000 0.000000 0.000000 0.031357 0.000000 0.000000
# 5 0.000000 0.000000 0.000000 0.000000 0.042695 0.000000
# 6 0.000000 0.000000 0.000000 0.000000 0.000000 0.373133
#
#
# Mechanical properties :
#
#
# Convention : Reuss Voigt Hill
#
# Bulk Modulus (GPa) = 34.77784 38.50052 36.63918
# Shear Modulus (GPa) = 9.31568 21.61344 15.46456
#
# Velocity S-wave (km/s) = 2.27475 3.46488 2.93086
# Velocity P-wave (km/s) = 5.12025 6.11495 5.63958
#
# Compressibility (1/GPa) = 0.02875394
#
# Stress axis : x y z
#
# Youngs Moduli (GPa) = 42.30722 51.33984 88.94945
#
# Poissons Ratio (x) = 0.27854 0.40822
# Poissons Ratio (y) = 0.22953 0.24789
# Poissons Ratio (z) = 0.19416 0.14307
#
# Static dielectric constant tensor:
#      x y z
#    x 1.592950 0.000000 0.000000 
#    y 0.000000 1.635450 0.000000 
#    z 0.000000 0.000000 1.728410 
# 
# From -- ./inp_files/7061.got.cif
#   From: 2010.05.17/outbox.cif.g08.bks.cpg/sg17_4_cif.got.tgz:7061.got - 2010.06.03 22:34:06.
