data_PCOD9310893
_publ_section_title
;
Structure prediction by ZEFSAII (Michael W. Deem and Ramdas Pophale) SiO2 
 PCOD9310893
Probable space group: P 2 2 21
;
_chemical_formula_sum "Si O2"
_cell_formula_units_Z 32
_cell_length_a 15.787728
_cell_length_b 12.606552
_cell_length_c 8.056621
_cell_angle_alpha 90.000000
_cell_angle_beta 90.000000
_cell_angle_gamma 90.000000
_cell_volume 1603.499722
_symmetry_space_group_name_H-M "P 2 2 21"
_symmetry_group_IT_number 17
_symmetry_cell_setting 'orthorhombic'
loop_
_space_group_symop_operation_xyz
x,y,z
-x,-y,1/2+z
x,-y,-z
-x,y,1/2-z
loop_
_atom_site_type_symbol
_atom_site_label
_atom_site_fract_x
_atom_site_fract_y
_atom_site_fract_z
Si Si1 0.843084 0.571543 0.164230
Si Si2 0.226357 0.796735 0.212290
Si Si3 0.927956 0.078115 0.860367
Si Si4 0.703642 0.215685 0.353544
Si Si5 0.348839 0.873846 0.496122
Si Si6 0.534191 0.114982 0.433570
Si Si7 0.020624 0.298046 0.493141
Si Si8 0.139480 0.358157 0.180044
O O1 0.791225 0.673286 0.233317
O O2 0.855086 0.482965 0.301227
O O3 0.813248 0.500000 0.000000
O O4 0.933185 0.620602 0.114473
O O5 0.146622 0.869593 0.257213
O O6 0.299963 0.831614 0.337489
O O7 0.248819 0.822247 0.021560
O O8 0.000000 0.022667 0.750000
O O9 0.972644 0.178521 0.945979
O O10 0.893728 0.000000 0.000000
O O11 0.693996 0.163216 0.170387
O O12 0.606568 0.203815 0.417185
O O13 0.764799 0.315704 0.318680
O O14 0.448486 0.845591 0.479100
O O15 0.346262 0.000000 0.500000
O O16 0.500000 0.090311 0.250000
O O17 0.565577 0.000000 0.500000
O O18 0.083465 0.311112 0.333712
O O19 0.922769 0.324973 0.467434
#
# Coordination Sequence:
#
# PCOD9310893 Si02
#       8
#     4   4   4   4   4   4   4   4
#     4   9  19  40  60  90 124 165 215 272 332 373
#     4  11  24  41  64  96 125 168 217 271 323 393
#     4  11  24  43  57  81 126 174 215 257 319 391
#     4  11  23  38  62 100 128 164 210 263 330 393
#     4  10  22  42  64  94 134 168 209 270 325 392
#     4   9  21  38  63  96 129 165 208 264 321 389
#     4   9  20  40  59  86 120 167 219 259 322 370
#     4  10  20  39  60  90 125 160 211 277 315 376
#
# _framework density 19.956347999999998
#
# number of rings (size 3 to 8) (size 9 to 14) (size 15 to 20)
#    0.000    2.000    0.000    3.375    7.000    0.500 
#   40.500    0.625    0.000    0.000   26.000    0.000 
#    0.000    0.000    0.000    0.000    0.000    0.000 
#
# Total GULP energy -178257.792017 kJ/mol
# GULP energy per Si atom -5570.556001 kJ/mol
# Density = 1.991093 g / cm^3
# Si number density = 19.956348 Si / 1000 Ang^3
#
#
#
# Elastic Constant Matrix: (Units=GPa)
#
#
# Indices 1 2 3 4 5 6 
#
# 1 83.6980 35.3913 2.4720 0.0000 0.0000 0.0000
# 2 35.3913 59.0164 12.8401 0.0000 0.0000 0.0000
# 3 2.4720 12.8401 50.9151 0.0000 0.0000 0.0000
# 4 0.0000 0.0000 0.0000 15.4852 0.0000 0.0000
# 5 0.0000 0.0000 0.0000 0.0000 34.4366 0.0000
# 6 0.0000 0.0000 0.0000 0.0000 0.0000 -50.8442
#
#
#
# Elastic Compliance Matrix: (Units=1/GPa)
#
#
# Indices 1 2 3 4 5 6 
#
# 1 0.016153 -0.010069 0.001755 0.000000 0.000000 0.000000
# 2 -0.010069 0.024204 -0.005615 0.000000 0.000000 0.000000
# 3 0.001755 -0.005615 0.020971 0.000000 0.000000 0.000000
# 4 0.000000 0.000000 0.000000 0.064578 0.000000 0.000000
# 5 0.000000 0.000000 0.000000 0.000000 0.029039 0.000000
# 6 0.000000 0.000000 0.000000 0.000000 0.000000 -0.019668
#
#
# Mechanical properties :
#
#
# Convention : Reuss Voigt Hill
#
# Bulk Modulus (GPa) = 29.87653 32.78183 31.32918
# Shear Modulus (GPa) = 28.68738 9.34394 19.01566
#
# Velocity S-wave (km/s) = 3.79556 2.16618 3.09020
# Velocity P-wave (km/s) = 5.84909 4.76643 5.33529
#
# Compressibility (1/GPa) = 0.03347109
#
# Stress axis : x y z
#
# Youngs Moduli (GPa) = 61.90636 41.31509 47.68400
#
# Poissons Ratio (x) = 0.41599 -0.08368
# Poissons Ratio (y) = 0.62332 0.26775
# Poissons Ratio (z) = -0.10864 0.23199
#
# Static dielectric constant tensor:
#      x y z
#    x 1.734120 0.000000 0.000000 
#    y 0.000000 1.683530 0.000000 
#    z 0.000000 0.000000 1.922400 
# 
# From -- ./inp_files/5285.got.cif
#   From: 2010.05.17/outbox.cif.g08.bks.cpg/sg17_3_cif.got.tgz:5285.got - 2010.06.03 22:34:06.
