data_PCOD9310514
_publ_section_title
;
Structure prediction by ZEFSAII (Michael W. Deem and Ramdas Pophale) SiO2 
 PCOD9310514
Probable space group: P 2 2 21
;
_chemical_formula_sum "Si O2"
_cell_formula_units_Z 32
_cell_length_a 13.440051
_cell_length_b 14.316709
_cell_length_c 8.527111
_cell_angle_alpha 90.000000
_cell_angle_beta 90.000000
_cell_angle_gamma 90.000000
_cell_volume 1640.763668
_symmetry_space_group_name_H-M "P 2 2 21"
_symmetry_group_IT_number 17
_symmetry_cell_setting 'orthorhombic'
loop_
_space_group_symop_operation_xyz
x,y,z
-x,-y,1/2+z
x,-y,-z
-x,y,1/2-z
loop_
_atom_site_type_symbol
_atom_site_label
_atom_site_fract_x
_atom_site_fract_y
_atom_site_fract_z
Si Si1 0.711095 0.394980 0.563841
Si Si2 0.390116 0.105782 0.060483
Si Si3 0.711091 0.605020 0.063841
Si Si4 0.499999 0.393627 0.062914
Si Si5 0.195936 0.219296 0.439857
Si Si6 1.000000 0.894368 0.939323
Si Si7 0.390116 0.894218 0.560483
Si Si8 0.195935 0.780705 0.939859
O O1 0.725418 0.500000 0.500000
O O2 0.704871 0.399151 0.750000
O O3 0.605338 0.356689 0.497597
O O4 0.794739 0.323155 0.507431
O O5 0.500000 0.141708 0.012361
O O6 0.388331 0.105192 0.250000
O O7 0.294659 0.163610 0.007083
O O8 0.382033 0.000000 0.000000
O O9 0.725413 0.500000 0.000000
O O10 0.605334 0.643312 0.997601
O O11 0.794736 0.676844 0.007428
O O12 0.500000 0.390592 0.250000
O O13 0.499998 0.500000 0.000000
O O14 0.294659 0.163610 0.492916
O O15 0.196806 0.224762 0.249999
O O16 0.098449 0.162160 0.488640
O O17 0.098449 0.837842 0.988641
O O18 0.000000 0.897816 0.750000
O O19 0.999998 0.000000 0.000000
O O20 0.382033 0.000000 0.500000
#
# Coordination Sequence:
#
# PCOD9310514 Si02
#       8
#     4   4   4   4   4   4   4   4
#     4  11  22  37  57  85 118 155 198 243 291 348
#     4   9  18  32  51  77 109 145 182 227 286 347
#     4  11  22  37  57  85 118 155 198 243 291 348
#     4  10  18  32  54  80 115 156 193 234 282 338
#     4  10  21  37  57  83 114 152 197 242 296 349
#     4  10  22  40  63  88 117 152 197 250 298 352
#     4   9  18  32  51  77 109 145 182 227 286 347
#     4  10  21  37  57  83 114 152 197 242 296 349
#
# _framework density 19.503112999999999
#
# number of rings (size 3 to 8) (size 9 to 14) (size 15 to 20)
#    0.000    2.000    0.000    5.625    1.750    2.000 
#    0.000    0.625    0.000    0.000    0.000    0.000 
#    0.000    0.000    0.000    0.000    0.000    0.000 
#
# Total GULP energy -178707.811512 kJ/mol
# GULP energy per Si atom -5584.619110 kJ/mol
# Density = 1.945872 g / cm^3
# Si number density = 19.503113 Si / 1000 Ang^3
#
#
#
# Elastic Constant Matrix: (Units=GPa)
#
#
# Indices 1 2 3 4 5 6 
#
# 1 154.1907 98.0843 40.8452 0.0000 0.0000 0.0000
# 2 98.0843 136.3288 32.8709 0.0000 0.0000 0.0000
# 3 40.8452 32.8709 68.0361 0.0000 0.0000 0.0000
# 4 0.0000 0.0000 0.0000 29.1695 0.0000 0.0000
# 5 0.0000 0.0000 0.0000 0.0000 14.5830 0.0000
# 6 0.0000 0.0000 0.0000 0.0000 0.0000 37.8082
#
#
#
# Elastic Compliance Matrix: (Units=1/GPa)
#
#
# Indices 1 2 3 4 5 6 
#
# 1 0.012706 -0.008265 -0.003635 0.000000 0.000000 0.000000
# 2 -0.008265 0.013679 -0.001647 0.000000 0.000000 0.000000
# 3 -0.003635 -0.001647 0.017676 0.000000 0.000000 0.000000
# 4 0.000000 0.000000 0.000000 0.034282 0.000000 0.000000
# 5 0.000000 0.000000 0.000000 0.000000 0.068573 0.000000
# 6 0.000000 0.000000 0.000000 0.000000 0.000000 0.026449
#
#
# Mechanical properties :
#
#
# Convention : Reuss Voigt Hill
#
# Bulk Modulus (GPa) = 58.93742 78.01736 68.47739
# Shear Modulus (GPa) = 24.25836 28.76249 26.51042
#
# Velocity S-wave (km/s) = 3.53061 3.84443 3.69086
# Velocity P-wave (km/s) = 6.84875 7.73276 7.30414
#
# Compressibility (1/GPa) = 0.01696715
#
# Stress axis : x y z
#
# Youngs Moduli (GPa) = 78.70308 73.10586 56.57447
#
# Poissons Ratio (x) = 0.60423 0.20563
# Poissons Ratio (y) = 0.65049 0.09317
# Poissons Ratio (z) = 0.28607 0.12039
#
# Static dielectric constant tensor:
#      x y z
#    x 1.703940 0.000000 0.000000 
#    y 0.000000 1.676980 0.000000 
#    z 0.000000 0.000000 1.650370 
# 
# From -- ./inp_files/4939.got.cif
#   From: 2010.05.17/outbox.cif.g08.bks.cpg/sg17_3_cif.got.tgz:4939.got - 2010.06.03 22:34:06.
