data_PCOD9310126
_publ_section_title
;
Structure prediction by ZEFSAII (Michael W. Deem and Ramdas Pophale) SiO2 
 PCOD9310126
Probable space group: P 2 2 2
;
_chemical_formula_sum "Si O2"
_cell_formula_units_Z 32
_cell_length_a 16.319002
_cell_length_b 8.743990
_cell_length_c 12.541458
_cell_angle_alpha 90.000000
_cell_angle_beta 90.000000
_cell_angle_gamma 90.000000
_cell_volume 1789.580653
_symmetry_space_group_name_H-M "P 2 2 2"
_symmetry_group_IT_number 16
_symmetry_cell_setting 'orthorhombic'
loop_
_space_group_symop_operation_xyz
x,y,z
-x,-y,z
x,-y,-z
-x,y,-z
loop_
_atom_site_type_symbol
_atom_site_label
_atom_site_fract_x
_atom_site_fract_y
_atom_site_fract_z
Si Si1 0.279312 0.106659 0.898647
Si Si2 0.825866 0.828859 0.341611
Si Si3 0.996977 0.683472 0.373035
Si Si4 0.162200 0.182598 0.720594
Si Si5 0.253075 0.329434 0.537623
Si Si6 0.594124 0.680593 0.018270
Si Si7 0.660429 0.175612 0.769455
Si Si8 0.407258 0.170510 0.464031
O O1 0.198875 0.170816 0.839564
O O2 0.326412 0.995305 0.815472
O O3 0.342588 0.232763 0.940730
O O4 0.257472 0.000000 0.000000
O O5 0.912147 0.746816 0.326542
O O6 0.795389 0.785592 0.459536
O O7 0.752071 0.773149 0.265075
O O8 0.834193 0.009593 0.324479
O O9 0.000000 0.500000 0.368221
O O10 0.000000 0.725804 0.500000
O O11 0.072683 0.753040 0.307072
O O12 0.223964 0.291241 0.655226
O O13 0.232797 0.500000 0.500000
O O14 0.347768 0.291952 0.519388
O O15 0.621578 0.724545 0.137485
O O16 0.598153 0.500000 0.000000
O O17 0.500000 0.731369 0.000000
O O18 0.606796 0.178693 0.662577
O O19 0.500000 0.191880 0.500000
O O20 0.381088 0.000000 0.500000
#
# Coordination Sequence:
#
# PCOD9310126 Si02
#       8
#     4   4   4   4   4   4   4   4
#     4   9  20  38  60  85 109 142 198 248 292 343
#     4  10  20  36  55  79 113 149 192 227 276 348
#     4  11  22  34  53  88 124 152 190 234 279 353
#     4  11  21  35  60  82 110 156 190 236 292 330
#     4  11  21  33  50  78 114 150 187 227 280 347
#     4  10  22  38  58  86 113 144 194 247 294 347
#     4   9  20  38  58  80 110 149 186 241 293 332
#     4  10  21  36  54  79 112 149 192 231 275 356
#
# _framework density 17.881283
#
# number of rings (size 3 to 8) (size 9 to 14) (size 15 to 20)
#    0.000    1.875    1.250    3.750    0.000    9.000 
#    0.000    2.500    0.000   12.750    0.000    8.750 
#    0.000    0.000    0.000    0.000    0.000    0.000 
#
# Total GULP energy -178579.886300 kJ/mol
# GULP energy per Si atom -5580.621447 kJ/mol
# Density = 1.784058 g / cm^3
# Si number density = 17.881283 Si / 1000 Ang^3
#
#
#
# Elastic Constant Matrix: (Units=GPa)
#
#
# Indices 1 2 3 4 5 6 
#
# 1 133.2239 51.7180 83.5897 0.0000 0.0000 0.0000
# 2 51.7180 68.4945 34.5099 0.0000 0.0000 0.0000
# 3 83.5897 34.5099 96.8513 0.0000 0.0000 0.0000
# 4 0.0000 0.0000 0.0000 13.6599 0.0000 0.0000
# 5 0.0000 0.0000 0.0000 0.0000 21.8946 0.0000
# 6 0.0000 0.0000 0.0000 0.0000 0.0000 32.0989
#
#
#
# Elastic Compliance Matrix: (Units=1/GPa)
#
#
# Indices 1 2 3 4 5 6 
#
# 1 0.019041 -0.007431 -0.013785 0.000000 0.000000 0.000000
# 2 -0.007431 0.020695 -0.000960 0.000000 0.000000 0.000000
# 3 -0.013785 -0.000960 0.022565 0.000000 0.000000 0.000000
# 4 0.000000 0.000000 0.000000 0.073207 0.000000 0.000000
# 5 0.000000 0.000000 0.000000 0.000000 0.045673 0.000000
# 6 0.000000 0.000000 0.000000 0.000000 0.000000 0.031154
#
#
# Mechanical properties :
#
#
# Convention : Reuss Voigt Hill
#
# Bulk Modulus (GPa) = 55.72133 70.91165 63.31649
# Shear Modulus (GPa) = 19.03527 22.11414 20.57471
#
# Velocity S-wave (km/s) = 3.26626 3.52052 3.39577
# Velocity P-wave (km/s) = 6.74197 7.50123 7.13171
#
# Compressibility (1/GPa) = 0.01794645
#
# Stress axis : x y z
#
# Youngs Moduli (GPa) = 52.51954 48.32181 44.31631
#
# Poissons Ratio (x) = 0.35909 0.61092
# Poissons Ratio (y) = 0.39029 0.04255
# Poissons Ratio (z) = 0.72401 0.04639
#
# Static dielectric constant tensor:
#      x y z
#    x 1.622910 0.000000 0.000000 
#    y 0.000000 1.608900 0.000000 
#    z 0.000000 0.000000 1.612400 
# 
# From -- ./inp_files/7162.got.cif
#   From: 2010.05.17/outbox.cif.g08.bks.cpg/sg16_4_cif.got.tgz:7162.got - 2010.06.03 22:28:35.
