data_PCOD9310668
_publ_section_title
;
Structure prediction by ZEFSAII (Michael W. Deem and Ramdas Pophale) SiO2 
 PCOD9310668
Probable space group: P 2 2 21
;
_chemical_formula_sum "Si O2"
_cell_formula_units_Z 32
_cell_length_a 11.406264
_cell_length_b 14.978789
_cell_length_c 9.085795
_cell_angle_alpha 90.000000
_cell_angle_beta 90.000000
_cell_angle_gamma 90.000000
_cell_volume 1552.326445
_symmetry_space_group_name_H-M "P 2 2 21"
_symmetry_group_IT_number 17
_symmetry_cell_setting 'orthorhombic'
loop_
_space_group_symop_operation_xyz
x,y,z
-x,-y,1/2+z
x,-y,-z
-x,y,1/2-z
loop_
_atom_site_type_symbol
_atom_site_label
_atom_site_fract_x
_atom_site_fract_y
_atom_site_fract_z
Si Si1 0.008247 0.906232 0.070045
Si Si2 0.886291 0.234565 0.353890
Si Si3 0.677251 0.293561 0.846278
Si Si4 0.771175 0.163830 0.069111
Si Si5 0.488785 0.910603 0.580991
Si Si6 0.252109 0.407908 0.091889
Si Si7 0.587061 0.737190 0.450246
Si Si8 0.626610 0.487954 0.828267
O O1 0.000000 0.906413 0.250000
O O2 0.879187 0.891027 0.998269
O O3 0.085934 0.827266 0.995398
O O4 0.051229 0.000000 0.000000
O O5 0.792735 0.191001 0.239144
O O6 0.850326 0.334558 0.400237
O O7 0.000000 0.237763 0.250000
O O8 0.544455 0.290180 0.906681
O O9 0.665874 0.241409 0.692739
O O10 0.697173 0.395936 0.807344
O O11 0.761272 0.251826 0.966510
O O12 0.646560 0.115260 0.047959
O O13 0.500000 0.929518 0.750000
O O14 0.569074 0.826041 0.542451
O O15 0.523894 0.000000 0.500000
O O16 0.296069 0.435969 0.253285
O O17 0.233861 0.500000 0.000000
O O18 0.357188 0.348475 0.025884
O O19 0.500000 0.483657 0.750000
O O20 0.608282 0.500000 0.000000
#
# Coordination Sequence:
#
# PCOD9310668 Si02
#       8
#     4   4   4   4   4   4   4   4
#     4  11  24  45  72  99 126 163 216 282 336 389
#     4  10  24  46  66  94 130 164 214 276 334 382
#     4  10  19  36  61  93 129 172 205 258 313 369
#     4  10  22  42  68  93 132 173 214 264 324 394
#     4  11  25  41  62  94 133 177 215 255 318 387
#     4  12  23  41  65  92 126 170 218 264 320 387
#     4  10  21  39  59  89 134 167 211 259 308 378
#     4  12  22  35  57  94 130 171 220 261 310 377
#
# _framework density 20.61422
#
# number of rings (size 3 to 8) (size 9 to 14) (size 15 to 20)
#    0.000    1.250    2.500    4.125    5.250    2.500 
#    0.000    6.250    0.000    0.000    0.000    0.000 
#    0.000    0.000    0.000    0.000    0.000    0.000 
#
# Total GULP energy -178663.006190 kJ/mol
# GULP energy per Si atom -5583.218943 kJ/mol
# Density = 2.056730 g / cm^3
# Si number density = 20.614220 Si / 1000 Ang^3
#
#
#
# Elastic Constant Matrix: (Units=GPa)
#
#
# Indices 1 2 3 4 5 6 
#
# 1 36.5406 27.1002 19.5029 0.0000 0.0000 0.0000
# 2 27.1002 147.9323 72.9556 0.0000 0.0000 0.0000
# 3 19.5029 72.9556 161.8628 0.0000 0.0000 0.0000
# 4 0.0000 0.0000 0.0000 39.9489 0.0000 0.0000
# 5 0.0000 0.0000 0.0000 0.0000 29.6765 0.0000
# 6 0.0000 0.0000 0.0000 0.0000 0.0000 38.3469
#
#
#
# Elastic Compliance Matrix: (Units=1/GPa)
#
#
# Indices 1 2 3 4 5 6 
#
# 1 0.031973 -0.005088 -0.001559 0.000000 0.000000 0.000000
# 2 -0.005088 0.009502 -0.003670 0.000000 0.000000 0.000000
# 3 -0.001559 -0.003670 0.008020 0.000000 0.000000 0.000000
# 4 0.000000 0.000000 0.000000 0.025032 0.000000 0.000000
# 5 0.000000 0.000000 0.000000 0.000000 0.033697 0.000000
# 6 0.000000 0.000000 0.000000 0.000000 0.000000 0.026078
#
#
# Mechanical properties :
#
#
# Convention : Reuss Voigt Hill
#
# Bulk Modulus (GPa) = 34.64943 65.05035 49.84989
# Shear Modulus (GPa) = 30.38507 36.71293 33.54900
#
# Velocity S-wave (km/s) = 3.84342 4.22471 4.03857
# Velocity P-wave (km/s) = 6.04490 7.44460 6.78096
#
# Compressibility (1/GPa) = 0.02886051
#
# Stress axis : x y z
#
# Youngs Moduli (GPa) = 31.27675 105.24415 124.69019
#
# Poissons Ratio (x) = 0.53552 0.19439
# Poissons Ratio (y) = 0.15915 0.45756
# Poissons Ratio (z) = 0.04876 0.38620
#
# Static dielectric constant tensor:
#      x y z
#    x 1.755250 0.000000 0.000000 
#    y 0.000000 1.710050 0.000000 
#    z 0.000000 0.000000 1.783430 
# 
# From -- ./inp_files/4930.got.cif
#   From: 2010.05.17/outbox.cif.g08.bks.cpg/sg17_3_cif.got.tgz:4930.got - 2010.06.03 22:34:06.
