data_PCOD9310208
_publ_section_title
;
Structure prediction by ZEFSAII (Michael W. Deem and Ramdas Pophale) SiO2 
 PCOD9310208
Probable space group: P 2 2 2
;
_chemical_formula_sum "Si O2"
_cell_formula_units_Z 32
_cell_length_a 14.958257
_cell_length_b 12.277706
_cell_length_c 9.096052
_cell_angle_alpha 90.000000
_cell_angle_beta 90.000000
_cell_angle_gamma 90.000000
_cell_volume 1670.517981
_symmetry_space_group_name_H-M "P 2 2 2"
_symmetry_group_IT_number 16
_symmetry_cell_setting 'orthorhombic'
loop_
_space_group_symop_operation_xyz
x,y,z
-x,-y,z
x,-y,-z
-x,y,-z
loop_
_atom_site_type_symbol
_atom_site_label
_atom_site_fract_x
_atom_site_fract_y
_atom_site_fract_z
Si Si1 0.296221 0.901168 0.409168
Si Si2 0.402176 0.536624 0.668981
Si Si3 0.396125 0.972842 0.843131
Si Si4 0.004919 0.869852 0.822586
Si Si5 0.357038 0.221462 0.333438
Si Si6 0.852865 0.272609 0.335379
Si Si7 0.788390 0.493723 0.177784
Si Si8 0.149239 0.285897 0.324348
O O1 0.368587 0.850218 0.520599
O O2 0.232957 0.805374 0.354853
O O3 0.248826 0.000000 0.500000
O O4 0.344061 0.957547 0.275220
O O5 0.500000 0.500000 0.721756
O O6 0.387722 0.500000 0.500000
O O7 0.406155 0.666075 0.661863
O O8 0.314662 0.503197 0.763203
O O9 0.384718 0.847346 0.805838
O O10 0.500000 0.000000 0.838909
O O11 0.357317 0.000000 0.000000
O O12 0.091146 0.805449 0.759035
O O13 0.924862 0.801470 0.748386
O O14 0.000000 0.000000 0.785937
O O15 0.000000 0.861525 0.000000
O O16 0.251295 0.244308 0.327798
O O17 0.828773 0.381948 0.245233
O O18 0.880304 0.299195 0.504866
O O19 0.843593 0.597165 0.243304
O O20 0.790421 0.500000 0.000000
#
# Coordination Sequence:
#
# PCOD9310208 Si02
#       8
#     4   4   4   4   4   4   4   4
#     4   9  20  36  59  87 114 153 202 248 305 361
#     4  10  21  38  62  91 123 160 210 261 308 365
#     4  10  22  36  52  80 116 156 199 243 300 366
#     4  11  26  42  62  97 132 161 199 252 318 379
#     4   9  20  38  59  83 116 157 197 253 302 354
#     4  11  23  40  67  92 119 163 211 257 307 365
#     4  11  23  41  64  92 127 166 208 256 323 378
#     4  10  22  43  65  88 124 160 209 256 304 372
#
# _framework density 19.155735
#
# number of rings (size 3 to 8) (size 9 to 14) (size 15 to 20)
#    0.000    1.875    0.000    3.750    5.250    9.500 
#    0.000    5.000    0.000    0.000    0.000    0.000 
#    0.000    0.000    0.000    0.000    0.000    0.000 
#
# Total GULP energy -178508.575158 kJ/mol
# GULP energy per Si atom -5578.392974 kJ/mol
# Density = 1.911214 g / cm^3
# Si number density = 19.155735 Si / 1000 Ang^3
#
#
#
# Elastic Constant Matrix: (Units=GPa)
#
#
# Indices 1 2 3 4 5 6 
#
# 1 57.0400 48.4462 40.3975 0.0000 0.0000 0.0000
# 2 48.4462 184.7602 88.1953 0.0000 0.0000 0.0000
# 3 40.3975 88.1953 153.1959 0.0000 0.0000 0.0000
# 4 0.0000 0.0000 0.0000 58.2533 0.0000 0.0000
# 5 0.0000 0.0000 0.0000 0.0000 0.5911 0.0000
# 6 0.0000 0.0000 0.0000 0.0000 0.0000 51.0416
#
#
#
# Elastic Compliance Matrix: (Units=1/GPa)
#
#
# Indices 1 2 3 4 5 6 
#
# 1 0.024009 -0.004514 -0.003733 0.000000 0.000000 0.000000
# 2 -0.004514 0.008312 -0.003595 0.000000 0.000000 0.000000
# 3 -0.003733 -0.003595 0.009582 0.000000 0.000000 0.000000
# 4 0.000000 0.000000 0.000000 0.017166 0.000000 0.000000
# 5 0.000000 0.000000 0.000000 0.000000 1.691621 0.000000
# 6 0.000000 0.000000 0.000000 0.000000 0.000000 0.019592
#
#
# Mechanical properties :
#
#
# Convention : Reuss Voigt Hill
#
# Bulk Modulus (GPa) = 54.88527 83.23046 69.05787
# Shear Modulus (GPa) = 2.77772 36.50768 19.64270
#
# Velocity S-wave (km/s) = 1.20550 4.37032 3.20569
# Velocity P-wave (km/s) = 5.53642 8.30723 7.05911
#
# Compressibility (1/GPa) = 0.01821982
#
# Stress axis : x y z
#
# Youngs Moduli (GPa) = 41.65172 120.30766 104.36753
#
# Poissons Ratio (x) = 0.54302 0.38956
# Poissons Ratio (y) = 0.18800 0.37520
# Poissons Ratio (z) = 0.15547 0.43251
#
# Static dielectric constant tensor:
#      x y z
#    x 1.589800 0.000000 0.000000 
#    y 0.000000 1.670820 0.000000 
#    z 0.000000 0.000000 1.675950 
# 
# From -- ./inp_files/4867.got.cif
#   From: 2010.05.17/outbox.cif.g08.bks.cpg/sg16_3_cif.got.tgz:4867.got - 2010.06.03 22:28:35.
