data_PCOD9310166
_publ_section_title
;
Structure prediction by ZEFSAII (Michael W. Deem and Ramdas Pophale) SiO2 
 PCOD9310166
Probable space group: P 2 2 2
;
_chemical_formula_sum "Si O2"
_cell_formula_units_Z 23
_cell_length_a 13.691022
_cell_length_b 9.230417
_cell_length_c 9.077807
_cell_angle_alpha 90.000000
_cell_angle_beta 90.000000
_cell_angle_gamma 90.000000
_cell_volume 1147.197349
_symmetry_space_group_name_H-M "P 2 2 2"
_symmetry_group_IT_number 16
_symmetry_cell_setting 'orthorhombic'
loop_
_space_group_symop_operation_xyz
x,y,z
-x,-y,z
x,-y,-z
-x,y,-z
loop_
_atom_site_type_symbol
_atom_site_label
_atom_site_fract_x
_atom_site_fract_y
_atom_site_fract_z
Si Si1 0.564282 0.127746 0.234956
Si Si2 0.381421 0.724221 0.658333
Si Si3 0.318493 0.177720 0.019355
Si Si4 0.500000 0.500000 0.500000
Si Si5 0.000000 0.500000 0.000000
Si Si6 0.000000 0.000000 0.000000
Si Si7 0.756222 0.860346 0.582223
Si Si8 0.874584 0.248844 0.144999
O O1 0.485921 0.192096 0.346386
O O2 0.663521 0.084409 0.319013
O O3 0.500000 0.000000 0.167607
O O4 0.600922 0.224972 0.101018
O O5 0.343066 0.763035 0.820310
O O6 0.422014 0.569313 0.613958
O O7 0.298464 0.766712 0.541653
O O8 0.216626 0.241960 0.966041
O O9 0.312468 0.000000 0.000000
O O10 0.063965 0.392356 0.895753
O O11 0.937444 0.893056 0.897097
O O12 0.828851 0.775577 0.691726
O O13 0.800882 0.000000 0.500000
#
# Coordination Sequence:
#
# PCOD9310166 Si02
#       8
#     4   4   4   1   1   1   4   4
#     4  11  19  34  59  96 133 173 217 265 316 356
#     4  12  23  38  57  86 139 188 219 259 301 388
#     4  11  21  36  66 101 127 160 229 290 324 371
#     4  12  28  40  48  80 140 206 226 234 316 368
#     4  10  24  50  76  88 130 174 224 276 356 442
#     4  10  20  42  70  98 126 150 210 294 360 414
#     4  11  21  36  66  99 133 164 220 280 332 381
#     4  10  23  42  70  99 124 165 215 280 355 407
#
# _framework density 20.048860000000001
#
# number of rings (size 3 to 8) (size 9 to 14) (size 15 to 20)
#    0.000    1.043    6.087    1.565    0.000    1.391 
#    0.000    1.304    0.000    1.043    0.000    0.000 
#    0.000    0.000    0.000    0.000    0.000    0.000 
#
# Total GULP energy -128083.053122 kJ/mol
# GULP energy per Si atom -5568.828397 kJ/mol
# Density = 2.000323 g / cm^3
# Si number density = 20.048860 Si / 1000 Ang^3
#
#
#
# Elastic Constant Matrix: (Units=GPa)
#
#
# Indices 1 2 3 4 5 6 
#
# 1 110.4284 44.2372 68.8309 0.0000 0.0000 0.0000
# 2 44.2372 56.9884 49.8897 0.0000 0.0000 0.0000
# 3 68.8309 49.8897 184.0849 0.0000 0.0000 0.0000
# 4 0.0000 0.0000 0.0000 32.7277 0.0000 0.0000
# 5 0.0000 0.0000 0.0000 0.0000 34.3746 0.0000
# 6 0.0000 0.0000 0.0000 0.0000 0.0000 28.2641
#
#
#
# Elastic Compliance Matrix: (Units=1/GPa)
#
#
# Indices 1 2 3 4 5 6 
#
# 1 0.014361 -0.008452 -0.003079 0.000000 0.000000 0.000000
# 2 -0.008452 0.027980 -0.004423 0.000000 0.000000 0.000000
# 3 -0.003079 -0.004423 0.007782 0.000000 0.000000 0.000000
# 4 0.000000 0.000000 0.000000 0.030555 0.000000 0.000000
# 5 0.000000 0.000000 0.000000 0.000000 0.029091 0.000000
# 6 0.000000 0.000000 0.000000 0.000000 0.000000 0.035381
#
#
# Mechanical properties :
#
#
# Convention : Reuss Voigt Hill
#
# Bulk Modulus (GPa) = 54.89828 75.26860 65.08344
# Shear Modulus (GPa) = 27.30316 31.64288 29.47302
#
# Velocity S-wave (km/s) = 3.69430 3.97708 3.83830
# Velocity P-wave (km/s) = 6.75565 7.66248 7.22331
#
# Compressibility (1/GPa) = 0.01821551
#
# Stress axis : x y z
#
# Youngs Moduli (GPa) = 69.63498 35.73969 128.49925
#
# Poissons Ratio (x) = 0.30207 0.39564
# Poissons Ratio (y) = 0.58855 0.56832
# Poissons Ratio (z) = 0.21440 0.15807
#
# Static dielectric constant tensor:
#      x y z
#    x 1.719390 0.000000 0.000000 
#    y 0.000000 1.887020 0.000000 
#    z 0.000000 0.000000 1.468040 
# 
# From -- ./inp_files/5145.got.cif
#   From: 2010.05.17/outbox.cif.g08.bks.cpg/sg16_3_cif.got.tgz:5145.got - 2010.06.03 22:28:35.
