data_PCOD9310845
_publ_section_title
;
Structure prediction by ZEFSAII (Michael W. Deem and Ramdas Pophale) SiO2 
 PCOD9310845
Probable space group: P 2 2 21
;
_chemical_formula_sum "Si O2"
_cell_formula_units_Z 20
_cell_length_a 4.614451
_cell_length_b 9.573828
_cell_length_c 16.380756
_cell_angle_alpha 90.000000
_cell_angle_beta 90.000000
_cell_angle_gamma 90.000000
_cell_volume 723.668386
_symmetry_space_group_name_H-M "P 2 2 21"
_symmetry_group_IT_number 17
_symmetry_cell_setting 'orthorhombic'
loop_
_space_group_symop_operation_xyz
x,y,z
-x,-y,1/2+z
x,-y,-z
-x,y,1/2-z
loop_
_atom_site_type_symbol
_atom_site_label
_atom_site_fract_x
_atom_site_fract_y
_atom_site_fract_z
Si Si1 0.959242 0.789009 0.422695
Si Si2 0.787150 0.498457 0.903129
Si Si3 0.253645 0.614096 0.811388
Si Si4 0.505491 0.847724 0.969921
Si Si5 0.753107 0.042438 0.309457
O O1 0.085833 0.652818 0.380696
O O2 0.667137 0.747968 0.469651
O O3 0.170485 0.838152 0.496471
O O4 0.603105 0.852191 0.623907
O O5 0.006678 0.627542 0.883099
O O6 0.752758 0.500000 0.000000
O O7 0.483531 0.519289 0.858904
O O8 0.500000 0.684157 0.750000
O O9 0.097956 0.085113 0.858473
O O10 0.000000 0.559191 0.750000
O O11 0.409036 0.000000 0.000000
O O12 0.500000 0.989789 0.250000
O O13 0.000000 0.109206 0.250000
#
# Coordination Sequence:
#
# PCOD9310845 Si02
#       5
#     4   4   4   4   4
#     4  11  22  37  60  88 123 163 198 244 308 364
#     4  11  22  38  63  93 121 163 214 253 290 364
#     4   9  20  38  59  83 118 158 193 251 320 349
#     4  10  20  38  58  83 120 160 193 239 307 373
#     4  11  22  37  62  93 121 154 203 259 313 368
#
# _framework density 27.636969000000001
#
# number of rings (size 3 to 8) (size 9 to 14) (size 15 to 20)
#    0.000    1.600    0.000    7.200    0.000    3.200 
#    0.000    2.000    0.000   24.000    0.000    0.000 
#    0.000    0.000    0.000    0.000    0.000    0.000 
#
# Total GULP energy -111480.303848 kJ/mol
# GULP energy per Si atom -5574.015192 kJ/mol
# Density = 2.757407 g / cm^3
# Si number density = 27.636969 Si / 1000 Ang^3
#
#
#
# Elastic Constant Matrix: (Units=GPa)
#
#
# Indices 1 2 3 4 5 6 
#
# 1 217.5809 33.4643 80.0198 0.0000 0.0000 0.0000
# 2 33.4643 78.3237 41.5614 0.0000 0.0000 0.0000
# 3 80.0198 41.5614 161.2542 0.0000 0.0000 0.0000
# 4 0.0000 0.0000 0.0000 38.4725 0.0000 0.0000
# 5 0.0000 0.0000 0.0000 0.0000 51.8279 0.0000
# 6 0.0000 0.0000 0.0000 0.0000 0.0000 16.3698
#
#
#
# Elastic Compliance Matrix: (Units=1/GPa)
#
#
# Indices 1 2 3 4 5 6 
#
# 1 0.005700 -0.001083 -0.002550 0.000000 0.000000 0.000000
# 2 -0.001083 0.014996 -0.003328 0.000000 0.000000 0.000000
# 3 -0.002550 -0.003328 0.008324 0.000000 0.000000 0.000000
# 4 0.000000 0.000000 0.000000 0.025993 0.000000 0.000000
# 5 0.000000 0.000000 0.000000 0.000000 0.019295 0.000000
# 6 0.000000 0.000000 0.000000 0.000000 0.000000 0.061088
#
#
# Mechanical properties :
#
#
# Convention : Reuss Voigt Hill
#
# Bulk Modulus (GPa) = 66.22318 85.24996 75.73657
# Shear Modulus (GPa) = 32.39408 41.47493 36.93450
#
# Velocity S-wave (km/s) = 3.42735 3.87810 3.65967
# Velocity P-wave (km/s) = 6.29890 7.13906 6.73210
#
# Compressibility (1/GPa) = 0.01510045
#
# Stress axis : x y z
#
# Youngs Moduli (GPa) = 175.43388 66.68482 120.13023
#
# Poissons Ratio (x) = 0.07219 0.30628
# Poissons Ratio (y) = 0.18991 0.39977
# Poissons Ratio (z) = 0.44729 0.22192
#
# Static dielectric constant tensor:
#      x y z
#    x 2.152310 0.000000 0.000000 
#    y 0.000000 2.576680 0.000000 
#    z 0.000000 0.000000 2.443610 
# 
# From -- ./inp_files/7588.got.cif
#   From: 2010.05.17/outbox.cif.g08.bks.cpg/sg17_4_cif.got.tgz:7588.got - 2010.06.03 22:34:06.
