data_PCOD9310560
_publ_section_title
;
Structure prediction by ZEFSAII (Michael W. Deem and Ramdas Pophale) SiO2 
 PCOD9310560
Probable space group: P 2 2 21
;
_chemical_formula_sum "Si O2"
_cell_formula_units_Z 30
_cell_length_a 8.775821
_cell_length_b 12.187637
_cell_length_c 14.807724
_cell_angle_alpha 90.000000
_cell_angle_beta 90.000000
_cell_angle_gamma 90.000000
_cell_volume 1583.782639
_symmetry_space_group_name_H-M "P 2 2 21"
_symmetry_group_IT_number 17
_symmetry_cell_setting 'orthorhombic'
loop_
_space_group_symop_operation_xyz
x,y,z
-x,-y,1/2+z
x,-y,-z
-x,y,1/2-z
loop_
_atom_site_type_symbol
_atom_site_label
_atom_site_fract_x
_atom_site_fract_y
_atom_site_fract_z
Si Si1 0.682301 0.819169 0.760416
Si Si2 0.662364 0.948351 0.300490
Si Si3 0.795289 0.395840 0.561029
Si Si4 0.184495 0.662830 0.590489
Si Si5 0.854017 0.775844 0.578252
Si Si6 0.241727 0.000000 0.000000
Si Si7 0.845618 0.408413 0.893364
Si Si8 0.679106 0.704789 0.268544
O O1 0.500000 0.819856 0.750000
O O2 0.721371 0.747664 0.848409
O O3 0.764923 0.769655 0.672499
O O4 0.735473 0.947262 0.752120
O O5 0.500000 0.940015 0.250000
O O6 0.734425 0.828052 0.292035
O O7 0.660757 0.973108 0.408747
O O8 0.762975 0.500000 0.500000
O O9 0.766503 0.292194 0.497657
O O10 0.700271 0.379992 0.650228
O O11 0.972928 0.399516 0.590553
O O12 0.227080 0.639872 0.485920
O O13 0.184198 0.537351 0.625959
O O14 0.015849 0.716372 0.590452
O O15 0.858922 0.898272 0.536790
O O16 0.779598 0.337853 0.813275
O O17 0.500000 0.708749 0.250000
#
# Coordination Sequence:
#
# PCOD9310560 Si02
#       8
#     4   4   4   4   4   2   4   4
#     4  10  22  38  61  89 122 158 200 248 307 366
#     4   9  20  41  59  90 124 164 203 241 316 372
#     4  11  21  41  63  88 116 167 207 234 303 377
#     4  10  21  42  60  87 121 158 206 251 302 363
#     4  10  20  37  63  88 116 161 202 250 300 358
#     4  10  18  38  66  86 126 160 204 258 298 364
#     4  10  22  42  63  83 123 164 201 248 308 364
#     4  11  24  41  62  93 125 157 203 259 304 359
#
# _framework density 18.941991999999999
#
# number of rings (size 3 to 8) (size 9 to 14) (size 15 to 20)
#    0.000    1.867    4.000    0.800    1.867    2.667 
#   14.400    1.333    0.000    0.000    0.000    0.000 
#    0.000    0.000    0.000    0.000    0.000    0.000 
#
# Total GULP energy -167047.385508 kJ/mol
# GULP energy per Si atom -5568.246184 kJ/mol
# Density = 1.889888 g / cm^3
# Si number density = 18.941992 Si / 1000 Ang^3
#
#
#
# Elastic Constant Matrix: (Units=GPa)
#
#
# Indices 1 2 3 4 5 6 
#
# 1 24.4433 36.9222 31.0205 0.0000 0.0000 0.0000
# 2 36.9222 132.1561 86.1739 0.0000 0.0000 0.0000
# 3 31.0205 86.1739 112.9613 0.0000 0.0000 0.0000
# 4 0.0000 0.0000 0.0000 102.7244 0.0000 0.0000
# 5 0.0000 0.0000 0.0000 0.0000 120.0245 0.0000
# 6 0.0000 0.0000 0.0000 0.0000 0.0000 15.0423
#
#
#
# Elastic Compliance Matrix: (Units=1/GPa)
#
#
# Indices 1 2 3 4 5 6 
#
# 1 0.075311 -0.015033 -0.009213 0.000000 0.000000 0.000000
# 2 -0.015033 0.018057 -0.009647 0.000000 0.000000 0.000000
# 3 -0.009213 -0.009647 0.018742 0.000000 0.000000 0.000000
# 4 0.000000 0.000000 0.000000 0.009735 0.000000 0.000000
# 5 0.000000 0.000000 0.000000 0.000000 0.008332 0.000000
# 6 0.000000 0.000000 0.000000 0.000000 0.000000 0.066479
#
#
# Mechanical properties :
#
#
# Convention : Reuss Voigt Hill
#
# Bulk Modulus (GPa) = 22.56113 64.19931 43.38022
# Shear Modulus (GPa) = 17.90723 55.25452 36.58088
#
# Velocity S-wave (km/s) = 3.07803 5.40682 4.39932
# Velocity P-wave (km/s) = 4.95669 8.54075 6.98260
#
# Compressibility (1/GPa) = 0.04432402
#
# Stress axis : x y z
#
# Youngs Moduli (GPa) = 13.27821 55.37972 53.35669
#
# Poissons Ratio (x) = 0.83254 0.49158
# Poissons Ratio (y) = 0.19961 0.51472
# Poissons Ratio (z) = 0.12233 0.53424
#
# Static dielectric constant tensor:
#      x y z
#    x 1.577880 0.000000 0.000000 
#    y 0.000000 1.617000 0.000000 
#    z 0.000000 0.000000 1.713140 
# 
# From -- ./inp_files/8263.got.cif
#   From: 2010.05.17/outbox.cif.g08.bks.cpg/sg17_5_cif.got.tgz:8263.got - 2010.06.03 22:34:06.
