data_PCOD9310259
_publ_section_title
;
Structure prediction by ZEFSAII (Michael W. Deem and Ramdas Pophale) SiO2 
 PCOD9310259
Probable space group: P 2 2 2
;
_chemical_formula_sum "Si O2"
_cell_formula_units_Z 24
_cell_length_a 19.507068
_cell_length_b 5.042030
_cell_length_c 11.630213
_cell_angle_alpha 90.000000
_cell_angle_beta 90.000000
_cell_angle_gamma 90.000000
_cell_volume 1143.892182
_symmetry_space_group_name_H-M "P 2 2 2"
_symmetry_group_IT_number 16
_symmetry_cell_setting 'orthorhombic'
loop_
_space_group_symop_operation_xyz
x,y,z
-x,-y,z
x,-y,-z
-x,y,-z
loop_
_atom_site_type_symbol
_atom_site_label
_atom_site_fract_x
_atom_site_fract_y
_atom_site_fract_z
Si Si1 0.847407 0.892884 0.204976
Si Si2 0.692343 0.988855 0.133446
Si Si3 0.211499 0.251270 0.431517
Si Si4 0.467410 0.740069 0.370605
Si Si5 0.074307 0.405136 0.867598
Si Si6 0.333592 0.499391 0.716424
O O1 0.836933 0.905519 0.341740
O O2 0.869267 0.590584 0.188576
O O3 0.773888 0.929364 0.144775
O O4 0.902666 0.102327 0.154495
O O5 0.684346 0.273758 0.192179
O O6 0.652039 0.766134 0.208537
O O7 0.672800 0.000000 0.000000
O O8 0.178558 0.500000 0.500000
O O9 0.271211 0.401857 0.361960
O O10 0.242231 0.000000 0.500000
O O11 0.500000 0.500000 0.301865
O O12 0.500000 0.743446 0.500000
O O13 0.388758 0.653721 0.365109
O O14 0.500000 0.000000 0.318052
O O15 0.000000 0.500000 0.822863
O O16 0.075068 0.500000 0.000000
#
# Coordination Sequence:
#
# PCOD9310259 Si02
#       6
#     4   4   4   4   4   4
#     4  11  22  39  59  91 128 167 211 258 325 385
#     4  11  22  39  65  94 128 169 205 260 319 382
#     4  11  23  39  62  92 131 171 208 268 324 383
#     4  10  22  40  60  89 123 163 195 250 309 371
#     4  11  22  37  62  93 126 165 211 267 322 377
#     4  11  23  40  62  96 129 160 214 256 319 377
#
# _framework density 20.980999000000001
#
# number of rings (size 3 to 8) (size 9 to 14) (size 15 to 20)
#    0.000    1.167    0.000    8.500    2.333    1.333 
#    3.000    0.000    0.000   15.000    0.000    0.000 
#    0.000    0.000    0.000    0.000    0.000    0.000 
#
# Total GULP energy -133630.408849 kJ/mol
# GULP energy per Si atom -5567.933702 kJ/mol
# Density = 2.093325 g / cm^3
# Si number density = 20.980999 Si / 1000 Ang^3
#
#
#
# Elastic Constant Matrix: (Units=GPa)
#
#
# Indices 1 2 3 4 5 6 
#
# 1 49.8465 3.0036 12.2910 0.0000 0.0000 0.0000
# 2 3.0036 140.4793 23.8549 0.0000 0.0000 0.0000
# 3 12.2910 23.8549 83.0158 0.0000 0.0000 0.0000
# 4 0.0000 0.0000 0.0000 28.7922 0.0000 0.0000
# 5 0.0000 0.0000 0.0000 0.0000 15.3462 0.0000
# 6 0.0000 0.0000 0.0000 0.0000 0.0000 38.1264
#
#
#
# Elastic Compliance Matrix: (Units=1/GPa)
#
#
# Indices 1 2 3 4 5 6 
#
# 1 0.020823 0.000082 -0.003107 0.000000 0.000000 0.000000
# 2 0.000082 0.007484 -0.002163 0.000000 0.000000 0.000000
# 3 -0.003107 -0.002163 0.013127 0.000000 0.000000 0.000000
# 4 0.000000 0.000000 0.000000 0.034732 0.000000 0.000000
# 5 0.000000 0.000000 0.000000 0.000000 0.065163 0.000000
# 6 0.000000 0.000000 0.000000 0.000000 0.000000 0.026229
#
#
# Mechanical properties :
#
#
# Convention : Reuss Voigt Hill
#
# Bulk Modulus (GPa) = 32.19580 39.07118 35.63349
# Shear Modulus (GPa) = 26.55560 32.06576 29.31068
#
# Velocity S-wave (km/s) = 3.56152 3.91362 3.74172
# Velocity P-wave (km/s) = 5.68253 6.25176 5.97393
#
# Compressibility (1/GPa) = 0.03105995
#
# Stress axis : x y z
#
# Youngs Moduli (GPa) = 48.02461 133.61870 76.17701
#
# Poissons Ratio (x) = -0.01100 0.23665
# Poissons Ratio (y) = -0.00395 0.16475
# Poissons Ratio (z) = 0.14919 0.28898
#
# Static dielectric constant tensor:
#      x y z
#    x 1.965610 0.000000 0.000000 
#    y 0.000000 1.644500 0.000000 
#    z 0.000000 0.000000 1.657530 
# 
# From -- ./inp_files/7223.got.cif
#   From: 2010.05.17/outbox.cif.g08.bks.cpg/sg16_4_cif.got.tgz:7223.got - 2010.06.03 22:28:35.
