data_PCOD9310355
_publ_section_title
;
Structure prediction by ZEFSAII (Michael W. Deem and Ramdas Pophale) SiO2 
 PCOD9310355
Probable space group: P 2 2 2
;
_chemical_formula_sum "Si O2"
_cell_formula_units_Z 19
_cell_length_a 19.967704
_cell_length_b 8.106506
_cell_length_c 4.987183
_cell_angle_alpha 90.000000
_cell_angle_beta 90.000000
_cell_angle_gamma 90.000000
_cell_volume 807.266895
_symmetry_space_group_name_H-M "P 2 2 2"
_symmetry_group_IT_number 16
_symmetry_cell_setting 'orthorhombic'
loop_
_space_group_symop_operation_xyz
x,y,z
-x,-y,z
x,-y,-z
-x,y,-z
loop_
_atom_site_type_symbol
_atom_site_label
_atom_site_fract_x
_atom_site_fract_y
_atom_site_fract_z
Si Si1 0.379030 0.847209 0.801653
Si Si2 0.500000 0.000000 0.500000
Si Si3 0.847001 0.792626 0.350623
Si Si4 0.929043 0.187463 0.115604
Si Si5 0.246862 0.500000 0.500000
Si Si6 0.342767 0.500000 0.000000
Si Si7 0.265038 0.000000 0.500000
O O1 0.450465 0.889390 0.675941
O O2 0.380952 0.671230 0.945133
O O3 0.320736 0.859572 0.574535
O O4 0.361545 0.000000 0.000000
O O5 0.907678 0.815723 0.571269
O O6 0.800533 0.657004 0.481477
O O7 0.794665 0.943742 0.293644
O O8 0.873981 0.726768 0.069530
O O9 0.000000 0.251964 0.000000
O O10 0.927138 0.000000 0.000000
O O11 0.294505 0.478202 0.750739
#
# Coordination Sequence:
#
# PCOD9310355 Si02
#       7
#     4   1   4   4   2   2   2
#     4  11  25  47  77 108 151 195 241 303 358 448
#     4  10  26  52  74 114 154 202 252 288 374 444
#     4  12  23  40  66  97 136 182 233 299 368 429
#     4  11  23  40  63  94 132 182 243 297 356 437
#     4  12  26  44  65 111 144 178 234 306 368 438
#     4  12  26  46  77 110 153 186 242 304 370 424
#     4  11  22  39  69 104 137 180 238 298 373 426
#
# _framework density 23.536207999999998
#
# number of rings (size 3 to 8) (size 9 to 14) (size 15 to 20)
#    0.000    0.632    4.211    3.474    5.895    1.684 
#    0.000    6.316    0.000    0.000    0.000    0.000 
#    0.000    0.000    0.000    0.000    0.000    0.000 
#
# Total GULP energy -105796.236342 kJ/mol
# GULP energy per Si atom -5568.222965 kJ/mol
# Density = 2.348264 g / cm^3
# Si number density = 23.536208 Si / 1000 Ang^3
#
#
#
# Elastic Constant Matrix: (Units=GPa)
#
#
# Indices 1 2 3 4 5 6 
#
# 1 147.9445 34.7239 44.1369 0.0000 0.0000 0.0000
# 2 34.7239 121.0841 42.2391 0.0000 0.0000 0.0000
# 3 44.1369 42.2391 137.2098 0.0000 0.0000 0.0000
# 4 0.0000 0.0000 0.0000 32.6468 0.0000 0.0000
# 5 0.0000 0.0000 0.0000 0.0000 31.3139 0.0000
# 6 0.0000 0.0000 0.0000 0.0000 0.0000 10.8498
#
#
#
# Elastic Compliance Matrix: (Units=1/GPa)
#
#
# Indices 1 2 3 4 5 6 
#
# 1 0.007715 -0.001509 -0.002017 0.000000 0.000000 0.000000
# 2 -0.001509 0.009547 -0.002454 0.000000 0.000000 0.000000
# 3 -0.002017 -0.002454 0.008692 0.000000 0.000000 0.000000
# 4 0.000000 0.000000 0.000000 0.030631 0.000000 0.000000
# 5 0.000000 0.000000 0.000000 0.000000 0.031935 0.000000
# 6 0.000000 0.000000 0.000000 0.000000 0.000000 0.092168
#
#
# Mechanical properties :
#
#
# Convention : Reuss Voigt Hill
#
# Bulk Modulus (GPa) = 71.45273 72.04867 71.75070
# Shear Modulus (GPa) = 25.34045 33.97134 29.65590
#
# Velocity S-wave (km/s) = 3.28481 3.80329 3.55352
# Velocity P-wave (km/s) = 6.69411 7.06859 6.88390
#
# Compressibility (1/GPa) = 0.01399527
#
# Stress axis : x y z
#
# Youngs Moduli (GPa) = 129.61327 104.74078 115.04301
#
# Poissons Ratio (x) = 0.15803 0.23208
# Poissons Ratio (y) = 0.19556 0.28229
# Poissons Ratio (z) = 0.26147 0.25701
#
# Static dielectric constant tensor:
#      x y z
#    x 1.889580 0.000000 0.000000 
#    y 0.000000 2.047680 0.000000 
#    z 0.000000 0.000000 1.961070 
# 
# From -- ./inp_files/2332.got.cif
#   From: 2010.05.17/outbox.cif.g08.bks.cpg/sg16_2_cif.got.tgz:2332.got - 2010.06.03 22:28:35.
