data_PCOD9310269
_publ_section_title
;
Structure prediction by ZEFSAII (Michael W. Deem and Ramdas Pophale) SiO2 
 PCOD9310269
Probable space group: P 2 2 2
;
_chemical_formula_sum "Si O2"
_cell_formula_units_Z 20
_cell_length_a 16.819058
_cell_length_b 7.213668
_cell_length_c 7.824883
_cell_angle_alpha 90.000000
_cell_angle_beta 90.000000
_cell_angle_gamma 90.000000
_cell_volume 949.370366
_symmetry_space_group_name_H-M "P 2 2 2"
_symmetry_group_IT_number 16
_symmetry_cell_setting 'orthorhombic'
loop_
_space_group_symop_operation_xyz
x,y,z
-x,-y,z
x,-y,-z
-x,y,-z
loop_
_atom_site_type_symbol
_atom_site_label
_atom_site_fract_x
_atom_site_fract_y
_atom_site_fract_z
Si Si1 0.823294 0.500000 0.000000
Si Si2 0.000000 0.000000 0.000000
Si Si3 0.888957 0.781240 0.247306
Si Si4 0.408917 0.958841 0.200733
Si Si5 0.294408 0.353805 0.744792
Si Si6 0.000000 0.000000 0.500000
Si Si7 0.717882 0.775443 0.367629
O O1 0.873720 0.578540 0.160974
O O2 0.765558 0.348661 0.093093
O O3 0.059693 0.876020 0.896248
O O4 0.799272 0.844836 0.282897
O O5 0.940895 0.852643 0.407024
O O6 0.352691 0.089056 0.315512
O O7 0.500000 0.000000 0.245158
O O8 0.377217 0.749595 0.222013
O O9 0.398081 0.000000 0.000000
O O10 0.264784 0.259389 0.568385
O O11 0.302654 0.571681 0.705783
#
# Coordination Sequence:
#
# PCOD9310269 Si02
#       7
#     2   1   4   4   4   1   4
#     4  10  22  43  70  93 132 186 228 272 347 423
#     4  10  24  40  64  98 130 172 224 286 336 400
#     4  10  23  42  64  97 133 175 227 279 348 409
#     4  11  24  40  64  99 133 174 223 272 332 401
#     4  10  22  41  63  98 130 171 229 270 328 400
#     4  10  24  42  68 104 134 172 232 302 346 410
#     4  10  23  41  67  94 129 182 217 278 337 402
#
# _framework density 21.066593999999998
#
# number of rings (size 3 to 8) (size 9 to 14) (size 15 to 20)
#    0.000    1.800    0.000    3.000    7.000    4.400 
#    0.000   10.000    0.000    0.000    0.000    0.000 
#    0.000    0.000    0.000    0.000    0.000    0.000 
#
# Total GULP energy -111357.902431 kJ/mol
# GULP energy per Si atom -5567.895122 kJ/mol
# Density = 2.101865 g / cm^3
# Si number density = 21.066594 Si / 1000 Ang^3
#
#
#
# Elastic Constant Matrix: (Units=GPa)
#
#
# Indices 1 2 3 4 5 6 
#
# 1 173.2467 76.3832 61.7637 0.0000 0.0000 0.0000
# 2 76.3832 89.0137 33.2170 0.0000 0.0000 0.0000
# 3 61.7637 33.2170 101.4577 0.0000 0.0000 0.0000
# 4 0.0000 0.0000 0.0000 19.9775 0.0000 0.0000
# 5 0.0000 0.0000 0.0000 0.0000 55.1859 0.0000
# 6 0.0000 0.0000 0.0000 0.0000 0.0000 38.9073
#
#
#
# Elastic Compliance Matrix: (Units=1/GPa)
#
#
# Indices 1 2 3 4 5 6 
#
# 1 0.010495 -0.007543 -0.003919 0.000000 0.000000 0.000000
# 2 -0.007543 0.018220 -0.001373 0.000000 0.000000 0.000000
# 3 -0.003919 -0.001373 0.012692 0.000000 0.000000 0.000000
# 4 0.000000 0.000000 0.000000 0.050056 0.000000 0.000000
# 5 0.000000 0.000000 0.000000 0.000000 0.018121 0.000000
# 6 0.000000 0.000000 0.000000 0.000000 0.000000 0.025702
#
#
# Mechanical properties :
#
#
# Convention : Reuss Voigt Hill
#
# Bulk Modulus (GPa) = 63.55187 78.49398 71.02293
# Shear Modulus (GPa) = 30.08384 35.63777 32.86080
#
# Velocity S-wave (km/s) = 3.78303 4.11746 3.95378
# Velocity P-wave (km/s) = 7.02242 7.74244 7.39121
#
# Compressibility (1/GPa) = 0.01573518
#
# Stress axis : x y z
#
# Youngs Moduli (GPa) = 95.28102 54.88583 78.79109
#
# Poissons Ratio (x) = 0.41403 0.30882
# Poissons Ratio (y) = 0.71875 0.10817
# Poissons Ratio (z) = 0.37345 0.07535
#
# Static dielectric constant tensor:
#      x y z
#    x 1.682300 0.000000 0.000000 
#    y 0.000000 1.723710 0.000000 
#    z 0.000000 0.000000 1.854150 
# 
# From -- ./inp_files/5003.got.cif
#   From: 2010.05.17/outbox.cif.g08.bks.cpg/sg16_3_cif.got.tgz:5003.got - 2010.06.03 22:28:35.
