data_PCOD9310542
_publ_section_title
;
Structure prediction by ZEFSAII (Michael W. Deem and Ramdas Pophale) SiO2 
 PCOD9310542
Probable space group: P 2 2 21
;
_chemical_formula_sum "Si O2"
_cell_formula_units_Z 24
_cell_length_a 14.386622
_cell_length_b 15.811586
_cell_length_c 5.968719
_cell_angle_alpha 90.000000
_cell_angle_beta 90.000000
_cell_angle_gamma 90.000000
_cell_volume 1357.736211
_symmetry_space_group_name_H-M "P 2 2 21"
_symmetry_group_IT_number 17
_symmetry_cell_setting 'orthorhombic'
loop_
_space_group_symop_operation_xyz
x,y,z
-x,-y,1/2+z
x,-y,-z
-x,y,1/2-z
loop_
_atom_site_type_symbol
_atom_site_label
_atom_site_fract_x
_atom_site_fract_y
_atom_site_fract_z
Si Si1 0.553613 0.500000 0.000000
Si Si2 0.500000 0.226878 0.750000
Si Si3 0.650659 0.677134 0.944290
Si Si4 0.000000 0.847088 0.250000
Si Si5 0.086903 0.000000 0.000000
Si Si6 0.804268 0.776229 0.152958
Si Si7 0.658511 0.189563 0.455194
Si Si8 0.240461 0.933506 0.666325
O O1 0.500000 0.485616 0.750000
O O2 0.617426 0.580917 0.940926
O O3 0.424779 0.280582 0.610923
O O4 0.562594 0.176105 0.580249
O O5 0.646365 0.730364 0.712703
O O6 0.754096 0.695093 0.041463
O O7 0.087652 0.786520 0.293373
O O8 0.971355 0.915547 0.442734
O O9 0.154309 0.022398 0.207601
O O10 0.743299 0.792324 0.374772
O O11 0.789330 0.852565 0.978268
O O12 0.686923 0.104118 0.336029
O O13 0.283830 0.000000 0.500000
#
# Coordination Sequence:
#
# PCOD9310542 Si02
#       8
#     2   2   4   2   2   4   4   4
#     4  12  24  40  70 108 134 158 202 266 326 388
#     4  10  18  36  58  88 112 156 204 236 310 372
#     4  10  22  38  60  95 126 157 197 251 314 378
#     4  12  20  36  56  86 120 158 210 260 318 366
#     4  12  22  34  56  88 114 150 206 286 314 348
#     4  10  22  36  55  87 120 164 203 252 313 377
#     4  10  20  36  57  86 118 161 199 252 311 378
#     4  11  19  36  52  85 114 157 202 265 324 361
#
# _framework density 17.676482
#
# number of rings (size 3 to 8) (size 9 to 14) (size 15 to 20)
#    0.000    1.333    4.167    2.500    2.333    0.000 
#    0.000    0.000    0.000    0.000  299.000    0.000 
#    0.000    0.000    0.000    0.000    0.000    0.000 
#
# Total GULP energy -133683.207042 kJ/mol
# GULP energy per Si atom -5570.133627 kJ/mol
# Density = 1.763625 g / cm^3
# Si number density = 17.676482 Si / 1000 Ang^3
#
#
#
# Elastic Constant Matrix: (Units=GPa)
#
#
# Indices 1 2 3 4 5 6 
#
# 1 132.9647 53.8169 40.6501 0.0000 0.0000 0.0000
# 2 53.8169 66.3348 28.8427 0.0000 0.0000 0.0000
# 3 40.6501 28.8427 83.1408 0.0000 0.0000 0.0000
# 4 0.0000 0.0000 0.0000 12.5612 0.0000 0.0000
# 5 0.0000 0.0000 0.0000 0.0000 17.0556 0.0000
# 6 0.0000 0.0000 0.0000 0.0000 0.0000 24.7280
#
#
#
# Elastic Compliance Matrix: (Units=1/GPa)
#
#
# Indices 1 2 3 4 5 6 
#
# 1 0.011752 -0.008286 -0.002872 0.000000 0.000000 0.000000
# 2 -0.008286 0.023595 -0.004134 0.000000 0.000000 0.000000
# 3 -0.002872 -0.004134 0.014866 0.000000 0.000000 0.000000
# 4 0.000000 0.000000 0.000000 0.079611 0.000000 0.000000
# 5 0.000000 0.000000 0.000000 0.000000 0.058632 0.000000
# 6 0.000000 0.000000 0.000000 0.000000 0.000000 0.040440
#
#
# Mechanical properties :
#
#
# Convention : Reuss Voigt Hill
#
# Bulk Modulus (GPa) = 50.94272 58.78441 54.86357
# Shear Modulus (GPa) = 18.79540 21.47766 20.13653
#
# Velocity S-wave (km/s) = 3.26436 3.48953 3.37882
# Velocity P-wave (km/s) = 6.56431 7.04014 6.80639
#
# Compressibility (1/GPa) = 0.01962989
#
# Stress axis : x y z
#
# Youngs Moduli (GPa) = 85.08854 42.38177 67.26768
#
# Poissons Ratio (x) = 0.35118 0.19316
# Poissons Ratio (y) = 0.70505 0.27809
# Poissons Ratio (z) = 0.24434 0.17521
#
# Static dielectric constant tensor:
#      x y z
#    x 1.617390 0.000000 0.000000 
#    y 0.000000 1.591740 0.000000 
#    z 0.000000 0.000000 1.737440 
# 
# From -- ./inp_files/2171.got.cif
#   From: 2010.05.17/outbox.cif.g08.bks.cpg/sg17_2_cif.got.tgz:2171.got - 2010.06.03 22:34:06.
