data_PCOD9310602
_publ_section_title
;
Structure prediction by ZEFSAII (Michael W. Deem and Ramdas Pophale) SiO2 
 PCOD9310602
Probable space group: P 2 2 21
;
_chemical_formula_sum "Si O2"
_cell_formula_units_Z 18
_cell_length_a 21.857645
_cell_length_b 6.924260
_cell_length_c 5.201850
_cell_angle_alpha 90.000000
_cell_angle_beta 90.000000
_cell_angle_gamma 90.000000
_cell_volume 787.289682
_symmetry_space_group_name_H-M "P 2 2 21"
_symmetry_group_IT_number 17
_symmetry_cell_setting 'orthorhombic'
loop_
_space_group_symop_operation_xyz
x,y,z
-x,-y,1/2+z
x,-y,-z
-x,y,1/2-z
loop_
_atom_site_type_symbol
_atom_site_label
_atom_site_fract_x
_atom_site_fract_y
_atom_site_fract_z
Si Si1 0.433047 0.364286 0.749743
Si Si2 0.867611 0.363602 0.249832
Si Si3 0.741990 0.781459 0.583757
Si Si4 0.307812 0.218264 0.583851
Si Si5 0.000000 0.362576 0.250000
O O1 0.433320 0.500000 0.500000
O O2 0.500000 0.265552 0.750000
O O3 0.374636 0.228801 0.709470
O O4 0.427329 0.500000 0.000000
O O5 0.868337 0.500000 0.500000
O O6 0.808860 0.229933 0.291407
O O7 0.934058 0.259192 0.241613
O O8 0.861874 0.500000 0.000000
O O9 0.737372 0.692423 0.297816
O O10 0.725841 0.000000 0.500000
O O11 0.696702 0.692752 0.797863
O O12 0.291407 0.000000 0.500000
O O13 0.999901 0.500000 0.500000
#
# Coordination Sequence:
#
# PCOD9310602 Si02
#       5
#     4   4   4   4   2
#     4  10  21  37  56  79 107 137 173 222 271 313
#     4  10  19  32  53  78 102 136 180 219 262 315
#     4  10  21  35  52  76 109 139 170 218 267 310
#     4  10  21  37  54  76 106 141 175 212 262 318
#     4   8  16  30  48  72 102 130 166 220 262 300
#
# _framework density 22.863249
#
# number of rings (size 3 to 8) (size 9 to 14) (size 15 to 20)
#    0.000    2.222    0.000    2.667    0.000    5.333 
#    0.000    6.667    0.000   12.000    0.000    0.000 
#    0.000    0.000    0.000    0.000    0.000    0.000 
#
# Total GULP energy -100308.852285 kJ/mol
# GULP energy per Si atom -5572.714016 kJ/mol
# Density = 2.281121 g / cm^3
# Si number density = 22.863249 Si / 1000 Ang^3
#
#
#
# Elastic Constant Matrix: (Units=GPa)
#
#
# Indices 1 2 3 4 5 6 
#
# 1 199.8167 6.3169 48.9313 0.0000 0.0000 0.0000
# 2 6.3169 28.4458 16.4868 0.0000 0.0000 0.0000
# 3 48.9313 16.4868 215.8947 0.0000 0.0000 0.0000
# 4 0.0000 0.0000 0.0000 16.7249 0.0000 0.0000
# 5 0.0000 0.0000 0.0000 0.0000 29.3644 0.0000
# 6 0.0000 0.0000 0.0000 0.0000 0.0000 17.7946
#
#
#
# Elastic Compliance Matrix: (Units=1/GPa)
#
#
# Indices 1 2 3 4 5 6 
#
# 1 0.005306 -0.000504 -0.001164 0.000000 0.000000 0.000000
# 2 -0.000504 0.036830 -0.002698 0.000000 0.000000 0.000000
# 3 -0.001164 -0.002698 0.005102 0.000000 0.000000 0.000000
# 4 0.000000 0.000000 0.000000 0.059791 0.000000 0.000000
# 5 0.000000 0.000000 0.000000 0.000000 0.034055 0.000000
# 6 0.000000 0.000000 0.000000 0.000000 0.000000 0.056197
#
#
# Mechanical properties :
#
#
# Convention : Reuss Voigt Hill
#
# Bulk Modulus (GPa) = 25.97017 65.29190 45.63103
# Shear Modulus (GPa) = 22.84694 37.60493 30.22594
#
# Velocity S-wave (km/s) = 3.16458 4.05998 3.63992
# Velocity P-wave (km/s) = 4.97356 7.11319 6.13734
#
# Compressibility (1/GPa) = 0.03850572
#
# Stress axis : x y z
#
# Youngs Moduli (GPa) = 188.48183 27.15150 196.01034
#
# Poissons Ratio (x) = 0.01367 0.22816
# Poissons Ratio (y) = 0.09491 0.52892
# Poissons Ratio (z) = 0.21940 0.07327
#
# Static dielectric constant tensor:
#      x y z
#    x 1.930530 0.000000 0.000000 
#    y 0.000000 1.928500 0.000000 
#    z 0.000000 0.000000 1.996380 
# 
# From -- ./inp_files/2479.got.cif
#   From: 2010.05.17/outbox.cif.g08.bks.cpg/sg17_2_cif.got.tgz:2479.got - 2010.06.03 22:34:06.
