data_PCOD9310135
_publ_section_title
;
Structure prediction by ZEFSAII (Michael W. Deem and Ramdas Pophale) SiO2 
 PCOD9310135
Probable space group: P 2 2 2
;
_chemical_formula_sum "Si O2"
_cell_formula_units_Z 17
_cell_length_a 9.123113
_cell_length_b 17.571588
_cell_length_c 4.844841
_cell_angle_alpha 90.000000
_cell_angle_beta 90.000000
_cell_angle_gamma 90.000000
_cell_volume 776.664750
_symmetry_space_group_name_H-M "P 2 2 2"
_symmetry_group_IT_number 16
_symmetry_cell_setting 'orthorhombic'
loop_
_space_group_symop_operation_xyz
x,y,z
-x,-y,z
x,-y,-z
-x,y,-z
loop_
_atom_site_type_symbol
_atom_site_label
_atom_site_fract_x
_atom_site_fract_y
_atom_site_fract_z
Si Si1 0.827717 0.794476 0.914091
Si Si2 0.500000 0.500000 0.000000
Si Si3 0.699977 0.500000 0.500000
Si Si4 0.000000 0.000000 0.500000
Si Si5 0.105620 0.366078 0.747077
Si Si6 0.500000 0.000000 0.500000
Si Si7 0.752223 0.108722 0.618848
O O1 0.801347 0.707709 0.830114
O O2 0.784724 0.855331 0.680554
O O3 0.742003 0.820261 0.181844
O O4 0.000000 0.797823 0.000000
O O5 0.608566 0.534965 0.237022
O O6 0.798051 0.565215 0.635783
O O7 0.891648 0.946030 0.326231
O O8 0.000000 0.339612 0.500000
O O9 0.000000 0.389105 0.000000
O O10 0.610823 0.056246 0.653583
#
# Coordination Sequence:
#
# PCOD9310135 Si02
#       7
#     4   1   2   1   4   1   4
#     4  11  21  40  66  97 129 169 219 279 339 412
#     4  10  24  42  66  90 136 186 244 286 312 422
#     4  11  23  44  66 102 141 187 238 292 342 425
#     4  10  20  36  64  92 112 174 220 276 336 392
#     4  11  23  40  70 106 141 174 222 296 366 416
#     4  10  28  44  60 100 132 178 232 280 340 408
#     4  11  23  40  64  91 133 168 224 278 335 412
#
# _framework density 21.888466999999999
#
# number of rings (size 3 to 8) (size 9 to 14) (size 15 to 20)
#    0.000    1.176    2.353    4.588    0.000    7.529 
#    0.000    4.706    0.000    0.000    0.000    0.000 
#    0.000    0.000    0.000    0.000    0.000    0.000 
#
# Total GULP energy -94873.104577 kJ/mol
# GULP energy per Si atom -5580.770857 kJ/mol
# Density = 2.183865 g / cm^3
# Si number density = 21.888467 Si / 1000 Ang^3
#
#
#
# Elastic Constant Matrix: (Units=GPa)
#
#
# Indices 1 2 3 4 5 6 
#
# 1 95.3864 55.8808 29.4464 0.0000 0.0000 0.0000
# 2 55.8808 115.2334 16.2662 0.0000 0.0000 0.0000
# 3 29.4464 16.2662 117.1098 0.0000 0.0000 0.0000
# 4 0.0000 0.0000 0.0000 -84.0072 0.0000 0.0000
# 5 0.0000 0.0000 0.0000 0.0000 28.5847 0.0000
# 6 0.0000 0.0000 0.0000 0.0000 0.0000 0.7631
#
#
#
# Elastic Compliance Matrix: (Units=1/GPa)
#
#
# Indices 1 2 3 4 5 6 
#
# 1 0.015567 -0.007136 -0.002923 0.000000 0.000000 0.000000
# 2 -0.007136 0.012123 0.000110 0.000000 0.000000 0.000000
# 3 -0.002923 0.000110 0.009259 0.000000 0.000000 0.000000
# 4 0.000000 0.000000 0.000000 -0.011904 0.000000 0.000000
# 5 0.000000 0.000000 0.000000 0.000000 0.034984 0.000000
# 6 0.000000 0.000000 0.000000 0.000000 0.000000 1.310360
#
#
# Mechanical properties :
#
#
# Convention : Reuss Voigt Hill
#
# Bulk Modulus (GPa) = 58.64760 58.99072 58.81916
# Shear Modulus (GPa) = 3.58174 4.14388 3.86281
#
# Velocity S-wave (km/s) = 1.28059 1.37742 1.32989
# Velocity P-wave (km/s) = 5.38874 5.43496 5.41190
#
# Compressibility (1/GPa) = 0.01705100
#
# Stress axis : x y z
#
# Youngs Moduli (GPa) = 64.23978 82.48741 108.00776
#
# Poissons Ratio (x) = 0.58865 0.31570
# Poissons Ratio (y) = 0.45843 -0.01193
# Poissons Ratio (z) = 0.18777 -0.00911
#
# Static dielectric constant tensor:
#      x y z
#    x 1.923930 0.000000 0.000000 
#    y 0.000000 1.851200 0.000000 
#    z 0.000000 0.000000 1.735750 
# 
# From -- ./inp_files/805.got.cif
#   From: 2010.05.17/outbox.cif.g08.bks.cpg/sg16_1_cif.got.tgz:805.got - 2010.06.03 22:28:35.
