data_PCOD9310122
_publ_section_title
;
Structure prediction by ZEFSAII (Michael W. Deem and Ramdas Pophale) SiO2 
 PCOD9310122
Probable space group: P 2 2 2
;
_chemical_formula_sum "Si O2"
_cell_formula_units_Z 24
_cell_length_a 7.469581
_cell_length_b 11.911751
_cell_length_c 10.877271
_cell_angle_alpha 90.000000
_cell_angle_beta 90.000000
_cell_angle_gamma 90.000000
_cell_volume 967.813769
_symmetry_space_group_name_H-M "P 2 2 2"
_symmetry_group_IT_number 16
_symmetry_cell_setting 'orthorhombic'
loop_
_space_group_symop_operation_xyz
x,y,z
-x,-y,z
x,-y,-z
-x,y,-z
loop_
_atom_site_type_symbol
_atom_site_label
_atom_site_fract_x
_atom_site_fract_y
_atom_site_fract_z
Si Si1 0.216232 0.252128 0.978591
Si Si2 0.192128 0.461400 0.835623
Si Si3 0.660411 0.355565 0.661573
Si Si4 0.200478 0.123237 0.733611
Si Si5 0.251632 0.335502 0.597782
Si Si6 0.769479 0.871228 0.230427
O O1 0.274923 0.378541 0.938512
O O2 0.267918 0.183480 0.857038
O O3 0.275577 0.177976 0.094896
O O4 0.000000 0.259188 0.000000
O O5 0.292946 0.568694 0.778924
O O6 0.147468 0.386538 0.713210
O O7 0.000000 0.500000 0.877812
O O8 0.454296 0.372527 0.628535
O O9 0.780565 0.376461 0.540174
O O10 0.686988 0.224483 0.685759
O O11 0.239774 0.201484 0.616525
O O12 0.985147 0.125673 0.751724
O O13 0.278416 0.998366 0.736305
#
# Coordination Sequence:
#
# PCOD9310122 Si02
#       6
#     4   4   4   4   4   4
#     4   9  18  35  59  87 118 149 186 238 296 351
#     4  11  22  37  61  88 114 149 195 244 291 347
#     4  11  23  38  58  84 118 160 195 237 298 351
#     4   9  19  37  60  88 116 150 197 243 287 343
#     4  10  23  41  57  80 119 160 199 240 290 352
#     4  10  20  35  61  89 115 150 194 243 292 344
#
# _framework density 24.798158999999998
#
# number of rings (size 3 to 8) (size 9 to 14) (size 15 to 20)
#    0.000    2.000    0.000    4.500    0.000   10.333 
#    0.000    6.667    0.000   16.000    0.000    0.000 
#    0.000    0.000    0.000    0.000    0.000    0.000 
#
# Total GULP energy -134084.985427 kJ/mol
# GULP energy per Si atom -5586.874393 kJ/mol
# Density = 2.474172 g / cm^3
# Si number density = 24.798159 Si / 1000 Ang^3
#
#
#
# Elastic Constant Matrix: (Units=GPa)
#
#
# Indices 1 2 3 4 5 6 
#
# 1 48.8515 11.4276 13.0853 0.0000 0.0000 0.0000
# 2 11.4276 190.0540 35.1031 0.0000 0.0000 0.0000
# 3 13.0853 35.1031 127.0624 0.0000 0.0000 0.0000
# 4 0.0000 0.0000 0.0000 9.1108 0.0000 0.0000
# 5 0.0000 0.0000 0.0000 0.0000 4.2913 0.0000
# 6 0.0000 0.0000 0.0000 0.0000 0.0000 9.8972
#
#
#
# Elastic Compliance Matrix: (Units=1/GPa)
#
#
# Indices 1 2 3 4 5 6 
#
# 1 0.021202 -0.000918 -0.001930 0.000000 0.000000 0.000000
# 2 -0.000918 0.005584 -0.001448 0.000000 0.000000 0.000000
# 3 -0.001930 -0.001448 0.008469 0.000000 0.000000 0.000000
# 4 0.000000 0.000000 0.000000 0.109760 0.000000 0.000000
# 5 0.000000 0.000000 0.000000 0.000000 0.233028 0.000000
# 6 0.000000 0.000000 0.000000 0.000000 0.000000 0.101039
#
#
# Mechanical properties :
#
#
# Convention : Reuss Voigt Hill
#
# Bulk Modulus (GPa) = 37.50571 53.91111 45.70841
# Shear Modulus (GPa) = 10.06924 25.08333 17.57628
#
# Velocity S-wave (km/s) = 2.01725 3.18386 2.66517
# Velocity P-wave (km/s) = 4.53684 5.94164 5.28612
#
# Compressibility (1/GPa) = 0.02666260
#
# Stress axis : x y z
#
# Youngs Moduli (GPa) = 47.16555 179.07136 118.07819
#
# Poissons Ratio (x) = 0.16446 0.22786
# Poissons Ratio (y) = 0.04332 0.17100
# Poissons Ratio (z) = 0.09102 0.25933
#
# Static dielectric constant tensor:
#      x y z
#    x 2.046430 0.000000 0.000000 
#    y 0.000000 2.024260 0.000000 
#    z 0.000000 0.000000 2.014140 
# 
# From -- ./inp_files/6523.got.cif
#   From: 2010.05.17/outbox.cif.g08.bks.cpg/sg16_4_cif.got.tgz:6523.got - 2010.06.03 22:28:35.
