data_PCOD9310541
_publ_section_title
;
Structure prediction by ZEFSAII (Michael W. Deem and Ramdas Pophale) SiO2 
 PCOD9310541
Probable space group: P 2 2 21
;
_chemical_formula_sum "Si O2"
_cell_formula_units_Z 30
_cell_length_a 14.275784
_cell_length_b 5.044918
_cell_length_c 17.669705
_cell_angle_alpha 90.000000
_cell_angle_beta 90.000000
_cell_angle_gamma 90.000000
_cell_volume 1272.574975
_symmetry_space_group_name_H-M "P 2 2 21"
_symmetry_group_IT_number 17
_symmetry_cell_setting 'orthorhombic'
loop_
_space_group_symop_operation_xyz
x,y,z
-x,-y,1/2+z
x,-y,-z
-x,y,1/2-z
loop_
_atom_site_type_symbol
_atom_site_label
_atom_site_fract_x
_atom_site_fract_y
_atom_site_fract_z
Si Si1 0.318022 0.850614 0.923043
Si Si2 0.576303 0.237031 0.947928
Si Si3 0.887018 0.500000 0.000000
Si Si4 0.599702 0.653814 0.353699
Si Si5 0.776452 0.836783 0.101541
Si Si6 0.847053 0.030049 0.329469
Si Si7 0.965307 0.890541 0.912216
Si Si8 0.759729 0.523231 0.250931
O O1 0.353327 0.552574 0.913591
O O2 0.208731 0.878062 0.904723
O O3 0.367049 0.042107 0.861338
O O4 0.336239 0.000000 0.000000
O O5 0.507660 0.330702 0.880144
O O6 0.668922 0.096871 0.913308
O O7 0.594252 0.500000 0.000000
O O8 0.534232 0.000000 0.000000
O O9 0.815044 0.724073 0.022769
O O10 0.951872 0.420710 0.069869
O O11 0.650591 0.545461 0.277828
O O12 0.770427 0.610066 0.165048
O O13 0.864912 0.019764 0.120576
O O14 0.805926 0.243011 0.270133
O O15 0.954588 0.044849 0.353025
O O16 0.814988 0.741385 0.301750
O O17 0.982654 0.000000 0.000000
#
# Coordination Sequence:
#
# PCOD9310541 Si02
#       8
#     4   4   2   4   4   4   4   4
#     4  10  18  35  59  90 130 169 212 269 327 387
#     4  12  24  40  69  98 130 173 229 280 340 392
#     4  10  22  44  66  90 126 166 222 292 316 376
#     4  10  21  38  60  95 132 168 219 270 330 402
#     4  11  25  44  65  95 134 177 227 281 334 392
#     4  10  23  42  63  97 131 175 221 268 336 411
#     4  10  23  42  67  97 130 172 227 284 333 387
#     4  10  25  43  66  95 139 178 219 270 338 410
#
# _framework density 23.574248000000001
#
# number of rings (size 3 to 8) (size 9 to 14) (size 15 to 20)
#    0.000    1.600    0.667    4.000    5.600    1.067 
#    2.400    0.000    0.000    6.400    0.000    0.000 
#    0.000    0.000    0.000    0.000    0.000    0.000 
#
# Total GULP energy -167194.756362 kJ/mol
# GULP energy per Si atom -5573.158545 kJ/mol
# Density = 2.352059 g / cm^3
# Si number density = 23.574248 Si / 1000 Ang^3
#
#
#
# Elastic Constant Matrix: (Units=GPa)
#
#
# Indices 1 2 3 4 5 6 
#
# 1 147.7781 11.2084 21.1610 0.0000 0.0000 0.0000
# 2 11.2084 82.3154 -10.7080 0.0000 0.0000 0.0000
# 3 21.1610 -10.7080 36.7883 0.0000 0.0000 0.0000
# 4 0.0000 0.0000 0.0000 36.2754 0.0000 0.0000
# 5 0.0000 0.0000 0.0000 0.0000 0.7103 0.0000
# 6 0.0000 0.0000 0.0000 0.0000 0.0000 22.0854
#
#
#
# Elastic Compliance Matrix: (Units=1/GPa)
#
#
# Indices 1 2 3 4 5 6 
#
# 1 0.007587 -0.001664 -0.004849 0.000000 0.000000 0.000000
# 2 -0.001664 0.012991 0.004738 0.000000 0.000000 0.000000
# 3 -0.004849 0.004738 0.031351 0.000000 0.000000 0.000000
# 4 0.000000 0.000000 0.000000 0.027567 0.000000 0.000000
# 5 0.000000 0.000000 0.000000 0.000000 1.407896 0.000000
# 6 0.000000 0.000000 0.000000 0.000000 0.000000 0.045279
#
#
# Mechanical properties :
#
#
# Convention : Reuss Voigt Hill
#
# Bulk Modulus (GPa) = 20.66907 34.46718 27.56812
# Shear Modulus (GPa) = 3.22093 28.16224 15.69159
#
# Velocity S-wave (km/s) = 1.17015 3.46008 2.58277
# Velocity P-wave (km/s) = 3.25766 5.53311 4.54024
#
# Compressibility (1/GPa) = 0.04838147
#
# Stress axis : x y z
#
# Youngs Moduli (GPa) = 131.79738 76.97428 31.89710
#
# Poissons Ratio (x) = 0.12808 0.15466
# Poissons Ratio (y) = 0.21929 -0.15114
# Poissons Ratio (z) = 0.63904 -0.36474
#
# Static dielectric constant tensor:
#      x y z
#    x 1.908980 0.000000 0.000000 
#    y 0.000000 1.980150 0.000000 
#    z 0.000000 0.000000 1.960980 
# 
# From -- ./inp_files/9713.got.cif
#   From: 2010.05.17/outbox.cif.g08.bks.cpg/sg17_5_cif.got.tgz:9713.got - 2010.06.03 22:34:06.
