data_PCOD9310000
_publ_section_title
;
Structure prediction by ZEFSAII (Michael W. Deem and Ramdas Pophale) SiO2 
 PCOD9310000
Probable space group: P 2 2 2
;
_chemical_formula_sum "Si O2"
_cell_formula_units_Z 25
_cell_length_a 15.228599
_cell_length_b 12.789908
_cell_length_c 5.897998
_cell_angle_alpha 90.000000
_cell_angle_beta 90.000000
_cell_angle_gamma 90.000000
_cell_volume 1148.767109
_symmetry_space_group_name_H-M "P 2 2 2"
_symmetry_group_IT_number 16
_symmetry_cell_setting 'orthorhombic'
loop_
_space_group_symop_operation_xyz
x,y,z
-x,-y,z
x,-y,-z
-x,y,-z
loop_
_atom_site_type_symbol
_atom_site_label
_atom_site_fract_x
_atom_site_fract_y
_atom_site_fract_z
Si Si1 0.500000 0.000000 0.500000
Si Si2 0.643535 0.609617 0.921426
Si Si3 0.821552 0.597204 0.648658
Si Si4 0.732706 0.746711 0.293969
Si Si5 0.196588 0.883964 0.079677
Si Si6 0.622932 0.173839 0.321364
Si Si7 0.954215 0.758092 0.752261
O O1 0.447518 0.918094 0.339014
O O2 0.733386 0.576157 0.791745
O O3 0.600979 0.707310 0.773922
O O4 0.599318 0.500000 0.000000
O O5 0.676769 0.666881 0.145428
O O6 0.849292 0.500000 0.500000
O O7 0.788262 0.684940 0.476234
O O8 0.901854 0.648235 0.780013
O O9 0.661641 0.815548 0.425328
O O10 0.799521 0.809284 0.138141
O O11 0.293481 0.865774 0.179942
O O12 0.121215 0.847070 0.248623
O O13 0.182912 0.000000 0.000000
O O14 0.000000 0.757091 0.500000
O O15 0.000000 0.774921 0.000000
#
# Coordination Sequence:
#
# PCOD9310000 Si02
#       7
#     1   4   4   4   4   4   4
#     4  12  24  48  70 114 146 182 244 302 382 444
#     4  10  19  35  69 106 133 185 249 290 359 453
#     4  11  21  38  66  98 133 186 235 298 361 433
#     4  10  18  39  64 100 132 180 233 290 355 437
#     4  11  23  43  68  95 130 187 242 291 375 435
#     4  10  23  40  71 102 139 185 226 309 370 452
#     4  12  27  46  65  99 150 194 250 321 368 441
#
# _framework density 21.762461999999999
#
# number of rings (size 3 to 8) (size 9 to 14) (size 15 to 20)
#    0.000    1.280    6.400    1.920    0.000    0.640 
#    0.000   14.800    0.000    2.880    0.000    0.000 
#    0.000    0.000    0.000    0.000    0.000    0.000 
#
# Total GULP energy -139331.093721 kJ/mol
# GULP energy per Si atom -5573.243749 kJ/mol
# Density = 2.171293 g / cm^3
# Si number density = 21.762462 Si / 1000 Ang^3
#
#
#
# Elastic Constant Matrix: (Units=GPa)
#
#
# Indices 1 2 3 4 5 6 
#
# 1 71.4345 53.4262 31.8101 0.0000 0.0000 0.0000
# 2 53.4262 139.2453 26.8674 0.0000 0.0000 0.0000
# 3 31.8101 26.8674 91.4305 0.0000 0.0000 0.0000
# 4 0.0000 0.0000 0.0000 35.5496 0.0000 0.0000
# 5 0.0000 0.0000 0.0000 0.0000 14.4122 0.0000
# 6 0.0000 0.0000 0.0000 0.0000 0.0000 50.6890
#
#
#
# Elastic Compliance Matrix: (Units=1/GPa)
#
#
# Indices 1 2 3 4 5 6 
#
# 1 0.021942 -0.007363 -0.005470 0.000000 0.000000 0.000000
# 2 -0.007363 0.010084 -0.000402 0.000000 0.000000 0.000000
# 3 -0.005470 -0.000402 0.012958 0.000000 0.000000 0.000000
# 4 0.000000 0.000000 0.000000 0.028130 0.000000 0.000000
# 5 0.000000 0.000000 0.000000 0.000000 0.069386 0.000000
# 6 0.000000 0.000000 0.000000 0.000000 0.000000 0.019728
#
#
# Mechanical properties :
#
#
# Convention : Reuss Voigt Hill
#
# Bulk Modulus (GPa) = 54.01159 58.47975 56.24567
# Shear Modulus (GPa) = 25.65821 32.79725 29.22773
#
# Velocity S-wave (km/s) = 3.43740 3.88629 3.66872
# Velocity P-wave (km/s) = 6.37392 6.86060 6.62174
#
# Compressibility (1/GPa) = 0.01851455
#
# Stress axis : x y z
#
# Youngs Moduli (GPa) = 45.57526 99.16503 77.16998
#
# Poissons Ratio (x) = 0.73018 0.42213
# Poissons Ratio (y) = 0.33558 0.03098
# Poissons Ratio (z) = 0.24930 0.03982
#
# Static dielectric constant tensor:
#      x y z
#    x 1.859670 0.000000 0.000000 
#    y 0.000000 1.844970 0.000000 
#    z 0.000000 0.000000 1.657800 
# 
# From -- ./inp_files/2427.got.cif
#   From: 2010.05.17/outbox.cif.g08.bks.cpg/sg16_2_cif.got.tgz:2427.got - 2010.06.03 22:28:35.
