data_PCOD9310622
_publ_section_title
;
Structure prediction by ZEFSAII (Michael W. Deem and Ramdas Pophale) SiO2 
 PCOD9310622
Probable space group: P 2 2 21
;
_chemical_formula_sum "Si O2"
_cell_formula_units_Z 16
_cell_length_a 7.843776
_cell_length_b 19.799622
_cell_length_c 5.027682
_cell_angle_alpha 90.000000
_cell_angle_beta 90.000000
_cell_angle_gamma 90.000000
_cell_volume 780.818119
_symmetry_space_group_name_H-M "P 2 2 21"
_symmetry_group_IT_number 17
_symmetry_cell_setting 'orthorhombic'
loop_
_space_group_symop_operation_xyz
x,y,z
-x,-y,1/2+z
x,-y,-z
-x,y,1/2-z
loop_
_atom_site_type_symbol
_atom_site_label
_atom_site_fract_x
_atom_site_fract_y
_atom_site_fract_z
Si Si1 0.626769 0.072269 0.499512
Si Si2 0.811153 0.645801 0.364909
Si Si3 0.310315 0.570066 0.631509
Si Si4 0.374151 0.780732 0.999728
O O1 0.500000 0.072140 0.250000
O O2 0.715540 0.145357 0.491465
O O3 0.722753 0.000000 0.500000
O O4 0.500000 0.072261 0.750000
O O5 0.795990 0.595382 0.615175
O O6 0.752074 0.718364 0.471676
O O7 0.000000 0.647280 0.250000
O O8 0.695620 0.622405 0.114182
O O9 0.251951 0.500000 0.500000
O O10 0.500000 0.561683 0.750000
O O11 0.500000 0.780401 0.250000
O O12 0.500000 0.772567 0.750000
#
# Coordination Sequence:
#
# PCOD9310622 Si02
#       4
#     4   4   4   4
#     4   8  14  25  44  75 109 140 183 237 281 317
#     4  12  25  40  60  89 122 152 186 234 288 342
#     4  12  25  44  66  86 111 148 193 236 284 343
#     4  10  19  33  56  82 112 152 194 235 279 334
#
# _framework density 20.491330999999999
#
# number of rings (size 3 to 8) (size 9 to 14) (size 15 to 20)
#    0.000    1.500    0.000    7.500    0.000    2.000 
#    0.000    1.250    0.000    0.000    0.000   21.000 
#    0.000    0.000    0.000    0.000    0.000    0.000 
#
# Total GULP energy -89323.272984 kJ/mol
# GULP energy per Si atom -5582.704562 kJ/mol
# Density = 2.044469 g / cm^3
# Si number density = 20.491331 Si / 1000 Ang^3
#
#
#
# Elastic Constant Matrix: (Units=GPa)
#
#
# Indices 1 2 3 4 5 6 
#
# 1 52.4941 51.3608 32.0311 0.0000 0.0000 0.0000
# 2 51.3608 196.6778 58.5819 0.0000 0.0000 0.0000
# 3 32.0311 58.5819 175.1756 0.0000 0.0000 0.0000
# 4 0.0000 0.0000 0.0000 32.3101 0.0000 0.0000
# 5 0.0000 0.0000 0.0000 0.0000 28.8137 0.0000
# 6 0.0000 0.0000 0.0000 0.0000 0.0000 -7.3215
#
#
#
# Elastic Compliance Matrix: (Units=1/GPa)
#
#
# Indices 1 2 3 4 5 6 
#
# 1 0.026805 -0.006153 -0.002844 0.000000 0.000000 0.000000
# 2 -0.006153 0.007059 -0.001236 0.000000 0.000000 0.000000
# 3 -0.002844 -0.001236 0.006642 0.000000 0.000000 0.000000
# 4 0.000000 0.000000 0.000000 0.030950 0.000000 0.000000
# 5 0.000000 0.000000 0.000000 0.000000 0.034706 0.000000
# 6 0.000000 0.000000 0.000000 0.000000 0.000000 -0.136583
#
#
# Mechanical properties :
#
#
# Convention : Reuss Voigt Hill
#
# Bulk Modulus (GPa) = 49.89641 78.69947 64.29794
# Shear Modulus (GPa) = -1526.01888 29.58536 -748.21676
#
# Velocity S-wave (km/s) = -27.31906 3.80386 -19.12932
# Velocity P-wave (km/s) = 31.15614 7.60145 21.36496
#
# Compressibility (1/GPa) = 0.02004152
#
# Stress axis : x y z
#
# Youngs Moduli (GPa) = 37.30641 141.65711 150.56228
#
# Poissons Ratio (x) = 0.87160 0.42815
# Poissons Ratio (y) = 0.22954 0.18605
# Poissons Ratio (z) = 0.10609 0.17504
#
# Static dielectric constant tensor:
#      x y z
#    x 1.691050 0.000000 0.000000 
#    y 0.000000 1.847660 0.000000 
#    z 0.000000 0.000000 1.690240 
# 
# From -- ./inp_files/742.got.cif
#   From: 2010.05.17/outbox.cif.g08.bks.cpg/sg17_1_cif.got.tgz:742.got - 2010.06.03 22:34:06.
