data_PCOD9310351
_publ_section_title
;
Structure prediction by ZEFSAII (Michael W. Deem and Ramdas Pophale) SiO2 
 PCOD9310351
Probable space group: P 2 2 2
;
_chemical_formula_sum "Si O2"
_cell_formula_units_Z 13
_cell_length_a 6.353217
_cell_length_b 5.027283
_cell_length_c 16.480041
_cell_angle_alpha 90.000000
_cell_angle_beta 90.000000
_cell_angle_gamma 90.000000
_cell_volume 526.362948
_symmetry_space_group_name_H-M "P 2 2 2"
_symmetry_group_IT_number 16
_symmetry_cell_setting 'orthorhombic'
loop_
_space_group_symop_operation_xyz
x,y,z
-x,-y,z
x,-y,-z
-x,y,-z
loop_
_atom_site_type_symbol
_atom_site_label
_atom_site_fract_x
_atom_site_fract_y
_atom_site_fract_z
Si Si1 0.360895 0.261582 0.157726
Si Si2 0.500000 0.500000 0.500000
Si Si3 0.714541 0.125474 0.370962
Si Si4 0.500000 0.500000 0.000000
Si Si5 0.000000 0.000000 0.500000
Si Si6 0.000000 0.500000 0.257522
O O1 0.500000 0.500000 0.194110
O O2 0.140858 0.302218 0.202087
O O3 0.500000 0.000000 0.164280
O O4 0.356328 0.330335 0.061501
O O5 0.640529 0.327156 0.439927
O O6 0.854409 0.298945 0.309841
O O7 0.500000 0.000000 0.336129
O O8 0.837266 0.907208 0.427578
#
# Coordination Sequence:
#
# PCOD9310351 Si02
#       6
#     4   1   4   1   1   2
#     4  10  25  51  83 121 167 213 267 336 402 496
#     4  12  22  52  68  98 146 202 270 346 402 458
#     4  12  27  49  74 108 154 207 278 351 395 490
#     4   8  22  52  86 116 176 210 266 342 386 494
#     4  12  22  50  76  98 146 226 282 326 428 472
#     4  12  30  48  84 120 162 220 270 330 440 468
#
# _framework density 24.697789
#
# number of rings (size 3 to 8) (size 9 to 14) (size 15 to 20)
#    0.923    0.000    3.077    2.308    2.154    5.538 
#    0.000    0.000    6.769    0.000    0.000    0.000 
#    0.000    0.000    0.000    0.000    0.000    0.000 
#
# Total GULP energy -72423.599908 kJ/mol
# GULP energy per Si atom -5571.046147 kJ/mol
# Density = 2.464158 g / cm^3
# Si number density = 24.697789 Si / 1000 Ang^3
#
#
#
# Elastic Constant Matrix: (Units=GPa)
#
#
# Indices 1 2 3 4 5 6 
#
# 1 162.8919 72.4496 119.2313 0.0000 0.0000 0.0000
# 2 72.4496 154.1871 70.5336 0.0000 0.0000 0.0000
# 3 119.2313 70.5336 216.8326 0.0000 0.0000 0.0000
# 4 0.0000 0.0000 0.0000 15.9903 0.0000 0.0000
# 5 0.0000 0.0000 0.0000 0.0000 49.4466 0.0000
# 6 0.0000 0.0000 0.0000 0.0000 0.0000 43.8435
#
#
#
# Elastic Compliance Matrix: (Units=1/GPa)
#
#
# Indices 1 2 3 4 5 6 
#
# 1 0.011275 -0.002892 -0.005259 0.000000 0.000000 0.000000
# 2 -0.002892 0.008361 -0.001130 0.000000 0.000000 0.000000
# 3 -0.005259 -0.001130 0.007871 0.000000 0.000000 0.000000
# 4 0.000000 0.000000 0.000000 0.062538 0.000000 0.000000
# 5 0.000000 0.000000 0.000000 0.000000 0.020224 0.000000
# 6 0.000000 0.000000 0.000000 0.000000 0.000000 0.022808
#
#
# Mechanical properties :
#
#
# Convention : Reuss Voigt Hill
#
# Bulk Modulus (GPa) = 111.78285 117.59339 114.68812
# Shear Modulus (GPa) = 32.33730 39.96922 36.15326
#
# Velocity S-wave (km/s) = 3.62238 4.02721 3.83015
# Velocity P-wave (km/s) = 7.92805 8.32712 8.13003
#
# Compressibility (1/GPa) = 0.00894592
#
# Stress axis : x y z
#
# Youngs Moduli (GPa) = 88.69408 119.59897 127.04756
#
# Poissons Ratio (x) = 0.34589 0.66814
# Poissons Ratio (y) = 0.25651 0.14351
# Poissons Ratio (z) = 0.46644 0.13510
#
# Static dielectric constant tensor:
#      x y z
#    x 2.128750 0.000000 0.000000 
#    y 0.000000 1.971240 0.000000 
#    z 0.000000 0.000000 1.965450 
# 
# From -- ./inp_files/8440.got.cif
#   From: 2010.05.17/outbox.cif.g08.bks.cpg/sg16_5_cif.got.tgz:8440.got - 2010.06.03 22:28:35.
