data_PCOD9310817
_publ_section_title
;
Structure prediction by ZEFSAII (Michael W. Deem and Ramdas Pophale) SiO2 
 PCOD9310817
Probable space group: P 2 2 21
;
_chemical_formula_sum "Si O2"
_cell_formula_units_Z 30
_cell_length_a 5.450709
_cell_length_b 11.253511
_cell_length_c 19.982883
_cell_angle_alpha 90.000000
_cell_angle_beta 90.000000
_cell_angle_gamma 90.000000
_cell_volume 1225.742324
_symmetry_space_group_name_H-M "P 2 2 21"
_symmetry_group_IT_number 17
_symmetry_cell_setting 'orthorhombic'
loop_
_space_group_symop_operation_xyz
x,y,z
-x,-y,1/2+z
x,-y,-z
-x,y,1/2-z
loop_
_atom_site_type_symbol
_atom_site_label
_atom_site_fract_x
_atom_site_fract_y
_atom_site_fract_z
Si Si1 0.194755 0.197873 0.081408
Si Si2 0.500000 0.415912 0.750000
Si Si3 0.878481 0.398214 0.314722
Si Si4 0.898577 0.992648 0.315419
Si Si5 0.608889 0.070798 0.848561
Si Si6 0.695391 0.881417 0.955473
Si Si7 0.489720 0.309525 0.894859
Si Si8 0.976315 0.564673 0.070058
O O1 0.236934 0.299859 0.136441
O O2 0.436777 0.185882 0.037334
O O3 0.933949 0.203258 0.042894
O O4 0.150250 0.075158 0.121310
O O5 0.293696 0.505187 0.778592
O O6 0.545584 0.336127 0.815599
O O7 0.042204 0.471973 0.367600
O O8 0.000000 0.338193 0.250000
O O9 0.633385 0.938122 0.303836
O O10 0.000000 0.059256 0.250000
O O11 0.114706 0.897656 0.326524
O O12 0.525896 0.169194 0.901218
O O13 0.658336 0.941136 0.881290
O O14 0.732641 0.000000 0.000000
O O15 0.218152 0.355793 0.913267
O O16 0.711909 0.373466 0.932844
O O17 0.027514 0.500000 0.000000
#
# Coordination Sequence:
#
# PCOD9310817 Si02
#       8
#     4   2   4   4   4   4   4   4
#     4  10  23  37  63  90 121 164 212 254 327 378
#     4  10  24  40  64  92 130 170 218 282 332 400
#     4  11  23  43  65  95 131 174 220 283 341 399
#     4  10  20  37  53  87 118 153 190 252 300 377
#     4  10  22  37  59  86 121 156 205 248 311 370
#     4  10  22  41  61  91 128 165 211 261 312 388
#     4  11  23  42  63  93 125 170 216 264 332 387
#     4  11  25  43  65  94 130 168 222 274 325 394
#
# _framework density 24.474964
#
# number of rings (size 3 to 8) (size 9 to 14) (size 15 to 20)
#    0.000    1.600    1.333    2.400    3.733    2.133 
#    2.400    0.000    0.000    0.000    0.000    0.000 
#    0.000    0.000    0.000    0.000    0.000    0.000 
#
# Total GULP energy -167353.861481 kJ/mol
# GULP energy per Si atom -5578.462049 kJ/mol
# Density = 2.441926 g / cm^3
# Si number density = 24.474964 Si / 1000 Ang^3
#
#
#
# Elastic Constant Matrix: (Units=GPa)
#
#
# Indices 1 2 3 4 5 6 
#
# 1 169.3429 17.9834 39.7408 0.0000 0.0000 0.0000
# 2 17.9834 57.9588 9.2392 0.0000 0.0000 0.0000
# 3 39.7408 9.2392 105.4058 0.0000 0.0000 0.0000
# 4 0.0000 0.0000 0.0000 -1.6272 0.0000 0.0000
# 5 0.0000 0.0000 0.0000 0.0000 33.8256 0.0000
# 6 0.0000 0.0000 0.0000 0.0000 0.0000 1.9924
#
#
#
# Elastic Compliance Matrix: (Units=1/GPa)
#
#
# Indices 1 2 3 4 5 6 
#
# 1 0.006637 -0.001684 -0.002355 0.000000 0.000000 0.000000
# 2 -0.001684 0.017925 -0.000936 0.000000 0.000000 0.000000
# 3 -0.002355 -0.000936 0.010457 0.000000 0.000000 0.000000
# 4 0.000000 0.000000 0.000000 -0.614559 0.000000 0.000000
# 5 0.000000 0.000000 0.000000 0.000000 0.029563 0.000000
# 6 0.000000 0.000000 0.000000 0.000000 0.000000 0.501900
#
#
# Mechanical properties :
#
#
# Convention : Reuss Voigt Hill
#
# Bulk Modulus (GPa) = 39.88941 51.84827 45.86884
# Shear Modulus (GPa) = -167.94492 24.55444 -71.69524
#
# Velocity S-wave (km/s) = -8.29265 3.17084 -5.41820
# Velocity P-wave (km/s) = 8.68086 5.88522 4.51228
#
# Compressibility (1/GPa) = 0.02506931
#
# Stress axis : x y z
#
# Youngs Moduli (GPa) = 150.68051 55.78690 95.63015
#
# Poissons Ratio (x) = 0.09394 0.22517
# Poissons Ratio (y) = 0.25372 0.08954
# Poissons Ratio (z) = 0.35479 0.05224
#
# Static dielectric constant tensor:
#      x y z
#    x 2.132670 0.000000 0.000000 
#    y 0.000000 1.947500 0.000000 
#    z 0.000000 0.000000 1.519650 
# 
# From -- ./inp_files/9944.got.cif
#   From: 2010.05.17/outbox.cif.g08.bks.cpg/sg17_5_cif.got.tgz:9944.got - 2010.06.03 22:34:06.
