data_PCOD9310447
_publ_section_title
;
Structure prediction by ZEFSAII (Michael W. Deem and Ramdas Pophale) SiO2 
 PCOD9310447
Probable space group: P 2 2 21
;
_chemical_formula_sum "Si O2"
_cell_formula_units_Z 26
_cell_length_a 5.211515
_cell_length_b 8.092727
_cell_length_c 31.124677
_cell_angle_alpha 90.000000
_cell_angle_beta 90.000000
_cell_angle_gamma 90.000000
_cell_volume 1312.694711
_symmetry_space_group_name_H-M "P 2 2 21"
_symmetry_group_IT_number 17
_symmetry_cell_setting 'orthorhombic'
loop_
_space_group_symop_operation_xyz
x,y,z
-x,-y,1/2+z
x,-y,-z
-x,y,1/2-z
loop_
_atom_site_type_symbol
_atom_site_label
_atom_site_fract_x
_atom_site_fract_y
_atom_site_fract_z
Si Si1 0.604680 0.449968 0.792845
Si Si2 0.000000 0.803544 0.250000
Si Si3 0.887772 0.380936 0.591700
Si Si4 0.751466 0.169494 0.668641
Si Si5 0.000729 0.932283 0.047704
Si Si6 0.497792 0.043628 0.097648
Si Si7 0.371151 0.578906 0.614850
O O1 0.500000 0.539014 0.750000
O O2 0.389834 0.326829 0.811117
O O3 0.673280 0.558957 0.833765
O O4 0.817218 0.322282 0.776007
O O5 0.878252 0.908422 0.288932
O O6 0.928533 0.252783 0.631918
O O7 0.611264 0.465342 0.599164
O O8 0.914590 0.259929 0.551153
O O9 0.112332 0.513859 0.592937
O O10 0.563506 0.050024 0.642419
O O11 0.732098 0.957963 0.072528
O O12 0.234248 0.028267 0.070859
O O13 0.971766 0.000000 0.000000
O O14 0.568554 0.232850 0.104746
#
# Coordination Sequence:
#
# PCOD9310447 Si02
#       7
#     4   2   4   4   4   4   4
#     4   9  18  32  55  83 115 162 210 245 285 358
#     4  10  16  32  58  90 112 162 228 252 278 346
#     4  10  20  38  64  85 116 166 202 232 302 378
#     4   9  19  33  58  85 117 162 213 250 288 357
#     4  11  23  44  67  92 118 157 206 253 302 377
#     4  11  24  39  64  92 127 155 197 259 319 355
#     4  11  21  39  59  91 124 163 195 247 310 364
#
# _framework density 19.806585999999999
#
# number of rings (size 3 to 8) (size 9 to 14) (size 15 to 20)
#    0.000    1.846    1.538    4.154    2.154    0.000 
#    0.000    6.923    0.000    0.923    0.000    0.000 
#    0.000    0.000    0.000    0.000    0.000    0.000 
#
# Total GULP energy -144941.697268 kJ/mol
# GULP energy per Si atom -5574.680664 kJ/mol
# Density = 1.976151 g / cm^3
# Si number density = 19.806586 Si / 1000 Ang^3
#
#
#
# Elastic Constant Matrix: (Units=GPa)
#
#
# Indices 1 2 3 4 5 6 
#
# 1 80.1642 -4.2092 19.6003 0.0000 0.0000 0.0000
# 2 -4.2092 54.7959 -1.1269 0.0000 0.0000 0.0000
# 3 19.6003 -1.1269 40.5950 0.0000 0.0000 0.0000
# 4 0.0000 0.0000 0.0000 6.5125 0.0000 0.0000
# 5 0.0000 0.0000 0.0000 0.0000 26.2227 0.0000
# 6 0.0000 0.0000 0.0000 0.0000 0.0000 30.0892
#
#
#
# Elastic Compliance Matrix: (Units=1/GPa)
#
#
# Indices 1 2 3 4 5 6 
#
# 1 0.014193 0.000950 -0.006827 0.000000 0.000000 0.000000
# 2 0.000950 0.018324 0.000050 0.000000 0.000000 0.000000
# 3 -0.006827 0.000050 0.027931 0.000000 0.000000 0.000000
# 4 0.000000 0.000000 0.000000 0.153551 0.000000 0.000000
# 5 0.000000 0.000000 0.000000 0.000000 0.038135 0.000000
# 6 0.000000 0.000000 0.000000 0.000000 0.000000 0.033234
#
#
# Mechanical properties :
#
#
# Convention : Reuss Voigt Hill
#
# Bulk Modulus (GPa) = 20.49407 22.67595 21.58501
# Shear Modulus (GPa) = 15.95982 23.31762 19.63872
#
# Velocity S-wave (km/s) = 2.84171 3.43485 3.15226
# Velocity P-wave (km/s) = 4.59746 5.21579 4.91636
#
# Compressibility (1/GPa) = 0.04879459
#
# Stress axis : x y z
#
# Youngs Moduli (GPa) = 70.45537 54.57466 35.80253
#
# Poissons Ratio (x) = -0.05184 0.24441
# Poissons Ratio (y) = -0.06693 -0.00179
# Poissons Ratio (z) = 0.48097 -0.00273
#
# Static dielectric constant tensor:
#      x y z
#    x 1.873480 0.000000 0.000000 
#    y 0.000000 1.672240 0.000000 
#    z 0.000000 0.000000 1.917490 
# 
# From -- ./inp_files/11129.got.cif
#   From: 2010.05.17/outbox.cif.g08.bks.cpg/sg17_6_cif.got.tgz:11129.got - 2010.06.03 22:34:06.
