data_PCOD9310584
_publ_section_title
;
Structure prediction by ZEFSAII (Michael W. Deem and Ramdas Pophale) SiO2 
 PCOD9310584
Probable space group: P 2 2 21
;
_chemical_formula_sum "Si O2"
_cell_formula_units_Z 26
_cell_length_a 14.369662
_cell_length_b 13.180912
_cell_length_c 8.038911
_cell_angle_alpha 90.000000
_cell_angle_beta 90.000000
_cell_angle_gamma 90.000000
_cell_volume 1522.611950
_symmetry_space_group_name_H-M "P 2 2 21"
_symmetry_group_IT_number 17
_symmetry_cell_setting 'orthorhombic'
loop_
_space_group_symop_operation_xyz
x,y,z
-x,-y,1/2+z
x,-y,-z
-x,y,1/2-z
loop_
_atom_site_type_symbol
_atom_site_label
_atom_site_fract_x
_atom_site_fract_y
_atom_site_fract_z
Si Si1 0.781991 0.000000 0.500000
Si Si2 0.624439 0.611870 0.054506
Si Si3 0.898859 0.067896 0.169927
Si Si4 0.414286 0.388217 0.944239
Si Si5 0.651110 0.181041 0.429193
Si Si6 0.500000 0.070971 0.250000
Si Si7 0.742482 0.798129 0.930313
Si Si8 0.644632 0.000000 0.000000
O O1 0.839364 0.980287 0.673141
O O2 0.715489 0.901671 0.481036
O O3 0.598095 0.610520 0.247093
O O4 0.519391 0.628186 0.982002
O O5 0.656147 0.500000 0.000000
O O6 0.701113 0.697280 0.014144
O O7 0.849137 0.172997 0.110881
O O8 0.000000 0.083236 0.250000
O O9 0.904331 0.000000 0.000000
O O10 0.384286 0.500000 0.000000
O O11 0.355055 0.291469 0.995471
O O12 0.548383 0.135794 0.395823
O O13 0.692330 0.197370 0.246928
O O14 0.419565 0.008591 0.338076
O O15 0.705124 0.899401 0.020131
#
# Coordination Sequence:
#
# PCOD9310584 Si02
#       8
#     2   4   4   4   4   2   4   2
#     4  10  23  37  56  88 116 152 188 233 295 348
#     4  10  21  34  51  77 110 153 198 236 274 317
#     4  11  22  40  62  86 116 146 180 236 301 371
#     4  10  20  33  51  73 108 157 202 236 269 313
#     4  10  20  33  49  74 111 149 192 235 267 328
#     4  10  20  30  46  72 112 156 188 222 272 320
#     4  10  21  34  53  78 109 140 183 234 283 331
#     4  10  19  31  46  74 110 148 182 227 267 324
#
# _framework density 17.075921999999998
#
# number of rings (size 3 to 8) (size 9 to 14) (size 15 to 20)
#    0.000    1.846    1.538    3.231    2.154    4.923 
#    0.000    0.000    0.000    0.000    0.000    9.692 
#    0.000    0.000    0.000    0.000    0.000    0.000 
#
# Total GULP energy -144766.287845 kJ/mol
# GULP energy per Si atom -5567.934148 kJ/mol
# Density = 1.703706 g / cm^3
# Si number density = 17.075922 Si / 1000 Ang^3
#
#
#
# Elastic Constant Matrix: (Units=GPa)
#
#
# Indices 1 2 3 4 5 6 
#
# 1 98.0284 68.9745 33.9872 0.0000 0.0000 0.0000
# 2 68.9745 150.0597 43.1483 0.0000 0.0000 0.0000
# 3 33.9872 43.1483 67.0719 0.0000 0.0000 0.0000
# 4 0.0000 0.0000 0.0000 27.8506 0.0000 0.0000
# 5 0.0000 0.0000 0.0000 0.0000 20.6376 0.0000
# 6 0.0000 0.0000 0.0000 0.0000 0.0000 22.1124
#
#
#
# Elastic Compliance Matrix: (Units=1/GPa)
#
#
# Indices 1 2 3 4 5 6 
#
# 1 0.015959 -0.006147 -0.004132 0.000000 0.000000 0.000000
# 2 -0.006147 0.010544 -0.003668 0.000000 0.000000 0.000000
# 3 -0.004132 -0.003668 0.019363 0.000000 0.000000 0.000000
# 4 0.000000 0.000000 0.000000 0.035906 0.000000 0.000000
# 5 0.000000 0.000000 0.000000 0.000000 0.048455 0.000000
# 6 0.000000 0.000000 0.000000 0.000000 0.000000 0.045223
#
#
# Mechanical properties :
#
#
# Convention : Reuss Voigt Hill
#
# Bulk Modulus (GPa) = 55.64567 67.48666 61.56617
# Shear Modulus (GPa) = 23.88485 25.39013 24.63749
#
# Velocity S-wave (km/s) = 3.74404 3.86021 3.80257
# Velocity P-wave (km/s) = 7.16578 7.71205 7.44392
#
# Compressibility (1/GPa) = 0.01797085
#
# Stress axis : x y z
#
# Youngs Moduli (GPa) = 62.65955 94.83665 51.64442
#
# Poissons Ratio (x) = 0.58300 0.21341
# Poissons Ratio (y) = 0.38519 0.18945
# Poissons Ratio (z) = 0.25893 0.34789
#
# Static dielectric constant tensor:
#      x y z
#    x 1.617230 0.000000 0.000000 
#    y 0.000000 1.639530 0.000000 
#    z 0.000000 0.000000 1.601510 
# 
# From -- ./inp_files/5216.got.cif
#   From: 2010.05.17/outbox.cif.g08.bks.cpg/sg17_3_cif.got.tgz:5216.got - 2010.06.03 22:34:06.
