data_PCOD9310009
_publ_section_title
;
Structure prediction by ZEFSAII (Michael W. Deem and Ramdas Pophale) SiO2 
 PCOD9310009
Probable space group: P 2 2 2
;
_chemical_formula_sum "Si O2"
_cell_formula_units_Z 25
_cell_length_a 5.721738
_cell_length_b 12.318229
_cell_length_c 14.222191
_cell_angle_alpha 90.000000
_cell_angle_beta 90.000000
_cell_angle_gamma 90.000000
_cell_volume 1002.403900
_symmetry_space_group_name_H-M "P 2 2 2"
_symmetry_group_IT_number 16
_symmetry_cell_setting 'orthorhombic'
loop_
_space_group_symop_operation_xyz
x,y,z
-x,-y,z
x,-y,-z
-x,y,-z
loop_
_atom_site_type_symbol
_atom_site_label
_atom_site_fract_x
_atom_site_fract_y
_atom_site_fract_z
Si Si1 0.482855 0.664163 0.170718
Si Si2 0.500000 0.500000 0.657321
Si Si3 0.896157 0.888354 0.103044
Si Si4 0.982158 0.660750 0.166286
Si Si5 0.993136 0.131129 0.606735
Si Si6 0.490711 0.868885 0.294044
Si Si7 0.500000 0.000000 0.000000
Si Si8 0.000000 0.500000 0.340121
O O1 0.490096 0.600027 0.269435
O O2 0.728492 0.633516 0.121891
O O3 0.483470 0.789106 0.204089
O O4 0.236009 0.637044 0.122398
O O5 0.248313 0.500288 0.608429
O O6 0.961907 0.790344 0.168695
O O7 0.645525 0.924132 0.067891
O O8 0.000000 0.000000 0.142838
O O9 0.000000 0.861379 0.000000
O O10 0.990474 0.601714 0.266926
O O11 0.736179 0.157126 0.651281
O O12 0.000000 0.174117 0.500000
O O13 0.246616 0.158058 0.652667
O O14 0.000000 0.000000 0.604097
O O15 0.500000 0.000000 0.276697
#
# Coordination Sequence:
#
# PCOD9310009 Si02
#       8
#     4   2   4   4   4   4   1   2
#     4  10  20  32  50  74  99 129 156 199 245 291
#     4   8  16  32  48  66  94 126 168 186 226 292
#     4   9  20  34  51  72  94 131 166 206 235 287
#     4  10  20  33  53  72  97 127 163 196 250 297
#     4   9  17  30  48  67  94 133 166 192 230 282
#     4  10  19  30  45  71 104 123 155 201 240 279
#     4   8  18  36  52  66 102 124 178 204 236 278
#     4   8  16  32  49  72  92 120 155 208 234 282
#
# _framework density 24.940045000000001
#
# number of rings (size 3 to 8) (size 9 to 14) (size 15 to 20)
#    0.000    2.880    0.000    1.440    4.480    3.200 
#    0.000    0.400    0.000    0.000    0.000    3.360 
#    0.000    0.000    0.000    0.000    0.000    0.000 
#
# Total GULP energy -139262.279484 kJ/mol
# GULP energy per Si atom -5570.491179 kJ/mol
# Density = 2.488328 g / cm^3
# Si number density = 24.940045 Si / 1000 Ang^3
#
#
#
# Elastic Constant Matrix: (Units=GPa)
#
#
# Indices 1 2 3 4 5 6 
#
# 1 322.9604 19.5503 49.7482 0.0000 0.0000 0.0000
# 2 19.5503 127.5080 36.7687 0.0000 0.0000 0.0000
# 3 49.7482 36.7687 81.4607 0.0000 0.0000 0.0000
# 4 0.0000 0.0000 0.0000 0.6379 0.0000 0.0000
# 5 0.0000 0.0000 0.0000 0.0000 9.9872 0.0000
# 6 0.0000 0.0000 0.0000 0.0000 0.0000 23.1331
#
#
#
# Elastic Compliance Matrix: (Units=1/GPa)
#
#
# Indices 1 2 3 4 5 6 
#
# 1 0.003419 0.000090 -0.002128 0.000000 0.000000 0.000000
# 2 0.000090 0.009019 -0.004125 0.000000 0.000000 0.000000
# 3 -0.002128 -0.004125 0.015438 0.000000 0.000000 0.000000
# 4 0.000000 0.000000 0.000000 1.567644 0.000000 0.000000
# 5 0.000000 0.000000 0.000000 0.000000 0.100128 0.000000
# 6 0.000000 0.000000 0.000000 0.000000 0.000000 0.043228
#
#
# Mechanical properties :
#
#
# Convention : Reuss Voigt Hill
#
# Bulk Modulus (GPa) = 64.32199 82.67371 73.49785
# Shear Modulus (GPa) = 2.84675 35.14243 18.99459
#
# Velocity S-wave (km/s) = 1.06954 3.75784 2.76272
# Velocity P-wave (km/s) = 5.23181 7.21453 6.30164
#
# Compressibility (1/GPa) = 0.01554678
#
# Stress axis : x y z
#
# Youngs Moduli (GPa) = 292.50298 110.88300 64.77681
#
# Poissons Ratio (x) = -0.00993 0.13786
# Poissons Ratio (y) = -0.02619 0.26723
# Poissons Ratio (z) = 0.62252 0.45743
#
# Static dielectric constant tensor:
#      x y z
#    x 2.176220 0.000000 0.000000 
#    y 0.000000 1.970080 0.000000 
#    z 0.000000 0.000000 1.941690 
# 
# From -- ./inp_files/8649.got.cif
#   From: 2010.05.17/outbox.cif.g08.bks.cpg/sg16_5_cif.got.tgz:8649.got - 2010.06.03 22:28:35.
