data_PCOD9310181
_publ_section_title
;
Structure prediction by ZEFSAII (Michael W. Deem and Ramdas Pophale) SiO2 
 PCOD9310181
Probable space group: P 2 2 2
;
_chemical_formula_sum "Si O2"
_cell_formula_units_Z 32
_cell_length_a 13.380457
_cell_length_b 7.418611
_cell_length_c 18.859597
_cell_angle_alpha 90.000000
_cell_angle_beta 90.000000
_cell_angle_gamma 90.000000
_cell_volume 1872.086684
_symmetry_space_group_name_H-M "P 2 2 2"
_symmetry_group_IT_number 16
_symmetry_cell_setting 'orthorhombic'
loop_
_space_group_symop_operation_xyz
x,y,z
-x,-y,z
x,-y,-z
-x,y,-z
loop_
_atom_site_type_symbol
_atom_site_label
_atom_site_fract_x
_atom_site_fract_y
_atom_site_fract_z
Si Si1 0.384557 0.287131 0.860589
Si Si2 0.266178 0.286105 0.717349
Si Si3 0.614792 0.280546 0.579797
Si Si4 0.762870 0.000000 0.920761
Si Si5 0.385208 0.719454 0.420203
Si Si6 0.615443 0.287131 0.860589
Si Si7 0.266178 0.713895 0.717349
Si Si8 0.118286 0.000000 0.222778
O O1 0.348635 0.258650 0.779354
O O2 0.500000 0.234284 0.869402
O O3 0.375989 0.500000 0.875538
O O4 0.309518 0.170813 0.907543
O O5 0.312523 0.224700 0.642768
O O6 0.245215 0.500000 0.714307
O O7 0.170454 0.172251 0.740513
O O8 0.643030 0.224696 0.500000
O O9 0.500000 0.224371 0.592708
O O10 0.614372 0.500000 0.580692
O O11 0.687477 0.224700 0.642768
O O12 0.690482 0.170813 0.907543
O O13 0.845424 0.000000 0.859078
O O14 0.803351 0.000000 0.000000
O O15 0.651365 0.258650 0.779354
O O16 0.170454 0.827749 0.740513
O O17 0.000000 0.000000 0.228832
#
# Coordination Sequence:
#
# PCOD9310181 Si02
#       8
#     4   4   4   4   4   4   4   4
#     4   9  17  29  47  72 101 132 160 183 216 271
#     4   9  17  31  51  72  97 128 160 197 236 274
#     4   8  13  23  44  75 107 136 162 187 222 272
#     4  10  21  35  50  70  95 120 150 192 239 286
#     4   8  13  23  44  75 107 136 162 187 222 272
#     4   9  17  29  47  72 101 132 160 183 216 271
#     4   9  17  31  51  72  97 128 160 197 236 274
#     4  10  22  38  54  71  87 112 159 209 249 288
#
# _framework density 17.093225
#
# number of rings (size 3 to 8) (size 9 to 14) (size 15 to 20)
#    0.000    3.000    0.000    1.875    0.000    5.250 
#    0.000    3.750    0.000    3.000    0.000   10.500 
#    0.000    0.000    0.000    0.000    0.000    0.000 
#
# Total GULP energy -178455.566187 kJ/mol
# GULP energy per Si atom -5576.736443 kJ/mol
# Density = 1.705432 g / cm^3
# Si number density = 17.093225 Si / 1000 Ang^3
#
#
#
# Elastic Constant Matrix: (Units=GPa)
#
#
# Indices 1 2 3 4 5 6 
#
# 1 97.8367 26.3531 56.1226 0.0000 0.0000 0.0000
# 2 26.3531 57.1173 32.6322 0.0000 0.0000 0.0000
# 3 56.1226 32.6322 133.2829 0.0000 0.0000 0.0000
# 4 0.0000 0.0000 0.0000 8.9846 0.0000 0.0000
# 5 0.0000 0.0000 0.0000 0.0000 7.1945 0.0000
# 6 0.0000 0.0000 0.0000 0.0000 0.0000 17.7426
#
#
#
# Elastic Compliance Matrix: (Units=1/GPa)
#
#
# Indices 1 2 3 4 5 6 
#
# 1 0.014091 -0.003618 -0.005048 0.000000 0.000000 0.000000
# 2 -0.003618 0.021284 -0.003688 0.000000 0.000000 0.000000
# 3 -0.005048 -0.003688 0.010531 0.000000 0.000000 0.000000
# 4 0.000000 0.000000 0.000000 0.111302 0.000000 0.000000
# 5 0.000000 0.000000 0.000000 0.000000 0.138995 0.000000
# 6 0.000000 0.000000 0.000000 0.000000 0.000000 0.056362
#
#
# Mechanical properties :
#
#
# Convention : Reuss Voigt Hill
#
# Bulk Modulus (GPa) = 47.16973 57.60585 52.38779
# Shear Modulus (GPa) = 13.00943 18.32628 15.66785
#
# Velocity S-wave (km/s) = 2.76177 3.27790 3.03084
# Velocity P-wave (km/s) = 6.15023 6.93544 6.55460
#
# Compressibility (1/GPa) = 0.02120004
#
# Stress axis : x y z
#
# Youngs Moduli (GPa) = 70.96678 46.98414 94.95566
#
# Poissons Ratio (x) = 0.16997 0.47931
# Poissons Ratio (y) = 0.25673 0.35017
# Poissons Ratio (z) = 0.35822 0.17326
#
# Static dielectric constant tensor:
#      x y z
#    x 1.519190 0.000000 0.000000 
#    y 0.000000 1.621540 0.000000 
#    z 0.000000 0.000000 1.588740 
# 
# From -- ./inp_files/4907.got.cif
#   From: 2010.05.17/outbox.cif.g08.bks.cpg/sg16_3_cif.got.tgz:4907.got - 2010.06.03 22:28:35.
