data_PCOD9310722
_publ_section_title
;
Structure prediction by ZEFSAII (Michael W. Deem and Ramdas Pophale) SiO2 
 PCOD9310722
Probable space group: P 2 2 21
;
_chemical_formula_sum "Si O2"
_cell_formula_units_Z 20
_cell_length_a 7.289203
_cell_length_b 14.830482
_cell_length_c 7.668373
_cell_angle_alpha 90.000000
_cell_angle_beta 90.000000
_cell_angle_gamma 90.000000
_cell_volume 828.969479
_symmetry_space_group_name_H-M "P 2 2 21"
_symmetry_group_IT_number 17
_symmetry_cell_setting 'orthorhombic'
loop_
_space_group_symop_operation_xyz
x,y,z
-x,-y,1/2+z
x,-y,-z
-x,y,1/2-z
loop_
_atom_site_type_symbol
_atom_site_label
_atom_site_fract_x
_atom_site_fract_y
_atom_site_fract_z
Si Si1 0.725432 0.261700 0.271764
Si Si2 0.193248 0.874301 0.324909
Si Si3 0.718206 0.930272 0.774937
Si Si4 0.712613 0.602071 0.440034
Si Si5 0.304981 0.684359 0.396520
O O1 0.500000 0.258771 0.250000
O O2 0.783921 0.160088 0.322365
O O3 0.788621 0.331134 0.415231
O O4 0.786796 0.295811 0.081978
O O5 0.222351 0.906541 0.526008
O O6 0.317732 0.785135 0.314017
O O7 0.000000 0.842365 0.250000
O O8 0.223625 0.969182 0.223946
O O9 0.500000 0.932668 0.750000
O O10 0.724476 0.500000 0.500000
O O11 0.498685 0.634844 0.431515
O O12 0.787842 0.621983 0.248003
#
# Coordination Sequence:
#
# PCOD9310722 Si02
#       5
#     4   4   4   4   4
#     4   8  16  33  52  82 126 160 205 276 335 392
#     4  10  21  41  63  96 140 184 224 275 355 431
#     4   9  19  39  65  93 132 181 237 281 335 407
#     4  10  20  31  55  94 124 159 229 292 352 402
#     4   9  20  33  55  85 124 167 213 276 346 403
#
# _framework density 24.126342000000001
#
# number of rings (size 3 to 8) (size 9 to 14) (size 15 to 20)
#    0.000    2.800    0.000    1.200   11.200    0.000 
#    7.200    0.000    0.000    1.200    0.000    0.000 
#    0.000    0.000    0.000    0.000    0.000    0.000 
#
# Total GULP energy -111505.287658 kJ/mol
# GULP energy per Si atom -5575.264383 kJ/mol
# Density = 2.407143 g / cm^3
# Si number density = 24.126342 Si / 1000 Ang^3
#
#
#
# Elastic Constant Matrix: (Units=GPa)
#
#
# Indices 1 2 3 4 5 6 
#
# 1 88.1442 -5.1542 18.7830 0.0000 0.0000 0.0000
# 2 -5.1542 182.3892 52.2618 0.0000 0.0000 0.0000
# 3 18.7830 52.2618 109.3681 0.0000 0.0000 0.0000
# 4 0.0000 0.0000 0.0000 37.0180 0.0000 0.0000
# 5 0.0000 0.0000 0.0000 0.0000 4.2770 0.0000
# 6 0.0000 0.0000 0.0000 0.0000 0.0000 26.8053
#
#
#
# Elastic Compliance Matrix: (Units=1/GPa)
#
#
# Indices 1 2 3 4 5 6 
#
# 1 0.011955 0.001073 -0.002566 0.000000 0.000000 0.000000
# 2 0.001073 0.006449 -0.003266 0.000000 0.000000 0.000000
# 3 -0.002566 -0.003266 0.011145 0.000000 0.000000 0.000000
# 4 0.000000 0.000000 0.000000 0.027014 0.000000 0.000000
# 5 0.000000 0.000000 0.000000 0.000000 0.233811 0.000000
# 6 0.000000 0.000000 0.000000 0.000000 0.000000 0.037306
#
#
# Mechanical properties :
#
#
# Convention : Reuss Voigt Hill
#
# Bulk Modulus (GPa) = 49.92321 56.85363 53.38842
# Shear Modulus (GPa) = 14.54023 34.55411 24.54717
#
# Velocity S-wave (km/s) = 2.45760 3.78857 3.19320
# Velocity P-wave (km/s) = 5.36567 6.53864 5.98098
#
# Compressibility (1/GPa) = 0.02003076
#
# Stress axis : x y z
#
# Youngs Moduli (GPa) = 83.65008 155.06469 89.72857
#
# Poissons Ratio (x) = -0.16639 0.23023
# Poissons Ratio (y) = -0.08976 0.29305
# Poissons Ratio (z) = 0.21463 0.50643
#
# Static dielectric constant tensor:
#      x y z
#    x 2.004830 0.000000 0.000000 
#    y 0.000000 1.892550 0.000000 
#    z 0.000000 0.000000 1.937760 
# 
# From -- ./inp_files/4186.got.cif
#   From: 2010.05.17/outbox.cif.g08.bks.cpg/sg17_3_cif.got.tgz:4186.got - 2010.06.03 22:34:06.
