data_PCOD9310546
_publ_section_title
;
Structure prediction by ZEFSAII (Michael W. Deem and Ramdas Pophale) SiO2 
 PCOD9310546
Probable space group: P 2 2 21
;
_chemical_formula_sum "Si O2"
_cell_formula_units_Z 26
_cell_length_a 9.345227
_cell_length_b 7.964961
_cell_length_c 13.718180
_cell_angle_alpha 90.000000
_cell_angle_beta 90.000000
_cell_angle_gamma 90.000000
_cell_volume 1021.104067
_symmetry_space_group_name_H-M "P 2 2 21"
_symmetry_group_IT_number 17
_symmetry_cell_setting 'orthorhombic'
loop_
_space_group_symop_operation_xyz
x,y,z
-x,-y,1/2+z
x,-y,-z
-x,y,1/2-z
loop_
_atom_site_type_symbol
_atom_site_label
_atom_site_fract_x
_atom_site_fract_y
_atom_site_fract_z
Si Si1 0.895016 0.006975 0.382396
Si Si2 0.029382 0.680002 0.410120
Si Si3 0.767920 0.500000 0.500000
Si Si4 0.525209 0.444017 0.634387
Si Si5 0.098435 0.694372 0.624161
Si Si6 0.437555 0.071823 0.859385
Si Si7 0.401365 0.237820 0.347139
O O1 0.962285 0.186862 0.355064
O O2 0.896780 0.000000 0.500000
O O3 0.003049 0.853448 0.354762
O O4 0.730775 0.970406 0.354826
O O5 0.875082 0.638419 0.458884
O O6 0.125016 0.706394 0.506481
O O7 0.073262 0.505402 0.357192
O O8 0.667682 0.534584 0.592835
O O9 0.500000 0.424435 0.750000
O O10 0.536790 0.255407 0.595717
O O11 0.408489 0.579156 0.603198
O O12 0.235016 0.777646 0.674418
O O13 0.500000 0.083457 0.750000
O O14 0.527788 0.917359 0.902228
O O15 0.500000 0.251603 0.250000
#
# Coordination Sequence:
#
# PCOD9310546 Si02
#       7
#     4   4   2   4   4   4   4
#     4  10  20  37  65  93 123 169 216 276 338 400
#     4   9  20  37  64  95 129 158 229 281 331 400
#     4  10  18  36  66  98 122 176 226 270 344 410
#     4  10  22  39  63  94 137 176 220 277 341 408
#     4   9  20  38  62  90 127 167 212 277 330 392
#     4  10  22  39  62  92 132 171 218 276 333 412
#     4  10  23  41  61  89 133 176 216 272 335 404
#
# _framework density 25.462633
#
# number of rings (size 3 to 8) (size 9 to 14) (size 15 to 20)
#    0.000    2.462    1.538    0.000    6.462    2.462 
#    0.000    8.462    0.000    0.000    0.000    0.000 
#    0.000    0.000    0.000    0.000    0.000    0.000 
#
# Total GULP energy -145001.715951 kJ/mol
# GULP energy per Si atom -5576.989075 kJ/mol
# Density = 2.540468 g / cm^3
# Si number density = 25.462633 Si / 1000 Ang^3
#
#
#
# Elastic Constant Matrix: (Units=GPa)
#
#
# Indices 1 2 3 4 5 6 
#
# 1 139.7237 44.2511 22.6245 0.0000 0.0000 0.0000
# 2 44.2511 197.5318 -3.2862 0.0000 0.0000 0.0000
# 3 22.6245 -3.2862 105.0612 0.0000 0.0000 0.0000
# 4 0.0000 0.0000 0.0000 5.7105 0.0000 0.0000
# 5 0.0000 0.0000 0.0000 0.0000 35.6799 0.0000
# 6 0.0000 0.0000 0.0000 0.0000 0.0000 32.7665
#
#
#
# Elastic Compliance Matrix: (Units=1/GPa)
#
#
# Indices 1 2 3 4 5 6 
#
# 1 0.008025 -0.001827 -0.001785 0.000000 0.000000 0.000000
# 2 -0.001827 0.005481 0.000565 0.000000 0.000000 0.000000
# 3 -0.001785 0.000565 0.009920 0.000000 0.000000 0.000000
# 4 0.000000 0.000000 0.000000 0.175117 0.000000 0.000000
# 5 0.000000 0.000000 0.000000 0.000000 0.028027 0.000000
# 6 0.000000 0.000000 0.000000 0.000000 0.000000 0.030519
#
#
# Mechanical properties :
#
#
# Convention : Reuss Voigt Hill
#
# Bulk Modulus (GPa) = 57.70002 63.27730 60.48866
# Shear Modulus (GPa) = 18.58999 40.07984 29.33491
#
# Velocity S-wave (km/s) = 2.70495 3.97175 3.39791
# Velocity P-wave (km/s) = 5.69785 6.77776 6.26113
#
# Compressibility (1/GPa) = 0.01733102
#
# Stress axis : x y z
#
# Youngs Moduli (GPa) = 124.61353 182.44003 100.80250
#
# Poissons Ratio (x) = 0.33339 0.17996
# Poissons Ratio (y) = 0.22772 -0.05695
# Poissons Ratio (z) = 0.22247 -0.10307
#
# Static dielectric constant tensor:
#      x y z
#    x 2.034190 0.000000 0.000000 
#    y 0.000000 2.184760 0.000000 
#    z 0.000000 0.000000 1.996970 
# 
# From -- ./inp_files/9486.got.cif
#   From: 2010.05.17/outbox.cif.g08.bks.cpg/sg17_5_cif.got.tgz:9486.got - 2010.06.03 22:34:06.
