data_PCOD9310934
_publ_section_title
;
Structure prediction by ZEFSAII (Michael W. Deem and Ramdas Pophale) SiO2 
 PCOD9310934
Probable space group: P 2 2 21
;
_chemical_formula_sum "Si O2"
_cell_formula_units_Z 18
_cell_length_a 17.947333
_cell_length_b 6.380461
_cell_length_c 7.299686
_cell_angle_alpha 90.000000
_cell_angle_beta 90.000000
_cell_angle_gamma 90.000000
_cell_volume 835.903528
_symmetry_space_group_name_H-M "P 2 2 21"
_symmetry_group_IT_number 17
_symmetry_cell_setting 'orthorhombic'
loop_
_space_group_symop_operation_xyz
x,y,z
-x,-y,1/2+z
x,-y,-z
-x,y,1/2-z
loop_
_atom_site_type_symbol
_atom_site_label
_atom_site_fract_x
_atom_site_fract_y
_atom_site_fract_z
Si Si1 0.549417 0.000000 0.000000
Si Si2 0.213954 0.149589 0.328647
Si Si3 0.895701 0.000000 0.500000
Si Si4 0.500000 0.641222 0.250000
Si Si5 0.000000 0.711917 0.250000
Si Si6 0.885981 0.500000 0.000000
Si Si7 0.637527 0.645444 0.819164
O O1 0.599883 0.871975 0.857502
O O2 0.505321 0.194427 0.915690
O O3 0.163192 0.308842 0.438866
O O4 0.282697 0.283012 0.242994
O O5 0.240545 0.000000 0.500000
O O6 0.161072 0.059067 0.167496
O O7 0.954765 0.841333 0.404350
O O8 0.426796 0.497871 0.229291
O O9 0.062051 0.568139 0.336878
O O10 0.653488 0.500000 0.000000
#
# Coordination Sequence:
#
# PCOD9310934 Si02
#       7
#     2   4   2   2   2   2   4
#     4  10  20  40  70  92 140 184 238 308 354 423
#     4  12  24  47  74 107 152 195 239 312 375 440
#     4  12  26  46  76 114 146 192 250 298 378 449
#     4  10  22  40  72 106 132 196 250 292 368 444
#     4  12  24  46  74 110 144 192 246 306 356 452
#     4  12  24  44  76 102 146 194 242 298 368 440
#     4  10  21  41  72  98 140 196 244 297 374 439
#
# _framework density 21.533584999999999
#
# number of rings (size 3 to 8) (size 9 to 14) (size 15 to 20)
#    0.000    0.889    4.444    3.333    0.000    0.000 
#    0.000    8.889   14.667    0.000    0.000    0.000 
#    0.000    0.000    0.000    0.000    0.000    0.000 
#
# Total GULP energy -100260.431619 kJ/mol
# GULP energy per Si atom -5570.023979 kJ/mol
# Density = 2.148457 g / cm^3
# Si number density = 21.533585 Si / 1000 Ang^3
#
#
#
# Elastic Constant Matrix: (Units=GPa)
#
#
# Indices 1 2 3 4 5 6 
#
# 1 125.8576 42.9319 4.2567 0.0000 0.0000 0.0000
# 2 42.9319 96.1437 7.0025 0.0000 0.0000 0.0000
# 3 4.2567 7.0025 39.0294 0.0000 0.0000 0.0000
# 4 0.0000 0.0000 0.0000 54.0351 0.0000 0.0000
# 5 0.0000 0.0000 0.0000 0.0000 5.1471 0.0000
# 6 0.0000 0.0000 0.0000 0.0000 0.0000 10.0270
#
#
#
# Elastic Compliance Matrix: (Units=1/GPa)
#
#
# Indices 1 2 3 4 5 6 
#
# 1 0.009376 -0.004167 -0.000275 0.000000 0.000000 0.000000
# 2 -0.004167 0.012391 -0.001769 0.000000 0.000000 0.000000
# 3 -0.000275 -0.001769 0.025969 0.000000 0.000000 0.000000
# 4 0.000000 0.000000 0.000000 0.018507 0.000000 0.000000
# 5 0.000000 0.000000 0.000000 0.000000 0.194285 0.000000
# 6 0.000000 0.000000 0.000000 0.000000 0.000000 0.099730
#
#
# Mechanical properties :
#
#
# Convention : Reuss Voigt Hill
#
# Bulk Modulus (GPa) = 28.31664 41.04587 34.68126
# Shear Modulus (GPa) = 13.00559 27.63114 20.31836
#
# Velocity S-wave (km/s) = 2.46024 3.58602 3.07508
# Velocity P-wave (km/s) = 4.60966 6.02069 5.36179
#
# Compressibility (1/GPa) = 0.03531492
#
# Stress axis : x y z
#
# Youngs Moduli (GPa) = 106.65371 80.70669 38.50738
#
# Poissons Ratio (x) = 0.33629 0.01059
# Poissons Ratio (y) = 0.44440 0.06810
# Poissons Ratio (z) = 0.02933 0.14274
#
# Static dielectric constant tensor:
#      x y z
#    x 1.792020 0.000000 0.000000 
#    y 0.000000 2.031750 0.000000 
#    z 0.000000 0.000000 1.873340 
# 
# From -- ./inp_files/3453.got.cif
#   From: 2010.05.17/outbox.cif.g08.bks.cpg/sg17_2_cif.got.tgz:3453.got - 2010.06.03 22:34:06.
