data_PCOD9310379
_publ_section_title
;
Structure prediction by ZEFSAII (Michael W. Deem and Ramdas Pophale) SiO2 
 PCOD9310379
Probable space group: P 2 2 2
;
_chemical_formula_sum "Si O2"
_cell_formula_units_Z 20
_cell_length_a 4.951337
_cell_length_b 15.750849
_cell_length_c 12.213172
_cell_angle_alpha 90.000000
_cell_angle_beta 90.000000
_cell_angle_gamma 90.000000
_cell_volume 952.477944
_symmetry_space_group_name_H-M "P 2 2 2"
_symmetry_group_IT_number 16
_symmetry_cell_setting 'orthorhombic'
loop_
_space_group_symop_operation_xyz
x,y,z
-x,-y,z
x,-y,-z
-x,y,-z
loop_
_atom_site_type_symbol
_atom_site_label
_atom_site_fract_x
_atom_site_fract_y
_atom_site_fract_z
Si Si1 0.245615 0.764364 0.922865
Si Si2 0.127427 0.687566 0.700049
Si Si3 0.389910 0.591765 0.375186
Si Si4 0.763085 0.858807 0.425877
Si Si5 0.734205 0.057538 0.801927
O O1 0.117596 0.701994 0.830078
O O2 0.298915 0.851404 0.858618
O O3 0.500000 0.737965 0.000000
O O4 0.000000 0.784795 0.000000
O O5 0.437745 0.661482 0.686370
O O6 0.106025 0.773996 0.630014
O O7 0.920532 0.617517 0.648769
O O8 0.500000 0.500000 0.337061
O O9 0.500000 0.597404 0.500000
O O10 0.500000 0.839517 0.500000
O O11 0.694989 0.920692 0.326318
O O12 0.000000 0.895541 0.500000
O O13 0.500000 0.000000 0.847110
O O14 0.000000 0.000000 0.815147
#
# Coordination Sequence:
#
# PCOD9310379 Si02
#       5
#     4   4   4   4   4
#     4  11  24  42  64  87 113 156 210 263 316 362
#     4  11  22  39  61  88 123 158 203 252 296 363
#     4  11  22  37  62  96 130 161 191 233 298 370
#     4  11  22  36  57  84 119 164 204 243 299 370
#     4  11  24  39  57  86 119 154 202 258 315 372
#
# _framework density 20.997859999999999
#
# number of rings (size 3 to 8) (size 9 to 14) (size 15 to 20)
#    0.000    1.000    0.000    7.800    0.000   12.800 
#    0.000    0.000    0.000    9.000    0.000    0.000 
#    0.000    0.000    0.000    0.000    0.000    0.000 
#
# Total GULP energy -111543.077034 kJ/mol
# GULP energy per Si atom -5577.153852 kJ/mol
# Density = 2.095007 g / cm^3
# Si number density = 20.997860 Si / 1000 Ang^3
#
#
#
# Elastic Constant Matrix: (Units=GPa)
#
#
# Indices 1 2 3 4 5 6 
#
# 1 99.4681 -1.1053 20.2592 0.0000 0.0000 0.0000
# 2 -1.1053 42.1927 1.4712 0.0000 0.0000 0.0000
# 3 20.2592 1.4712 97.8199 0.0000 0.0000 0.0000
# 4 0.0000 0.0000 0.0000 0.6461 0.0000 0.0000
# 5 0.0000 0.0000 0.0000 0.0000 26.9469 0.0000
# 6 0.0000 0.0000 0.0000 0.0000 0.0000 4.0773
#
#
#
# Elastic Compliance Matrix: (Units=1/GPa)
#
#
# Indices 1 2 3 4 5 6 
#
# 1 0.010501 0.000351 -0.002180 0.000000 0.000000 0.000000
# 2 0.000351 0.023725 -0.000430 0.000000 0.000000 0.000000
# 3 -0.002180 -0.000430 0.010681 0.000000 0.000000 0.000000
# 4 0.000000 0.000000 0.000000 1.547810 0.000000 0.000000
# 5 0.000000 0.000000 0.000000 0.000000 0.037110 0.000000
# 6 0.000000 0.000000 0.000000 0.000000 0.000000 0.245261
#
#
# Mechanical properties :
#
#
# Convention : Reuss Voigt Hill
#
# Bulk Modulus (GPa) = 24.75862 31.19234 27.97548
# Shear Modulus (GPa) = 2.64121 20.92441 11.78281
#
# Velocity S-wave (km/s) = 1.12276 3.16017 2.37142
# Velocity P-wave (km/s) = 3.67388 5.31063 4.56619
#
# Compressibility (1/GPa) = 0.04038998
#
# Stress axis : x y z
#
# Youngs Moduli (GPa) = 95.22513 42.14970 93.62539
#
# Poissons Ratio (x) = -0.01480 0.20412
# Poissons Ratio (y) = -0.03343 0.04022
# Poissons Ratio (z) = 0.20761 0.01811
#
# Static dielectric constant tensor:
#      x y z
#    x 1.698430 0.000000 0.000000 
#    y 0.000000 1.720810 0.000000 
#    z 0.000000 0.000000 2.043580 
# 
# From -- ./inp_files/5903.got.cif
#   From: 2010.05.17/outbox.cif.g08.bks.cpg/sg16_3_cif.got.tgz:5903.got - 2010.06.03 22:28:35.
