data_PCOD9310835
_publ_section_title
;
Structure prediction by ZEFSAII (Michael W. Deem and Ramdas Pophale) SiO2 
 PCOD9310835
Probable space group: P 2 2 21
;
_chemical_formula_sum "Si O2"
_cell_formula_units_Z 30
_cell_length_a 10.662323
_cell_length_b 14.945475
_cell_length_c 9.112955
_cell_angle_alpha 90.000000
_cell_angle_beta 90.000000
_cell_angle_gamma 90.000000
_cell_volume 1452.181109
_symmetry_space_group_name_H-M "P 2 2 21"
_symmetry_group_IT_number 17
_symmetry_cell_setting 'orthorhombic'
loop_
_space_group_symop_operation_xyz
x,y,z
-x,-y,1/2+z
x,-y,-z
-x,y,1/2-z
loop_
_atom_site_type_symbol
_atom_site_label
_atom_site_fract_x
_atom_site_fract_y
_atom_site_fract_z
Si Si1 0.000000 0.872824 0.750000
Si Si2 0.803662 0.185763 0.762946
Si Si3 0.364754 0.646736 0.695056
Si Si4 0.196724 0.013383 0.155694
Si Si5 0.020660 0.246467 0.975501
Si Si6 0.395047 0.830857 0.867040
Si Si7 0.443088 0.268218 0.602414
Si Si8 0.902656 0.423941 0.121094
O O1 0.115633 0.937616 0.720416
O O2 0.044718 0.811133 0.880927
O O3 0.855049 0.245840 0.625897
O O4 0.678759 0.218177 0.839715
O O5 0.778342 0.085629 0.710240
O O6 0.915749 0.195343 0.880041
O O7 0.500000 0.608828 0.750000
O O8 0.344085 0.739713 0.787339
O O9 0.394878 0.667761 0.525563
O O10 0.232887 0.596042 0.694308
O O11 0.305728 0.084022 0.117419
O O12 0.125265 0.000000 0.000000
O O13 0.960835 0.338500 0.033793
O O14 0.500000 0.860139 0.750000
O O15 0.458728 0.797436 0.018463
O O16 0.500000 0.310464 0.750000
O O17 0.000000 0.447673 0.250000
O O18 0.888451 0.500000 0.000000
#
# Coordination Sequence:
#
# PCOD9310835 Si02
#       8
#     2   4   4   4   4   4   4   4
#     4  12  24  40  62  86 120 184 224 278 328 406
#     4  11  24  39  63  97 134 182 223 289 337 406
#     4   9  21  47  72  99 134 185 233 269 341 432
#     4  12  24  37  56  92 133 170 242 288 328 389
#     4  11  24  44  68  91 131 178 225 276 357 418
#     4   9  22  41  63  88 128 185 232 280 334 403
#     4  10  20  37  64  93 127 175 228 275 340 389
#     4  12  27  46  75 110 141 175 221 292 361 432
#
# _framework density 20.658580000000001
#
# number of rings (size 3 to 8) (size 9 to 14) (size 15 to 20)
#    0.000    1.600    3.333    2.400    3.733    2.667 
#    0.000    1.333    0.000    0.000    0.000    0.000 
#    0.000    0.000    0.000    0.000    0.000    0.000 
#
# Total GULP energy -167325.524800 kJ/mol
# GULP energy per Si atom -5577.517493 kJ/mol
# Density = 2.061156 g / cm^3
# Si number density = 20.658580 Si / 1000 Ang^3
#
#
#
# Elastic Constant Matrix: (Units=GPa)
#
#
# Indices 1 2 3 4 5 6 
#
# 1 102.8883 45.6109 36.2371 0.0000 0.0000 0.0000
# 2 45.6109 53.3996 15.8398 0.0000 0.0000 0.0000
# 3 36.2371 15.8398 112.2436 0.0000 0.0000 0.0000
# 4 0.0000 0.0000 0.0000 15.8722 0.0000 0.0000
# 5 0.0000 0.0000 0.0000 0.0000 33.8644 0.0000
# 6 0.0000 0.0000 0.0000 0.0000 0.0000 10.8142
#
#
#
# Elastic Compliance Matrix: (Units=1/GPa)
#
#
# Indices 1 2 3 4 5 6 
#
# 1 0.016910 -0.013385 -0.003571 0.000000 0.000000 0.000000
# 2 -0.013385 0.030139 0.000068 0.000000 0.000000 0.000000
# 3 -0.003571 0.000068 0.010052 0.000000 0.000000 0.000000
# 4 0.000000 0.000000 0.000000 0.063003 0.000000 0.000000
# 5 0.000000 0.000000 0.000000 0.000000 0.029530 0.000000
# 6 0.000000 0.000000 0.000000 0.000000 0.000000 0.092471
#
#
# Mechanical properties :
#
#
# Convention : Reuss Voigt Hill
#
# Bulk Modulus (GPa) = 42.86864 51.54523 47.20693
# Shear Modulus (GPa) = 17.62700 23.49974 20.56337
#
# Velocity S-wave (km/s) = 2.92422 3.37639 3.15841
# Velocity P-wave (km/s) = 5.67428 6.34075 6.01675
#
# Compressibility (1/GPa) = 0.02332708
#
# Stress axis : x y z
#
# Youngs Moduli (GPa) = 59.13544 33.17956 99.47943
#
# Poissons Ratio (x) = 0.44410 0.35519
# Poissons Ratio (y) = 0.79151 -0.00676
# Poissons Ratio (z) = 0.21115 -0.00225
#
# Static dielectric constant tensor:
#      x y z
#    x 1.799530 0.000000 0.000000 
#    y 0.000000 1.735400 0.000000 
#    z 0.000000 0.000000 1.937770 
# 
# From -- ./inp_files/4916.got.cif
#   From: 2010.05.17/outbox.cif.g08.bks.cpg/sg17_3_cif.got.tgz:4916.got - 2010.06.03 22:34:06.
