data_PCOD9310287
_publ_section_title
;
Structure prediction by ZEFSAII (Michael W. Deem and Ramdas Pophale) SiO2 
 PCOD9310287
Probable space group: P 2 2 2
;
_chemical_formula_sum "Si O2"
_cell_formula_units_Z 16
_cell_length_a 5.376714
_cell_length_b 4.867591
_cell_length_c 24.046419
_cell_angle_alpha 90.000000
_cell_angle_beta 90.000000
_cell_angle_gamma 90.000000
_cell_volume 629.334334
_symmetry_space_group_name_H-M "P 2 2 2"
_symmetry_group_IT_number 16
_symmetry_cell_setting 'orthorhombic'
loop_
_space_group_symop_operation_xyz
x,y,z
-x,-y,z
x,-y,-z
-x,y,-z
loop_
_atom_site_type_symbol
_atom_site_label
_atom_site_fract_x
_atom_site_fract_y
_atom_site_fract_z
Si Si1 0.000000 0.500000 0.000000
Si Si2 0.747687 0.683410 0.830922
Si Si3 0.750833 0.682015 0.710247
Si Si4 0.000000 0.000000 0.077715
Si Si5 0.327081 0.235262 0.588080
Si Si6 0.000000 0.000000 0.500000
O O1 0.103081 0.263844 0.042591
O O2 0.500000 0.500000 0.835864
O O3 0.747377 0.828875 0.770173
O O4 0.000000 0.500000 0.831465
O O5 0.785113 0.886867 0.882145
O O6 0.500000 0.500000 0.710920
O O7 0.746604 0.836612 0.651658
O O8 0.000000 0.500000 0.708470
O O9 0.500000 0.500000 0.589273
O O10 0.500000 0.000000 0.565040
O O11 0.107832 0.216505 0.545189
#
# Coordination Sequence:
#
# PCOD9310287 Si02
#       6
#     1   4   4   2   4   1
#     4  10  24  46  78 110 162 218 262 320 374 454
#     4  10  22  45  78 115 151 196 253 321 390 463
#     4   9  21  45  74 111 150 192 246 314 397 469
#     4  11  22  47  78 111 162 205 272 312 388 449
#     4  11  28  51  71 106 147 193 252 319 388 463
#     4  12  30  48  80 102 148 206 274 316 386 462
#
# _framework density 25.423687999999999
#
# number of rings (size 3 to 8) (size 9 to 14) (size 15 to 20)
#    0.000    1.750    1.250    0.375    7.000    5.000 
#   13.500    0.625    5.500    0.000    0.000    0.000 
#    0.000    0.000    0.000    0.000    0.000    0.000 
#
# Total GULP energy -89283.870663 kJ/mol
# GULP energy per Si atom -5580.241916 kJ/mol
# Density = 2.536582 g / cm^3
# Si number density = 25.423688 Si / 1000 Ang^3
#
#
#
# Elastic Constant Matrix: (Units=GPa)
#
#
# Indices 1 2 3 4 5 6 
#
# 1 136.6656 37.3498 32.4577 0.0000 0.0000 0.0000
# 2 37.3498 122.8989 58.5434 0.0000 0.0000 0.0000
# 3 32.4577 58.5434 239.9920 0.0000 0.0000 0.0000
# 4 0.0000 0.0000 0.0000 65.5634 0.0000 0.0000
# 5 0.0000 0.0000 0.0000 0.0000 -20.8147 0.0000
# 6 0.0000 0.0000 0.0000 0.0000 0.0000 42.7537
#
#
#
# Elastic Compliance Matrix: (Units=1/GPa)
#
#
# Indices 1 2 3 4 5 6 
#
# 1 0.008045 -0.002180 -0.000556 0.000000 0.000000 0.000000
# 2 -0.002180 0.009797 -0.002095 0.000000 0.000000 0.000000
# 3 -0.000556 -0.002095 0.004753 0.000000 0.000000 0.000000
# 4 0.000000 0.000000 0.000000 0.015252 0.000000 0.000000
# 5 0.000000 0.000000 0.000000 0.000000 -0.048043 0.000000
# 6 0.000000 0.000000 0.000000 0.000000 0.000000 0.023390
#
#
# Mechanical properties :
#
#
# Convention : Reuss Voigt Hill
#
# Bulk Modulus (GPa) = 77.32310 84.02870 80.67590
# Shear Modulus (GPa) = 184.03898 42.24753 113.14326
#
# Velocity S-wave (km/s) = 8.51739 4.08087 6.67830
# Velocity P-wave (km/s) = 11.27864 7.43826 9.55341
#
# Compressibility (1/GPa) = 0.01293275
#
# Stress axis : x y z
#
# Youngs Moduli (GPa) = 124.30069 102.06909 210.38827
#
# Poissons Ratio (x) = 0.22251 0.11703
# Poissons Ratio (y) = 0.27097 0.44079
# Poissons Ratio (z) = 0.06915 0.21385
#
# Static dielectric constant tensor:
#      x y z
#    x 1.975300 0.000000 0.000000 
#    y 0.000000 2.110350 0.000000 
#    z 0.000000 0.000000 2.049230 
# 
# From -- ./inp_files/9418.got.cif
#   From: 2010.05.17/outbox.cif.g08.bks.cpg/sg16_5_cif.got.tgz:9418.got - 2010.06.03 22:28:35.
