data_PCOD9310065
_publ_section_title
;
Structure prediction by ZEFSAII (Michael W. Deem and Ramdas Pophale) SiO2 
 PCOD9310065
Probable space group: P 2 2 2
;
_chemical_formula_sum "Si O2"
_cell_formula_units_Z 32
_cell_length_a 9.267318
_cell_length_b 11.418405
_cell_length_c 13.779263
_cell_angle_alpha 90.000000
_cell_angle_beta 90.000000
_cell_angle_gamma 90.000000
_cell_volume 1458.093917
_symmetry_space_group_name_H-M "P 2 2 2"
_symmetry_group_IT_number 16
_symmetry_cell_setting 'orthorhombic'
loop_
_space_group_symop_operation_xyz
x,y,z
-x,-y,z
x,-y,-z
-x,y,-z
loop_
_atom_site_type_symbol
_atom_site_label
_atom_site_fract_x
_atom_site_fract_y
_atom_site_fract_z
Si Si1 0.204275 0.959249 0.887091
Si Si2 0.115618 0.904673 0.306787
Si Si3 0.718951 0.657574 0.846509
Si Si4 0.536839 0.815118 0.098945
Si Si5 0.433274 0.881332 0.391998
Si Si6 0.531049 0.377707 0.317763
Si Si7 0.306113 0.598591 0.860770
Si Si8 0.974464 0.261258 0.827362
O O1 0.354574 0.901844 0.849934
O O2 0.093750 0.850285 0.881603
O O3 0.163333 0.048240 0.800912
O O4 0.206848 0.000000 0.000000
O O5 0.259682 0.888691 0.371395
O O6 0.025462 0.787989 0.278071
O O7 0.000000 0.000000 0.345398
O O8 0.610484 0.766375 0.858146
O O9 0.688927 0.622704 0.733557
O O10 0.683090 0.533822 0.895797
O O11 0.878864 0.692156 0.873584
O O12 0.631622 0.700146 0.070713
O O13 0.500000 0.876100 0.000000
O O14 0.500000 0.884592 0.500000
O O15 0.483417 0.751999 0.359039
O O16 0.500000 0.000000 0.345277
O O17 0.500000 0.500000 0.373725
O O18 0.413779 0.386322 0.230739
O O19 0.146579 0.638235 0.829747
#
# Coordination Sequence:
#
# PCOD9310065 Si02
#       8
#     4   4   4   4   4   4   4   4
#     4  10  24  41  57  90 129 174 227 284 339 406
#     4  10  23  41  67  92 134 180 219 269 348 410
#     4  10  19  36  59  91 116 166 224 276 328 410
#     4  10  22  37  54  80 116 164 221 274 338 392
#     4  11  25  42  67 102 136 171 227 284 337 417
#     4   9  19  38  66  94 132 172 218 278 337 409
#     4   9  20  36  60  87 123 164 219 272 332 410
#     4  10  20  37  60  89 120 172 214 279 332 403
#
# _framework density 21.946459999999998
#
# number of rings (size 3 to 8) (size 9 to 14) (size 15 to 20)
#    0.000    2.125    1.250    1.500    8.750    3.750 
#    2.250    1.250    0.000    1.500    0.000    0.000 
#    0.000    0.000    0.000    0.000    0.000    0.000 
#
# Total GULP energy -178211.270288 kJ/mol
# GULP energy per Si atom -5569.102196 kJ/mol
# Density = 2.189651 g / cm^3
# Si number density = 21.946460 Si / 1000 Ang^3
#
#
#
# Elastic Constant Matrix: (Units=GPa)
#
#
# Indices 1 2 3 4 5 6 
#
# 1 169.2021 51.8294 27.2946 0.0000 0.0000 0.0000
# 2 51.8294 140.5090 30.1298 0.0000 0.0000 0.0000
# 3 27.2946 30.1298 64.5976 0.0000 0.0000 0.0000
# 4 0.0000 0.0000 0.0000 9.3892 0.0000 0.0000
# 5 0.0000 0.0000 0.0000 0.0000 22.1580 0.0000
# 6 0.0000 0.0000 0.0000 0.0000 0.0000 39.4586
#
#
#
# Elastic Compliance Matrix: (Units=1/GPa)
#
#
# Indices 1 2 3 4 5 6 
#
# 1 0.006869 -0.002124 -0.001912 0.000000 0.000000 0.000000
# 2 -0.002124 0.008565 -0.003097 0.000000 0.000000 0.000000
# 3 -0.001912 -0.003097 0.017733 0.000000 0.000000 0.000000
# 4 0.000000 0.000000 0.000000 0.106506 0.000000 0.000000
# 5 0.000000 0.000000 0.000000 0.000000 0.045130 0.000000
# 6 0.000000 0.000000 0.000000 0.000000 0.000000 0.025343
#
#
# Mechanical properties :
#
#
# Convention : Reuss Voigt Hill
#
# Bulk Modulus (GPa) = 52.90827 65.86847 59.38837
# Shear Modulus (GPa) = 21.67204 31.87148 26.77176
#
# Velocity S-wave (km/s) = 3.14585 3.81496 3.49645
# Velocity P-wave (km/s) = 6.11191 7.03446 6.58935
#
# Compressibility (1/GPa) = 0.01890064
#
# Stress axis : x y z
#
# Youngs Moduli (GPa) = 145.58044 116.76017 56.39230
#
# Poissons Ratio (x) = 0.24798 0.10781
# Poissons Ratio (y) = 0.30919 0.17467
# Poissons Ratio (z) = 0.27832 0.36164
#
# Static dielectric constant tensor:
#      x y z
#    x 1.871740 0.000000 0.000000 
#    y 0.000000 1.921320 0.000000 
#    z 0.000000 0.000000 1.982410 
# 
# From -- ./inp_files/7970.got.cif
#   From: 2010.05.17/outbox.cif.g08.bks.cpg/sg16_4_cif.got.tgz:7970.got - 2010.06.03 22:28:35.
