data_PCOD9310832
_publ_section_title
;
Structure prediction by ZEFSAII (Michael W. Deem and Ramdas Pophale) SiO2 
 PCOD9310832
Probable space group: P 2 2 21
;
_chemical_formula_sum "Si O2"
_cell_formula_units_Z 30
_cell_length_a 12.712619
_cell_length_b 7.834174
_cell_length_c 14.540152
_cell_angle_alpha 90.000000
_cell_angle_beta 90.000000
_cell_angle_gamma 90.000000
_cell_volume 1448.095457
_symmetry_space_group_name_H-M "P 2 2 21"
_symmetry_group_IT_number 17
_symmetry_cell_setting 'orthorhombic'
loop_
_space_group_symop_operation_xyz
x,y,z
-x,-y,1/2+z
x,-y,-z
-x,y,1/2-z
loop_
_atom_site_type_symbol
_atom_site_label
_atom_site_fract_x
_atom_site_fract_y
_atom_site_fract_z
Si Si1 0.605234 0.925526 0.736678
Si Si2 0.000000 0.889017 0.750000
Si Si3 0.710232 0.634203 0.342259
Si Si4 0.199300 0.253130 0.148228
Si Si5 0.324382 0.211145 0.644524
Si Si6 0.537560 0.840683 0.428732
Si Si7 0.901686 0.879241 0.087163
Si Si8 0.110442 0.695248 0.038312
O O1 0.500000 0.810370 0.750000
O O2 0.705081 0.857863 0.683835
O O3 0.653995 0.013632 0.826276
O O4 0.557086 0.067885 0.669101
O O5 0.094070 0.773917 0.791821
O O6 0.054034 0.007679 0.671998
O O7 0.748308 0.440124 0.347810
O O8 0.673050 0.679722 0.239242
O O9 0.626134 0.692969 0.420441
O O10 0.817853 0.728583 0.372302
O O11 0.162898 0.204725 0.046061
O O12 0.421423 0.243168 0.575425
O O13 0.206561 0.217289 0.608549
O O14 0.546459 0.000000 0.500000
O O15 0.993589 0.750238 0.059544
O O16 0.882707 0.000000 0.000000
O O17 0.111619 0.500000 0.000000
#
# Coordination Sequence:
#
# PCOD9310832 Si02
#       8
#     4   2   4   4   4   4   4   4
#     4   9  19  35  58  86 120 157 210 268 328 388
#     4  12  24  40  66  98 134 174 232 278 342 406
#     4  10  22  38  63  89 126 170 214 273 337 396
#     4  11  22  40  61  92 132 171 221 281 336 402
#     4  10  21  39  58  92 124 166 217 269 337 408
#     4  10  20  37  62  90 124 163 214 274 333 397
#     4  12  23  39  65  91 127 170 221 271 331 412
#     4  10  23  39  59  91 128 168 218 276 337 392
#
# _framework density 20.716866
#
# number of rings (size 3 to 8) (size 9 to 14) (size 15 to 20)
#    0.000    1.600    2.667    3.200    1.867    3.733 
#    0.000    0.000    0.000    4.000    0.000    0.000 
#    0.000    0.000    0.000    0.000    0.000    0.000 
#
# Total GULP energy -167092.330632 kJ/mol
# GULP energy per Si atom -5569.744354 kJ/mol
# Density = 2.066971 g / cm^3
# Si number density = 20.716866 Si / 1000 Ang^3
#
#
#
# Elastic Constant Matrix: (Units=GPa)
#
#
# Indices 1 2 3 4 5 6 
#
# 1 160.3816 30.2842 3.4568 0.0000 0.0000 0.0000
# 2 30.2842 40.3178 8.9730 0.0000 0.0000 0.0000
# 3 3.4568 8.9730 46.7944 0.0000 0.0000 0.0000
# 4 0.0000 0.0000 0.0000 15.8426 0.0000 0.0000
# 5 0.0000 0.0000 0.0000 0.0000 34.3862 0.0000
# 6 0.0000 0.0000 0.0000 0.0000 0.0000 31.7506
#
#
#
# Elastic Compliance Matrix: (Units=1/GPa)
#
#
# Indices 1 2 3 4 5 6 
#
# 1 0.007278 -0.005586 0.000533 0.000000 0.000000 0.000000
# 2 -0.005586 0.030195 -0.005377 0.000000 0.000000 0.000000
# 3 0.000533 -0.005377 0.022362 0.000000 0.000000 0.000000
# 4 0.000000 0.000000 0.000000 0.063121 0.000000 0.000000
# 5 0.000000 0.000000 0.000000 0.000000 0.029081 0.000000
# 6 0.000000 0.000000 0.000000 0.000000 0.000000 0.031495
#
#
# Mechanical properties :
#
#
# Convention : Reuss Voigt Hill
#
# Bulk Modulus (GPa) = 25.65679 36.99131 31.32405
# Shear Modulus (GPa) = 23.00064 30.04784 26.52424
#
# Velocity S-wave (km/s) = 3.33564 3.81255 3.58204
# Velocity P-wave (km/s) = 5.21984 6.10534 5.67987
#
# Compressibility (1/GPa) = 0.03897604
#
# Stress axis : x y z
#
# Youngs Moduli (GPa) = 137.39344 33.11762 44.71905
#
# Poissons Ratio (x) = 0.18499 -0.02385
# Poissons Ratio (y) = 0.76745 0.24047
# Poissons Ratio (z) = -0.07329 0.17809
#
# Static dielectric constant tensor:
#      x y z
#    x 1.880210 0.000000 0.000000 
#    y 0.000000 1.815440 0.000000 
#    z 0.000000 0.000000 1.830600 
# 
# From -- ./inp_files/8536.got.cif
#   From: 2010.05.17/outbox.cif.g08.bks.cpg/sg17_5_cif.got.tgz:8536.got - 2010.06.03 22:34:06.
