data_PCOD9310900
_publ_section_title
;
Structure prediction by ZEFSAII (Michael W. Deem and Ramdas Pophale) SiO2 
 PCOD9310900
Probable space group: P 2 2 21
;
_chemical_formula_sum "Si O2"
_cell_formula_units_Z 32
_cell_length_a 11.967071
_cell_length_b 8.706462
_cell_length_c 16.035846
_cell_angle_alpha 90.000000
_cell_angle_beta 90.000000
_cell_angle_gamma 90.000000
_cell_volume 1670.788408
_symmetry_space_group_name_H-M "P 2 2 21"
_symmetry_group_IT_number 17
_symmetry_cell_setting 'orthorhombic'
loop_
_space_group_symop_operation_xyz
x,y,z
-x,-y,1/2+z
x,-y,-z
-x,y,1/2-z
loop_
_atom_site_type_symbol
_atom_site_label
_atom_site_fract_x
_atom_site_fract_y
_atom_site_fract_z
Si Si1 0.997229 0.108945 0.580905
Si Si2 0.557763 0.817410 0.336945
Si Si3 0.781729 0.686262 0.403576
Si Si4 0.414474 0.184975 0.498713
Si Si5 0.782645 0.327676 0.401761
Si Si6 0.832034 0.680157 0.985429
Si Si7 0.015247 0.197711 0.344160
Si Si8 0.561555 0.812908 0.664063
O O1 0.889165 0.205489 0.606790
O O2 0.093663 0.224874 0.551882
O O3 0.974899 0.000000 0.500000
O O4 0.033739 0.985319 0.649515
O O5 0.500000 0.774369 0.250000
O O6 0.677599 0.740712 0.349498
O O7 0.480448 0.776168 0.416328
O O8 0.574366 0.002046 0.337024
O O9 0.805731 0.507515 0.387658
O O10 0.749758 0.696872 0.501612
O O11 0.295066 0.265630 0.492722
O O12 0.487469 0.225883 0.417270
O O13 0.397915 0.000000 0.500000
O O14 0.897358 0.238485 0.386851
O O15 0.681823 0.265604 0.345849
O O16 0.886150 0.723141 0.896090
O O17 0.843049 0.500000 0.000000
O O18 0.000000 0.249229 0.250000
O O19 0.500000 0.770363 0.750000
#
# Coordination Sequence:
#
# PCOD9310900 Si02
#       8
#     4   4   4   4   4   4   4   4
#     4  10  20  39  65  88 114 161 203 251 297 368
#     4  10  22  40  61  93 122 158 211 261 302 364
#     4  11  21  38  65  92 121 157 203 256 313 374
#     4  10  21  39  62  86 124 168 205 252 309 361
#     4  11  22  38  64  93 123 159 202 254 316 370
#     4  11  23  42  64  87 126 167 206 247 315 384
#     4  11  24  41  65  93 123 158 213 262 304 364
#     4  10  22  38  63  90 121 163 212 252 300 369
#
# _framework density 19.152636999999999
#
# number of rings (size 3 to 8) (size 9 to 14) (size 15 to 20)
#    0.000    1.500    3.750    2.625    1.750    1.500 
#    9.000    1.250    0.000    0.000    0.000    0.000 
#    0.000    0.000    0.000    0.000    0.000    0.000 
#
# Total GULP energy -178748.493639 kJ/mol
# GULP energy per Si atom -5585.890426 kJ/mol
# Density = 1.910904 g / cm^3
# Si number density = 19.152637 Si / 1000 Ang^3
#
#
#
# Elastic Constant Matrix: (Units=GPa)
#
#
# Indices 1 2 3 4 5 6 
#
# 1 88.1117 40.9241 12.0401 0.0000 0.0000 0.0000
# 2 40.9241 68.2706 17.5660 0.0000 0.0000 0.0000
# 3 12.0401 17.5660 78.3870 0.0000 0.0000 0.0000
# 4 0.0000 0.0000 0.0000 11.2266 0.0000 0.0000
# 5 0.0000 0.0000 0.0000 0.0000 14.1327 0.0000
# 6 0.0000 0.0000 0.0000 0.0000 0.0000 258.6538
#
#
#
# Elastic Compliance Matrix: (Units=1/GPa)
#
#
# Indices 1 2 3 4 5 6 
#
# 1 0.015736 -0.009350 -0.000322 0.000000 0.000000 0.000000
# 2 -0.009350 0.021099 -0.003292 0.000000 0.000000 0.000000
# 3 -0.000322 -0.003292 0.013544 0.000000 0.000000 0.000000
# 4 0.000000 0.000000 0.000000 0.089074 0.000000 0.000000
# 5 0.000000 0.000000 0.000000 0.000000 0.070758 0.000000
# 6 0.000000 0.000000 0.000000 0.000000 0.000000 0.003866
#
#
# Mechanical properties :
#
#
# Convention : Reuss Voigt Hill
#
# Bulk Modulus (GPa) = 40.89632 41.75885 41.32759
# Shear Modulus (GPa) = 20.14860 67.75189 43.95025
#
# Velocity S-wave (km/s) = 3.24698 5.95412 4.79554
# Velocity P-wave (km/s) = 5.95452 8.31380 7.23103
#
# Compressibility (1/GPa) = 0.02445208
#
# Stress axis : x y z
#
# Youngs Moduli (GPa) = 63.54937 47.39493 73.83139
#
# Poissons Ratio (x) = 0.44314 0.02376
# Poissons Ratio (y) = 0.59418 0.24306
# Poissons Ratio (z) = 0.02045 0.15603
#
# Static dielectric constant tensor:
#      x y z
#    x 1.626820 0.000000 0.000000 
#    y 0.000000 1.658660 0.000000 
#    z 0.000000 0.000000 1.695760 
# 
# From -- ./inp_files/8579.got.cif
#   From: 2010.05.17/outbox.cif.g08.bks.cpg/sg17_5_cif.got.tgz:8579.got - 2010.06.03 22:34:06.
