data_PCOD9310917
_publ_section_title
;
Structure prediction by ZEFSAII (Michael W. Deem and Ramdas Pophale) SiO2 
 PCOD9310917
Probable space group: P 2 2 21
;
_chemical_formula_sum "Si O2"
_cell_formula_units_Z 24
_cell_length_a 13.067033
_cell_length_b 10.669958
_cell_length_c 8.928160
_cell_angle_alpha 90.000000
_cell_angle_beta 90.000000
_cell_angle_gamma 90.000000
_cell_volume 1244.805970
_symmetry_space_group_name_H-M "P 2 2 21"
_symmetry_group_IT_number 17
_symmetry_cell_setting 'orthorhombic'
loop_
_space_group_symop_operation_xyz
x,y,z
-x,-y,1/2+z
x,-y,-z
-x,y,1/2-z
loop_
_atom_site_type_symbol
_atom_site_label
_atom_site_fract_x
_atom_site_fract_y
_atom_site_fract_z
Si Si1 0.254620 0.398921 0.617995
Si Si2 0.110240 0.202295 0.075778
Si Si3 0.268866 0.000000 0.000000
Si Si4 0.274410 0.000000 0.500000
Si Si5 0.098982 0.416961 0.854975
Si Si6 0.125683 0.779860 0.592361
Si Si7 0.621488 0.163776 0.751736
O O1 0.299678 0.500000 0.500000
O O2 0.193230 0.461954 0.754110
O O3 0.168420 0.323402 0.522039
O O4 0.328821 0.296006 0.694000
O O5 0.121806 0.268517 0.236995
O O6 0.989570 0.174000 0.059453
O O7 0.188162 0.087733 0.087327
O O8 0.132653 0.285281 0.929888
O O9 0.335339 0.903659 0.100765
O O10 0.202068 0.104635 0.427311
O O11 0.344186 0.066325 0.621603
O O12 0.000000 0.406070 0.750000
O O13 0.074353 0.500000 0.000000
O O14 0.500000 0.177291 0.750000
#
# Coordination Sequence:
#
# PCOD9310917 Si02
#       7
#     4   4   2   2   4   4   4
#     4  11  23  43  65  89 126 172 217 265 325 383
#     4  11  22  36  59  96 130 168 209 250 308 386
#     4  12  22  42  64  96 134 162 212 274 324 386
#     4  10  20  40  60  92 126 170 204 258 334 386
#     4  12  24  38  61  92 129 172 215 261 312 388
#     4  10  21  36  60  90 135 171 209 246 309 394
#     4  11  24  43  69  92 123 163 221 282 335 388
#
# _framework density 19.280113
#
# number of rings (size 3 to 8) (size 9 to 14) (size 15 to 20)
#    0.000    1.000    5.000    2.500    2.333    0.000 
#    3.000    0.833    0.000    0.000    0.000    0.000 
#    0.000    0.000    0.000    0.000    0.000    0.000 
#
# Total GULP energy -133839.897993 kJ/mol
# GULP energy per Si atom -5576.662416 kJ/mol
# Density = 1.923623 g / cm^3
# Si number density = 19.280113 Si / 1000 Ang^3
#
#
#
# Elastic Constant Matrix: (Units=GPa)
#
#
# Indices 1 2 3 4 5 6 
#
# 1 130.4158 43.5279 51.9326 0.0000 0.0000 0.0000
# 2 43.5279 81.8110 38.9536 0.0000 0.0000 0.0000
# 3 51.9326 38.9536 113.6307 0.0000 0.0000 0.0000
# 4 0.0000 0.0000 0.0000 36.8031 0.0000 0.0000
# 5 0.0000 0.0000 0.0000 0.0000 18.9871 0.0000
# 6 0.0000 0.0000 0.0000 0.0000 0.0000 8.7406
#
#
#
# Elastic Compliance Matrix: (Units=1/GPa)
#
#
# Indices 1 2 3 4 5 6 
#
# 1 0.010308 -0.003873 -0.003383 0.000000 0.000000 0.000000
# 2 -0.003873 0.016063 -0.003736 0.000000 0.000000 0.000000
# 3 -0.003383 -0.003736 0.011627 0.000000 0.000000 0.000000
# 4 0.000000 0.000000 0.000000 0.027172 0.000000 0.000000
# 5 0.000000 0.000000 0.000000 0.000000 0.052667 0.000000
# 6 0.000000 0.000000 0.000000 0.000000 0.000000 0.114409
#
#
# Mechanical properties :
#
#
# Convention : Reuss Voigt Hill
#
# Bulk Modulus (GPa) = 62.45055 66.07618 64.26336
# Shear Modulus (GPa) = 19.26263 25.66904 22.46584
#
# Velocity S-wave (km/s) = 3.16427 3.65276 3.41726
# Velocity P-wave (km/s) = 6.76843 7.22054 6.99814
#
# Compressibility (1/GPa) = 0.01601267
#
# Stress axis : x y z
#
# Youngs Moduli (GPa) = 97.01411 62.25409 86.00332
#
# Poissons Ratio (x) = 0.24114 0.29096
# Poissons Ratio (y) = 0.37578 0.32134
# Poissons Ratio (z) = 0.32821 0.23260
#
# Static dielectric constant tensor:
#      x y z
#    x 1.628640 0.000000 0.000000 
#    y 0.000000 1.868400 0.000000 
#    z 0.000000 0.000000 1.710660 
# 
# From -- ./inp_files/4826.got.cif
#   From: 2010.05.17/outbox.cif.g08.bks.cpg/sg17_3_cif.got.tgz:4826.got - 2010.06.03 22:34:06.
