data_PCOD9310543
_publ_section_title
;
Structure prediction by ZEFSAII (Michael W. Deem and Ramdas Pophale) SiO2 
 PCOD9310543
Probable space group: P 2 2 21
;
_chemical_formula_sum "Si O2"
_cell_formula_units_Z 24
_cell_length_a 23.700116
_cell_length_b 5.590237
_cell_length_c 8.920273
_cell_angle_alpha 90.000000
_cell_angle_beta 90.000000
_cell_angle_gamma 90.000000
_cell_volume 1181.840417
_symmetry_space_group_name_H-M "P 2 2 21"
_symmetry_group_IT_number 17
_symmetry_cell_setting 'orthorhombic'
loop_
_space_group_symop_operation_xyz
x,y,z
-x,-y,1/2+z
x,-y,-z
-x,y,1/2-z
loop_
_atom_site_type_symbol
_atom_site_label
_atom_site_fract_x
_atom_site_fract_y
_atom_site_fract_z
Si Si1 0.654877 0.293241 0.270130
Si Si2 0.586447 0.000000 0.500000
Si Si3 0.395244 0.000000 0.500000
Si Si4 0.441338 0.331623 0.731452
Si Si5 0.775370 0.748728 0.595772
Si Si6 0.000000 0.156366 0.750000
Si Si7 0.104355 0.139334 0.159088
Si Si8 0.032392 0.500000 0.000000
O O1 0.617362 0.527761 0.243741
O O2 0.720592 0.310602 0.305162
O O3 0.626457 0.188008 0.418645
O O4 0.641820 0.117524 0.131259
O O5 0.555332 0.863218 0.365434
O O6 0.434537 0.799984 0.426170
O O7 0.500000 0.476320 0.750000
O O8 0.785939 0.500000 0.500000
O O9 0.830875 0.807171 0.695487
O O10 0.765351 0.000000 0.500000
O O11 0.000926 0.306738 0.595868
O O12 0.941878 0.006354 0.751802
O O13 0.072893 0.384548 0.123388
O O14 0.108028 0.000000 0.000000
#
# Coordination Sequence:
#
# PCOD9310543 Si02
#       8
#     4   2   2   4   4   2   4   2
#     4  11  23  40  64  90 126 166 213 266 331 391
#     4  10  21  38  60  90 118 157 208 272 320 379
#     4  10  25  42  60  88 128 173 202 264 342 401
#     4  11  23  40  62  92 124 163 212 267 332 402
#     4  11  22  40  70 101 130 168 230 283 325 385
#     4  10  20  34  62  92 134 172 214 266 332 394
#     4   9  19  35  59  94 129 170 215 270 326 382
#     4  10  18  36  58  92 126 172 208 266 326 388
#
# _framework density 20.307312
#
# number of rings (size 3 to 8) (size 9 to 14) (size 15 to 20)
#    0.000    1.667    1.667    3.000    2.333    5.333 
#    0.000    0.000    9.167    0.000    0.000    0.000 
#    0.000    0.000    0.000    0.000    0.000    0.000 
#
# Total GULP energy -133731.547154 kJ/mol
# GULP energy per Si atom -5572.147798 kJ/mol
# Density = 2.026109 g / cm^3
# Si number density = 20.307312 Si / 1000 Ang^3
#
#
#
# Elastic Constant Matrix: (Units=GPa)
#
#
# Indices 1 2 3 4 5 6 
#
# 1 189.9474 41.6818 29.4689 0.0000 0.0000 0.0000
# 2 41.6818 79.3855 8.8083 0.0000 0.0000 0.0000
# 3 29.4689 8.8083 51.4387 0.0000 0.0000 0.0000
# 4 0.0000 0.0000 0.0000 41.2233 0.0000 0.0000
# 5 0.0000 0.0000 0.0000 0.0000 13.6714 0.0000
# 6 0.0000 0.0000 0.0000 0.0000 0.0000 -10.5393
#
#
#
# Elastic Compliance Matrix: (Units=1/GPa)
#
#
# Indices 1 2 3 4 5 6 
#
# 1 0.006417 -0.003019 -0.003159 0.000000 0.000000 0.000000
# 2 -0.003019 0.014261 -0.000713 0.000000 0.000000 0.000000
# 3 -0.003159 -0.000713 0.021373 0.000000 0.000000 0.000000
# 4 0.000000 0.000000 0.000000 0.024258 0.000000 0.000000
# 5 0.000000 0.000000 0.000000 0.000000 0.073146 0.000000
# 6 0.000000 0.000000 0.000000 0.000000 0.000000 -0.094883
#
#
# Mechanical properties :
#
#
# Convention : Reuss Voigt Hill
#
# Bulk Modulus (GPa) = 35.37432 53.40997 44.39214
# Shear Modulus (GPa) = 73.77197 24.92524 49.34861
#
# Velocity S-wave (km/s) = 6.03379 3.50723 4.93494
# Velocity P-wave (km/s) = 8.12401 6.53902 7.37422
#
# Compressibility (1/GPa) = 0.02826909
#
# Stress axis : x y z
#
# Youngs Moduli (GPa) = 155.83051 70.12193 46.78876
#
# Poissons Ratio (x) = 0.21169 0.14783
# Poissons Ratio (y) = 0.47043 0.03334
# Poissons Ratio (z) = 0.49234 0.04997
#
# Static dielectric constant tensor:
#      x y z
#    x 1.745570 0.000000 0.000000 
#    y 0.000000 2.025020 0.000000 
#    z 0.000000 0.000000 1.698170 
# 
# From -- ./inp_files/5574.got.cif
#   From: 2010.05.17/outbox.cif.g08.bks.cpg/sg17_3_cif.got.tgz:5574.got - 2010.06.03 22:34:06.
