data_PCOD9310573
_publ_section_title
;
Structure prediction by ZEFSAII (Michael W. Deem and Ramdas Pophale) SiO2 
 PCOD9310573
Probable space group: P 2 2 21
;
_chemical_formula_sum "Si O2"
_cell_formula_units_Z 24
_cell_length_a 11.805147
_cell_length_b 19.649595
_cell_length_c 5.677295
_cell_angle_alpha 90.000000
_cell_angle_beta 90.000000
_cell_angle_gamma 90.000000
_cell_volume 1316.941441
_symmetry_space_group_name_H-M "P 2 2 21"
_symmetry_group_IT_number 17
_symmetry_cell_setting 'orthorhombic'
loop_
_space_group_symop_operation_xyz
x,y,z
-x,-y,1/2+z
x,-y,-z
-x,y,1/2-z
loop_
_atom_site_type_symbol
_atom_site_label
_atom_site_fract_x
_atom_site_fract_y
_atom_site_fract_z
Si Si1 0.125166 0.081300 0.497345
Si Si2 0.813881 0.405943 0.897342
Si Si3 0.865821 0.866223 0.494244
Si Si4 0.000000 0.616200 0.750000
Si Si5 0.628762 0.631618 0.722586
Si Si6 0.177591 0.293391 0.970108
Si Si7 0.713199 0.500000 0.500000
O O1 0.180112 0.102645 0.747759
O O2 0.999134 0.113986 0.501420
O O3 0.113440 0.000000 0.500000
O O4 0.178144 0.106042 0.247967
O O5 0.834189 0.332410 0.776868
O O6 0.789330 0.464239 0.703220
O O7 0.700580 0.391613 0.048598
O O8 0.922923 0.421756 0.058074
O O9 0.848768 0.785630 0.474795
O O10 0.910643 0.664946 0.625847
O O11 0.500000 0.652828 0.750000
O O12 0.701036 0.687938 0.582550
O O13 0.634818 0.561816 0.577248
#
# Coordination Sequence:
#
# PCOD9310573 Si02
#       7
#     4   4   4   2   4   4   2
#     4  10  19  31  50  82 122 165 204 240 277 335
#     4  10  22  38  61  84 116 145 199 242 298 363
#     4  10  19  29  51  78 114 162 195 233 285 342
#     4  10  20  36  60  78 120 152 190 236 280 352
#     4  10  23  40  64  83 110 142 193 260 310 363
#     4  10  22  35  57  85 115 158 196 236 291 362
#     4  10  22  38  62  88 106 144 192 250 312 366
#
# _framework density 18.224043999999999
#
# number of rings (size 3 to 8) (size 9 to 14) (size 15 to 20)
#    0.000    2.000    0.000    4.500   11.667    2.000 
#    0.000    0.000  132.000    0.000    0.000    0.000 
#    0.000    4.000    0.000    0.000    0.000    0.000 
#
# Total GULP energy -133784.648733 kJ/mol
# GULP energy per Si atom -5574.360364 kJ/mol
# Density = 1.818257 g / cm^3
# Si number density = 18.224044 Si / 1000 Ang^3
#
#
#
# Elastic Constant Matrix: (Units=GPa)
#
#
# Indices 1 2 3 4 5 6 
#
# 1 83.5535 13.3082 24.1817 0.0000 0.0000 0.0000
# 2 13.3082 119.6491 23.5313 0.0000 0.0000 0.0000
# 3 24.1817 23.5313 118.5530 0.0000 0.0000 0.0000
# 4 0.0000 0.0000 0.0000 23.5236 0.0000 0.0000
# 5 0.0000 0.0000 0.0000 0.0000 5.8586 0.0000
# 6 0.0000 0.0000 0.0000 0.0000 0.0000 15.4926
#
#
#
# Elastic Compliance Matrix: (Units=1/GPa)
#
#
# Indices 1 2 3 4 5 6 
#
# 1 0.012822 -0.000949 -0.002427 0.000000 0.000000 0.000000
# 2 -0.000949 0.008767 -0.001547 0.000000 0.000000 0.000000
# 3 -0.002427 -0.001547 0.009237 0.000000 0.000000 0.000000
# 4 0.000000 0.000000 0.000000 0.042510 0.000000 0.000000
# 5 0.000000 0.000000 0.000000 0.000000 0.170688 0.000000
# 6 0.000000 0.000000 0.000000 0.000000 0.000000 0.064547
#
#
# Mechanical properties :
#
#
# Convention : Reuss Voigt Hill
#
# Bulk Modulus (GPa) = 47.66117 49.31089 48.48603
# Shear Modulus (GPa) = 15.36518 26.35726 20.86122
#
# Velocity S-wave (km/s) = 2.90681 3.80714 3.38702
# Velocity P-wave (km/s) = 6.12175 6.81488 6.47759
#
# Compressibility (1/GPa) = 0.02098144
#
# Stress axis : x y z
#
# Youngs Moduli (GPa) = 77.99147 114.05765 108.25915
#
# Poissons Ratio (x) = 0.10822 0.26275
# Poissons Ratio (y) = 0.07400 0.16745
# Poissons Ratio (z) = 0.18929 0.17641
#
# Static dielectric constant tensor:
#      x y z
#    x 1.597210 0.000000 0.000000 
#    y 0.000000 1.600070 0.000000 
#    z 0.000000 0.000000 1.768490 
# 
# From -- ./inp_files/1706.got.cif
#   From: 2010.05.17/outbox.cif.g08.bks.cpg/sg17_1_cif.got.tgz:1706.got - 2010.06.03 22:34:06.
