data_PCOD9310334
_publ_section_title
;
Structure prediction by ZEFSAII (Michael W. Deem and Ramdas Pophale) SiO2 
 PCOD9310334
Probable space group: P 2 2 2
;
_chemical_formula_sum "Si O2"
_cell_formula_units_Z 12
_cell_length_a 6.278488
_cell_length_b 17.109597
_cell_length_c 4.839943
_cell_angle_alpha 90.000000
_cell_angle_beta 90.000000
_cell_angle_gamma 90.000000
_cell_volume 519.918290
_symmetry_space_group_name_H-M "P 2 2 2"
_symmetry_group_IT_number 16
_symmetry_cell_setting 'orthorhombic'
loop_
_space_group_symop_operation_xyz
x,y,z
-x,-y,z
x,-y,-z
-x,y,-z
loop_
_atom_site_type_symbol
_atom_site_label
_atom_site_fract_x
_atom_site_fract_y
_atom_site_fract_z
Si Si1 0.500000 0.894464 0.500000
Si Si2 0.847012 0.778502 0.751884
Si Si3 0.500000 0.000000 0.000000
Si Si4 0.345330 0.390191 0.762737
Si Si5 0.000000 0.500000 0.000000
O O1 0.680965 0.842665 0.644275
O O2 0.600754 0.943027 0.237999
O O3 0.724968 0.698927 0.822440
O O4 0.000000 0.757333 0.500000
O O5 0.000000 0.804785 0.000000
O O6 0.500000 0.393012 0.500000
O O7 0.500000 0.416444 0.000000
O O8 0.140317 0.444617 0.800248
#
# Coordination Sequence:
#
# PCOD9310334 Si02
#       5
#     2   4   1   4   1
#     4  11  24  46  76 108 159 194 250 307 374 462
#     4  12  25  45  77 112 145 196 257 309 369 454
#     4  10  24  46  74 114 152 202 232 310 394 434
#     4  12  28  49  74 108 148 200 259 316 384 444
#     4  12  30  50  72 108 164 196 262 334 376 444
#
# _framework density 23.080549999999999
#
# number of rings (size 3 to 8) (size 9 to 14) (size 15 to 20)
#    0.000    0.333    3.333    4.500    2.333    4.000 
#    0.000   12.500    0.000    0.000    0.000    0.000 
#    0.000    0.000    0.000    0.000    0.000    0.000 
#
# Total GULP energy -67021.294101 kJ/mol
# GULP energy per Si atom -5585.107842 kJ/mol
# Density = 2.302802 g / cm^3
# Si number density = 23.080550 Si / 1000 Ang^3
#
#
#
# Elastic Constant Matrix: (Units=GPa)
#
#
# Indices 1 2 3 4 5 6 
#
# 1 129.6492 65.7282 56.9998 0.0000 0.0000 0.0000
# 2 65.7282 144.4356 52.1178 0.0000 0.0000 0.0000
# 3 56.9998 52.1178 140.9518 0.0000 0.0000 0.0000
# 4 0.0000 0.0000 0.0000 43.3299 0.0000 0.0000
# 5 0.0000 0.0000 0.0000 0.0000 50.7666 0.0000
# 6 0.0000 0.0000 0.0000 0.0000 0.0000 1.5684
#
#
#
# Elastic Compliance Matrix: (Units=1/GPa)
#
#
# Indices 1 2 3 4 5 6 
#
# 1 0.011029 -0.003935 -0.003005 0.000000 0.000000 0.000000
# 2 -0.003935 0.009393 -0.001882 0.000000 0.000000 0.000000
# 3 -0.003005 -0.001882 0.009006 0.000000 0.000000 0.000000
# 4 0.000000 0.000000 0.000000 0.023079 0.000000 0.000000
# 5 0.000000 0.000000 0.000000 0.000000 0.019698 0.000000
# 6 0.000000 0.000000 0.000000 0.000000 0.000000 0.637609
#
#
# Mechanical properties :
#
#
# Convention : Reuss Voigt Hill
#
# Bulk Modulus (GPa) = 84.85886 84.96980 84.91433
# Shear Modulus (GPa) = 6.83634 35.14569 20.99102
#
# Velocity S-wave (km/s) = 1.72290 3.90646 3.01901
# Velocity P-wave (km/s) = 6.38780 7.56582 7.00163
#
# Compressibility (1/GPa) = 0.01178427
#
# Stress axis : x y z
#
# Youngs Moduli (GPa) = 90.66937 106.46085 111.03930
#
# Poissons Ratio (x) = 0.41888 0.33370
# Poissons Ratio (y) = 0.35675 0.20898
# Poissons Ratio (z) = 0.27248 0.20036
#
# Static dielectric constant tensor:
#      x y z
#    x 1.799960 0.000000 0.000000 
#    y 0.000000 1.921060 0.000000 
#    z 0.000000 0.000000 1.853780 
# 
# From -- ./inp_files/124.got.cif
#   From: 2010.05.17/outbox.cif.g08.bks.cpg/sg16_1_cif.got.tgz:124.got - 2010.06.03 22:28:35.
