data_PCOD9310455
_publ_section_title
;
Structure prediction by ZEFSAII (Michael W. Deem and Ramdas Pophale) SiO2 
 PCOD9310455
Probable space group: P 2 2 21
;
_chemical_formula_sum "Si O2"
_cell_formula_units_Z 32
_cell_length_a 17.903445
_cell_length_b 10.324370
_cell_length_c 10.512267
_cell_angle_alpha 90.000000
_cell_angle_beta 90.000000
_cell_angle_gamma 90.000000
_cell_volume 1943.106254
_symmetry_space_group_name_H-M "P 2 2 21"
_symmetry_group_IT_number 17
_symmetry_cell_setting 'orthorhombic'
loop_
_space_group_symop_operation_xyz
x,y,z
-x,-y,1/2+z
x,-y,-z
-x,y,1/2-z
loop_
_atom_site_type_symbol
_atom_site_label
_atom_site_fract_x
_atom_site_fract_y
_atom_site_fract_z
Si Si1 0.669505 0.741083 0.853805
Si Si2 0.820204 0.654170 0.245837
Si Si3 0.431037 0.992863 0.651814
Si Si4 0.919083 0.656972 0.001334
Si Si5 0.910111 0.342836 0.501634
Si Si6 0.563504 0.506207 0.145586
Si Si7 0.332473 0.754439 0.349769
Si Si8 0.176739 0.339571 0.253937
O O1 0.614662 0.860364 0.826939
O O2 0.622898 0.609127 0.840959
O O3 0.743737 0.729200 0.770525
O O4 0.692381 0.752233 0.002192
O O5 0.863672 0.691639 0.373327
O O6 0.739783 0.720443 0.232761
O O7 0.811049 0.496661 0.243423
O O8 0.871456 0.691378 0.125478
O O9 0.500000 0.000177 0.750000
O O10 0.452635 0.000000 0.500000
O O11 0.374165 0.111315 0.675603
O O12 0.875473 0.694328 0.873835
O O13 0.922379 0.500000 0.000000
O O14 0.004409 0.704264 0.004782
O O15 0.913733 0.500000 0.500000
O O16 0.866225 0.304927 0.374718
O O17 0.500000 0.492064 0.250000
O O18 0.606771 0.640729 0.163823
O O19 0.534353 0.500000 0.000000
#
# Coordination Sequence:
#
# PCOD9310455 Si02
#       8
#     4   4   4   4   4   4   4   4
#     4  10  19  34  55  75 100 136 169 207 251 304
#     4  10  17  29  48  73 106 137 172 210 253 297
#     4  10  22  40  58  76 101 131 174 214 251 307
#     4   9  16  26  48  69 102 145 175 201 251 307
#     4   9  18  28  40  75 112 137 167 213 255 295
#     4  10  20  34  52  76 101 127 164 202 257 311
#     4  10  19  34  55  75 100 136 169 207 251 304
#     4  10  17  29  48  73 106 137 172 210 253 297
#
# _framework density 16.468478000000001
#
# number of rings (size 3 to 8) (size 9 to 14) (size 15 to 20)
#    0.000    2.250    2.500    1.500    0.000    3.000 
#    4.500    0.000    0.000    0.000    0.000    5.250 
#    0.000    0.000    0.000    0.000    0.000    0.000 
#
# Total GULP energy -178407.853920 kJ/mol
# GULP energy per Si atom -5575.245435 kJ/mol
# Density = 1.643100 g / cm^3
# Si number density = 16.468478 Si / 1000 Ang^3
#
#
#
# Elastic Constant Matrix: (Units=GPa)
#
#
# Indices 1 2 3 4 5 6 
#
# 1 83.8138 -13.1104 59.9769 0.0000 0.0000 0.0000
# 2 -13.1104 24.6996 -2.5586 0.0000 0.0000 0.0000
# 3 59.9769 -2.5586 118.8645 0.0000 0.0000 0.0000
# 4 0.0000 0.0000 0.0000 8.2871 0.0000 0.0000
# 5 0.0000 0.0000 0.0000 0.0000 23.2913 0.0000
# 6 0.0000 0.0000 0.0000 0.0000 0.0000 13.6172
#
#
#
# Elastic Compliance Matrix: (Units=1/GPa)
#
#
# Indices 1 2 3 4 5 6 
#
# 1 0.020885 0.010016 -0.010322 0.000000 0.000000 0.000000
# 2 0.010016 0.045381 -0.004077 0.000000 0.000000 0.000000
# 3 -0.010322 -0.004077 0.013534 0.000000 0.000000 0.000000
# 4 0.000000 0.000000 0.000000 0.120669 0.000000 0.000000
# 5 0.000000 0.000000 0.000000 0.000000 0.042934 0.000000
# 6 0.000000 0.000000 0.000000 0.000000 0.000000 0.073437
#
#
# Mechanical properties :
#
#
# Convention : Reuss Voigt Hill
#
# Bulk Modulus (GPa) = 14.07808 35.11042 24.59425
# Shear Modulus (GPa) = 14.31503 21.24379 17.77941
#
# Velocity S-wave (km/s) = 2.95148 3.59551 3.28930
# Velocity P-wave (km/s) = 4.49245 6.21313 5.42149
#
# Compressibility (1/GPa) = 0.07103240
#
# Stress axis : x y z
#
# Youngs Moduli (GPa) = 47.88194 22.03576 73.88960
#
# Poissons Ratio (x) = -0.22072 0.76272
# Poissons Ratio (y) = -0.47960 0.30126
# Poissons Ratio (z) = 0.49426 0.08984
#
# Static dielectric constant tensor:
#      x y z
#    x 1.536150 0.000000 0.000000 
#    y 0.000000 1.539770 0.000000 
#    z 0.000000 0.000000 1.553740 
# 
# From -- ./inp_files/5509.got.cif
#   From: 2010.05.17/outbox.cif.g08.bks.cpg/sg17_3_cif.got.tgz:5509.got - 2010.06.03 22:34:06.
