data_PCOD9310692
_publ_section_title
;
Structure prediction by ZEFSAII (Michael W. Deem and Ramdas Pophale) SiO2 
 PCOD9310692
Probable space group: P 2 2 21
;
_chemical_formula_sum "Si O2"
_cell_formula_units_Z 18
_cell_length_a 5.682730
_cell_length_b 18.886750
_cell_length_c 7.486297
_cell_angle_alpha 90.000000
_cell_angle_beta 90.000000
_cell_angle_gamma 90.000000
_cell_volume 803.491537
_symmetry_space_group_name_H-M "P 2 2 21"
_symmetry_group_IT_number 17
_symmetry_cell_setting 'orthorhombic'
loop_
_space_group_symop_operation_xyz
x,y,z
-x,-y,1/2+z
x,-y,-z
-x,y,1/2-z
loop_
_atom_site_type_symbol
_atom_site_label
_atom_site_fract_x
_atom_site_fract_y
_atom_site_fract_z
Si Si1 0.689418 0.800543 0.585901
Si Si2 0.763666 0.363360 0.441672
Si Si3 0.737855 0.416947 0.035640
Si Si4 0.333019 0.000000 0.500000
Si Si5 0.000000 0.085666 0.250000
Si Si6 0.500000 0.873189 0.250000
O O1 0.500000 0.809421 0.750000
O O2 0.776749 0.720303 0.595819
O O3 0.614237 0.816246 0.384706
O O4 0.884615 0.860563 0.613054
O O5 0.750305 0.401557 0.248458
O O6 0.508436 0.381245 0.527864
O O7 0.008117 0.388056 0.531889
O O8 0.723332 0.500000 0.000000
O O9 0.183282 0.965009 0.656674
O O10 0.447398 0.932095 0.405838
#
# Coordination Sequence:
#
# PCOD9310692 Si02
#       6
#     4   4   4   2   2   2
#     4  12  24  47  72 102 145 190 242 305 373 438
#     4  10  22  39  66  96 137 186 231 300 359 432
#     4  10  19  37  65  96 134 182 236 287 366 427
#     4  12  24  44  68 106 144 182 248 304 368 448
#     4  12  24  42  74 100 140 194 238 304 374 442
#     4  12  26  46  72 106 142 192 246 302 378 448
#
# _framework density 22.402227
#
# number of rings (size 3 to 8) (size 9 to 14) (size 15 to 20)
#    0.000    0.889    4.444    4.667    0.000    0.000 
#    0.000    6.667    0.000    0.000    0.000    0.000 
#    0.000    0.000    0.000    0.000    0.000    0.000 
#
# Total GULP energy -100215.793290 kJ/mol
# GULP energy per Si atom -5567.544072 kJ/mol
# Density = 2.235124 g / cm^3
# Si number density = 22.402227 Si / 1000 Ang^3
#
#
#
# Elastic Constant Matrix: (Units=GPa)
#
#
# Indices 1 2 3 4 5 6 
#
# 1 125.4003 18.2701 -5.0239 0.0000 0.0000 0.0000
# 2 18.2701 145.6672 0.6644 0.0000 0.0000 0.0000
# 3 -5.0239 0.6644 84.4991 0.0000 0.0000 0.0000
# 4 0.0000 0.0000 0.0000 45.6900 0.0000 0.0000
# 5 0.0000 0.0000 0.0000 0.0000 78.0913 0.0000
# 6 0.0000 0.0000 0.0000 0.0000 0.0000 5.8749
#
#
#
# Elastic Compliance Matrix: (Units=1/GPa)
#
#
# Indices 1 2 3 4 5 6 
#
# 1 0.008143 -0.001024 0.000492 0.000000 0.000000 0.000000
# 2 -0.001024 0.006994 -0.000116 0.000000 0.000000 0.000000
# 3 0.000492 -0.000116 0.011865 0.000000 0.000000 0.000000
# 4 0.000000 0.000000 0.000000 0.021887 0.000000 0.000000
# 5 0.000000 0.000000 0.000000 0.000000 0.012806 0.000000
# 6 0.000000 0.000000 0.000000 0.000000 0.000000 0.170217
#
#
# Mechanical properties :
#
#
# Convention : Reuss Voigt Hill
#
# Bulk Modulus (GPa) = 38.89943 42.59863 40.74903
# Shear Modulus (GPa) = 20.68043 48.70831 34.69437
#
# Velocity S-wave (km/s) = 3.04162 4.66796 3.93962
# Velocity P-wave (km/s) = 5.45317 6.93612 6.23886
#
# Compressibility (1/GPa) = 0.02570732
#
# Stress axis : x y z
#
# Youngs Moduli (GPa) = 122.80014 142.98221 84.28422
#
# Poissons Ratio (x) = 0.14636 -0.04149
# Poissons Ratio (y) = 0.12570 0.00976
# Poissons Ratio (z) = -0.06044 0.01656
#
# Static dielectric constant tensor:
#      x y z
#    x 1.947480 0.000000 0.000000 
#    y 0.000000 1.695100 0.000000 
#    z 0.000000 0.000000 2.739350 
# 
# From -- ./inp_files/3518.got.cif
#   From: 2010.05.17/outbox.cif.g08.bks.cpg/sg17_2_cif.got.tgz:3518.got - 2010.06.03 22:34:06.
