data_PCOD9310669
_publ_section_title
;
Structure prediction by ZEFSAII (Michael W. Deem and Ramdas Pophale) SiO2 
 PCOD9310669
Probable space group: P 2 2 21
;
_chemical_formula_sum "Si O2"
_cell_formula_units_Z 24
_cell_length_a 17.131416
_cell_length_b 11.781959
_cell_length_c 5.892770
_cell_angle_alpha 90.000000
_cell_angle_beta 90.000000
_cell_angle_gamma 90.000000
_cell_volume 1189.406366
_symmetry_space_group_name_H-M "P 2 2 21"
_symmetry_group_IT_number 17
_symmetry_cell_setting 'orthorhombic'
loop_
_space_group_symop_operation_xyz
x,y,z
-x,-y,1/2+z
x,-y,-z
-x,y,1/2-z
loop_
_atom_site_type_symbol
_atom_site_label
_atom_site_fract_x
_atom_site_fract_y
_atom_site_fract_z
Si Si1 0.575251 0.612183 0.636355
Si Si2 0.720787 0.682419 0.364013
Si Si3 0.933175 0.887435 0.390440
Si Si4 0.784014 0.115858 0.902195
Si Si5 0.312332 0.500000 0.500000
Si Si6 0.852419 0.714342 0.723304
Si Si7 0.000000 0.441742 0.250000
O O1 0.546705 0.500000 0.500000
O O2 0.500000 0.669432 0.750000
O O3 0.633463 0.673101 0.462253
O O4 0.632266 0.573667 0.837990
O O5 0.733217 0.808434 0.267584
O O6 0.784668 0.663160 0.562107
O O7 0.731826 0.587051 0.167780
O O8 0.861264 0.922928 0.232982
O O9 0.900040 0.803989 0.573908
O O10 0.000000 0.826289 0.250000
O O11 0.968650 0.000000 0.500000
O O12 0.811797 0.208452 0.086147
O O13 0.748238 0.000000 0.000000
O O14 0.919147 0.627030 0.797314
O O15 0.985525 0.500000 0.500000
#
# Coordination Sequence:
#
# PCOD9310669 Si02
#       7
#     4   4   4   4   2   4   2
#     4  10  19  36  61  97 137 169 201 256 321 401
#     4  10  24  37  65  95 136 169 217 268 331 403
#     4  11  22  35  62  92 118 156 209 285 348 391
#     4  11  22  41  63  91 128 165 222 284 335 394
#     4  10  20  40  60  98 136 168 204 260 326 398
#     4  11  25  46  62  89 127 175 227 276 338 402
#     4  12  32  50  64  88 132 192 238 286 346 422
#
# _framework density 20.178135000000001
#
# number of rings (size 3 to 8) (size 9 to 14) (size 15 to 20)
#    0.000    1.333    2.500    2.500    7.000    3.333 
#    1.500    0.000    0.000    0.000    0.000    0.000 
#   70.000    0.000    0.000    0.000    0.000    0.000 
#
# Total GULP energy -133969.078193 kJ/mol
# GULP energy per Si atom -5582.044925 kJ/mol
# Density = 2.013221 g / cm^3
# Si number density = 20.178135 Si / 1000 Ang^3
#
#
#
# Elastic Constant Matrix: (Units=GPa)
#
#
# Indices 1 2 3 4 5 6 
#
# 1 87.7141 44.6942 24.9734 0.0000 0.0000 0.0000
# 2 44.6942 74.2003 32.8299 0.0000 0.0000 0.0000
# 3 24.9734 32.8299 86.1090 0.0000 0.0000 0.0000
# 4 0.0000 0.0000 0.0000 28.6652 0.0000 0.0000
# 5 0.0000 0.0000 0.0000 0.0000 31.0206 0.0000
# 6 0.0000 0.0000 0.0000 0.0000 0.0000 12.9462
#
#
#
# Elastic Compliance Matrix: (Units=1/GPa)
#
#
# Indices 1 2 3 4 5 6 
#
# 1 0.016552 -0.009438 -0.001202 0.000000 0.000000 0.000000
# 2 -0.009438 0.021594 -0.005496 0.000000 0.000000 0.000000
# 3 -0.001202 -0.005496 0.014057 0.000000 0.000000 0.000000
# 4 0.000000 0.000000 0.000000 0.034885 0.000000 0.000000
# 5 0.000000 0.000000 0.000000 0.000000 0.032237 0.000000
# 6 0.000000 0.000000 0.000000 0.000000 0.000000 0.077243
#
#
# Mechanical properties :
#
#
# Convention : Reuss Voigt Hill
#
# Bulk Modulus (GPa) = 50.17261 50.33537 50.25399
# Shear Modulus (GPa) = 21.23293 24.22811 22.73052
#
# Velocity S-wave (km/s) = 3.24740 3.46889 3.35997
# Velocity P-wave (km/s) = 6.24336 6.40655 6.32548
#
# Compressibility (1/GPa) = 0.01993119
#
# Stress axis : x y z
#
# Youngs Moduli (GPa) = 60.41522 46.30995 71.13884
#
# Poissons Ratio (x) = 0.43709 0.08551
# Poissons Ratio (y) = 0.57022 0.39094
# Poissons Ratio (z) = 0.07262 0.25450
#
# Static dielectric constant tensor:
#      x y z
#    x 1.702120 0.000000 0.000000 
#    y 0.000000 1.722860 0.000000 
#    z 0.000000 0.000000 1.791400 
# 
# From -- ./inp_files/2617.got.cif
#   From: 2010.05.17/outbox.cif.g08.bks.cpg/sg17_2_cif.got.tgz:2617.got - 2010.06.03 22:34:06.
