data_PCOD9310998
_publ_section_title
;
Structure prediction by ZEFSAII (Michael W. Deem and Ramdas Pophale) SiO2 
 PCOD9310998
Probable space group: P 2 2 21
;
_chemical_formula_sum "Si O2"
_cell_formula_units_Z 20
_cell_length_a 9.210263
_cell_length_b 9.279755
_cell_length_c 11.434319
_cell_angle_alpha 90.000000
_cell_angle_beta 90.000000
_cell_angle_gamma 90.000000
_cell_volume 977.279629
_symmetry_space_group_name_H-M "P 2 2 21"
_symmetry_group_IT_number 17
_symmetry_cell_setting 'orthorhombic'
loop_
_space_group_symop_operation_xyz
x,y,z
-x,-y,1/2+z
x,-y,-z
-x,y,1/2-z
loop_
_atom_site_type_symbol
_atom_site_label
_atom_site_fract_x
_atom_site_fract_y
_atom_site_fract_z
Si Si1 0.842451 0.231736 0.304422
Si Si2 0.326859 0.953537 0.276460
Si Si3 0.702357 0.162082 0.538290
Si Si4 0.384489 0.278605 0.551324
Si Si5 0.349162 0.565933 0.687658
O O1 0.821452 0.208146 0.443368
O O2 0.778272 0.387705 0.273483
O O3 0.000000 0.215021 0.250000
O O4 0.741993 0.109799 0.241810
O O5 0.500000 0.961167 0.250000
O O6 0.255775 0.856308 0.173387
O O7 0.317921 0.869201 0.398716
O O8 0.557369 0.257251 0.532894
O O9 0.657636 0.000000 0.500000
O O10 0.359514 0.400907 0.648781
O O11 0.327182 0.341899 0.430527
O O12 0.500000 0.606110 0.750000
#
# Coordination Sequence:
#
# PCOD9310998 Si02
#       5
#     4   4   4   4   4
#     4  11  23  39  60  90 129 170 203 245 313 385
#     4   9  19  38  63  92 120 154 211 263 306 359
#     4   9  18  36  63  90 119 157 204 260 309 360
#     4  10  21  36  64  94 116 149 211 266 312 363
#     4  11  21  37  63  90 121 159 209 259 313 366
#
# _framework density 20.464970999999998
#
# number of rings (size 3 to 8) (size 9 to 14) (size 15 to 20)
#    0.000    2.000    2.000    2.400    5.600    0.000 
#   10.800    1.000   13.200    0.000    0.000    0.000 
#    0.000    0.000    0.000    0.000    0.000    0.000 
#
# Total GULP energy -111569.406026 kJ/mol
# GULP energy per Si atom -5578.470301 kJ/mol
# Density = 2.041839 g / cm^3
# Si number density = 20.464971 Si / 1000 Ang^3
#
#
#
# Elastic Constant Matrix: (Units=GPa)
#
#
# Indices 1 2 3 4 5 6 
#
# 1 60.2034 23.4408 26.1306 0.0000 0.0000 0.0000
# 2 23.4408 50.3183 33.2592 0.0000 0.0000 0.0000
# 3 26.1306 33.2592 87.4304 0.0000 0.0000 0.0000
# 4 0.0000 0.0000 0.0000 32.2806 0.0000 0.0000
# 5 0.0000 0.0000 0.0000 0.0000 25.9240 0.0000
# 6 0.0000 0.0000 0.0000 0.0000 0.0000 -0.3538
#
#
#
# Elastic Compliance Matrix: (Units=1/GPa)
#
#
# Indices 1 2 3 4 5 6 
#
# 1 0.021028 -0.007537 -0.003418 0.000000 0.000000 0.000000
# 2 -0.007537 0.029250 -0.008874 0.000000 0.000000 0.000000
# 3 -0.003418 -0.008874 0.015835 0.000000 0.000000 0.000000
# 4 0.000000 0.000000 0.000000 0.030978 0.000000 0.000000
# 5 0.000000 0.000000 0.000000 0.000000 0.038574 0.000000
# 6 0.000000 0.000000 0.000000 0.000000 0.000000 -2.826400
#
#
# Mechanical properties :
#
#
# Convention : Reuss Voigt Hill
#
# Bulk Modulus (GPa) = 37.79939 40.40147 39.10043
# Shear Modulus (GPa) = -1.89232 19.24493 8.67631
#
# Velocity S-wave (km/s) = -0.96264 3.06990 2.06126
# Velocity P-wave (km/s) = 4.15630 5.68773 4.98122
#
# Compressibility (1/GPa) = 0.02645545
#
# Stress axis : x y z
#
# Youngs Moduli (GPa) = 47.55482 34.18757 63.15118
#
# Poissons Ratio (x) = 0.25767 0.21583
# Poissons Ratio (y) = 0.35842 0.56043
# Poissons Ratio (z) = 0.16253 0.30340
#
# Static dielectric constant tensor:
#      x y z
#    x 1.686140 0.000000 0.000000 
#    y 0.000000 1.770040 0.000000 
#    z 0.000000 0.000000 1.814400 
# 
# From -- ./inp_files/6390.got.cif
#   From: 2010.05.17/outbox.cif.g08.bks.cpg/sg17_4_cif.got.tgz:6390.got - 2010.06.03 22:34:06.
