data_PCOD9310820
_publ_section_title
;
Structure prediction by ZEFSAII (Michael W. Deem and Ramdas Pophale) SiO2 
 PCOD9310820
Probable space group: P 2 2 21
;
_chemical_formula_sum "Si O2"
_cell_formula_units_Z 30
_cell_length_a 23.515264
_cell_length_b 5.159245
_cell_length_c 13.243938
_cell_angle_alpha 90.000000
_cell_angle_beta 90.000000
_cell_angle_gamma 90.000000
_cell_volume 1606.767911
_symmetry_space_group_name_H-M "P 2 2 21"
_symmetry_group_IT_number 17
_symmetry_cell_setting 'orthorhombic'
loop_
_space_group_symop_operation_xyz
x,y,z
-x,-y,1/2+z
x,-y,-z
-x,y,1/2-z
loop_
_atom_site_type_symbol
_atom_site_label
_atom_site_fract_x
_atom_site_fract_y
_atom_site_fract_z
Si Si1 0.784885 0.991536 0.231210
Si Si2 0.502550 0.619567 0.600860
Si Si3 0.167473 0.486330 0.378945
Si Si4 0.655520 0.966131 0.299251
Si Si5 0.934673 0.462055 0.274849
Si Si6 0.111804 0.968079 0.119548
Si Si7 0.406531 0.000000 0.000000
Si Si8 0.408414 0.485874 0.247931
O O1 0.804161 0.745828 0.165103
O O2 0.721547 0.958820 0.272837
O O3 0.827429 0.008846 0.326498
O O4 0.795521 0.244740 0.162332
O O5 0.478580 0.500000 0.500000
O O6 0.544844 0.434608 0.663295
O O7 0.448767 0.661807 0.671624
O O8 0.548187 0.830260 0.564034
O O9 0.163517 0.500000 0.500000
O O10 0.105748 0.460480 0.324513
O O11 0.623625 0.752796 0.228835
O O12 0.636189 0.890101 0.413720
O O13 0.635197 0.263208 0.285285
O O14 0.910584 0.687229 0.347100
O O15 0.000000 0.512432 0.250000
O O16 0.927868 0.187945 0.330889
O O17 0.114702 0.000000 0.000000
#
# Coordination Sequence:
#
# PCOD9310820 Si02
#       8
#     4   4   4   4   4   4   2   4
#     4  10  22  39  62  85 123 151 200 257 290 351
#     4  10  20  37  57  81 113 145 183 226 288 353
#     4  10  21  40  62  86 114 171 206 237 299 350
#     4  11  22  40  57  89 113 147 194 243 289 344
#     4  10  21  38  59  91 126 157 206 258 287 355
#     4  10  21  37  59  89 124 163 195 240 324 356
#     4  10  22  36  64  86 112 150 196 232 292 364
#     4  10  23  36  59  81 115 146 180 235 291 346
#
# _framework density 18.671023000000002
#
# number of rings (size 3 to 8) (size 9 to 14) (size 15 to 20)
#    0.000    1.867    1.333    2.000    2.800    2.133 
#    0.000    4.000    0.000    0.000    0.000    0.000 
#    0.000    0.000    0.000    0.000    0.000    0.000 
#
# Total GULP energy -167071.089736 kJ/mol
# GULP energy per Si atom -5569.036325 kJ/mol
# Density = 1.862853 g / cm^3
# Si number density = 18.671023 Si / 1000 Ang^3
#
#
#
# Elastic Constant Matrix: (Units=GPa)
#
#
# Indices 1 2 3 4 5 6 
#
# 1 104.3254 5.6541 43.2221 0.0000 0.0000 0.0000
# 2 5.6541 67.8099 9.7129 0.0000 0.0000 0.0000
# 3 43.2221 9.7129 119.4406 0.0000 0.0000 0.0000
# 4 0.0000 0.0000 0.0000 16.2292 0.0000 0.0000
# 5 0.0000 0.0000 0.0000 0.0000 3.7861 0.0000
# 6 0.0000 0.0000 0.0000 0.0000 0.0000 12.0088
#
#
#
# Elastic Compliance Matrix: (Units=1/GPa)
#
#
# Indices 1 2 3 4 5 6 
#
# 1 0.011285 -0.000360 -0.004054 0.000000 0.000000 0.000000
# 2 -0.000360 0.014932 -0.001084 0.000000 0.000000 0.000000
# 3 -0.004054 -0.001084 0.009928 0.000000 0.000000 0.000000
# 4 0.000000 0.000000 0.000000 0.061617 0.000000 0.000000
# 5 0.000000 0.000000 0.000000 0.000000 0.264126 0.000000
# 6 0.000000 0.000000 0.000000 0.000000 0.000000 0.083272
#
#
# Mechanical properties :
#
#
# Convention : Reuss Voigt Hill
#
# Bulk Modulus (GPa) = 39.76495 45.41712 42.59104
# Shear Modulus (GPa) = 10.76335 21.93727 16.35031
#
# Velocity S-wave (km/s) = 2.40359 3.43145 2.96244
# Velocity P-wave (km/s) = 5.38952 6.33068 5.87897
#
# Compressibility (1/GPa) = 0.02514777
#
# Stress axis : x y z
#
# Youngs Moduli (GPa) = 88.61635 66.96841 100.72895
#
# Poissons Ratio (x) = 0.02412 0.40838
# Poissons Ratio (y) = 0.03192 0.10919
# Poissons Ratio (z) = 0.35928 0.07259
#
# Static dielectric constant tensor:
#      x y z
#    x 1.631570 0.000000 0.000000 
#    y 0.000000 1.681030 0.000000 
#    z 0.000000 0.000000 1.696920 
# 
# From -- ./inp_files/7412.got.cif
#   From: 2010.05.17/outbox.cif.g08.bks.cpg/sg17_4_cif.got.tgz:7412.got - 2010.06.03 22:34:06.
