data_PCOD9310430
_publ_section_title
;
Structure prediction by ZEFSAII (Michael W. Deem and Ramdas Pophale) SiO2 
 PCOD9310430
Probable space group: P 2 2 21
;
_chemical_formula_sum "Si O2"
_cell_formula_units_Z 18
_cell_length_a 11.851707
_cell_length_b 9.709797
_cell_length_c 7.244878
_cell_angle_alpha 90.000000
_cell_angle_beta 90.000000
_cell_angle_gamma 90.000000
_cell_volume 833.723673
_symmetry_space_group_name_H-M "P 2 2 21"
_symmetry_group_IT_number 17
_symmetry_cell_setting 'orthorhombic'
loop_
_space_group_symop_operation_xyz
x,y,z
-x,-y,1/2+z
x,-y,-z
-x,y,1/2-z
loop_
_atom_site_type_symbol
_atom_site_label
_atom_site_fract_x
_atom_site_fract_y
_atom_site_fract_z
Si Si1 0.299513 0.279345 0.282793
Si Si2 0.132363 0.509726 0.219692
Si Si3 0.370113 0.002733 0.781402
Si Si4 0.500000 0.540815 0.750000
Si Si5 0.323466 0.304801 0.837946
O O1 0.191154 0.376801 0.314023
O O2 0.413209 0.355871 0.356338
O O3 0.298700 0.116136 0.320823
O O4 0.312614 0.281734 0.057974
O O5 0.209012 0.642538 0.258827
O O6 0.000000 0.520734 0.250000
O O7 0.146966 0.500000 0.000000
O O8 0.500000 0.962828 0.750000
O O9 0.358359 0.164077 0.738159
O O10 0.344895 0.000000 0.000000
O O11 0.410049 0.431073 0.826747
#
# Coordination Sequence:
#
# PCOD9310430 Si02
#       5
#     4   4   4   2   4
#     4   9  18  30  48  70  99 131 163 198 244 295
#     4   9  18  35  52  70  93 128 169 207 245 285
#     4  10  18  32  49  72 102 134 161 193 240 297
#     4  10  14  26  46  70  96 120 164 192 236 288
#     4   9  18  30  48  70  99 131 163 198 244 295
#
# _framework density 21.589886
#
# number of rings (size 3 to 8) (size 9 to 14) (size 15 to 20)
#    0.000    2.667    2.222    2.000    0.000    0.000 
#    0.000   12.222    0.000    0.000    0.000    0.000 
#    0.000    0.000    0.000    0.000    0.000    0.000 
#
# Total GULP energy -100283.779963 kJ/mol
# GULP energy per Si atom -5571.321109 kJ/mol
# Density = 2.154075 g / cm^3
# Si number density = 21.589886 Si / 1000 Ang^3
#
#
#
# Elastic Constant Matrix: (Units=GPa)
#
#
# Indices 1 2 3 4 5 6 
#
# 1 133.4427 51.2517 -15.7935 0.0000 0.0000 0.0000
# 2 51.2517 179.0964 0.6076 0.0000 0.0000 0.0000
# 3 -15.7935 0.6076 64.4921 0.0000 0.0000 0.0000
# 4 0.0000 0.0000 0.0000 26.8049 0.0000 0.0000
# 5 0.0000 0.0000 0.0000 0.0000 19.9407 0.0000
# 6 0.0000 0.0000 0.0000 0.0000 0.0000 20.6574
#
#
#
# Elastic Compliance Matrix: (Units=1/GPa)
#
#
# Indices 1 2 3 4 5 6 
#
# 1 0.008709 -0.002500 0.002156 0.000000 0.000000 0.000000
# 2 -0.002500 0.006301 -0.000671 0.000000 0.000000 0.000000
# 3 0.002156 -0.000671 0.016040 0.000000 0.000000 0.000000
# 4 0.000000 0.000000 0.000000 0.037307 0.000000 0.000000
# 5 0.000000 0.000000 0.000000 0.000000 0.050149 0.000000
# 6 0.000000 0.000000 0.000000 0.000000 0.000000 0.048409
#
#
# Mechanical properties :
#
#
# Convention : Reuss Voigt Hill
#
# Bulk Modulus (GPa) = 34.45793 49.90700 42.18247
# Shear Modulus (GPa) = 27.99273 36.21161 32.10217
#
# Velocity S-wave (km/s) = 3.60469 4.09987 3.86023
# Velocity P-wave (km/s) = 5.77234 6.75115 6.28084
#
# Compressibility (1/GPa) = 0.02902089
#
# Stress axis : x y z
#
# Youngs Moduli (GPa) = 114.82269 158.70082 62.34354
#
# Poissons Ratio (x) = 0.39669 -0.13443
# Poissons Ratio (y) = 0.28701 0.04186
# Poissons Ratio (z) = -0.24759 0.10657
#
# Static dielectric constant tensor:
#      x y z
#    x 1.779800 0.000000 0.000000 
#    y 0.000000 1.835760 0.000000 
#    z 0.000000 0.000000 1.952310 
# 
# From -- ./inp_files/6327.got.cif
#   From: 2010.05.17/outbox.cif.g08.bks.cpg/sg17_4_cif.got.tgz:6327.got - 2010.06.03 22:34:06.
