data_PCOD9310903
_publ_section_title
;
Structure prediction by ZEFSAII (Michael W. Deem and Ramdas Pophale) SiO2 
 PCOD9310903
Probable space group: P 2 2 21
;
_chemical_formula_sum "Si O2"
_cell_formula_units_Z 20
_cell_length_a 12.038158
_cell_length_b 11.972753
_cell_length_c 6.144738
_cell_angle_alpha 90.000000
_cell_angle_beta 90.000000
_cell_angle_gamma 90.000000
_cell_volume 885.640426
_symmetry_space_group_name_H-M "P 2 2 21"
_symmetry_group_IT_number 17
_symmetry_cell_setting 'orthorhombic'
loop_
_space_group_symop_operation_xyz
x,y,z
-x,-y,1/2+z
x,-y,-z
-x,y,1/2-z
loop_
_atom_site_type_symbol
_atom_site_label
_atom_site_fract_x
_atom_site_fract_y
_atom_site_fract_z
Si Si1 0.746702 0.243639 0.364154
Si Si2 0.827521 0.014052 0.236890
Si Si3 0.380370 0.846760 0.240891
Si Si4 0.670088 0.381318 0.984713
Si Si5 0.123622 0.394749 0.839690
O O1 0.793832 0.143221 0.225725
O O2 0.644134 0.196835 0.499322
O O3 0.841565 0.285020 0.527529
O O4 0.707348 0.346726 0.223658
O O5 0.861423 0.000000 0.500000
O O6 0.721052 0.931375 0.216671
O O7 0.890317 0.000000 0.000000
O O8 0.500000 0.902916 0.250000
O O9 0.381392 0.732544 0.384629
O O10 0.781172 0.403369 0.842531
O O11 0.606808 0.500000 0.000000
O O12 0.000000 0.385599 0.750000
O O13 0.127070 0.500000 0.000000
#
# Coordination Sequence:
#
# PCOD9310903 Si02
#       5
#     4   4   4   4   4
#     4  10  22  40  62  96 133 174 214 286 352 402
#     4  10  20  39  65  95 126 174 225 285 338 396
#     4  10  23  40  61  96 128 177 237 284 334 400
#     4  11  21  40  61  90 136 177 213 275 346 414
#     4  11  23  38  65 100 132 169 224 280 345 421
#
# _framework density 22.582529000000001
#
# number of rings (size 3 to 8) (size 9 to 14) (size 15 to 20)
#    0.000    1.600    4.000    0.600    0.000    3.200 
#    3.600    0.000    0.000    0.000  104.000    0.000 
#    0.000    0.000    0.000    0.000    0.000    0.000 
#
# Total GULP energy -111458.284681 kJ/mol
# GULP energy per Si atom -5572.914234 kJ/mol
# Density = 2.253113 g / cm^3
# Si number density = 22.582529 Si / 1000 Ang^3
#
#
#
# Elastic Constant Matrix: (Units=GPa)
#
#
# Indices 1 2 3 4 5 6 
#
# 1 85.2965 1.8385 17.3438 0.0000 0.0000 0.0000
# 2 1.8385 105.7586 4.3989 0.0000 0.0000 0.0000
# 3 17.3438 4.3989 116.2012 0.0000 0.0000 0.0000
# 4 0.0000 0.0000 0.0000 58.8652 0.0000 0.0000
# 5 0.0000 0.0000 0.0000 0.0000 -46.2088 0.0000
# 6 0.0000 0.0000 0.0000 0.0000 0.0000 27.5560
#
#
#
# Elastic Compliance Matrix: (Units=1/GPa)
#
#
# Indices 1 2 3 4 5 6 
#
# 1 0.012093 -0.000135 -0.001800 0.000000 0.000000 0.000000
# 2 -0.000135 0.009472 -0.000338 0.000000 0.000000 0.000000
# 3 -0.001800 -0.000338 0.008887 0.000000 0.000000 0.000000
# 4 0.000000 0.000000 0.000000 0.016988 0.000000 0.000000
# 5 0.000000 0.000000 0.000000 0.000000 -0.021641 0.000000
# 6 0.000000 0.000000 0.000000 0.000000 0.000000 0.036290
#
#
# Mechanical properties :
#
#
# Convention : Reuss Voigt Hill
#
# Bulk Modulus (GPa) = 38.60290 39.37985 38.99137
# Shear Modulus (GPa) = 66.42706 26.95416 46.69061
#
# Velocity S-wave (km/s) = 5.42947 3.45858 4.55197
# Velocity P-wave (km/s) = 7.51244 5.78144 6.70305
#
# Compressibility (1/GPa) = 0.02590479
#
# Stress axis : x y z
#
# Youngs Moduli (GPa) = 82.69457 105.57520 112.52133
#
# Poissons Ratio (x) = 0.01429 0.20251
# Poissons Ratio (y) = 0.01119 0.03807
# Poissons Ratio (z) = 0.14883 0.03572
#
# Static dielectric constant tensor:
#      x y z
#    x 1.829950 0.000000 0.000000 
#    y 0.000000 1.862950 0.000000 
#    z 0.000000 0.000000 1.938440 
# 
# From -- ./inp_files/1534.got.cif
#   From: 2010.05.17/outbox.cif.g08.bks.cpg/sg17_1_cif.got.tgz:1534.got - 2010.06.03 22:34:06.
