data_PCOD9310922
_publ_section_title
;
Structure prediction by ZEFSAII (Michael W. Deem and Ramdas Pophale) SiO2 
 PCOD9310922
Probable space group: P 2 2 21
;
_chemical_formula_sum "Si O2"
_cell_formula_units_Z 30
_cell_length_a 7.802708
_cell_length_b 12.184579
_cell_length_c 15.084496
_cell_angle_alpha 90.000000
_cell_angle_beta 90.000000
_cell_angle_gamma 90.000000
_cell_volume 1434.123944
_symmetry_space_group_name_H-M "P 2 2 21"
_symmetry_group_IT_number 17
_symmetry_cell_setting 'orthorhombic'
loop_
_space_group_symop_operation_xyz
x,y,z
-x,-y,1/2+z
x,-y,-z
-x,y,1/2-z
loop_
_atom_site_type_symbol
_atom_site_label
_atom_site_fract_x
_atom_site_fract_y
_atom_site_fract_z
Si Si1 0.859690 0.098095 0.941122
Si Si2 0.360267 0.157631 0.085642
Si Si3 0.207739 0.783845 0.270427
Si Si4 0.233717 0.500000 0.500000
Si Si5 0.701670 0.311919 0.261527
Si Si6 0.750446 0.081450 0.605672
Si Si7 0.270581 0.735760 0.569531
Si Si8 0.179099 0.541613 0.299246
O O1 0.760268 0.139295 0.855022
O O2 0.045301 0.060547 0.905874
O O3 0.862999 0.203480 0.005861
O O4 0.785209 0.000000 0.000000
O O5 0.261055 0.246188 0.147993
O O6 0.555878 0.194967 0.075495
O O7 0.338502 0.034969 0.123709
O O8 0.295632 0.139708 0.986136
O O9 0.287817 0.836326 0.184355
O O10 0.264476 0.660205 0.289071
O O11 0.000000 0.782056 0.250000
O O12 0.319346 0.616376 0.528236
O O13 0.146505 0.523847 0.404638
O O14 0.500000 0.289279 0.250000
O O15 0.794221 0.272181 0.171125
O O16 0.724439 0.442606 0.250947
O O17 0.000000 0.545776 0.250000
#
# Coordination Sequence:
#
# PCOD9310922 Si02
#       8
#     4   4   4   2   4   4   4   4
#     4  11  21  37  63  91 115 163 202 247 303 375
#     4  10  21  42  58  86 122 162 199 257 305 362
#     4   9  20  39  60  86 124 156 197 252 310 363
#     4  10  20  42  66  90 128 162 206 258 304 372
#     4   9  21  41  62  85 123 159 204 258 305 364
#     4  10  22  42  59  86 131 154 198 263 310 359
#     4  10  22  39  66  86 120 163 206 249 305 371
#     4  10  20  40  63  94 121 161 204 259 311 367
#
# _framework density 20.918693999999999
#
# number of rings (size 3 to 8) (size 9 to 14) (size 15 to 20)
#    0.000    2.133    2.667    0.000    3.733    2.133 
#    7.200    0.667    0.000    0.000    0.000    0.000 
#    0.000    0.000    0.000    0.000    0.000    0.000 
#
# Total GULP energy -167076.400265 kJ/mol
# GULP energy per Si atom -5569.213342 kJ/mol
# Density = 2.087108 g / cm^3
# Si number density = 20.918694 Si / 1000 Ang^3
#
#
#
# Elastic Constant Matrix: (Units=GPa)
#
#
# Indices 1 2 3 4 5 6 
#
# 1 21.2975 13.8644 -7.1809 0.0000 0.0000 0.0000
# 2 13.8644 136.3272 73.5536 0.0000 0.0000 0.0000
# 3 -7.1809 73.5536 118.7569 0.0000 0.0000 0.0000
# 4 0.0000 0.0000 0.0000 -313.6218 0.0000 0.0000
# 5 0.0000 0.0000 0.0000 0.0000 14.4515 0.0000
# 6 0.0000 0.0000 0.0000 0.0000 0.0000 14.6180
#
#
#
# Elastic Compliance Matrix: (Units=1/GPa)
#
#
# Indices 1 2 3 4 5 6 
#
# 1 0.058244 -0.011750 0.010799 0.000000 0.000000 0.000000
# 2 -0.011750 0.013387 -0.009002 0.000000 0.000000 0.000000
# 3 0.010799 -0.009002 0.014649 0.000000 0.000000 0.000000
# 4 0.000000 0.000000 0.000000 -0.003189 0.000000 0.000000
# 5 0.000000 0.000000 0.000000 0.000000 0.069197 0.000000
# 6 0.000000 0.000000 0.000000 0.000000 0.000000 0.068409
#
#
# Mechanical properties :
#
#
# Convention : Reuss Voigt Hill
#
# Bulk Modulus (GPa) = 15.06585 48.53953 31.80269
# Shear Modulus (GPa) = 19.03106 -43.83416 -12.40155
#
# Velocity S-wave (km/s) = 3.01950 -4.58258 -2.43748
# Velocity P-wave (km/s) = 4.40162 2.17848 2.70448
#
# Compressibility (1/GPa) = 0.06637529
#
# Stress axis : x y z
#
# Youngs Moduli (GPa) = 17.16903 74.69829 68.26369
#
# Poissons Ratio (x) = 0.87771 -0.73721
# Poissons Ratio (y) = 0.20174 0.61451
# Poissons Ratio (z) = -0.18542 0.67243
#
# Static dielectric constant tensor:
#      x y z
#    x 1.795770 0.000000 0.000000 
#    y 0.000000 1.829630 0.000000 
#    z 0.000000 0.000000 1.798550 
# 
# From -- ./inp_files/8253.got.cif
#   From: 2010.05.17/outbox.cif.g08.bks.cpg/sg17_5_cif.got.tgz:8253.got - 2010.06.03 22:34:06.
