data_PCOD9310145
_publ_section_title
;
Structure prediction by ZEFSAII (Michael W. Deem and Ramdas Pophale) SiO2 
 PCOD9310145
Probable space group: P 2 2 2
;
_chemical_formula_sum "Si O2"
_cell_formula_units_Z 32
_cell_length_a 14.987876
_cell_length_b 8.724944
_cell_length_c 12.812268
_cell_angle_alpha 90.000000
_cell_angle_beta 90.000000
_cell_angle_gamma 90.000000
_cell_volume 1675.439515
_symmetry_space_group_name_H-M "P 2 2 2"
_symmetry_group_IT_number 16
_symmetry_cell_setting 'orthorhombic'
loop_
_space_group_symop_operation_xyz
x,y,z
-x,-y,z
x,-y,-z
-x,y,-z
loop_
_atom_site_type_symbol
_atom_site_label
_atom_site_fract_x
_atom_site_fract_y
_atom_site_fract_z
Si Si1 0.348447 0.604619 0.597755
Si Si2 0.148108 0.869414 0.355183
Si Si3 0.040968 0.162156 0.856166
Si Si4 0.315887 0.314990 0.730835
Si Si5 0.081301 0.599300 0.758050
Si Si6 0.494520 0.179116 0.627518
Si Si7 0.829749 0.783617 0.426623
Si Si8 0.804766 0.617845 0.904504
O O1 0.381663 0.500000 0.500000
O O2 0.313106 0.483818 0.681423
O O3 0.422278 0.710739 0.651443
O O4 0.268701 0.712855 0.557237
O O5 0.078086 0.863606 0.261756
O O6 0.236953 0.787360 0.315937
O O7 0.120243 0.786788 0.462461
O O8 0.172159 0.042647 0.385798
O O9 0.123982 0.241216 0.918120
O O10 0.961983 0.285586 0.842940
O O11 0.000000 0.000000 0.890272
O O12 0.408253 0.245312 0.687128
O O13 0.288399 0.325680 0.853174
O O14 0.125288 0.687639 0.663888
O O15 0.147346 0.483840 0.815328
O O16 0.000000 0.500000 0.715554
O O17 0.500000 0.184306 0.500000
O O18 0.500000 0.000000 0.655362
O O19 0.794227 0.500000 0.000000
#
# Coordination Sequence:
#
# PCOD9310145 Si02
#       8
#     4   4   4   4   4   4   4   4
#     4  12  21  33  56  86 126 160 209 240 292 370
#     4  10  21  34  54  82 124 169 199 239 297 379
#     4  10  20  38  60  86 120 156 205 259 308 364
#     4  11  21  37  59  87 120 160 199 259 307 361
#     4  10  21  36  56  82 118 155 203 262 306 358
#     4  11  22  35  56  91 130 166 199 240 299 367
#     4  11  20  35  53  81 126 170 202 235 301 375
#     4  10  23  43  65  87 117 156 208 269 329 369
#
# _framework density 19.099464999999999
#
# number of rings (size 3 to 8) (size 9 to 14) (size 15 to 20)
#    0.000    1.375    5.000    1.125    0.000    4.750 
#    0.000    4.375    0.000    1.500    0.000    0.875 
#    0.000    0.000    0.000    0.000    0.000    0.000 
#
# Total GULP energy -178541.092177 kJ/mol
# GULP energy per Si atom -5579.409131 kJ/mol
# Density = 1.905599 g / cm^3
# Si number density = 19.099465 Si / 1000 Ang^3
#
#
#
# Elastic Constant Matrix: (Units=GPa)
#
#
# Indices 1 2 3 4 5 6 
#
# 1 86.0626 38.1178 38.5912 0.0000 0.0000 0.0000
# 2 38.1178 100.8054 29.7666 0.0000 0.0000 0.0000
# 3 38.5912 29.7666 86.0208 0.0000 0.0000 0.0000
# 4 0.0000 0.0000 0.0000 15.0410 0.0000 0.0000
# 5 0.0000 0.0000 0.0000 0.0000 8.0858 0.0000
# 6 0.0000 0.0000 0.0000 0.0000 0.0000 33.3220
#
#
#
# Elastic Compliance Matrix: (Units=1/GPa)
#
#
# Indices 1 2 3 4 5 6 
#
# 1 0.016136 -0.004415 -0.005711 0.000000 0.000000 0.000000
# 2 -0.004415 0.012257 -0.002261 0.000000 0.000000 0.000000
# 3 -0.005711 -0.002261 0.014970 0.000000 0.000000 0.000000
# 4 0.000000 0.000000 0.000000 0.066485 0.000000 0.000000
# 5 0.000000 0.000000 0.000000 0.000000 0.123674 0.000000
# 6 0.000000 0.000000 0.000000 0.000000 0.000000 0.030010
#
#
# Mechanical properties :
#
#
# Convention : Reuss Voigt Hill
#
# Bulk Modulus (GPa) = 53.79636 53.98224 53.88930
# Shear Modulus (GPa) = 16.97783 22.38397 19.68090
#
# Velocity S-wave (km/s) = 2.98471 3.42712 3.21353
# Velocity P-wave (km/s) = 6.33289 6.63214 6.48424
#
# Compressibility (1/GPa) = 0.01858862
#
# Stress axis : x y z
#
# Youngs Moduli (GPa) = 61.97381 81.58502 66.80211
#
# Poissons Ratio (x) = 0.36020 0.38152
# Poissons Ratio (y) = 0.27362 0.15102
# Poissons Ratio (z) = 0.35394 0.18444
#
# Static dielectric constant tensor:
#      x y z
#    x 1.687260 0.000000 0.000000 
#    y 0.000000 1.700770 0.000000 
#    z 0.000000 0.000000 1.701860 
# 
# From -- ./inp_files/5218.got.cif
#   From: 2010.05.17/outbox.cif.g08.bks.cpg/sg16_3_cif.got.tgz:5218.got - 2010.06.03 22:28:35.
