data_PCOD9310529
_publ_section_title
;
Structure prediction by ZEFSAII (Michael W. Deem and Ramdas Pophale) SiO2 
 PCOD9310529
Probable space group: P 2 2 21
;
_chemical_formula_sum "Si O2"
_cell_formula_units_Z 24
_cell_length_a 8.300510
_cell_length_b 12.285011
_cell_length_c 11.666614
_cell_angle_alpha 90.000000
_cell_angle_beta 90.000000
_cell_angle_gamma 90.000000
_cell_volume 1189.666290
_symmetry_space_group_name_H-M "P 2 2 21"
_symmetry_group_IT_number 17
_symmetry_cell_setting 'orthorhombic'
loop_
_space_group_symop_operation_xyz
x,y,z
-x,-y,1/2+z
x,-y,-z
-x,y,1/2-z
loop_
_atom_site_type_symbol
_atom_site_label
_atom_site_fract_x
_atom_site_fract_y
_atom_site_fract_z
Si Si1 0.958413 0.374473 0.877293
Si Si2 0.767591 0.500000 0.500000
Si Si3 0.463161 0.666229 0.885625
Si Si4 0.295491 0.500000 0.500000
Si Si5 0.930379 0.855211 0.025410
Si Si6 0.700464 0.897770 0.570614
Si Si7 0.164543 0.955587 0.692585
O O1 0.120465 0.420997 0.929003
O O2 0.000000 0.342595 0.750000
O O3 0.912192 0.268768 0.946699
O O4 0.819446 0.462976 0.895845
O O5 0.672469 0.424580 0.411166
O O6 0.500000 0.674451 0.750000
O O7 0.397836 0.784170 0.928985
O O8 0.604725 0.605524 0.957560
O O9 0.880503 0.927882 0.135712
O O10 0.811703 0.885030 0.920967
O O11 0.117525 0.878834 0.985299
O O12 0.714716 0.940290 0.702579
O O13 0.629859 0.000000 0.500000
O O14 0.000000 0.913839 0.750000
#
# Coordination Sequence:
#
# PCOD9310529 Si02
#       7
#     4   2   4   2   4   4   4
#     4  11  22  38  67 101 124 162 222 285 338 387
#     4  10  22  42  64  96 126 174 222 276 334 402
#     4  11  24  44  66  87 136 185 221 266 329 406
#     4  10  26  46  60  96 134 172 224 276 326 406
#     4  10  18  33  60  97 132 156 204 282 336 380
#     4  11  21  38  65  93 130 176 220 262 335 405
#     4   9  17  32  55  95 127 160 200 268 337 372
#
# _framework density 20.173724
#
# number of rings (size 3 to 8) (size 9 to 14) (size 15 to 20)
#    0.000    1.667    5.000    1.500    2.333    0.000 
#    0.000    1.667    0.000    0.000    0.000    0.000 
#    0.000    0.000    0.000    0.000    0.000    0.000 
#
# Total GULP energy -133678.190555 kJ/mol
# GULP energy per Si atom -5569.924606 kJ/mol
# Density = 2.012781 g / cm^3
# Si number density = 20.173724 Si / 1000 Ang^3
#
#
#
# Elastic Constant Matrix: (Units=GPa)
#
#
# Indices 1 2 3 4 5 6 
#
# 1 59.6412 45.2339 32.4858 0.0000 0.0000 0.0000
# 2 45.2339 155.1226 58.0951 0.0000 0.0000 0.0000
# 3 32.4858 58.0951 87.7693 0.0000 0.0000 0.0000
# 4 0.0000 0.0000 0.0000 22.2289 0.0000 0.0000
# 5 0.0000 0.0000 0.0000 0.0000 31.4472 0.0000
# 6 0.0000 0.0000 0.0000 0.0000 0.0000 31.2303
#
#
#
# Elastic Compliance Matrix: (Units=1/GPa)
#
#
# Indices 1 2 3 4 5 6 
#
# 1 0.023370 -0.004754 -0.005503 0.000000 0.000000 0.000000
# 2 -0.004754 0.009538 -0.004554 0.000000 0.000000 0.000000
# 3 -0.005503 -0.004554 0.016445 0.000000 0.000000 0.000000
# 4 0.000000 0.000000 0.000000 0.044986 0.000000 0.000000
# 5 0.000000 0.000000 0.000000 0.000000 0.031799 0.000000
# 6 0.000000 0.000000 0.000000 0.000000 0.000000 0.032020
#
#
# Mechanical properties :
#
#
# Convention : Reuss Voigt Hill
#
# Bulk Modulus (GPa) = 50.68190 63.79587 57.23889
# Shear Modulus (GPa) = 25.72579 28.09584 26.91082
#
# Velocity S-wave (km/s) = 3.57489 3.73593 3.65630
# Velocity P-wave (km/s) = 6.49746 7.09235 6.80142
#
# Compressibility (1/GPa) = 0.01973091
#
# Stress axis : x y z
#
# Youngs Moduli (GPa) = 42.79022 104.84187 60.80970
#
# Poissons Ratio (x) = 0.49838 0.33466
# Poissons Ratio (y) = 0.20341 0.27692
# Poissons Ratio (z) = 0.23549 0.47744
#
# Static dielectric constant tensor:
#      x y z
#    x 1.784630 0.000000 0.000000 
#    y 0.000000 1.220820 0.000000 
#    z 0.000000 0.000000 1.700980 
# 
# From -- ./inp_files/6586.got.cif
#   From: 2010.05.17/outbox.cif.g08.bks.cpg/sg17_4_cif.got.tgz:6586.got - 2010.06.03 22:34:06.
