data_PCOD9310518
_publ_section_title
;
Structure prediction by ZEFSAII (Michael W. Deem and Ramdas Pophale) SiO2 
 PCOD9310518
Probable space group: P 2 2 21
;
_chemical_formula_sum "Si O2"
_cell_formula_units_Z 28
_cell_length_a 20.517816
_cell_length_b 8.997820
_cell_length_c 8.163231
_cell_angle_alpha 90.000000
_cell_angle_beta 90.000000
_cell_angle_gamma 90.000000
_cell_volume 1507.059913
_symmetry_space_group_name_H-M "P 2 2 21"
_symmetry_group_IT_number 17
_symmetry_cell_setting 'orthorhombic'
loop_
_space_group_symop_operation_xyz
x,y,z
-x,-y,1/2+z
x,-y,-z
-x,y,1/2-z
loop_
_atom_site_type_symbol
_atom_site_label
_atom_site_fract_x
_atom_site_fract_y
_atom_site_fract_z
Si Si1 0.146198 0.329523 0.053227
Si Si2 0.062142 0.618414 0.640235
Si Si3 0.714303 0.327904 0.553789
Si Si4 0.627608 0.594977 0.166621
Si Si5 0.542715 0.823046 0.982210
Si Si6 0.977910 0.836879 0.435011
Si Si7 0.590151 0.300241 0.349421
O O1 0.121290 0.334883 0.241394
O O2 0.146794 0.500000 0.000000
O O3 0.216326 0.263778 0.002655
O O4 0.088756 0.252010 0.954720
O O5 0.079379 0.500000 0.500000
O O6 0.000000 0.560322 0.750000
O O7 0.031996 0.759436 0.548256
O O8 0.717615 0.500000 0.500000
O O9 0.691425 0.339134 0.742701
O O10 0.654034 0.261781 0.452483
O O11 0.595340 0.472710 0.289729
O O12 0.640737 0.500000 0.000000
O O13 0.580404 0.731957 0.122674
O O14 0.474325 0.739395 0.950728
O O15 0.583904 0.794520 0.816452
O O16 0.533878 0.000000 0.000000
O O17 0.000000 0.837571 0.250000
O O18 0.966372 0.000000 0.500000
#
# Coordination Sequence:
#
# PCOD9310518 Si02
#       7
#     4   4   4   4   4   4   4
#     4  10  20  36  56  81 111 143 182 227 276 329
#     4  10  18  32  56  85 113 141 176 226 277 325
#     4   9  19  36  56  79 108 143 182 226 272 328
#     4   9  19  36  59  82 109 147 189 231 280 342
#     4  10  21  36  55  83 113 141 185 241 290 333
#     4  11  21  36  56  80 110 145 185 228 273 326
#     4   9  20  36  54  78 108 145 187 228 280 344
#
# _framework density 18.579222000000001
#
# number of rings (size 3 to 8) (size 9 to 14) (size 15 to 20)
#    0.000    2.286    0.000    4.286    0.000   12.571 
#    0.000   18.571    0.000    1.714    0.000    0.000 
#    0.000    0.000    0.000    0.000    0.000    0.000 
#
# Total GULP energy -156107.956491 kJ/mol
# GULP energy per Si atom -5575.284160 kJ/mol
# Density = 1.853693 g / cm^3
# Si number density = 18.579222 Si / 1000 Ang^3
#
#
#
# Elastic Constant Matrix: (Units=GPa)
#
#
# Indices 1 2 3 4 5 6 
#
# 1 126.5127 46.2328 73.7668 0.0000 0.0000 0.0000
# 2 46.2328 62.7412 27.9122 0.0000 0.0000 0.0000
# 3 73.7668 27.9122 109.6420 0.0000 0.0000 0.0000
# 4 0.0000 0.0000 0.0000 22.5152 0.0000 0.0000
# 5 0.0000 0.0000 0.0000 0.0000 19.6517 0.0000
# 6 0.0000 0.0000 0.0000 0.0000 0.0000 -10.4836
#
#
#
# Elastic Compliance Matrix: (Units=1/GPa)
#
#
# Indices 1 2 3 4 5 6 
#
# 1 0.015789 -0.007791 -0.008639 0.000000 0.000000 0.000000
# 2 -0.007791 0.021819 -0.000313 0.000000 0.000000 0.000000
# 3 -0.008639 -0.000313 0.015013 0.000000 0.000000 0.000000
# 4 0.000000 0.000000 0.000000 0.044414 0.000000 0.000000
# 5 0.000000 0.000000 0.000000 0.000000 0.050886 0.000000
# 6 0.000000 0.000000 0.000000 0.000000 0.000000 -0.095387
#
#
# Mechanical properties :
#
#
# Convention : Reuss Voigt Hill
#
# Bulk Modulus (GPa) = 52.26266 66.07996 59.17131
# Shear Modulus (GPa) = 54.11339 16.40226 35.25782
#
# Velocity S-wave (km/s) = 5.40268 2.97447 4.36099
# Velocity P-wave (km/s) = 8.19203 6.88770 7.56802
#
# Compressibility (1/GPa) = 0.01913412
#
# Stress axis : x y z
#
# Youngs Moduli (GPa) = 63.33552 45.83219 66.61028
#
# Poissons Ratio (x) = 0.35708 0.57547
# Poissons Ratio (y) = 0.49345 0.02083
# Poissons Ratio (z) = 0.54718 0.01433
#
# Static dielectric constant tensor:
#      x y z
#    x 1.663270 0.000000 0.000000 
#    y 0.000000 1.629110 0.000000 
#    z 0.000000 0.000000 1.687400 
# 
# From -- ./inp_files/5521.got.cif
#   From: 2010.05.17/outbox.cif.g08.bks.cpg/sg17_3_cif.got.tgz:5521.got - 2010.06.03 22:34:06.
