data_PCOD9310771
_publ_section_title
;
Structure prediction by ZEFSAII (Michael W. Deem and Ramdas Pophale) SiO2 
 PCOD9310771
Probable space group: P 2 2 21
;
_chemical_formula_sum "Si O2"
_cell_formula_units_Z 22
_cell_length_a 8.721625
_cell_length_b 6.944139
_cell_length_c 12.530983
_cell_angle_alpha 90.000000
_cell_angle_beta 90.000000
_cell_angle_gamma 90.000000
_cell_volume 758.928664
_symmetry_space_group_name_H-M "P 2 2 21"
_symmetry_group_IT_number 17
_symmetry_cell_setting 'orthorhombic'
loop_
_space_group_symop_operation_xyz
x,y,z
-x,-y,1/2+z
x,-y,-z
-x,y,1/2-z
loop_
_atom_site_type_symbol
_atom_site_label
_atom_site_fract_x
_atom_site_fract_y
_atom_site_fract_z
Si Si1 0.905199 0.629049 0.394258
Si Si2 0.749330 0.625553 0.106769
Si Si3 0.931887 0.934046 0.637997
Si Si4 0.401034 0.822239 0.854971
Si Si5 0.427166 0.718784 0.104122
Si Si6 0.819721 0.000000 0.000000
O O1 0.905694 0.500000 0.500000
O O2 0.896730 0.860880 0.417577
O O3 0.729324 0.616464 0.353674
O O4 0.078094 0.599711 0.345477
O O5 0.576304 0.608635 0.147118
O O6 0.752182 0.500000 0.000000
O O7 0.739596 0.853681 0.077303
O O8 0.000000 0.993650 0.750000
O O9 0.784253 0.805977 0.656898
O O10 0.081297 0.860128 0.576740
O O11 0.500000 0.771009 0.750000
O O12 0.434153 0.730377 0.972459
O O13 0.421065 0.055619 0.864394
#
# Coordination Sequence:
#
# PCOD9310771 Si02
#       6
#     4   4   4   4   4   2
#     4   9  19  37  60  82 118 163 204 251 310 371
#     4  10  20  34  64  91 112 155 205 249 305 364
#     4  10  21  35  62  92 118 161 213 259 310 376
#     4  10  21  34  55  89 117 153 204 251 305 372
#     4  10  20  37  58  82 120 159 198 251 307 363
#     4  10  20  38  62  86 124 162 202 256 304 372
#
# _framework density 28.988230000000001
#
# number of rings (size 3 to 8) (size 9 to 14) (size 15 to 20)
#    0.000    2.182    0.000    4.909    7.636    0.000 
#    0.000    0.000   12.000    7.636    0.000    0.000 
#    0.000    0.000    0.000    0.000    0.000    0.000 
#
# Total GULP energy -122814.558533 kJ/mol
# GULP energy per Si atom -5582.479933 kJ/mol
# Density = 2.892225 g / cm^3
# Si number density = 28.988230 Si / 1000 Ang^3
#
#
#
# Elastic Constant Matrix: (Units=GPa)
#
#
# Indices 1 2 3 4 5 6 
#
# 1 295.2498 38.3056 67.9878 0.0000 0.0000 0.0000
# 2 38.3056 135.4784 32.8957 0.0000 0.0000 0.0000
# 3 67.9878 32.8957 93.0828 0.0000 0.0000 0.0000
# 4 0.0000 0.0000 0.0000 10.5387 0.0000 0.0000
# 5 0.0000 0.0000 0.0000 0.0000 51.6788 0.0000
# 6 0.0000 0.0000 0.0000 0.0000 0.0000 25.8101
#
#
#
# Elastic Compliance Matrix: (Units=1/GPa)
#
#
# Indices 1 2 3 4 5 6 
#
# 1 0.004099 -0.000473 -0.002827 0.000000 0.000000 0.000000
# 2 -0.000473 0.008129 -0.002527 0.000000 0.000000 0.000000
# 3 -0.002827 -0.002527 0.013701 0.000000 0.000000 0.000000
# 4 0.000000 0.000000 0.000000 0.094888 0.000000 0.000000
# 5 0.000000 0.000000 0.000000 0.000000 0.019350 0.000000
# 6 0.000000 0.000000 0.000000 0.000000 0.000000 0.038745
#
#
# Mechanical properties :
#
#
# Convention : Reuss Voigt Hill
#
# Bulk Modulus (GPa) = 70.05369 89.13213 79.59291
# Shear Modulus (GPa) = 25.59843 43.24700 34.42271
#
# Velocity S-wave (km/s) = 2.97486 3.86668 3.44971
# Velocity P-wave (km/s) = 6.00154 7.12386 6.58665
#
# Compressibility (1/GPa) = 0.01427477
#
# Stress axis : x y z
#
# Youngs Moduli (GPa) = 243.94541 123.02283 72.98602
#
# Poissons Ratio (x) = 0.05814 0.20634
# Poissons Ratio (y) = 0.11529 0.18447
# Poissons Ratio (z) = 0.68966 0.31094
#
# Static dielectric constant tensor:
#      x y z
#    x 2.402140 0.000000 0.000000 
#    y 0.000000 2.288610 0.000000 
#    z 0.000000 0.000000 2.450710 
# 
# From -- ./inp_files/8103.got.cif
#   From: 2010.05.17/outbox.cif.g08.bks.cpg/sg17_5_cif.got.tgz:8103.got - 2010.06.03 22:34:06.
