data_PCOD9310305
_publ_section_title
;
Structure prediction by ZEFSAII (Michael W. Deem and Ramdas Pophale) SiO2 
 PCOD9310305
Probable space group: P 2 2 2
;
_chemical_formula_sum "Si O2"
_cell_formula_units_Z 17
_cell_length_a 9.603112
_cell_length_b 12.018383
_cell_length_c 7.728892
_cell_angle_alpha 90.000000
_cell_angle_beta 90.000000
_cell_angle_gamma 90.000000
_cell_volume 892.021398
_symmetry_space_group_name_H-M "P 2 2 2"
_symmetry_group_IT_number 16
_symmetry_cell_setting 'orthorhombic'
loop_
_space_group_symop_operation_xyz
x,y,z
-x,-y,z
x,-y,-z
-x,y,-z
loop_
_atom_site_type_symbol
_atom_site_label
_atom_site_fract_x
_atom_site_fract_y
_atom_site_fract_z
Si Si1 0.770053 0.379332 0.487448
Si Si2 0.500000 0.500000 0.500000
Si Si3 0.823227 0.222860 0.809725
Si Si4 0.147214 0.207045 0.801555
Si Si5 0.337818 0.997059 0.708768
O O1 0.840819 0.500000 0.500000
O O2 0.613776 0.414056 0.423676
O O3 0.780945 0.318008 0.672623
O O4 0.828649 0.295628 0.348433
O O5 0.726268 0.117522 0.775409
O O6 0.982895 0.181386 0.788014
O O7 0.817846 0.257448 0.010295
O O8 0.245123 0.099937 0.775347
O O9 0.500000 0.000000 0.759201
O O10 0.330546 0.000000 0.500000
#
# Coordination Sequence:
#
# PCOD9310305 Si02
#       5
#     4   1   4   4   4
#     4  10  23  43  65  88 124 163 204 258 307 359
#     4   8  24  44  64  90 128 158 210 260 300 364
#     4  11  24  41  64  94 126 162 207 254 306 369
#     4  11  24  41  64  94 126 162 207 254 306 369
#     4  11  24  39  64  93 127 164 207 252 307 371
#
# _framework density 19.057839999999999
#
# number of rings (size 3 to 8) (size 9 to 14) (size 15 to 20)
#    0.706    0.706    2.353    2.118    3.294    7.529 
#    0.000    3.529    0.000    0.000    0.000    0.000 
#    0.000    0.000    0.000    0.000    0.000    0.000 
#
# Total GULP energy -94714.232639 kJ/mol
# GULP energy per Si atom -5571.425449 kJ/mol
# Density = 1.901446 g / cm^3
# Si number density = 19.057840 Si / 1000 Ang^3
#
#
#
# Elastic Constant Matrix: (Units=GPa)
#
#
# Indices 1 2 3 4 5 6 
#
# 1 93.1589 22.3246 16.4889 0.0000 0.0000 0.0000
# 2 22.3246 118.1359 42.6772 0.0000 0.0000 0.0000
# 3 16.4889 42.6772 105.6067 0.0000 0.0000 0.0000
# 4 0.0000 0.0000 0.0000 -7.3340 0.0000 0.0000
# 5 0.0000 0.0000 0.0000 0.0000 -92.2555 0.0000
# 6 0.0000 0.0000 0.0000 0.0000 0.0000 42.2680
#
#
#
# Elastic Compliance Matrix: (Units=1/GPa)
#
#
# Indices 1 2 3 4 5 6 
#
# 1 0.011344 -0.001761 -0.001060 0.000000 0.000000 0.000000
# 2 -0.001761 0.010185 -0.003841 0.000000 0.000000 0.000000
# 3 -0.001060 -0.003841 0.011187 0.000000 0.000000 0.000000
# 4 0.000000 0.000000 0.000000 -0.136351 0.000000 0.000000
# 5 0.000000 0.000000 0.000000 0.000000 -0.010839 0.000000
# 6 0.000000 0.000000 0.000000 0.000000 0.000000 0.023659
#
#
# Mechanical properties :
#
#
# Convention : Reuss Voigt Hill
#
# Bulk Modulus (GPa) = 51.56565 53.32035 52.44300
# Shear Modulus (GPa) = -70.39434 4.22974 -33.08230
#
# Velocity S-wave (km/s) = -6.08419 1.49139 -4.17092
# Velocity P-wave (km/s) = 4.71597 5.56817 2.09335
#
# Compressibility (1/GPa) = 0.01939276
#
# Stress axis : x y z
#
# Youngs Moduli (GPa) = 88.15328 98.18174 89.39144
#
# Poissons Ratio (x) = 0.17289 0.09472
# Poissons Ratio (y) = 0.15523 0.34336
# Poissons Ratio (z) = 0.09340 0.37712
#
# Static dielectric constant tensor:
#      x y z
#    x 1.721600 0.000000 0.000000 
#    y 0.000000 1.628640 0.000000 
#    z 0.000000 0.000000 1.668290 
# 
# From -- ./inp_files/3688.got.cif
#   From: 2010.05.17/outbox.cif.g08.bks.cpg/sg16_2_cif.got.tgz:3688.got - 2010.06.03 22:28:35.
