data_PCOD9310234
_publ_section_title
;
Structure prediction by ZEFSAII (Michael W. Deem and Ramdas Pophale) SiO2 
 PCOD9310234
Probable space group: P 2 2 2
;
_chemical_formula_sum "Si O2"
_cell_formula_units_Z 21
_cell_length_a 11.214920
_cell_length_b 6.224943
_cell_length_c 14.770782
_cell_angle_alpha 90.000000
_cell_angle_beta 90.000000
_cell_angle_gamma 90.000000
_cell_volume 1031.181345
_symmetry_space_group_name_H-M "P 2 2 2"
_symmetry_group_IT_number 16
_symmetry_cell_setting 'orthorhombic'
loop_
_space_group_symop_operation_xyz
x,y,z
-x,-y,z
x,-y,-z
-x,y,-z
loop_
_atom_site_type_symbol
_atom_site_label
_atom_site_fract_x
_atom_site_fract_y
_atom_site_fract_z
Si Si1 0.500000 0.500000 0.500000
Si Si2 0.660356 0.845487 0.413130
Si Si3 0.875969 0.371064 0.872341
Si Si4 0.198114 0.000000 0.000000
Si Si5 0.291011 0.238759 0.829195
Si Si6 0.500000 0.000000 0.250876
Si Si7 0.866235 0.053395 0.702384
O O1 0.590291 0.634179 0.439402
O O2 0.796602 0.850434 0.383309
O O3 0.642641 0.000000 0.500000
O O4 0.598249 0.911926 0.319565
O O5 0.869184 0.205699 0.956850
O O6 0.762604 0.531802 0.860506
O O7 0.874167 0.225517 0.782931
O O8 0.000000 0.500000 0.876591
O O9 0.272136 0.086974 0.915768
O O10 0.428112 0.189343 0.801009
O O11 0.203862 0.149933 0.748412
O O12 0.000000 0.000000 0.676696
#
# Coordination Sequence:
#
# PCOD9310234 Si02
#       7
#     1   4   4   2   4   2   4
#     4  12  22  40  68 104 124 166 238 270 348 418
#     4  11  23  41  67  95 130 170 217 290 340 412
#     4  11  22  40  65  96 134 181 228 284 346 410
#     4  10  24  40  56  98 128 175 229 276 338 406
#     4  10  22  39  63  90 130 176 220 282 335 400
#     4  10  21  43  64  90 130 172 226 277 345 410
#     4  10  22  41  62  93 132 173 227 272 344 417
#
# _framework density 20.364992000000001
#
# number of rings (size 3 to 8) (size 9 to 14) (size 15 to 20)
#    0.000    1.524    3.810    0.571    2.667    3.048 
#    0.000    0.000    0.000    6.857    0.000    0.000 
#    0.000    0.000    0.000    0.000    0.000    0.000 
#
# Total GULP energy -117038.130817 kJ/mol
# GULP energy per Si atom -5573.244325 kJ/mol
# Density = 2.031864 g / cm^3
# Si number density = 20.364992 Si / 1000 Ang^3
#
#
#
# Elastic Constant Matrix: (Units=GPa)
#
#
# Indices 1 2 3 4 5 6 
#
# 1 138.9298 50.3829 52.5344 0.0000 0.0000 0.0000
# 2 50.3829 91.0343 35.2138 0.0000 0.0000 0.0000
# 3 52.5344 35.2138 80.2597 0.0000 0.0000 0.0000
# 4 0.0000 0.0000 0.0000 -6.7047 0.0000 0.0000
# 5 0.0000 0.0000 0.0000 0.0000 11.5999 0.0000
# 6 0.0000 0.0000 0.0000 0.0000 0.0000 38.6859
#
#
#
# Elastic Compliance Matrix: (Units=1/GPa)
#
#
# Indices 1 2 3 4 5 6 
#
# 1 0.010564 -0.003820 -0.005239 0.000000 0.000000 0.000000
# 2 -0.003820 0.014612 -0.003910 0.000000 0.000000 0.000000
# 3 -0.005239 -0.003910 0.017604 0.000000 0.000000 0.000000
# 4 0.000000 0.000000 0.000000 -0.149150 0.000000 0.000000
# 5 0.000000 0.000000 0.000000 0.000000 0.086207 0.000000
# 6 0.000000 0.000000 0.000000 0.000000 0.000000 0.025849
#
#
# Mechanical properties :
#
#
# Convention : Reuss Voigt Hill
#
# Bulk Modulus (GPa) = 59.37678 65.16509 62.27094
# Shear Modulus (GPa) = 134.26453 20.18908 77.22681
#
# Velocity S-wave (km/s) = 8.12848 3.15201 6.16471
# Velocity P-wave (km/s) = 10.83125 6.73163 9.01750
#
# Compressibility (1/GPa) = 0.01684160
#
# Stress axis : x y z
#
# Youngs Moduli (GPa) = 94.65857 68.43774 56.80453
#
# Poissons Ratio (x) = 0.26146 0.29758
# Poissons Ratio (y) = 0.36163 0.22212
# Poissons Ratio (z) = 0.49589 0.26761
#
# Static dielectric constant tensor:
#      x y z
#    x 1.834920 0.000000 0.000000 
#    y 0.000000 1.795060 0.000000 
#    z 0.000000 0.000000 1.733500 
# 
# From -- ./inp_files/8129.got.cif
#   From: 2010.05.17/outbox.cif.g08.bks.cpg/sg16_5_cif.got.tgz:8129.got - 2010.06.03 22:28:35.
