data_PCOD9310084
_publ_section_title
;
Structure prediction by ZEFSAII (Michael W. Deem and Ramdas Pophale) SiO2 
 PCOD9310084
Probable space group: P 2 2 2
;
_chemical_formula_sum "Si O2"
_cell_formula_units_Z 32
_cell_length_a 17.819607
_cell_length_b 7.327140
_cell_length_c 10.935811
_cell_angle_alpha 90.000000
_cell_angle_beta 90.000000
_cell_angle_gamma 90.000000
_cell_volume 1427.853358
_symmetry_space_group_name_H-M "P 2 2 2"
_symmetry_group_IT_number 16
_symmetry_cell_setting 'orthorhombic'
loop_
_space_group_symop_operation_xyz
x,y,z
-x,-y,z
x,-y,-z
-x,y,-z
loop_
_atom_site_type_symbol
_atom_site_label
_atom_site_fract_x
_atom_site_fract_y
_atom_site_fract_z
Si Si1 0.880719 0.281518 0.966862
Si Si2 0.076283 0.292437 0.551452
Si Si3 0.247216 0.212100 0.500290
Si Si4 0.500736 0.221545 0.359269
Si Si5 0.338494 0.225586 0.265144
Si Si6 0.290634 0.792345 0.995751
Si Si7 0.337257 0.778711 0.262552
Si Si8 0.013247 0.285776 0.819835
O O1 0.798249 0.205237 0.973796
O O2 0.926649 0.227365 0.842975
O O3 0.872973 0.500000 0.000000
O O4 0.933367 0.209144 0.075558
O O5 0.076643 0.500000 0.500000
O O6 0.157536 0.222577 0.512836
O O7 0.058699 0.276750 0.694832
O O8 0.000000 0.205057 0.500000
O O9 0.281174 0.285601 0.372850
O O10 0.285964 0.286455 0.623761
O O11 0.268749 0.000000 0.500000
O O12 0.500000 0.280906 0.500000
O O13 0.422634 0.278754 0.300448
O O14 0.577106 0.274421 0.291464
O O15 0.500000 0.000000 0.360017
O O16 0.321872 0.293191 0.128718
O O17 0.333618 0.002244 0.261629
O O18 0.309274 0.715527 0.129599
O O19 0.319928 0.000000 0.000000
O O20 0.000000 0.500000 0.843532
#
# Coordination Sequence:
#
# PCOD9310084 Si02
#       8
#     4   4   4   4   4   4   4   4
#     4   9  19  33  58  70  90 129 174 211 242 304
#     4  11  22  34  53  73 102 131 166 216 260 297
#     4  10  20  34  52  74 104 136 171 206 256 312
#     4   9  14  26  49  74 103 138 177 204 239 298
#     4   9  18  29  48  77 105 137 169 210 252 299
#     4  10  20  32  47  75 112 131 156 211 267 294
#     4   9  17  31  49  73 105 141 169 206 252 303
#     4   9  17  35  52  73  90 122 173 216 251 290
#
# _framework density 22.411266999999999
#
# number of rings (size 3 to 8) (size 9 to 14) (size 15 to 20)
#    0.000    2.500    2.500    1.500    1.750    0.750 
#    0.000    3.750    2.750    0.000    0.000    5.250 
#    0.000    0.000    0.000    0.000    0.000    0.000 
#
# Total GULP energy -178404.232211 kJ/mol
# GULP energy per Si atom -5575.132257 kJ/mol
# Density = 2.236026 g / cm^3
# Si number density = 22.411267 Si / 1000 Ang^3
#
#
#
# Elastic Constant Matrix: (Units=GPa)
#
#
# Indices 1 2 3 4 5 6 
#
# 1 173.4116 -13.3195 102.7939 0.0000 0.0000 0.0000
# 2 -13.3195 74.2450 4.1404 0.0000 0.0000 0.0000
# 3 102.7939 4.1404 197.7561 0.0000 0.0000 0.0000
# 4 0.0000 0.0000 0.0000 -13.9810 0.0000 0.0000
# 5 0.0000 0.0000 0.0000 0.0000 27.3365 0.0000
# 6 0.0000 0.0000 0.0000 0.0000 0.0000 32.8061
#
#
#
# Elastic Compliance Matrix: (Units=1/GPa)
#
#
# Indices 1 2 3 4 5 6 
#
# 1 0.008565 0.001787 -0.004490 0.000000 0.000000 0.000000
# 2 0.001787 0.013857 -0.001219 0.000000 0.000000 0.000000
# 3 -0.004490 -0.001219 0.007416 0.000000 0.000000 0.000000
# 4 0.000000 0.000000 0.000000 -0.071526 0.000000 0.000000
# 5 0.000000 0.000000 0.000000 0.000000 0.036581 0.000000
# 6 0.000000 0.000000 0.000000 0.000000 0.000000 0.030482
#
#
# Mechanical properties :
#
#
# Convention : Reuss Voigt Hill
#
# Bulk Modulus (GPa) = 45.46416 70.29359 57.87887
# Shear Modulus (GPa) = 123.29998 32.68551 77.99275
#
# Velocity S-wave (km/s) = 7.42539 3.82310 5.90561
# Velocity P-wave (km/s) = 9.68739 7.13593 8.50785
#
# Compressibility (1/GPa) = 0.02199535
#
# Stress axis : x y z
#
# Youngs Moduli (GPa) = 116.75136 72.16316 134.84421
#
# Poissons Ratio (x) = -0.12895 0.60540
# Poissons Ratio (y) = -0.20863 0.16438
# Poissons Ratio (z) = 0.52417 0.08797
#
# Static dielectric constant tensor:
#      x y z
#    x 1.794800 0.000000 0.000000 
#    y 0.000000 1.915860 0.000000 
#    z 0.000000 0.000000 1.731280 
# 
# From -- ./inp_files/7149.got.cif
#   From: 2010.05.17/outbox.cif.g08.bks.cpg/sg16_4_cif.got.tgz:7149.got - 2010.06.03 22:28:35.
