data_PCOD9310409
_publ_section_title
;
Structure prediction by ZEFSAII (Michael W. Deem and Ramdas Pophale) SiO2 
 PCOD9310409
Probable space group: P 2 2 2
;
_chemical_formula_sum "Si O2"
_cell_formula_units_Z 25
_cell_length_a 10.760471
_cell_length_b 11.878670
_cell_length_c 9.199744
_cell_angle_alpha 90.000000
_cell_angle_beta 90.000000
_cell_angle_gamma 90.000000
_cell_volume 1175.912051
_symmetry_space_group_name_H-M "P 2 2 2"
_symmetry_group_IT_number 16
_symmetry_cell_setting 'orthorhombic'
loop_
_space_group_symop_operation_xyz
x,y,z
-x,-y,z
x,-y,-z
-x,y,-z
loop_
_atom_site_type_symbol
_atom_site_label
_atom_site_fract_x
_atom_site_fract_y
_atom_site_fract_z
Si Si1 0.179170 0.170745 0.845851
Si Si2 0.731927 0.026551 0.670583
Si Si3 0.049870 0.207770 0.339013
Si Si4 0.378234 0.194873 0.095227
Si Si5 0.866890 0.544012 0.335472
Si Si6 0.625081 0.547040 0.164345
Si Si7 0.000000 0.000000 0.000000
O O1 0.073123 0.237465 0.757456
O O2 0.262193 0.098858 0.736100
O O3 0.263596 0.209840 0.979857
O O4 0.089453 0.078090 0.912242
O O5 0.862513 0.098287 0.686557
O O6 0.646422 0.102412 0.778651
O O7 0.705284 0.000000 0.500000
O O8 0.131309 0.320344 0.333578
O O9 0.000000 0.191075 0.500000
O O10 0.390634 0.318768 0.161889
O O11 0.500000 0.166681 0.000000
O O12 0.856485 0.500000 0.500000
O O13 0.749084 0.507376 0.243380
O O14 0.000000 0.500000 0.279640
O O15 0.500000 0.500000 0.234999
O O16 0.630561 0.500000 0.000000
#
# Coordination Sequence:
#
# PCOD9310409 Si02
#       7
#     4   4   4   4   4   4   1
#     4  12  24  39  70 103 145 193 231 285 361 436
#     4  12  24  43  72 105 145 193 235 288 356 443
#     4  12  22  40  70 105 147 188 234 294 365 441
#     4  12  26  49  73 100 144 192 248 305 357 428
#     4  11  25  44  69 105 147 183 239 317 373 426
#     4  11  25  49  74 101 137 191 249 301 371 442
#     4  12  20  40  60 104 138 176 226 266 360 424
#
# _framework density 21.260092
#
# number of rings (size 3 to 8) (size 9 to 14) (size 15 to 20)
#    0.000    0.320    9.600    0.000    2.240    1.920 
#    0.000    1.600    3.520    0.000    0.000    0.000 
#    0.000    0.000    0.000    0.000    0.000    0.000 
#
# Total GULP energy -139429.242120 kJ/mol
# GULP energy per Si atom -5577.169685 kJ/mol
# Density = 2.121170 g / cm^3
# Si number density = 21.260092 Si / 1000 Ang^3
#
#
#
# Elastic Constant Matrix: (Units=GPa)
#
#
# Indices 1 2 3 4 5 6 
#
# 1 146.7937 22.3494 60.7562 0.0000 0.0000 0.0000
# 2 22.3494 67.6478 25.3457 0.0000 0.0000 0.0000
# 3 60.7562 25.3457 95.4306 0.0000 0.0000 0.0000
# 4 0.0000 0.0000 0.0000 19.7491 0.0000 0.0000
# 5 0.0000 0.0000 0.0000 0.0000 30.2034 0.0000
# 6 0.0000 0.0000 0.0000 0.0000 0.0000 36.7449
#
#
#
# Elastic Compliance Matrix: (Units=1/GPa)
#
#
# Indices 1 2 3 4 5 6 
#
# 1 0.009304 -0.000949 -0.005671 0.000000 0.000000 0.000000
# 2 -0.000949 0.016513 -0.003782 0.000000 0.000000 0.000000
# 3 -0.005671 -0.003782 0.015094 0.000000 0.000000 0.000000
# 4 0.000000 0.000000 0.000000 0.050635 0.000000 0.000000
# 5 0.000000 0.000000 0.000000 0.000000 0.033109 0.000000
# 6 0.000000 0.000000 0.000000 0.000000 0.000000 0.027215
#
#
# Mechanical properties :
#
#
# Convention : Reuss Voigt Hill
#
# Bulk Modulus (GPa) = 49.73405 58.53051 54.13228
# Shear Modulus (GPa) = 27.87446 30.76754 29.32100
#
# Velocity S-wave (km/s) = 3.62486 3.80833 3.71773
# Velocity P-wave (km/s) = 6.40027 6.85042 6.62917
#
# Compressibility (1/GPa) = 0.02010695
#
# Stress axis : x y z
#
# Youngs Moduli (GPa) = 107.47937 60.55915 66.25185
#
# Poissons Ratio (x) = 0.05747 0.37574
# Poissons Ratio (y) = 0.10199 0.25053
# Poissons Ratio (z) = 0.60956 0.22901
#
# Static dielectric constant tensor:
#      x y z
#    x 1.782210 0.000000 0.000000 
#    y 0.000000 1.743710 0.000000 
#    z 0.000000 0.000000 1.851610 
# 
# From -- ./inp_files/4723.got.cif
#   From: 2010.05.17/outbox.cif.g08.bks.cpg/sg16_3_cif.got.tgz:4723.got - 2010.06.03 22:28:35.
