data_PCOD9310046
_publ_section_title
;
Structure prediction by ZEFSAII (Michael W. Deem and Ramdas Pophale) SiO2 
 PCOD9310046
Probable space group: P 2 2 2
;
_chemical_formula_sum "Si O2"
_cell_formula_units_Z 32
_cell_length_a 15.356848
_cell_length_b 12.987982
_cell_length_c 7.285472
_cell_angle_alpha 90.000000
_cell_angle_beta 90.000000
_cell_angle_gamma 90.000000
_cell_volume 1453.119923
_symmetry_space_group_name_H-M "P 2 2 2"
_symmetry_group_IT_number 16
_symmetry_cell_setting 'orthorhombic'
loop_
_space_group_symop_operation_xyz
x,y,z
-x,-y,z
x,-y,-z
-x,y,-z
loop_
_atom_site_type_symbol
_atom_site_label
_atom_site_fract_x
_atom_site_fract_y
_atom_site_fract_z
Si Si1 0.508254 0.619809 0.217019
Si Si2 0.931937 0.431300 0.187840
Si Si3 0.818075 0.881656 0.274632
Si Si4 0.297099 0.694778 0.715780
Si Si5 0.668540 0.714553 0.712519
Si Si6 0.250181 0.520223 0.294069
Si Si7 0.992829 0.210314 0.277464
Si Si8 0.193669 0.114373 0.720848
O O1 0.500000 0.500000 0.287821
O O2 0.603340 0.667241 0.246789
O O3 0.435780 0.701845 0.288660
O O4 0.500000 0.613083 0.000000
O O5 0.842634 0.426197 0.295247
O O6 0.975819 0.320311 0.184734
O O7 0.000000 0.500000 0.295032
O O8 0.916061 0.500000 0.000000
O O9 0.748866 0.796449 0.209239
O O10 0.810433 0.884822 0.497467
O O11 0.916281 0.844982 0.226512
O O12 0.796106 0.997080 0.215177
O O13 0.296624 0.706122 0.495313
O O14 0.243956 0.594416 0.781804
O O15 0.691244 0.604203 0.806159
O O16 0.726826 0.810160 0.782140
O O17 0.284317 0.500000 0.500000
O O18 0.904228 0.149645 0.229447
O O19 0.000000 0.223737 0.500000
#
# Coordination Sequence:
#
# PCOD9310046 Si02
#       8
#     4   4   4   4   4   4   4   4
#     4  11  23  37  56  84 113 151 192 235 296 357
#     4  11  24  35  47  80 120 159 194 234 296 343
#     4   9  18  32  57  88 122 150 194 250 292 338
#     4  10  20  35  56  85 116 151 190 238 293 346
#     4  10  19  35  57  85 115 149 192 238 288 350
#     4  10  20  33  55  81 112 154 195 233 287 354
#     4  10  19  33  57  86 119 161 203 242 286 347
#     4   9  17  33  56  91 120 150 195 246 295 337
#
# _framework density 22.021583
#
# number of rings (size 3 to 8) (size 9 to 14) (size 15 to 20)
#    0.000    2.000    2.500    1.500    3.500    3.000 
#    0.000    0.625    0.000    4.500    0.000    3.500 
#    0.000    0.000    0.000    0.000    0.000    0.500 
#
# Total GULP energy -178312.390879 kJ/mol
# GULP energy per Si atom -5572.262215 kJ/mol
# Density = 2.197146 g / cm^3
# Si number density = 22.021583 Si / 1000 Ang^3
#
#
#
# Elastic Constant Matrix: (Units=GPa)
#
#
# Indices 1 2 3 4 5 6 
#
# 1 151.6899 91.7837 0.5533 0.0000 0.0000 0.0000
# 2 91.7837 215.7616 19.0213 0.0000 0.0000 0.0000
# 3 0.5533 19.0213 78.2495 0.0000 0.0000 0.0000
# 4 0.0000 0.0000 0.0000 36.9879 0.0000 0.0000
# 5 0.0000 0.0000 0.0000 0.0000 -0.8466 0.0000
# 6 0.0000 0.0000 0.0000 0.0000 0.0000 21.7082
#
#
#
# Elastic Compliance Matrix: (Units=1/GPa)
#
#
# Indices 1 2 3 4 5 6 
#
# 1 0.008936 -0.003879 0.000880 0.000000 0.000000 0.000000
# 2 -0.003879 0.006420 -0.001533 0.000000 0.000000 0.000000
# 3 0.000880 -0.001533 0.013146 0.000000 0.000000 0.000000
# 4 0.000000 0.000000 0.000000 0.027036 0.000000 0.000000
# 5 0.000000 0.000000 0.000000 0.000000 -1.181161 0.000000
# 6 0.000000 0.000000 0.000000 0.000000 0.000000 0.046065
#
#
# Mechanical properties :
#
#
# Convention : Reuss Voigt Hill
#
# Bulk Modulus (GPa) = 51.44690 74.26861 62.85775
# Shear Modulus (GPa) = -4.69919 33.85942 14.58011
#
# Velocity S-wave (km/s) = -1.46237 3.92542 2.57589
# Velocity P-wave (km/s) = 4.53446 7.37183 6.11985
#
# Compressibility (1/GPa) = 0.01943752
#
# Stress axis : x y z
#
# Youngs Moduli (GPa) = 111.90357 155.76310 76.06811
#
# Poissons Ratio (x) = 0.60420 -0.06692
# Poissons Ratio (y) = 0.43407 0.11663
# Poissons Ratio (z) = -0.09845 0.23881
#
# Static dielectric constant tensor:
#      x y z
#    x 1.849030 0.000000 0.000000 
#    y 0.000000 1.849500 0.000000 
#    z 0.000000 0.000000 1.875710 
# 
# From -- ./inp_files/5227.got.cif
#   From: 2010.05.17/outbox.cif.g08.bks.cpg/sg16_3_cif.got.tgz:5227.got - 2010.06.03 22:28:35.
