data_PCOD9310588
_publ_section_title
;
Structure prediction by ZEFSAII (Michael W. Deem and Ramdas Pophale) SiO2 
 PCOD9310588
Probable space group: P 2 2 21
;
_chemical_formula_sum "Si O2"
_cell_formula_units_Z 18
_cell_length_a 7.273438
_cell_length_b 21.962659
_cell_length_c 5.183376
_cell_angle_alpha 90.000000
_cell_angle_beta 90.000000
_cell_angle_gamma 90.000000
_cell_volume 828.013416
_symmetry_space_group_name_H-M "P 2 2 21"
_symmetry_group_IT_number 17
_symmetry_cell_setting 'orthorhombic'
loop_
_space_group_symop_operation_xyz
x,y,z
-x,-y,1/2+z
x,-y,-z
-x,y,1/2-z
loop_
_atom_site_type_symbol
_atom_site_label
_atom_site_fract_x
_atom_site_fract_y
_atom_site_fract_z
Si Si1 0.724038 0.962566 0.246227
Si Si2 0.132014 0.500000 0.000000
Si Si3 0.724961 0.822705 0.237617
Si Si4 0.128755 0.630882 0.996661
Si Si5 0.281575 0.754480 0.771588
O O1 0.500000 0.961251 0.250000
O O2 0.780534 0.892610 0.207539
O O3 0.779668 0.000000 0.500000
O O4 0.784299 0.000000 0.000000
O O5 0.232716 0.565536 0.018060
O O6 0.000000 0.498428 0.750000
O O7 0.500000 0.821116 0.250000
O O8 0.789709 0.801652 0.517442
O O9 0.784336 0.775630 0.011913
O O10 0.241660 0.689433 0.904465
O O11 0.000000 0.622163 0.750000
O O12 0.000000 0.640688 0.250000
O O13 0.500000 0.758978 0.750000
#
# Coordination Sequence:
#
# PCOD9310588 Si02
#       5
#     4   2   4   4   4
#     4   9  15  23  37  58  87 123 161 197 235 285
#     4   8  16  30  50  72  94 122 158 204 250 290
#     4   9  17  28  42  64  96 132 162 195 247 303
#     4  10  19  33  53  75  98 128 169 211 251 297
#     4  10  19  31  48  70 101 134 162 198 252 308
#
# _framework density 21.738779000000001
#
# number of rings (size 3 to 8) (size 9 to 14) (size 15 to 20)
#    0.000    2.667    0.000    2.667    0.000    5.333 
#    0.000    0.000    0.000   12.000    0.000    0.000 
#    0.000   49.778    0.000    0.000    0.000    0.000 
#
# Total GULP energy -100251.516583 kJ/mol
# GULP energy per Si atom -5569.528699 kJ/mol
# Density = 2.168930 g / cm^3
# Si number density = 21.738779 Si / 1000 Ang^3
#
#
#
# Elastic Constant Matrix: (Units=GPa)
#
#
# Indices 1 2 3 4 5 6 
#
# 1 55.9515 4.3118 8.0092 0.0000 0.0000 0.0000
# 2 4.3118 181.9539 63.4781 0.0000 0.0000 0.0000
# 3 8.0092 63.4781 177.5238 0.0000 0.0000 0.0000
# 4 0.0000 0.0000 0.0000 37.2041 0.0000 0.0000
# 5 0.0000 0.0000 0.0000 0.0000 -2.2567 0.0000
# 6 0.0000 0.0000 0.0000 0.0000 0.0000 8.5094
#
#
#
# Elastic Compliance Matrix: (Units=1/GPa)
#
#
# Indices 1 2 3 4 5 6 
#
# 1 0.017993 -0.000164 -0.000753 0.000000 0.000000 0.000000
# 2 -0.000164 0.006281 -0.002238 0.000000 0.000000 0.000000
# 3 -0.000753 -0.002238 0.006467 0.000000 0.000000 0.000000
# 4 0.000000 0.000000 0.000000 0.026879 0.000000 0.000000
# 5 0.000000 0.000000 0.000000 0.000000 -0.443126 0.000000
# 6 0.000000 0.000000 0.000000 0.000000 0.000000 0.117517
#
#
# Mechanical properties :
#
#
# Convention : Reuss Voigt Hill
#
# Bulk Modulus (GPa) = 40.93232 63.00305 51.96769
# Shear Modulus (GPa) = -19.72116 31.33337 5.80610
#
# Velocity S-wave (km/s) = -3.01522 3.80064 1.63605
# Velocity P-wave (km/s) = 2.59768 6.95015 5.24655
#
# Compressibility (1/GPa) = 0.02443057
#
# Stress axis : x y z
#
# Youngs Moduli (GPa) = 55.57700 159.21805 154.62064
#
# Poissons Ratio (x) = 0.02605 0.11647
# Poissons Ratio (y) = 0.00909 0.34611
# Poissons Ratio (z) = 0.04187 0.35640
#
# Static dielectric constant tensor:
#      x y z
#    x 1.821010 0.000000 0.000000 
#    y 0.000000 1.965310 0.000000 
#    z 0.000000 0.000000 1.747740 
# 
# From -- ./inp_files/839.got.cif
#   From: 2010.05.17/outbox.cif.g08.bks.cpg/sg17_1_cif.got.tgz:839.got - 2010.06.03 22:34:06.
