data_PCOD9310710
_publ_section_title
;
Structure prediction by ZEFSAII (Michael W. Deem and Ramdas Pophale) SiO2 
 PCOD9310710
Probable space group: P 2 2 21
;
_chemical_formula_sum "Si O2"
_cell_formula_units_Z 18
_cell_length_a 9.028311
_cell_length_b 6.738325
_cell_length_c 13.820456
_cell_angle_alpha 90.000000
_cell_angle_beta 90.000000
_cell_angle_gamma 90.000000
_cell_volume 840.777028
_symmetry_space_group_name_H-M "P 2 2 21"
_symmetry_group_IT_number 17
_symmetry_cell_setting 'orthorhombic'
loop_
_space_group_symop_operation_xyz
x,y,z
-x,-y,1/2+z
x,-y,-z
-x,y,1/2-z
loop_
_atom_site_type_symbol
_atom_site_label
_atom_site_fract_x
_atom_site_fract_y
_atom_site_fract_z
Si Si1 0.523453 0.000000 0.500000
Si Si2 0.004573 0.984089 0.602715
Si Si3 0.148106 0.394649 0.303154
Si Si4 0.290403 0.041507 0.195905
Si Si5 0.299854 0.776222 0.378186
O O1 0.618113 0.046166 0.403449
O O2 0.415763 0.178234 0.536530
O O3 0.071834 0.768559 0.626878
O O4 0.876264 0.038709 0.676949
O O5 0.926644 0.000000 0.500000
O O6 0.143091 0.126864 0.595511
O O7 0.253727 0.262802 0.233602
O O8 0.254743 0.553483 0.352437
O O9 0.000000 0.481286 0.250000
O O10 0.348310 0.902368 0.282686
#
# Coordination Sequence:
#
# PCOD9310710 Si02
#       5
#     2   4   4   4   4
#     4  12  24  42  68  94 136 180 212 260 326 396
#     4  10  19  39  69  98 124 166 216 273 321 377
#     4   9  20  40  70  97 127 165 216 275 327 372
#     4  10  22  43  68  94 131 171 218 267 326 381
#     4  11  22  42  65  96 132 170 213 271 323 382
#
# _framework density 21.408767999999998
#
# number of rings (size 3 to 8) (size 9 to 14) (size 15 to 20)
#    0.000    1.778    2.222    4.000    0.000    0.889 
#    0.000   14.444    0.000    0.000    0.000    0.000 
#    0.000    0.000    0.000    0.000    0.000    0.000 
#
# Total GULP energy -100351.248346 kJ/mol
# GULP energy per Si atom -5575.069353 kJ/mol
# Density = 2.136004 g / cm^3
# Si number density = 21.408768 Si / 1000 Ang^3
#
#
#
# Elastic Constant Matrix: (Units=GPa)
#
#
# Indices 1 2 3 4 5 6 
#
# 1 100.6297 24.7538 35.5184 0.0000 0.0000 0.0000
# 2 24.7538 52.2055 13.1961 0.0000 0.0000 0.0000
# 3 35.5184 13.1961 96.1696 0.0000 0.0000 0.0000
# 4 0.0000 0.0000 0.0000 -6.4284 0.0000 0.0000
# 5 0.0000 0.0000 0.0000 0.0000 58.9683 0.0000
# 6 0.0000 0.0000 0.0000 0.0000 0.0000 37.4318
#
#
#
# Elastic Compliance Matrix: (Units=1/GPa)
#
#
# Indices 1 2 3 4 5 6 
#
# 1 0.012552 -0.004952 -0.003956 0.000000 0.000000 0.000000
# 2 -0.004952 0.021797 -0.001162 0.000000 0.000000 0.000000
# 3 -0.003956 -0.001162 0.012019 0.000000 0.000000 0.000000
# 4 0.000000 0.000000 0.000000 -0.155559 0.000000 0.000000
# 5 0.000000 0.000000 0.000000 0.000000 0.016958 0.000000
# 6 0.000000 0.000000 0.000000 0.000000 0.000000 0.026715
#
#
# Mechanical properties :
#
#
# Convention : Reuss Voigt Hill
#
# Bulk Modulus (GPa) = 38.12798 43.99348 41.06073
# Shear Modulus (GPa) = -136.47908 29.69676 -53.39116
#
# Velocity S-wave (km/s) = -7.99297 3.72846 -4.99931
# Velocity P-wave (km/s) = 8.20580 6.25533 3.75540
#
# Compressibility (1/GPa) = 0.02622746
#
# Stress axis : x y z
#
# Youngs Moduli (GPa) = 79.66921 45.87860 83.20190
#
# Poissons Ratio (x) = 0.22717 0.32918
# Poissons Ratio (y) = 0.39449 0.09669
# Poissons Ratio (z) = 0.31520 0.05332
#
# Static dielectric constant tensor:
#      x y z
#    x 1.802600 0.000000 0.000000 
#    y 0.000000 1.767810 0.000000 
#    z 0.000000 0.000000 1.765780 
# 
# From -- ./inp_files/9224.got.cif
#   From: 2010.05.17/outbox.cif.g08.bks.cpg/sg17_5_cif.got.tgz:9224.got - 2010.06.03 22:34:06.
