data_PCOD9310834
_publ_section_title
;
Structure prediction by ZEFSAII (Michael W. Deem and Ramdas Pophale) SiO2 
 PCOD9310834
Probable space group: P 2 2 21
;
_chemical_formula_sum "Si O2"
_cell_formula_units_Z 32
_cell_length_a 17.835346
_cell_length_b 14.005342
_cell_length_c 5.496300
_cell_angle_alpha 90.000000
_cell_angle_beta 90.000000
_cell_angle_gamma 90.000000
_cell_volume 1372.921439
_symmetry_space_group_name_H-M "P 2 2 21"
_symmetry_group_IT_number 17
_symmetry_cell_setting 'orthorhombic'
loop_
_space_group_symop_operation_xyz
x,y,z
-x,-y,1/2+z
x,-y,-z
-x,y,1/2-z
loop_
_atom_site_type_symbol
_atom_site_label
_atom_site_fract_x
_atom_site_fract_y
_atom_site_fract_z
Si Si1 0.719079 0.386145 0.995703
Si Si2 0.292064 0.971833 0.739247
Si Si3 0.164811 0.739450 0.220150
Si Si4 0.577015 0.585078 0.350193
Si Si5 0.462082 0.208931 0.000208
Si Si6 0.954383 0.611815 0.501526
Si Si7 0.122642 0.951274 0.255961
Si Si8 0.702484 0.773834 0.627608
O O1 0.796603 0.333554 0.912213
O O2 0.642979 0.377154 0.829293
O O3 0.732440 0.500000 0.000000
O O4 0.698339 0.327802 0.240076
O O5 0.274512 0.859928 0.697874
O O6 0.337551 0.000000 0.500000
O O7 0.211564 0.024137 0.741686
O O8 0.325155 0.000000 0.000000
O O9 0.116970 0.678177 0.029038
O O10 0.118498 0.835789 0.280696
O O11 0.237947 0.773569 0.081603
O O12 0.614214 0.500000 0.500000
O O13 0.500000 0.538471 0.250000
O O14 0.541287 0.675243 0.487853
O O15 0.500000 0.176507 0.750000
O O16 0.500000 0.177432 0.250000
O O17 0.375047 0.189883 0.020549
O O18 0.933640 0.500000 0.500000
O O19 0.000000 0.628345 0.250000
O O20 0.000000 0.630837 0.750000
O O21 0.090368 0.000000 0.500000
O O22 0.095969 0.000000 0.000000
#
# Coordination Sequence:
#
# PCOD9310834 Si02
#       8
#     4   4   4   4   4   4   4   4
#     4  12  27  39  62 102 144 180 235 308 356 411
#     4  10  20  37  63  98 132 172 220 287 353 432
#     4  12  26  42  75 108 138 183 239 301 354 415
#     4  11  21  38  57  83 124 185 237 280 351 431
#     4  11  24  41  62  89 133 186 236 294 358 427
#     4  10  26  50  76 105 148 202 242 275 337 425
#     4  10  20  39  64 106 138 175 219 283 354 428
#     4  12  24  42  68 102 138 183 244 300 366 424
#
# _framework density 23.307963999999998
#
# number of rings (size 3 to 8) (size 9 to 14) (size 15 to 20)
#    0.000    1.000    3.750    4.500    3.500    0.500 
#    0.000    0.000    0.000    3.000    0.000    0.000 
#    0.000    0.000    0.000    0.000    0.000    0.000 
#
# Total GULP energy -178479.950362 kJ/mol
# GULP energy per Si atom -5577.498449 kJ/mol
# Density = 2.325491 g / cm^3
# Si number density = 23.307964 Si / 1000 Ang^3
#
#
#
# Elastic Constant Matrix: (Units=GPa)
#
#
# Indices 1 2 3 4 5 6 
#
# 1 62.8256 18.7469 9.6553 0.0000 0.0000 0.0000
# 2 18.7469 105.3502 27.7050 0.0000 0.0000 0.0000
# 3 9.6553 27.7050 130.8384 0.0000 0.0000 0.0000
# 4 0.0000 0.0000 0.0000 26.6530 0.0000 0.0000
# 5 0.0000 0.0000 0.0000 0.0000 6.7471 0.0000
# 6 0.0000 0.0000 0.0000 0.0000 0.0000 -1.5577
#
#
#
# Elastic Compliance Matrix: (Units=1/GPa)
#
#
# Indices 1 2 3 4 5 6 
#
# 1 0.016861 -0.002831 -0.000645 0.000000 0.000000 0.000000
# 2 -0.002831 0.010527 -0.002020 0.000000 0.000000 0.000000
# 3 -0.000645 -0.002020 0.008118 0.000000 0.000000 0.000000
# 4 0.000000 0.000000 0.000000 0.037519 0.000000 0.000000
# 5 0.000000 0.000000 0.000000 0.000000 0.148212 0.000000
# 6 0.000000 0.000000 0.000000 0.000000 0.000000 -0.641975
#
#
# Mechanical properties :
#
#
# Convention : Reuss Voigt Hill
#
# Bulk Modulus (GPa) = 40.79182 45.69207 43.24194
# Shear Modulus (GPa) = -12.45098 22.56228 5.05565
#
# Velocity S-wave (km/s) = -2.31377 3.11466 1.47437
# Velocity P-wave (km/s) = 3.22509 5.70797 4.63585
#
# Compressibility (1/GPa) = 0.02451472
#
# Stress axis : x y z
#
# Youngs Moduli (GPa) = 59.30891 94.99237 123.17719
#
# Poissons Ratio (x) = 0.26890 0.07943
# Poissons Ratio (y) = 0.16789 0.24885
# Poissons Ratio (z) = 0.03824 0.19191
#
# Static dielectric constant tensor:
#      x y z
#    x 1.885750 0.000000 0.000000 
#    y 0.000000 1.958140 0.000000 
#    z 0.000000 0.000000 2.056860 
# 
# From -- ./inp_files/2723.got.cif
#   From: 2010.05.17/outbox.cif.g08.bks.cpg/sg17_2_cif.got.tgz:2723.got - 2010.06.03 22:34:06.
