data_PCOD9310640
_publ_section_title
;
Structure prediction by ZEFSAII (Michael W. Deem and Ramdas Pophale) SiO2 
 PCOD9310640
Probable space group: P 2 2 21
;
_chemical_formula_sum "Si O2"
_cell_formula_units_Z 32
_cell_length_a 8.318094
_cell_length_b 18.483204
_cell_length_c 11.057051
_cell_angle_alpha 90.000000
_cell_angle_beta 90.000000
_cell_angle_gamma 90.000000
_cell_volume 1699.966619
_symmetry_space_group_name_H-M "P 2 2 21"
_symmetry_group_IT_number 17
_symmetry_cell_setting 'orthorhombic'
loop_
_space_group_symop_operation_xyz
x,y,z
-x,-y,1/2+z
x,-y,-z
-x,y,1/2-z
loop_
_atom_site_type_symbol
_atom_site_label
_atom_site_fract_x
_atom_site_fract_y
_atom_site_fract_z
Si Si1 0.685552 0.933115 0.710569
Si Si2 0.383968 0.295160 0.925140
Si Si3 0.206830 0.837201 0.001446
Si Si4 0.275516 0.780359 0.435249
Si Si5 0.105819 0.181331 0.353010
Si Si6 0.693310 0.100333 0.752156
Si Si7 0.167491 0.344444 0.701385
Si Si8 0.444215 0.441554 0.608168
O O1 0.500000 0.924838 0.750000
O O2 0.702174 0.898895 0.576719
O O3 0.809872 0.886247 0.789057
O O4 0.732452 0.016507 0.730250
O O5 0.548750 0.250646 0.902086
O O6 0.272524 0.309951 0.809395
O O7 0.445197 0.376763 0.947142
O O8 0.285092 0.242756 0.014918
O O9 0.025290 0.838434 0.954373
O O10 0.230555 0.855724 0.141318
O O11 0.249904 0.779767 0.578307
O O12 0.258563 0.859116 0.375431
O O13 0.144542 0.724399 0.384762
O O14 0.000000 0.220142 0.250000
O O15 0.500000 0.104542 0.750000
O O16 0.271693 0.404603 0.633492
O O17 0.000000 0.372796 0.750000
O O18 0.438483 0.500000 0.500000
O O19 0.500000 0.460206 0.750000
#
# Coordination Sequence:
#
# PCOD9310640 Si02
#       8
#     4   4   4   4   4   4   4   4
#     4  10  23  40  54  76 114 167 204 249 316 377
#     4  10  19  36  66  93 119 158 206 262 297 367
#     4  11  20  39  57  83 119 146 201 264 312 363
#     4  11  19  35  60  86 115 152 215 258 298 367
#     4  10  24  41  52  79 119 159 201 252 321 372
#     4  11  21  35  60  87 110 148 211 263 312 363
#     4  10  19  34  60  98 127 158 197 260 313 355
#     4   9  20  39  64  96 132 164 210 256 307 380
#
# _framework density 18.823898
#
# number of rings (size 3 to 8) (size 9 to 14) (size 15 to 20)
#    0.000    1.750    2.500    3.000    0.000    0.500 
#   11.250    8.125    0.000    3.000    0.000    0.000 
#    0.000    0.000    0.000    0.000    0.000    0.000 
#
# Total GULP energy -178141.861106 kJ/mol
# GULP energy per Si atom -5566.933160 kJ/mol
# Density = 1.878105 g / cm^3
# Si number density = 18.823898 Si / 1000 Ang^3
#
#
#
# Elastic Constant Matrix: (Units=GPa)
#
#
# Indices 1 2 3 4 5 6 
#
# 1 69.9266 19.9967 30.4627 0.0000 0.0000 0.0000
# 2 19.9967 107.6173 45.4856 0.0000 0.0000 0.0000
# 3 30.4627 45.4856 74.9083 0.0000 0.0000 0.0000
# 4 0.0000 0.0000 0.0000 33.0893 0.0000 0.0000
# 5 0.0000 0.0000 0.0000 0.0000 33.1565 0.0000
# 6 0.0000 0.0000 0.0000 0.0000 0.0000 14.2411
#
#
#
# Elastic Compliance Matrix: (Units=1/GPa)
#
#
# Indices 1 2 3 4 5 6 
#
# 1 0.017388 -0.000326 -0.006873 0.000000 0.000000 0.000000
# 2 -0.000326 0.012506 -0.007462 0.000000 0.000000 0.000000
# 3 -0.006873 -0.007462 0.020676 0.000000 0.000000 0.000000
# 4 0.000000 0.000000 0.000000 0.030221 0.000000 0.000000
# 5 0.000000 0.000000 0.000000 0.000000 0.030160 0.000000
# 6 0.000000 0.000000 0.000000 0.000000 0.000000 0.070219
#
#
# Mechanical properties :
#
#
# Convention : Reuss Voigt Hill
#
# Bulk Modulus (GPa) = 47.06181 49.37136 48.21659
# Shear Modulus (GPa) = 22.98053 26.53119 24.75586
#
# Velocity S-wave (km/s) = 3.49781 3.75833 3.63041
# Velocity P-wave (km/s) = 6.43182 6.71702 6.57596
#
# Compressibility (1/GPa) = 0.02124865
#
# Stress axis : x y z
#
# Youngs Moduli (GPa) = 57.51035 79.95862 48.36608
#
# Poissons Ratio (x) = 0.02606 0.33244
# Poissons Ratio (y) = 0.01874 0.36089
# Poissons Ratio (z) = 0.39529 0.59662
#
# Static dielectric constant tensor:
#      x y z
#    x 1.683850 0.000000 0.000000 
#    y 0.000000 1.680430 0.000000 
#    z 0.000000 0.000000 1.726600 
# 
# From -- ./inp_files/6759.got.cif
#   From: 2010.05.17/outbox.cif.g08.bks.cpg/sg17_4_cif.got.tgz:6759.got - 2010.06.03 22:34:06.
