data_PCOD9310854
_publ_section_title
;
Structure prediction by ZEFSAII (Michael W. Deem and Ramdas Pophale) SiO2 
 PCOD9310854
Probable space group: P 2 2 21
;
_chemical_formula_sum "Si O2"
_cell_formula_units_Z 20
_cell_length_a 8.797966
_cell_length_b 8.603624
_cell_length_c 13.207688
_cell_angle_alpha 90.000000
_cell_angle_beta 90.000000
_cell_angle_gamma 90.000000
_cell_volume 999.747905
_symmetry_space_group_name_H-M "P 2 2 21"
_symmetry_group_IT_number 17
_symmetry_cell_setting 'orthorhombic'
loop_
_space_group_symop_operation_xyz
x,y,z
-x,-y,1/2+z
x,-y,-z
-x,y,1/2-z
loop_
_atom_site_type_symbol
_atom_site_label
_atom_site_fract_x
_atom_site_fract_y
_atom_site_fract_z
Si Si1 0.564763 0.731909 0.607530
Si Si2 0.275619 0.389274 0.312417
Si Si3 0.837812 0.332538 0.701655
Si Si4 0.773543 0.500000 0.500000
Si Si5 0.000000 0.198361 0.250000
Si Si6 0.767523 0.003745 0.615962
O O1 0.641729 0.670708 0.710674
O O2 0.392455 0.671530 0.603245
O O3 0.665115 0.645845 0.524063
O O4 0.605463 0.913628 0.611304
O O5 0.253135 0.570508 0.287424
O O6 0.111936 0.307243 0.315929
O O7 0.857555 0.445438 0.602610
O O8 0.000000 0.295176 0.750000
O O9 0.761361 0.173800 0.664368
O O10 0.111376 0.094777 0.181534
O O11 0.823053 0.000000 0.500000
#
# Coordination Sequence:
#
# PCOD9310854 Si02
#       6
#     4   4   4   2   2   4
#     4   9  19  37  59  84 121 167 208 258 316 379
#     4   9  19  37  60  85 118 165 213 252 319 375
#     4  11  21  37  66  99 125 169 225 264 322 389
#     4  10  20  38  62  90 130 176 218 264 318 382
#     4  10  20  38  60  90 134 164 206 274 318 380
#     4  11  21  37  63  92 129 170 212 265 331 377
#
# _framework density 20.005040000000001
#
# number of rings (size 3 to 8) (size 9 to 14) (size 15 to 20)
#    0.000    2.000    4.000    0.000    0.000    0.000 
#    0.000   20.000    0.000    0.000    0.000    0.000 
#    0.000    0.000    0.000    0.000    0.000    0.000 
#
# Total GULP energy -111340.767542 kJ/mol
# GULP energy per Si atom -5567.038377 kJ/mol
# Density = 1.995951 g / cm^3
# Si number density = 20.005040 Si / 1000 Ang^3
#
#
#
# Elastic Constant Matrix: (Units=GPa)
#
#
# Indices 1 2 3 4 5 6 
#
# 1 79.4444 53.8910 15.3812 0.0000 0.0000 0.0000
# 2 53.8910 158.5015 23.5183 0.0000 0.0000 0.0000
# 3 15.3812 23.5183 42.4581 0.0000 0.0000 0.0000
# 4 0.0000 0.0000 0.0000 27.2291 0.0000 0.0000
# 5 0.0000 0.0000 0.0000 0.0000 23.0972 0.0000
# 6 0.0000 0.0000 0.0000 0.0000 0.0000 -3.5790
#
#
#
# Elastic Compliance Matrix: (Units=1/GPa)
#
#
# Indices 1 2 3 4 5 6 
#
# 1 0.016744 -0.005222 -0.003173 0.000000 0.000000 0.000000
# 2 -0.005222 0.008503 -0.002818 0.000000 0.000000 0.000000
# 3 -0.003173 -0.002818 0.026263 0.000000 0.000000 0.000000
# 4 0.000000 0.000000 0.000000 0.036725 0.000000 0.000000
# 5 0.000000 0.000000 0.000000 0.000000 0.043295 0.000000
# 6 0.000000 0.000000 0.000000 0.000000 0.000000 -0.279411
#
#
# Mechanical properties :
#
#
# Convention : Reuss Voigt Hill
#
# Bulk Modulus (GPa) = 34.38402 51.77610 43.08006
# Shear Modulus (GPa) = -43.19322 21.85705 -10.66808
#
# Velocity S-wave (km/s) = -4.65167 3.30900 -2.31177
# Velocity P-wave (km/s) = 3.40965 6.36687 3.80206
#
# Compressibility (1/GPa) = 0.02908328
#
# Stress axis : x y z
#
# Youngs Moduli (GPa) = 59.72180 117.60821 38.07624
#
# Poissons Ratio (x) = 0.61418 0.12082
# Poissons Ratio (y) = 0.31188 0.10730
# Poissons Ratio (z) = 0.18951 0.33142
#
# Static dielectric constant tensor:
#      x y z
#    x 1.747050 0.000000 0.000000 
#    y 0.000000 1.777720 0.000000 
#    z 0.000000 0.000000 1.769210 
# 
# From -- ./inp_files/7937.got.cif
#   From: 2010.05.17/outbox.cif.g08.bks.cpg/sg17_4_cif.got.tgz:7937.got - 2010.06.03 22:34:06.
