data_PCOD9310020
_publ_section_title
;
Structure prediction by ZEFSAII (Michael W. Deem and Ramdas Pophale) SiO2 
 PCOD9310020
Probable space group: P 2 2 2
;
_chemical_formula_sum "Si O2"
_cell_formula_units_Z 21
_cell_length_a 15.773435
_cell_length_b 14.298639
_cell_length_c 5.309385
_cell_angle_alpha 90.000000
_cell_angle_beta 90.000000
_cell_angle_gamma 90.000000
_cell_volume 1197.471540
_symmetry_space_group_name_H-M "P 2 2 2"
_symmetry_group_IT_number 16
_symmetry_cell_setting 'orthorhombic'
loop_
_space_group_symop_operation_xyz
x,y,z
-x,-y,z
x,-y,-z
-x,y,-z
loop_
_atom_site_type_symbol
_atom_site_label
_atom_site_fract_x
_atom_site_fract_y
_atom_site_fract_z
Si Si1 0.396811 0.892323 0.509736
Si Si2 0.397261 0.781850 0.011295
Si Si3 0.648423 0.586094 0.182943
Si Si4 0.811980 0.390275 0.504194
Si Si5 0.901031 0.614300 0.000696
Si Si6 0.500000 0.500000 0.500000
O O1 0.500000 0.893667 0.500000
O O2 0.370477 0.832994 0.266495
O O3 0.368782 0.000000 0.500000
O O4 0.371123 0.841778 0.767089
O O5 0.500000 0.776932 0.000000
O O6 0.362907 0.677502 0.984913
O O7 0.714563 0.607801 0.406812
O O8 0.560633 0.559978 0.319289
O O9 0.675478 0.500000 0.000000
O O10 0.835959 0.500000 0.500000
O O11 0.845163 0.353179 0.238211
O O12 0.861179 0.348559 0.741693
O O13 0.896865 0.500000 0.000000
O O14 0.000000 0.638687 0.000000
#
# Coordination Sequence:
#
# PCOD9310020 Si02
#       6
#     4   4   4   4   4   1
#     4   9  18  33  52  72  90 112 156 223 290 335
#     4  10  21  33  51  69  93 128 172 222 276 313
#     4  12  25  37  48  70 102 143 197 229 268 299
#     4  10  19  32  48  66  93 125 162 217 260 300
#     4   9  17  30  49  70  88 113 155 209 269 317
#     4  12  26  36  52  58 100 156 202 240 270 288
#
# _framework density 17.536951999999999
#
# number of rings (size 3 to 8) (size 9 to 14) (size 15 to 20)
#    0.000    1.905    0.952    4.286    6.667    4.571 
#    0.000    0.000    0.000    0.000    0.000    0.000 
#    0.000    0.000    0.000    0.000    0.000   26.667 
#
# Total GULP energy -117205.469580 kJ/mol
# GULP energy per Si atom -5581.212837 kJ/mol
# Density = 1.749704 g / cm^3
# Si number density = 17.536952 Si / 1000 Ang^3
#
#
#
# Elastic Constant Matrix: (Units=GPa)
#
#
# Indices 1 2 3 4 5 6 
#
# 1 87.8237 10.6050 50.7252 0.0000 0.0000 0.0000
# 2 10.6050 103.7921 56.7154 0.0000 0.0000 0.0000
# 3 50.7252 56.7154 157.5739 0.0000 0.0000 0.0000
# 4 0.0000 0.0000 0.0000 19.8393 0.0000 0.0000
# 5 0.0000 0.0000 0.0000 0.0000 21.4186 0.0000
# 6 0.0000 0.0000 0.0000 0.0000 0.0000 -0.8659
#
#
#
# Elastic Compliance Matrix: (Units=1/GPa)
#
#
# Indices 1 2 3 4 5 6 
#
# 1 0.014126 0.001296 -0.005014 0.000000 0.000000 0.000000
# 2 0.001296 0.012112 -0.004777 0.000000 0.000000 0.000000
# 3 -0.005014 -0.004777 0.009680 0.000000 0.000000 0.000000
# 4 0.000000 0.000000 0.000000 0.050405 0.000000 0.000000
# 5 0.000000 0.000000 0.000000 0.000000 0.046688 0.000000
# 6 0.000000 0.000000 0.000000 0.000000 0.000000 -1.154907
#
#
# Mechanical properties :
#
#
# Convention : Reuss Voigt Hill
#
# Bulk Modulus (GPa) = 52.82880 65.03121 58.93001
# Shear Modulus (GPa) = -5.00702 23.48802 9.24050
#
# Velocity S-wave (km/s) = -1.69155 3.66368 2.29796
# Velocity P-wave (km/s) = 5.13562 7.42021 6.38099
#
# Compressibility (1/GPa) = 0.01892907
#
# Stress axis : x y z
#
# Youngs Moduli (GPa) = 70.79226 82.55953 103.30953
#
# Poissons Ratio (x) = -0.10704 0.51799
# Poissons Ratio (y) = -0.09178 0.49351
# Poissons Ratio (z) = 0.35495 0.39438
#
# Static dielectric constant tensor:
#      x y z
#    x 1.623320 0.000000 0.000000 
#    y 0.000000 1.581550 0.000000 
#    z 0.000000 0.000000 1.645540 
# 
# From -- ./inp_files/1926.got.cif
#   From: 2010.05.17/outbox.cif.g08.bks.cpg/sg16_1_cif.got.tgz:1926.got - 2010.06.03 22:28:35.
