data_PCOD9310329
_publ_section_title
;
Structure prediction by ZEFSAII (Michael W. Deem and Ramdas Pophale) SiO2 
 PCOD9310329
Probable space group: P 2 2 2
;
_chemical_formula_sum "Si O2"
_cell_formula_units_Z 24
_cell_length_a 16.047899
_cell_length_b 5.223733
_cell_length_c 12.109290
_cell_angle_alpha 90.000000
_cell_angle_beta 90.000000
_cell_angle_gamma 90.000000
_cell_volume 1015.121049
_symmetry_space_group_name_H-M "P 2 2 2"
_symmetry_group_IT_number 16
_symmetry_cell_setting 'orthorhombic'
loop_
_space_group_symop_operation_xyz
x,y,z
-x,-y,z
x,-y,-z
-x,y,-z
loop_
_atom_site_type_symbol
_atom_site_label
_atom_site_fract_x
_atom_site_fract_y
_atom_site_fract_z
Si Si1 0.802027 0.245193 0.923539
Si Si2 0.333176 0.463891 0.242105
Si Si3 0.908444 0.120297 0.715572
Si Si4 0.826526 0.383859 0.378488
Si Si5 0.406018 0.752990 0.551499
Si Si6 0.592664 0.745258 0.946882
O O1 0.724690 0.297147 0.839591
O O2 0.875389 0.158469 0.840194
O O3 0.817275 0.500000 0.000000
O O4 0.790593 0.000000 0.000000
O O5 0.260787 0.595056 0.313194
O O6 0.393046 0.286694 0.318290
O O7 0.391041 0.677252 0.180325
O O8 0.892936 0.406923 0.669201
O O9 0.856718 0.906778 0.644435
O O10 0.000000 0.000000 0.714332
O O11 0.815308 0.500000 0.500000
O O12 0.369287 0.500000 0.500000
O O13 0.500000 0.757458 0.500000
O O14 0.363540 0.000000 0.500000
O O15 0.634568 0.500000 0.000000
O O16 0.500000 0.742391 0.000000
O O17 0.625758 0.000000 0.000000
#
# Coordination Sequence:
#
# PCOD9310329 Si02
#       6
#     4   4   4   4   4   4
#     4  11  25  45  68 102 141 184 233 283 347 416
#     4  11  25  44  72 100 140 185 236 295 348 419
#     4  11  25  46  72 105 143 182 229 285 346 417
#     4  11  25  43  69 105 141 186 234 281 349 418
#     4  10  24  45  68  98 134 177 232 294 360 417
#     4  10  24  44  65  96 134 178 233 293 358 417
#
# _framework density 23.642503000000001
#
# number of rings (size 3 to 8) (size 9 to 14) (size 15 to 20)
#    0.000    1.333    0.000    4.000    0.000   19.667 
#    0.000   12.500    0.000    0.000    0.000    0.000 
#    0.000    0.000    0.000    0.000    0.000    0.000 
#
# Total GULP energy -133705.261367 kJ/mol
# GULP energy per Si atom -5571.052557 kJ/mol
# Density = 2.358869 g / cm^3
# Si number density = 23.642503 Si / 1000 Ang^3
#
#
#
# Elastic Constant Matrix: (Units=GPa)
#
#
# Indices 1 2 3 4 5 6 
#
# 1 109.3172 -0.4126 43.6139 0.0000 0.0000 0.0000
# 2 -0.4126 189.2536 48.5887 0.0000 0.0000 0.0000
# 3 43.6139 48.5887 139.2735 0.0000 0.0000 0.0000
# 4 0.0000 0.0000 0.0000 95.1586 0.0000 0.0000
# 5 0.0000 0.0000 0.0000 0.0000 -79.2187 0.0000
# 6 0.0000 0.0000 0.0000 0.0000 0.0000 10.8046
#
#
#
# Elastic Compliance Matrix: (Units=1/GPa)
#
#
# Indices 1 2 3 4 5 6 
#
# 1 0.010611 0.000962 -0.003659 0.000000 0.000000 0.000000
# 2 0.000962 0.005891 -0.002357 0.000000 0.000000 0.000000
# 3 -0.003659 -0.002357 0.009148 0.000000 0.000000 0.000000
# 4 0.000000 0.000000 0.000000 0.010509 0.000000 0.000000
# 5 0.000000 0.000000 0.000000 0.000000 -0.012623 0.000000
# 6 0.000000 0.000000 0.000000 0.000000 0.000000 0.092553
#
#
# Mechanical properties :
#
#
# Convention : Reuss Voigt Hill
#
# Bulk Modulus (GPa) = 64.33176 69.04713 66.68945
# Shear Modulus (GPa) = 38.05887 28.41919 33.23903
#
# Velocity S-wave (km/s) = 4.01654 3.47080 3.75360
# Velocity P-wave (km/s) = 6.98423 6.73276 6.85964
#
# Compressibility (1/GPa) = 0.01554442
#
# Stress axis : x y z
#
# Youngs Moduli (GPa) = 94.24182 169.74902 109.31359
#
# Poissons Ratio (x) = -0.16337 0.39994
# Poissons Ratio (y) = -0.09070 0.25761
# Poissons Ratio (z) = 0.34480 0.40003
#
# Static dielectric constant tensor:
#      x y z
#    x 1.221750 0.000000 0.000000 
#    y 0.000000 2.243590 0.000000 
#    z 0.000000 0.000000 2.080480 
# 
# From -- ./inp_files/7225.got.cif
#   From: 2010.05.17/outbox.cif.g08.bks.cpg/sg16_4_cif.got.tgz:7225.got - 2010.06.03 22:28:35.
