data_PCOD9310175
_publ_section_title
;
Structure prediction by ZEFSAII (Michael W. Deem and Ramdas Pophale) SiO2 
 PCOD9310175
Probable space group: P 2 2 2
;
_chemical_formula_sum "Si O2"
_cell_formula_units_Z 32
_cell_length_a 11.018240
_cell_length_b 9.760959
_cell_length_c 14.139105
_cell_angle_alpha 90.000000
_cell_angle_beta 90.000000
_cell_angle_gamma 90.000000
_cell_volume 1520.640791
_symmetry_space_group_name_H-M "P 2 2 2"
_symmetry_group_IT_number 16
_symmetry_cell_setting 'orthorhombic'
loop_
_space_group_symop_operation_xyz
x,y,z
-x,-y,z
x,-y,-z
-x,y,-z
loop_
_atom_site_type_symbol
_atom_site_label
_atom_site_fract_x
_atom_site_fract_y
_atom_site_fract_z
Si Si1 0.611552 0.920351 0.806603
Si Si2 0.562596 0.646745 0.902600
Si Si3 0.137724 0.520603 0.715556
Si Si4 0.842496 0.285973 0.410256
Si Si5 0.880307 0.076083 0.100550
Si Si6 0.115974 0.225536 0.379776
Si Si7 0.154784 0.392006 0.920464
Si Si8 0.304957 0.018114 0.604701
O O1 0.570929 0.761542 0.820702
O O2 0.749711 0.934209 0.847133
O O3 0.500000 0.000000 0.856204
O O4 0.622914 0.986349 0.702195
O O5 0.500000 0.500000 0.877569
O O6 0.701724 0.627120 0.931661
O O7 0.500000 0.696604 0.000000
O O8 0.204169 0.416906 0.646367
O O9 0.167579 0.678801 0.703165
O O10 0.139416 0.465550 0.820271
O O11 0.000000 0.500000 0.679515
O O12 0.862023 0.306577 0.521634
O O13 0.970157 0.220856 0.371523
O O14 0.745066 0.170326 0.396217
O O15 0.902593 0.239503 0.085247
O O16 0.000000 0.000000 0.144980
O O17 0.865692 0.000000 0.000000
O O18 0.190206 0.086239 0.388970
O O19 0.118086 0.500000 0.000000
O O20 0.361268 0.000000 0.500000
#
# Coordination Sequence:
#
# PCOD9310175 Si02
#       8
#     4   4   4   4   4   4   4   4
#     4  11  26  40  68 101 128 177 223 277 331 407
#     4  10  21  42  68  95 124 163 217 292 344 390
#     4  10  21  33  50  82 122 165 212 265 321 390
#     4   9  16  33  56  83 120 165 219 270 325 386
#     4  10  25  45  66  95 136 175 212 274 343 406
#     4   9  18  31  56  86 119 165 216 271 326 388
#     4  11  23  40  63  90 125 173 213 264 332 406
#     4  10  21  38  57  88 128 170 218 271 335 396
#
# _framework density 21.043759999999999
#
# number of rings (size 3 to 8) (size 9 to 14) (size 15 to 20)
#    0.000    2.000    1.250    2.250    3.500   10.500 
#    0.000    0.000    0.000    0.000    0.000    0.875 
#    0.000    0.000    0.000    0.000    0.000    0.000 
#
# Total GULP energy -178261.002302 kJ/mol
# GULP energy per Si atom -5570.656322 kJ/mol
# Density = 2.099586 g / cm^3
# Si number density = 21.043760 Si / 1000 Ang^3
#
#
#
# Elastic Constant Matrix: (Units=GPa)
#
#
# Indices 1 2 3 4 5 6 
#
# 1 99.8665 23.0025 2.9240 0.0000 0.0000 0.0000
# 2 23.0025 82.2787 18.9204 0.0000 0.0000 0.0000
# 3 2.9240 18.9204 53.1455 0.0000 0.0000 0.0000
# 4 0.0000 0.0000 0.0000 47.4882 0.0000 0.0000
# 5 0.0000 0.0000 0.0000 0.0000 19.9743 0.0000
# 6 0.0000 0.0000 0.0000 0.0000 0.0000 9.6240
#
#
#
# Elastic Compliance Matrix: (Units=1/GPa)
#
#
# Indices 1 2 3 4 5 6 
#
# 1 0.010716 -0.003115 0.000520 0.000000 0.000000 0.000000
# 2 -0.003115 0.014143 -0.004864 0.000000 0.000000 0.000000
# 3 0.000520 -0.004864 0.020519 0.000000 0.000000 0.000000
# 4 0.000000 0.000000 0.000000 0.021058 0.000000 0.000000
# 5 0.000000 0.000000 0.000000 0.000000 0.050064 0.000000
# 6 0.000000 0.000000 0.000000 0.000000 0.000000 0.103907
#
#
# Mechanical properties :
#
#
# Convention : Reuss Voigt Hill
#
# Bulk Modulus (GPa) = 32.83082 36.10937 34.47010
# Shear Modulus (GPa) = 20.36835 28.11357 24.24096
#
# Velocity S-wave (km/s) = 3.11449 3.65904 3.39769
# Velocity P-wave (km/s) = 5.34495 5.92012 5.63987
#
# Compressibility (1/GPa) = 0.03045918
#
# Stress axis : x y z
#
# Youngs Moduli (GPa) = 93.32102 70.70553 48.73471
#
# Poissons Ratio (x) = 0.22026 -0.02532
# Poissons Ratio (y) = 0.29072 0.23703
# Poissons Ratio (z) = -0.04848 0.34389
#
# Static dielectric constant tensor:
#      x y z
#    x 1.713690 0.000000 0.000000 
#    y 0.000000 1.822900 0.000000 
#    z 0.000000 0.000000 2.149540 
# 
# From -- ./inp_files/8203.got.cif
#   From: 2010.05.17/outbox.cif.g08.bks.cpg/sg16_5_cif.got.tgz:8203.got - 2010.06.03 22:28:35.
