data_PCOD9310244
_publ_section_title
;
Structure prediction by ZEFSAII (Michael W. Deem and Ramdas Pophale) SiO2 
 PCOD9310244
Probable space group: P 2 2 2
;
_chemical_formula_sum "Si O2"
_cell_formula_units_Z 25
_cell_length_a 10.256483
_cell_length_b 11.636033
_cell_length_c 11.398859
_cell_angle_alpha 90.000000
_cell_angle_beta 90.000000
_cell_angle_gamma 90.000000
_cell_volume 1360.394259
_symmetry_space_group_name_H-M "P 2 2 2"
_symmetry_group_IT_number 16
_symmetry_cell_setting 'orthorhombic'
loop_
_space_group_symop_operation_xyz
x,y,z
-x,-y,z
x,-y,-z
-x,y,-z
loop_
_atom_site_type_symbol
_atom_site_label
_atom_site_fract_x
_atom_site_fract_y
_atom_site_fract_z
Si Si1 0.738330 0.229580 0.755398
Si Si2 0.844548 0.869953 0.006050
Si Si3 0.651844 0.006276 0.359754
Si Si4 0.757584 0.763815 0.766555
Si Si5 0.492248 0.637844 0.140937
Si Si6 0.000000 0.500000 0.000000
Si Si7 0.024524 0.375493 0.242662
O O1 0.610075 0.300573 0.790224
O O2 0.850114 0.312453 0.705514
O O3 0.713793 0.112834 0.684762
O O4 0.799233 0.186181 0.876037
O O5 0.784839 0.809405 0.895786
O O6 0.000000 0.868463 0.000000
O O7 0.798326 0.000000 0.000000
O O8 0.717295 0.124651 0.311569
O O9 0.500000 0.000000 0.321523
O O10 0.656746 0.000000 0.500000
O O11 0.637458 0.677814 0.789821
O O12 0.893647 0.699166 0.738252
O O13 0.500000 0.500000 0.145169
O O14 0.500000 0.668877 0.000000
O O15 0.947727 0.410064 0.898080
O O16 0.000000 0.500000 0.296907
#
# Coordination Sequence:
#
# PCOD9310244 Si02
#       7
#     4   4   4   4   4   1   4
#     4  12  21  39  61  91 127 163 208 252 305 379
#     4  11  21  32  55  91 132 161 187 235 316 389
#     4  11  26  46  67  88 118 167 218 273 328 365
#     4  12  21  39  61  91 127 163 208 252 305 379
#     4  11  24  33  55  92 134 163 194 246 306 375
#     4   8  20  36  56  96 138 176 200 218 306 402
#     4  10  22  35  60  89 133 167 199 237 296 377
#
# _framework density 18.377025
#
# number of rings (size 3 to 8) (size 9 to 14) (size 15 to 20)
#    0.480    0.480    6.400    1.920    0.000    0.640 
#    0.000    4.000    0.000    5.760    0.000    0.000 
#    0.000    0.000    0.000    0.000    0.000    0.000 
#
# Total GULP energy -139192.531991 kJ/mol
# GULP energy per Si atom -5567.701280 kJ/mol
# Density = 1.833520 g / cm^3
# Si number density = 18.377025 Si / 1000 Ang^3
#
#
#
# Elastic Constant Matrix: (Units=GPa)
#
#
# Indices 1 2 3 4 5 6 
#
# 1 110.1199 58.3645 17.8835 0.0000 0.0000 0.0000
# 2 58.3645 140.5023 27.6479 0.0000 0.0000 0.0000
# 3 17.8835 27.6479 37.8348 0.0000 0.0000 0.0000
# 4 0.0000 0.0000 0.0000 -3.5834 0.0000 0.0000
# 5 0.0000 0.0000 0.0000 0.0000 16.6601 0.0000
# 6 0.0000 0.0000 0.0000 0.0000 0.0000 19.7764
#
#
#
# Elastic Compliance Matrix: (Units=1/GPa)
#
#
# Indices 1 2 3 4 5 6 
#
# 1 0.011819 -0.004450 -0.002334 0.000000 0.000000 0.000000
# 2 -0.004450 0.009988 -0.005195 0.000000 0.000000 0.000000
# 3 -0.002334 -0.005195 0.031331 0.000000 0.000000 0.000000
# 4 0.000000 0.000000 0.000000 -0.279068 0.000000 0.000000
# 5 0.000000 0.000000 0.000000 0.000000 0.060024 0.000000
# 6 0.000000 0.000000 0.000000 0.000000 0.000000 0.050565
#
#
# Mechanical properties :
#
#
# Convention : Reuss Voigt Hill
#
# Bulk Modulus (GPa) = 34.27289 55.13877 44.70583
# Shear Modulus (GPa) = -61.23278 18.87470 -21.17904
#
# Velocity S-wave (km/s) = -5.77864 3.20829 -3.39849
# Velocity P-wave (km/s) = 5.08263 6.61766 2.99669
#
# Compressibility (1/GPa) = 0.02917758
#
# Stress axis : x y z
#
# Youngs Moduli (GPa) = 84.61145 100.11760 31.91752
#
# Poissons Ratio (x) = 0.44553 0.07451
# Poissons Ratio (y) = 0.37653 0.16583
# Poissons Ratio (z) = 0.19752 0.52016
#
# Static dielectric constant tensor:
#      x y z
#    x 1.735920 0.000000 0.000000 
#    y 0.000000 1.701550 0.000000 
#    z 0.000000 0.000000 1.590190 
# 
# From -- ./inp_files/6552.got.cif
#   From: 2010.05.17/outbox.cif.g08.bks.cpg/sg16_4_cif.got.tgz:6552.got - 2010.06.03 22:28:35.
