data_PCOD9310956
_publ_section_title
;
Structure prediction by ZEFSAII (Michael W. Deem and Ramdas Pophale) SiO2 
 PCOD9310956
Probable space group: P 2 2 21
;
_chemical_formula_sum "Si O2"
_cell_formula_units_Z 18
_cell_length_a 12.124507
_cell_length_b 6.552937
_cell_length_c 10.143511
_cell_angle_alpha 90.000000
_cell_angle_beta 90.000000
_cell_angle_gamma 90.000000
_cell_volume 805.913416
_symmetry_space_group_name_H-M "P 2 2 21"
_symmetry_group_IT_number 17
_symmetry_cell_setting 'orthorhombic'
loop_
_space_group_symop_operation_xyz
x,y,z
-x,-y,1/2+z
x,-y,-z
-x,y,1/2-z
loop_
_atom_site_type_symbol
_atom_site_label
_atom_site_fract_x
_atom_site_fract_y
_atom_site_fract_z
Si Si1 0.238225 0.325710 0.342987
Si Si2 0.000000 0.765158 0.250000
Si Si3 0.612600 0.294408 0.781086
Si Si4 0.043026 0.500000 0.500000
Si Si5 0.381429 0.000000 0.500000
Si Si6 0.208765 0.989957 0.153119
O O1 0.300377 0.541185 0.335769
O O2 0.122665 0.353367 0.415462
O O3 0.307419 0.162979 0.424508
O O4 0.228299 0.221325 0.200947
O O5 0.987158 0.629332 0.383081
O O6 0.109957 0.901796 0.244332
O O7 0.500000 0.415133 0.750000
O O8 0.562884 0.134174 0.887965
O O9 0.685614 0.156123 0.681518
O O10 0.179843 0.000000 0.000000
#
# Coordination Sequence:
#
# PCOD9310956 Si02
#       6
#     4   2   4   2   2   4
#     4  11  22  47  72 100 145 188 244 297 362 441
#     4  12  28  44  78 110 146 198 246 308 372 438
#     4  11  24  45  73 106 142 195 240 303 369 435
#     4  12  24  46  74 106 142 194 244 302 360 440
#     4  10  20  42  70 100 134 182 244 294 360 432
#     4  11  28  47  70 111 152 189 245 306 367 440
#
# _framework density 22.334904999999999
#
# number of rings (size 3 to 8) (size 9 to 14) (size 15 to 20)
#    0.000    0.889    4.444    1.333    7.778    4.444 
#    4.000    0.000    0.000    0.000    0.000    0.000 
#    0.000    0.000    0.000    0.000    0.000    0.000 
#
# Total GULP energy -100411.167140 kJ/mol
# GULP energy per Si atom -5578.398174 kJ/mol
# Density = 2.228407 g / cm^3
# Si number density = 22.334905 Si / 1000 Ang^3
#
#
#
# Elastic Constant Matrix: (Units=GPa)
#
#
# Indices 1 2 3 4 5 6 
#
# 1 70.7630 8.1177 -3.2393 0.0000 0.0000 0.0000
# 2 8.1177 91.7176 26.9360 0.0000 0.0000 0.0000
# 3 -3.2393 26.9360 84.5057 0.0000 0.0000 0.0000
# 4 0.0000 0.0000 0.0000 32.1099 0.0000 0.0000
# 5 0.0000 0.0000 0.0000 0.0000 2.7612 0.0000
# 6 0.0000 0.0000 0.0000 0.0000 0.0000 2.2583
#
#
#
# Elastic Compliance Matrix: (Units=1/GPa)
#
#
# Indices 1 2 3 4 5 6 
#
# 1 0.014361 -0.001581 0.001054 0.000000 0.000000 0.000000
# 2 -0.001581 0.012203 -0.003950 0.000000 0.000000 0.000000
# 3 0.001054 -0.003950 0.013133 0.000000 0.000000 0.000000
# 4 0.000000 0.000000 0.000000 0.031143 0.000000 0.000000
# 5 0.000000 0.000000 0.000000 0.000000 0.362163 0.000000
# 6 0.000000 0.000000 0.000000 0.000000 0.000000 0.442818
#
#
# Mechanical properties :
#
#
# Convention : Reuss Voigt Hill
#
# Bulk Modulus (GPa) = 32.52655 34.51278 33.51966
# Shear Modulus (GPa) = 5.58645 21.77065 13.67855
#
# Velocity S-wave (km/s) = 1.58324 3.12546 2.47742
# Velocity P-wave (km/s) = 4.23520 5.33954 4.81911
#
# Compressibility (1/GPa) = 0.03074412
#
# Stress axis : x y z
#
# Youngs Moduli (GPa) = 69.63164 81.94651 76.14354
#
# Poissons Ratio (x) = 0.12954 -0.08028
# Poissons Ratio (y) = 0.11007 0.30079
# Poissons Ratio (z) = -0.07342 0.32371
#
# Static dielectric constant tensor:
#      x y z
#    x 1.841650 0.000000 0.000000 
#    y 0.000000 1.838270 0.000000 
#    z 0.000000 0.000000 1.906510 
# 
# From -- ./inp_files/5857.got.cif
#   From: 2010.05.17/outbox.cif.g08.bks.cpg/sg17_3_cif.got.tgz:5857.got - 2010.06.03 22:34:06.
