data_PCOD9310323
_publ_section_title
;
Structure prediction by ZEFSAII (Michael W. Deem and Ramdas Pophale) SiO2 
 PCOD9310323
Probable space group: P 2 2 2
;
_chemical_formula_sum "Si O2"
_cell_formula_units_Z 18
_cell_length_a 17.480615
_cell_length_b 6.825047
_cell_length_c 7.005685
_cell_angle_alpha 90.000000
_cell_angle_beta 90.000000
_cell_angle_gamma 90.000000
_cell_volume 835.820387
_symmetry_space_group_name_H-M "P 2 2 2"
_symmetry_group_IT_number 16
_symmetry_cell_setting 'orthorhombic'
loop_
_space_group_symop_operation_xyz
x,y,z
-x,-y,z
x,-y,-z
-x,y,-z
loop_
_atom_site_type_symbol
_atom_site_label
_atom_site_fract_x
_atom_site_fract_y
_atom_site_fract_z
Si Si1 0.789836 0.701257 0.028583
Si Si2 0.431130 0.126996 0.694103
Si Si3 0.924598 0.374854 0.683556
Si Si4 0.000000 0.000000 0.500000
Si Si5 0.500000 0.500000 0.500000
Si Si6 0.261788 0.045434 0.722231
O O1 0.866217 0.647895 0.144381
O O2 0.798724 0.188740 0.173624
O O3 0.744944 0.842854 0.167989
O O4 0.746359 0.500000 0.000000
O O5 0.454928 0.346391 0.634803
O O6 0.345625 0.129290 0.772413
O O7 0.500000 0.000000 0.789315
O O8 0.420230 0.000000 0.500000
O O9 0.893513 0.500000 0.500000
O O10 0.000000 0.500000 0.737175
O O11 0.949128 0.155142 0.620009
O O12 0.249588 0.000000 0.500000
#
# Coordination Sequence:
#
# PCOD9310323 Si02
#       6
#     4   4   4   1   1   4
#     4  11  26  41  62  97 134 174 225 273 342 416
#     4   8  16  33  59  92 128 175 232 278 323 397
#     4   9  21  40  68  99 124 168 224 281 343 418
#     4   8  18  40  76  96 122 160 212 274 356 394
#     4   8  14  28  64  98 126 172 238 272 336 384
#     4  10  24  42  64  97 137 182 224 278 346 408
#
# _framework density 21.535727000000001
#
# number of rings (size 3 to 8) (size 9 to 14) (size 15 to 20)
#    0.000    3.111    0.000    0.000    4.667   11.111 
#    0.000    2.222    0.000    1.333    0.000    1.556 
#    0.000    0.000    0.000    0.000    0.000    0.000 
#
# Total GULP energy -100274.564771 kJ/mol
# GULP energy per Si atom -5570.809154 kJ/mol
# Density = 2.148671 g / cm^3
# Si number density = 21.535727 Si / 1000 Ang^3
#
#
#
# Elastic Constant Matrix: (Units=GPa)
#
#
# Indices 1 2 3 4 5 6 
#
# 1 96.7885 48.2028 55.6054 0.0000 0.0000 0.0000
# 2 48.2028 209.7498 67.0511 0.0000 0.0000 0.0000
# 3 55.6054 67.0511 139.6497 0.0000 0.0000 0.0000
# 4 0.0000 0.0000 0.0000 17.3804 0.0000 0.0000
# 5 0.0000 0.0000 0.0000 0.0000 26.7180 0.0000
# 6 0.0000 0.0000 0.0000 0.0000 0.0000 9.8412
#
#
#
# Elastic Compliance Matrix: (Units=1/GPa)
#
#
# Indices 1 2 3 4 5 6 
#
# 1 0.013881 -0.001681 -0.004720 0.000000 0.000000 0.000000
# 2 -0.001681 0.005836 -0.002133 0.000000 0.000000 0.000000
# 3 -0.004720 -0.002133 0.010064 0.000000 0.000000 0.000000
# 4 0.000000 0.000000 0.000000 0.057536 0.000000 0.000000
# 5 0.000000 0.000000 0.000000 0.000000 0.037428 0.000000
# 6 0.000000 0.000000 0.000000 0.000000 0.000000 0.101613
#
#
# Mechanical properties :
#
#
# Convention : Reuss Voigt Hill
#
# Bulk Modulus (GPa) = 78.65740 87.54518 83.10129
# Shear Modulus (GPa) = 20.18878 29.14316 24.66597
#
# Velocity S-wave (km/s) = 3.06511 3.68264 3.38798
# Velocity P-wave (km/s) = 7.00928 7.66954 7.34683
#
# Compressibility (1/GPa) = 0.01271336
#
# Stress axis : x y z
#
# Youngs Moduli (GPa) = 72.04308 171.36100 99.36426
#
# Poissons Ratio (x) = 0.28808 0.46898
# Poissons Ratio (y) = 0.12111 0.21190
# Poissons Ratio (z) = 0.34003 0.36543
#
# Static dielectric constant tensor:
#      x y z
#    x 1.891630 0.000000 0.000000 
#    y 0.000000 1.693070 0.000000 
#    z 0.000000 0.000000 1.833760 
# 
# From -- ./inp_files/5387.got.cif
#   From: 2010.05.17/outbox.cif.g08.bks.cpg/sg16_3_cif.got.tgz:5387.got - 2010.06.03 22:28:35.
