data_PCOD9310975
_publ_section_title
;
Structure prediction by ZEFSAII (Michael W. Deem and Ramdas Pophale) SiO2 
 PCOD9310975
Probable space group: P 2 2 21
;
_chemical_formula_sum "Si O2"
_cell_formula_units_Z 20
_cell_length_a 12.806390
_cell_length_b 9.362875
_cell_length_c 8.111868
_cell_angle_alpha 90.000000
_cell_angle_beta 90.000000
_cell_angle_gamma 90.000000
_cell_volume 972.650521
_symmetry_space_group_name_H-M "P 2 2 21"
_symmetry_group_IT_number 17
_symmetry_cell_setting 'orthorhombic'
loop_
_space_group_symop_operation_xyz
x,y,z
-x,-y,1/2+z
x,-y,-z
-x,y,1/2-z
loop_
_atom_site_type_symbol
_atom_site_label
_atom_site_fract_x
_atom_site_fract_y
_atom_site_fract_z
Si Si1 0.334422 0.152881 0.310280
Si Si2 0.908947 0.130333 0.122878
Si Si3 0.037970 0.658003 0.061452
Si Si4 0.253354 0.173344 0.979684
Si Si5 0.609104 0.177528 0.827145
O O1 0.209359 0.136007 0.320452
O O2 0.371219 0.222543 0.482973
O O3 0.386756 0.996572 0.317717
O O4 0.336753 0.216649 0.124799
O O5 0.000000 0.098235 0.250000
O O6 0.941583 0.278631 0.041309
O O7 0.913053 0.000000 0.000000
O O8 0.000000 0.661808 0.250000
O O9 0.138704 0.756335 0.020290
O O10 0.062540 0.500000 0.000000
O O11 0.300140 0.215671 0.801976
O O12 0.245523 0.000000 0.000000
O O13 0.500000 0.225527 0.750000
#
# Coordination Sequence:
#
# PCOD9310975 Si02
#       5
#     4   4   4   4   4
#     4  10  21  34  56  85 129 156 203 246 312 370
#     4  12  22  37  61  88 126 165 208 249 311 377
#     4  12  26  40  60  88 126 169 213 260 311 378
#     4  10  22  40  61  91 121 162 210 255 312 378
#     4  10  21  35  56  93 126 157 198 264 323 365
#
# _framework density 20.562370999999999
#
# number of rings (size 3 to 8) (size 9 to 14) (size 15 to 20)
#    0.000    1.200    4.000    3.000   14.000    0.000 
#    0.000    0.000    0.000    0.000    5.200    0.000 
#    0.000    0.000    0.000    0.000    0.000    0.000 
#
# Total GULP energy -111516.887905 kJ/mol
# GULP energy per Si atom -5575.844395 kJ/mol
# Density = 2.051557 g / cm^3
# Si number density = 20.562371 Si / 1000 Ang^3
#
#
#
# Elastic Constant Matrix: (Units=GPa)
#
#
# Indices 1 2 3 4 5 6 
#
# 1 80.2563 9.5791 4.4551 0.0000 0.0000 0.0000
# 2 9.5791 30.7104 -5.3965 0.0000 0.0000 0.0000
# 3 4.4551 -5.3965 102.3294 0.0000 0.0000 0.0000
# 4 0.0000 0.0000 0.0000 21.3027 0.0000 0.0000
# 5 0.0000 0.0000 0.0000 0.0000 33.6571 0.0000
# 6 0.0000 0.0000 0.0000 0.0000 0.0000 -8.8030
#
#
#
# Elastic Compliance Matrix: (Units=1/GPa)
#
#
# Indices 1 2 3 4 5 6 
#
# 1 0.013004 -0.004195 -0.000787 0.000000 0.000000 0.000000
# 2 -0.004195 0.034220 0.001987 0.000000 0.000000 0.000000
# 3 -0.000787 0.001987 0.009911 0.000000 0.000000 0.000000
# 4 0.000000 0.000000 0.000000 0.046942 0.000000 0.000000
# 5 0.000000 0.000000 0.000000 0.000000 0.029711 0.000000
# 6 0.000000 0.000000 0.000000 0.000000 0.000000 -0.113598
#
#
# Mechanical properties :
#
#
# Convention : Reuss Voigt Hill
#
# Bulk Modulus (GPa) = 19.55180 25.61904 22.58542
# Shear Modulus (GPa) = 115.66017 22.87525 69.26771
#
# Velocity S-wave (km/s) = 7.50803 3.33901 5.81032
# Velocity P-wave (km/s) = 9.20271 5.22987 7.48470
#
# Compressibility (1/GPa) = 0.05114617
#
# Stress axis : x y z
#
# Youngs Moduli (GPa) = 76.89670 29.22279 100.89345
#
# Poissons Ratio (x) = 0.12258 0.07944
# Poissons Ratio (y) = 0.32256 -0.20050
# Poissons Ratio (z) = 0.06055 -0.05807
#
# Static dielectric constant tensor:
#      x y z
#    x 1.699660 0.000000 0.000000 
#    y 0.000000 1.668140 0.000000 
#    z 0.000000 0.000000 1.927980 
# 
# From -- ./inp_files/5061.got.cif
#   From: 2010.05.17/outbox.cif.g08.bks.cpg/sg17_3_cif.got.tgz:5061.got - 2010.06.03 22:34:06.
