data_PCOD9310470
_publ_section_title
;
Structure prediction by ZEFSAII (Michael W. Deem and Ramdas Pophale) SiO2 
 PCOD9310470
Probable space group: P 2 2 21
;
_chemical_formula_sum "Si O2"
_cell_formula_units_Z 24
_cell_length_a 16.056838
_cell_length_b 9.047324
_cell_length_c 8.295723
_cell_angle_alpha 90.000000
_cell_angle_beta 90.000000
_cell_angle_gamma 90.000000
_cell_volume 1205.131425
_symmetry_space_group_name_H-M "P 2 2 21"
_symmetry_group_IT_number 17
_symmetry_cell_setting 'orthorhombic'
loop_
_space_group_symop_operation_xyz
x,y,z
-x,-y,1/2+z
x,-y,-z
-x,y,1/2-z
loop_
_atom_site_type_symbol
_atom_site_label
_atom_site_fract_x
_atom_site_fract_y
_atom_site_fract_z
Si Si1 0.078788 0.500000 0.000000
Si Si2 0.287842 0.285195 0.124428
Si Si3 0.000000 0.721729 0.750000
Si Si4 0.744730 0.118538 0.857023
Si Si5 0.406705 0.962269 0.812617
Si Si6 0.134820 0.937934 0.837227
Si Si7 0.765682 0.405449 0.709070
O O1 0.141821 0.578291 0.128714
O O2 0.024275 0.382218 0.099265
O O3 0.367047 0.201495 0.195504
O O4 0.214113 0.164593 0.121527
O O5 0.262407 0.426001 0.230246
O O6 0.290315 0.340489 0.939293
O O7 0.076734 0.834284 0.730355
O O8 0.753013 0.295799 0.859050
O O9 0.656729 0.071937 0.778023
O O10 0.824135 0.076692 0.748320
O O11 0.752179 0.000000 0.000000
O O12 0.500000 0.970717 0.750000
O O13 0.404589 0.000000 0.000000
O O14 0.093133 0.000000 0.000000
#
# Coordination Sequence:
#
# PCOD9310470 Si02
#       7
#     2   4   2   4   4   4   4
#     4  10  22  36  64  90 124 166 218 268 324 386
#     4   9  17  36  67  83 108 169 211 246 308 384
#     4  12  22  38  58  92 124 164 208 274 326 376
#     4  11  22  37  61  92 122 158 209 260 315 379
#     4  11  21  38  61  91 126 164 202 260 318 386
#     4  11  20  39  59  81 119 164 210 252 319 386
#     4  10  17  39  66  88 109 172 218 251 310 395
#
# _framework density 19.914840000000002
#
# number of rings (size 3 to 8) (size 9 to 14) (size 15 to 20)
#    0.000    1.667    6.667    1.500    0.000    2.000 
#    0.000    5.000    3.667    0.000    0.000    0.000 
#    0.000    0.000    0.000    0.000    0.000    0.000 
#
# Total GULP energy -133719.572681 kJ/mol
# GULP energy per Si atom -5571.648862 kJ/mol
# Density = 1.986951 g / cm^3
# Si number density = 19.914840 Si / 1000 Ang^3
#
#
#
# Elastic Constant Matrix: (Units=GPa)
#
#
# Indices 1 2 3 4 5 6 
#
# 1 87.3881 22.4323 21.0874 0.0000 0.0000 0.0000
# 2 22.4323 124.6778 22.9986 0.0000 0.0000 0.0000
# 3 21.0874 22.9986 44.3191 0.0000 0.0000 0.0000
# 4 0.0000 0.0000 0.0000 32.9898 0.0000 0.0000
# 5 0.0000 0.0000 0.0000 0.0000 15.2253 0.0000
# 6 0.0000 0.0000 0.0000 0.0000 0.0000 -4.4701
#
#
#
# Elastic Compliance Matrix: (Units=1/GPa)
#
#
# Indices 1 2 3 4 5 6 
#
# 1 0.013126 -0.001338 -0.005551 0.000000 0.000000 0.000000
# 2 -0.001338 0.009006 -0.004037 0.000000 0.000000 0.000000
# 3 -0.005551 -0.004037 0.027300 0.000000 0.000000 0.000000
# 4 0.000000 0.000000 0.000000 0.030312 0.000000 0.000000
# 5 0.000000 0.000000 0.000000 0.000000 0.065680 0.000000
# 6 0.000000 0.000000 0.000000 0.000000 0.000000 -0.223710
#
#
# Mechanical properties :
#
#
# Convention : Reuss Voigt Hill
#
# Bulk Modulus (GPa) = 36.25817 43.26907 39.76362
# Shear Modulus (GPa) = -105.84291 21.40678 -42.21807
#
# Velocity S-wave (km/s) = -7.29816 3.28215 -4.60926
# Velocity P-wave (km/s) = 7.26439 6.01145 2.88391
#
# Compressibility (1/GPa) = 0.02757999
#
# Stress axis : x y z
#
# Youngs Moduli (GPa) = 76.18376 111.03660 36.63012
#
# Poissons Ratio (x) = 0.14853 0.20335
# Poissons Ratio (y) = 0.10191 0.14788
# Poissons Ratio (z) = 0.42292 0.44826
#
# Static dielectric constant tensor:
#      x y z
#    x 1.733980 0.000000 0.000000 
#    y 0.000000 1.733220 0.000000 
#    z 0.000000 0.000000 1.816060 
# 
# From -- ./inp_files/5175.got.cif
#   From: 2010.05.17/outbox.cif.g08.bks.cpg/sg17_3_cif.got.tgz:5175.got - 2010.06.03 22:34:06.
