data_PCOD9310204
_publ_section_title
;
Structure prediction by ZEFSAII (Michael W. Deem and Ramdas Pophale) SiO2 
 PCOD9310204
Probable space group: P 2 2 2
;
_chemical_formula_sum "Si O2"
_cell_formula_units_Z 32
_cell_length_a 16.296406
_cell_length_b 11.517261
_cell_length_c 8.159193
_cell_angle_alpha 90.000000
_cell_angle_beta 90.000000
_cell_angle_gamma 90.000000
_cell_volume 1531.398618
_symmetry_space_group_name_H-M "P 2 2 2"
_symmetry_group_IT_number 16
_symmetry_cell_setting 'orthorhombic'
loop_
_space_group_symop_operation_xyz
x,y,z
-x,-y,z
x,-y,-z
-x,y,-z
loop_
_atom_site_type_symbol
_atom_site_label
_atom_site_fract_x
_atom_site_fract_y
_atom_site_fract_z
Si Si1 0.770391 0.620292 0.896905
Si Si2 0.671297 0.243713 0.679762
Si Si3 0.097283 0.502265 0.312294
Si Si4 0.092186 0.028471 0.304608
Si Si5 0.275895 0.010650 0.699953
Si Si6 0.634788 0.754884 0.700859
Si Si7 0.161742 0.729429 0.801915
Si Si8 0.479769 0.627857 0.809547
O O1 0.849719 0.598177 0.782542
O O2 0.693087 0.659331 0.788113
O O3 0.754223 0.500000 0.000000
O O4 0.794004 0.723511 0.022524
O O5 0.684044 0.112832 0.749687
O O6 0.640606 0.244710 0.494965
O O7 0.764154 0.287691 0.674975
O O8 0.612065 0.327151 0.781350
O O9 0.127207 0.500000 0.500000
O O10 0.111266 0.386417 0.208749
O O11 0.000000 0.500000 0.320949
O O12 0.180112 0.973649 0.247311
O O13 0.109592 0.161517 0.255500
O O14 0.089816 0.000000 0.500000
O O15 0.000000 0.000000 0.242237
O O16 0.273541 0.000000 0.500000
O O17 0.330621 0.119171 0.751668
O O18 0.541761 0.724051 0.741103
O O19 0.500000 0.500000 0.737514
O O20 0.500000 0.620981 0.000000
#
# Coordination Sequence:
#
# PCOD9310204 Si02
#       8
#     4   4   4   4   4   4   4   4
#     4  10  23  39  60  88 128 166 202 250 324 383
#     4  10  21  41  64  90 124 159 211 257 305 380
#     4  10  22  38  60  88 116 159 215 259 307 376
#     4   9  18  34  61  92 124 165 216 266 310 366
#     4   8  18  37  61  91 121 158 206 259 311 354
#     4  11  22  39  67  91 118 163 209 260 308 370
#     4  10  21  38  60  87 128 169 200 257 324 375
#     4  11  26  42  61  88 128 163 201 259 323 380
#
# _framework density 20.895931000000001
#
# number of rings (size 3 to 8) (size 9 to 14) (size 15 to 20)
#    0.000    2.125    0.000    2.625    5.250    6.750 
#    0.000    8.125    0.000    0.750    0.000    0.875 
#    0.000    0.000    0.000    0.000    0.000    0.000 
#
# Total GULP energy -178328.580244 kJ/mol
# GULP energy per Si atom -5572.768133 kJ/mol
# Density = 2.084837 g / cm^3
# Si number density = 20.895931 Si / 1000 Ang^3
#
#
#
# Elastic Constant Matrix: (Units=GPa)
#
#
# Indices 1 2 3 4 5 6 
#
# 1 95.2480 45.3760 -4.5651 0.0000 0.0000 0.0000
# 2 45.3760 81.9312 13.8742 0.0000 0.0000 0.0000
# 3 -4.5651 13.8742 40.2976 0.0000 0.0000 0.0000
# 4 0.0000 0.0000 0.0000 23.1099 0.0000 0.0000
# 5 0.0000 0.0000 0.0000 0.0000 -110.4176 0.0000
# 6 0.0000 0.0000 0.0000 0.0000 0.0000 8.7095
#
#
#
# Elastic Compliance Matrix: (Units=1/GPa)
#
#
# Indices 1 2 3 4 5 6 
#
# 1 0.015114 -0.009197 0.004879 0.000000 0.000000 0.000000
# 2 -0.009197 0.018557 -0.007431 0.000000 0.000000 0.000000
# 3 0.004879 -0.007431 0.027926 0.000000 0.000000 0.000000
# 4 0.000000 0.000000 0.000000 0.043272 0.000000 0.000000
# 5 0.000000 0.000000 0.000000 0.000000 -0.009057 0.000000
# 6 0.000000 0.000000 0.000000 0.000000 0.000000 0.114818
#
#
# Mechanical properties :
#
#
# Convention : Reuss Voigt Hill
#
# Bulk Modulus (GPa) = 26.24714 36.31634 31.28174
# Shear Modulus (GPa) = 20.25699 -4.86686 7.69507
#
# Velocity S-wave (km/s) = 3.11693 -1.52779 1.92108
# Velocity P-wave (km/s) = 5.05390 3.78222 4.46358
#
# Compressibility (1/GPa) = 0.03809938
#
# Stress axis : x y z
#
# Youngs Moduli (GPa) = 66.16358 53.88751 35.80832
#
# Poissons Ratio (x) = 0.49559 -0.17469
# Poissons Ratio (y) = 0.60849 0.26609
# Poissons Ratio (z) = -0.32278 0.40044
#
# Static dielectric constant tensor:
#      x y z
#    x 1.786550 0.000000 0.000000 
#    y 0.000000 1.802900 0.000000 
#    z 0.000000 0.000000 1.819510 
# 
# From -- ./inp_files/5240.got.cif
#   From: 2010.05.17/outbox.cif.g08.bks.cpg/sg16_3_cif.got.tgz:5240.got - 2010.06.03 22:28:35.
