data_PCOD9310972
_publ_section_title
;
Structure prediction by ZEFSAII (Michael W. Deem and Ramdas Pophale) SiO2 
 PCOD9310972
Probable space group: P 2 2 21
;
_chemical_formula_sum "Si O2"
_cell_formula_units_Z 30
_cell_length_a 12.489259
_cell_length_b 5.372055
_cell_length_c 25.088002
_cell_angle_alpha 90.000000
_cell_angle_beta 90.000000
_cell_angle_gamma 90.000000
_cell_volume 1683.228973
_symmetry_space_group_name_H-M "P 2 2 21"
_symmetry_group_IT_number 17
_symmetry_cell_setting 'orthorhombic'
loop_
_space_group_symop_operation_xyz
x,y,z
-x,-y,1/2+z
x,-y,-z
-x,y,1/2-z
loop_
_atom_site_type_symbol
_atom_site_label
_atom_site_fract_x
_atom_site_fract_y
_atom_site_fract_z
Si Si1 0.000000 0.856125 0.250000
Si Si2 0.866005 0.877559 0.664675
Si Si3 0.645959 0.888838 0.293610
Si Si4 0.587009 0.072547 0.826956
Si Si5 0.804787 0.491165 0.740641
Si Si6 0.976726 0.007123 0.561314
Si Si7 0.883413 0.491085 0.061793
Si Si8 0.708880 0.407942 0.151536
O O1 0.892088 0.704629 0.237955
O O2 0.964120 0.010729 0.301269
O O3 0.861661 0.599921 0.687945
O O4 0.750544 0.976085 0.683874
O O5 0.885230 0.954848 0.604483
O O6 0.541485 0.906129 0.329910
O O7 0.613409 0.983725 0.235149
O O8 0.692500 0.615337 0.280864
O O9 0.638880 0.341565 0.839230
O O10 0.638480 0.839919 0.858155
O O11 0.776753 0.643589 0.793888
O O12 0.040384 0.266664 0.570529
O O13 0.939030 0.000000 0.500000
O O14 0.053115 0.767768 0.568012
O O15 0.788029 0.475613 0.103704
O O16 0.847025 0.500000 0.000000
#
# Coordination Sequence:
#
# PCOD9310972 Si02
#       8
#     2   4   4   4   4   4   4   4
#     4  10  22  32  48  84 118 146 184 228 290 344
#     4  11  21  34  56  79 115 154 189 232 288 340
#     4   9  21  35  52  78 116 148 190 223 286 343
#     4  10  21  36  55  81 113 150 185 233 280 343
#     4  10  21  33  50  83 113 154 177 232 282 343
#     4  10  23  39  58  82 113 153 192 228 274 342
#     4  10  22  40  60  83 113 150 190 232 282 338
#     4  11  21  35  57  82 112 142 190 230 282 332
#
# _framework density 17.822887000000001
#
# number of rings (size 3 to 8) (size 9 to 14) (size 15 to 20)
#    0.000    1.867    1.333    2.000    9.333    1.067 
#    0.000    0.000    0.000    1.600    0.000    0.000 
#    0.000    0.000    0.000    0.000    0.000    0.000 
#
# Total GULP energy -167049.540192 kJ/mol
# GULP energy per Si atom -5568.318006 kJ/mol
# Density = 1.778232 g / cm^3
# Si number density = 17.822887 Si / 1000 Ang^3
#
#
#
# Elastic Constant Matrix: (Units=GPa)
#
#
# Indices 1 2 3 4 5 6 
#
# 1 82.0271 19.3020 43.5237 0.0000 0.0000 0.0000
# 2 19.3020 71.8943 16.5608 0.0000 0.0000 0.0000
# 3 43.5237 16.5608 63.5266 0.0000 0.0000 0.0000
# 4 0.0000 0.0000 0.0000 14.0419 0.0000 0.0000
# 5 0.0000 0.0000 0.0000 0.0000 21.6968 0.0000
# 6 0.0000 0.0000 0.0000 0.0000 0.0000 -2.9900
#
#
#
# Elastic Compliance Matrix: (Units=1/GPa)
#
#
# Indices 1 2 3 4 5 6 
#
# 1 0.019504 -0.002296 -0.012764 0.000000 0.000000 0.000000
# 2 -0.002296 0.015068 -0.002355 0.000000 0.000000 0.000000
# 3 -0.012764 -0.002355 0.025100 0.000000 0.000000 0.000000
# 4 0.000000 0.000000 0.000000 0.071216 0.000000 0.000000
# 5 0.000000 0.000000 0.000000 0.000000 0.046090 0.000000
# 6 0.000000 0.000000 0.000000 0.000000 0.000000 -0.334446
#
#
# Mechanical properties :
#
#
# Convention : Reuss Voigt Hill
#
# Bulk Modulus (GPa) = 40.25425 41.80235 41.02830
# Shear Modulus (GPa) = -43.72287 15.75381 -13.98453
#
# Velocity S-wave (km/s) = -4.95834 2.97629 -2.80418
# Velocity P-wave (km/s) = 3.18519 5.94275 3.54759
#
# Compressibility (1/GPa) = 0.02484210
#
# Stress axis : x y z
#
# Youngs Moduli (GPa) = 51.27124 66.36466 39.83992
#
# Poissons Ratio (x) = 0.15239 0.50852
# Poissons Ratio (y) = 0.11773 0.09382
# Poissons Ratio (z) = 0.65444 0.15629
#
# Static dielectric constant tensor:
#      x y z
#    x 1.604800 0.000000 0.000000 
#    y 0.000000 1.735960 0.000000 
#    z 0.000000 0.000000 1.630420 
# 
# From -- ./inp_files/10233.got.cif
#   From: 2010.05.17/outbox.cif.g08.bks.cpg/sg17_6_cif.got.tgz:10233.got - 2010.06.03 22:34:06.
