data_PCOD9310660
_publ_section_title
;
Structure prediction by ZEFSAII (Michael W. Deem and Ramdas Pophale) SiO2 
 PCOD9310660
Probable space group: P 2 2 21
;
_chemical_formula_sum "Si O2"
_cell_formula_units_Z 22
_cell_length_a 8.939342
_cell_length_b 8.355634
_cell_length_c 15.432157
_cell_angle_alpha 90.000000
_cell_angle_beta 90.000000
_cell_angle_gamma 90.000000
_cell_volume 1152.687528
_symmetry_space_group_name_H-M "P 2 2 21"
_symmetry_group_IT_number 17
_symmetry_cell_setting 'orthorhombic'
loop_
_space_group_symop_operation_xyz
x,y,z
-x,-y,1/2+z
x,-y,-z
-x,y,1/2-z
loop_
_atom_site_type_symbol
_atom_site_label
_atom_site_fract_x
_atom_site_fract_y
_atom_site_fract_z
Si Si1 0.727862 0.787755 0.298005
Si Si2 0.000000 0.582063 0.250000
Si Si3 0.753109 0.358673 0.186819
Si Si4 0.425483 0.658126 0.367329
Si Si5 0.379145 0.172705 0.458173
Si Si6 0.630702 0.866582 0.678412
O O1 0.598806 0.697164 0.351822
O O2 0.667315 0.772051 0.198818
O O3 0.883711 0.695226 0.300502
O O4 0.726691 0.971733 0.326069
O O5 0.100013 0.466529 0.309808
O O6 0.619228 0.480815 0.162231
O O7 0.741956 0.222887 0.113962
O O8 0.723442 0.278651 0.280063
O O9 0.382403 0.699472 0.464651
O O10 0.539464 0.166049 0.409040
O O11 0.351719 0.000000 0.500000
O O12 0.500000 0.896849 0.750000
#
# Coordination Sequence:
#
# PCOD9310660 Si02
#       6
#     4   2   4   4   4   4
#     4  10  19  37  62  89 122 164 207 247 310 377
#     4  10  24  38  62  88 128 172 206 244 314 392
#     4  10  23  38  62  93 126 168 212 254 312 380
#     4  10  19  36  63  92 121 152 215 266 306 351
#     4  11  20  35  63  99 122 152 209 280 314 350
#     4  10  19  35  62  95 119 156 211 267 305 366
#
# _framework density 19.085830999999999
#
# number of rings (size 3 to 8) (size 9 to 14) (size 15 to 20)
#    0.000    1.818    3.636    1.636   15.273    0.727 
#    0.000    0.000   16.000    1.091    9.455    0.000 
#    0.000    0.000    0.000    0.000    0.000    0.000 
#
# Total GULP energy -122743.133921 kJ/mol
# GULP energy per Si atom -5579.233360 kJ/mol
# Density = 1.904239 g / cm^3
# Si number density = 19.085831 Si / 1000 Ang^3
#
#
#
# Elastic Constant Matrix: (Units=GPa)
#
#
# Indices 1 2 3 4 5 6 
#
# 1 86.1052 39.3804 0.3615 0.0000 0.0000 0.0000
# 2 39.3804 107.7613 11.4255 0.0000 0.0000 0.0000
# 3 0.3615 11.4255 48.0976 0.0000 0.0000 0.0000
# 4 0.0000 0.0000 0.0000 24.3045 0.0000 0.0000
# 5 0.0000 0.0000 0.0000 0.0000 5.4865 0.0000
# 6 0.0000 0.0000 0.0000 0.0000 0.0000 39.0164
#
#
#
# Elastic Compliance Matrix: (Units=1/GPa)
#
#
# Indices 1 2 3 4 5 6 
#
# 1 0.014005 -0.005239 0.001139 0.000000 0.000000 0.000000
# 2 -0.005239 0.011479 -0.002687 0.000000 0.000000 0.000000
# 3 0.001139 -0.002687 0.021421 0.000000 0.000000 0.000000
# 4 0.000000 0.000000 0.000000 0.041145 0.000000 0.000000
# 5 0.000000 0.000000 0.000000 0.000000 0.182264 0.000000
# 6 0.000000 0.000000 0.000000 0.000000 0.000000 0.025630
#
#
# Mechanical properties :
#
#
# Convention : Reuss Voigt Hill
#
# Bulk Modulus (GPa) = 30.00220 38.25543 34.12881
# Shear Modulus (GPa) = 15.59439 26.48127 21.03783
#
# Velocity S-wave (km/s) = 2.86154 3.72893 3.32365
# Velocity P-wave (km/s) = 5.16446 6.21509 5.71397
#
# Compressibility (1/GPa) = 0.03333089
#
# Stress axis : x y z
#
# Youngs Moduli (GPa) = 71.40374 87.11440 46.68335
#
# Poissons Ratio (x) = 0.45637 -0.05318
# Poissons Ratio (y) = 0.37407 0.12546
# Poissons Ratio (z) = -0.08134 0.23412
#
# Static dielectric constant tensor:
#      x y z
#    x 1.658470 0.000000 0.000000 
#    y 0.000000 1.729730 0.000000 
#    z 0.000000 0.000000 1.678270 
# 
# From -- ./inp_files/8024.got.cif
#   From: 2010.05.17/outbox.cif.g08.bks.cpg/sg17_5_cif.got.tgz:8024.got - 2010.06.03 22:34:06.
