data_PCOD9310711
_publ_section_title
;
Structure prediction by ZEFSAII (Michael W. Deem and Ramdas Pophale) SiO2 
 PCOD9310711
Probable space group: P 2 2 21
;
_chemical_formula_sum "Si O2"
_cell_formula_units_Z 20
_cell_length_a 11.881951
_cell_length_b 9.741541
_cell_length_c 8.215864
_cell_angle_alpha 90.000000
_cell_angle_beta 90.000000
_cell_angle_gamma 90.000000
_cell_volume 950.974040
_symmetry_space_group_name_H-M "P 2 2 21"
_symmetry_group_IT_number 17
_symmetry_cell_setting 'orthorhombic'
loop_
_space_group_symop_operation_xyz
x,y,z
-x,-y,1/2+z
x,-y,-z
-x,y,1/2-z
loop_
_atom_site_type_symbol
_atom_site_label
_atom_site_fract_x
_atom_site_fract_y
_atom_site_fract_z
Si Si1 0.106242 0.057684 0.328521
Si Si2 0.428459 0.000000 0.000000
Si Si3 0.771662 0.170539 0.623687
Si Si4 0.500000 0.215137 0.250000
Si Si5 0.250399 0.719765 0.756297
Si Si6 0.873774 0.451463 0.689196
O O1 0.142783 0.936237 0.206320
O O2 0.000000 0.134860 0.250000
O O3 0.069756 0.000000 0.500000
O O4 0.208477 0.160781 0.361592
O O5 0.346174 0.086860 0.878845
O O6 0.497750 0.887287 0.903344
O O7 0.782227 0.212850 0.432609
O O8 0.795412 0.317018 0.706576
O O9 0.615840 0.298425 0.254463
O O10 0.183960 0.580990 0.724445
O O11 0.878591 0.500000 0.500000
O O12 0.000000 0.423782 0.750000
#
# Coordination Sequence:
#
# PCOD9310711 Si02
#       6
#     4   2   4   2   4   4
#     4  12  23  35  58  88 120 157 202 251 307 361
#     4  10  20  38  64  88 124 152 210 256 304 360
#     4  10  19  40  60  87 118 158 198 252 300 363
#     4  10  20  36  64  86 122 160 202 254 302 356
#     4  10  21  39  60  88 122 156 204 249 306 365
#     4  10  22  38  62  88 124 162 199 244 313 369
#
# _framework density 21.03107
#
# number of rings (size 3 to 8) (size 9 to 14) (size 15 to 20)
#    0.000    1.600    4.000    2.400    1.400    4.800 
#    0.000    1.000    0.000    8.400    0.000    0.000 
#    0.000    0.000    0.000    0.000    0.000    0.000 
#
# Total GULP energy -111530.277733 kJ/mol
# GULP energy per Si atom -5576.513887 kJ/mol
# Density = 2.098320 g / cm^3
# Si number density = 21.031070 Si / 1000 Ang^3
#
#
#
# Elastic Constant Matrix: (Units=GPa)
#
#
# Indices 1 2 3 4 5 6 
#
# 1 86.2897 28.8744 23.7501 0.0000 0.0000 0.0000
# 2 28.8744 114.6030 1.7000 0.0000 0.0000 0.0000
# 3 23.7501 1.7000 27.9358 0.0000 0.0000 0.0000
# 4 0.0000 0.0000 0.0000 9.1357 0.0000 0.0000
# 5 0.0000 0.0000 0.0000 0.0000 23.3947 0.0000
# 6 0.0000 0.0000 0.0000 0.0000 0.0000 -14.4552
#
#
#
# Elastic Compliance Matrix: (Units=1/GPa)
#
#
# Indices 1 2 3 4 5 6 
#
# 1 0.016799 -0.004024 -0.014037 0.000000 0.000000 0.000000
# 2 -0.004024 0.009698 0.002831 0.000000 0.000000 0.000000
# 3 -0.014037 0.002831 0.047558 0.000000 0.000000 0.000000
# 4 0.000000 0.000000 0.000000 0.109460 0.000000 0.000000
# 5 0.000000 0.000000 0.000000 0.000000 0.042745 0.000000
# 6 0.000000 0.000000 0.000000 0.000000 0.000000 -0.069179
#
#
# Mechanical properties :
#
#
# Convention : Reuss Voigt Hill
#
# Bulk Modulus (GPa) = 22.93880 37.49750 30.21815
# Shear Modulus (GPa) = 24.74364 15.24864 19.99614
#
# Velocity S-wave (km/s) = 3.43378 2.69560 3.08683
# Velocity P-wave (km/s) = 5.16255 5.24944 5.20617
#
# Compressibility (1/GPa) = 0.04359425
#
# Stress axis : x y z
#
# Youngs Moduli (GPa) = 59.52738 103.11710 21.02702
#
# Poissons Ratio (x) = 0.41498 0.29516
# Poissons Ratio (y) = 0.23956 -0.05953
# Poissons Ratio (z) = 0.83559 -0.29194
#
# Static dielectric constant tensor:
#      x y z
#    x 1.733150 0.000000 0.000000 
#    y 0.000000 1.748480 0.000000 
#    z 0.000000 0.000000 1.834330 
# 
# From -- ./inp_files/4678.got.cif
#   From: 2010.05.17/outbox.cif.g08.bks.cpg/sg17_3_cif.got.tgz:4678.got - 2010.06.03 22:34:06.
