data_PCOD9310142
_publ_section_title
;
Structure prediction by ZEFSAII (Michael W. Deem and Ramdas Pophale) SiO2 
 PCOD9310142
Probable space group: P 2 2 2
;
_chemical_formula_sum "Si O2"
_cell_formula_units_Z 17
_cell_length_a 5.543540
_cell_length_b 16.934514
_cell_length_c 9.354425
_cell_angle_alpha 90.000000
_cell_angle_beta 90.000000
_cell_angle_gamma 90.000000
_cell_volume 878.166813
_symmetry_space_group_name_H-M "P 2 2 2"
_symmetry_group_IT_number 16
_symmetry_cell_setting 'orthorhombic'
loop_
_space_group_symop_operation_xyz
x,y,z
-x,-y,z
x,-y,-z
-x,y,-z
loop_
_atom_site_type_symbol
_atom_site_label
_atom_site_fract_x
_atom_site_fract_y
_atom_site_fract_z
Si Si1 0.241535 0.651756 0.081894
Si Si2 0.211580 0.796044 0.250618
Si Si3 0.500000 0.123724 0.500000
Si Si4 0.176220 0.073775 0.250245
Si Si5 0.500000 0.884651 0.000000
Si Si6 0.000000 0.500000 0.000000
O O1 0.234087 0.702855 0.225591
O O2 0.500000 0.659312 0.000000
O O3 0.000000 0.684746 0.000000
O O4 0.169463 0.559391 0.090007
O O5 0.335394 0.823584 0.396370
O O6 0.350433 0.832316 0.112937
O O7 0.956766 0.841200 0.248416
O O8 0.340991 0.074266 0.389750
O O9 0.323222 0.068365 0.103973
O O10 0.000000 0.000000 0.258691
#
# Coordination Sequence:
#
# PCOD9310142 Si02
#       6
#     4   4   2   4   2   1
#     4  10  20  37  63 100 135 164 210 268 334 399
#     4  11  22  39  63  91 127 165 214 263 326 385
#     4  10  26  41  62  86 121 180 220 266 323 386
#     4  11  25  43  61  87 124 167 223 271 327 386
#     4  10  22  39  62  91 116 162 206 273 326 380
#     4   8  22  32  66 100 134 168 202 264 344 392
#
# _framework density 19.358509000000002
#
# number of rings (size 3 to 8) (size 9 to 14) (size 15 to 20)
#    0.706    0.941    1.176    3.176    3.294    9.412 
#    0.000    3.529    0.000    0.000    0.000   23.059 
#    0.000    0.000    0.000    0.000    0.000    0.000 
#
# Total GULP energy -94843.252591 kJ/mol
# GULP energy per Si atom -5579.014858 kJ/mol
# Density = 1.931445 g / cm^3
# Si number density = 19.358509 Si / 1000 Ang^3
#
#
#
# Elastic Constant Matrix: (Units=GPa)
#
#
# Indices 1 2 3 4 5 6 
#
# 1 111.6531 47.8773 51.3501 0.0000 0.0000 0.0000
# 2 47.8773 135.1376 52.3570 0.0000 0.0000 0.0000
# 3 51.3501 52.3570 141.1244 0.0000 0.0000 0.0000
# 4 0.0000 0.0000 0.0000 3.2890 0.0000 0.0000
# 5 0.0000 0.0000 0.0000 0.0000 -41.5196 0.0000
# 6 0.0000 0.0000 0.0000 0.0000 0.0000 21.3211
#
#
#
# Elastic Compliance Matrix: (Units=1/GPa)
#
#
# Indices 1 2 3 4 5 6 
#
# 1 0.011657 -0.002904 -0.003164 0.000000 0.000000 0.000000
# 2 -0.002904 0.009365 -0.002418 0.000000 0.000000 0.000000
# 3 -0.003164 -0.002418 0.009134 0.000000 0.000000 0.000000
# 4 0.000000 0.000000 0.000000 0.304042 0.000000 0.000000
# 5 0.000000 0.000000 0.000000 0.000000 -0.024085 0.000000
# 6 0.000000 0.000000 0.000000 0.000000 0.000000 0.046902
#
#
# Mechanical properties :
#
#
# Convention : Reuss Voigt Hill
#
# Bulk Modulus (GPa) = 75.84637 76.78710 76.31674
# Shear Modulus (GPa) = 13.21413 12.37348 12.79381
#
# Velocity S-wave (km/s) = 2.61550 2.53093 2.57356
# Velocity P-wave (km/s) = 6.95601 6.94930 6.95265
#
# Compressibility (1/GPa) = 0.01318455
#
# Stress axis : x y z
#
# Youngs Moduli (GPa) = 85.78743 106.77506 109.47736
#
# Poissons Ratio (x) = 0.31007 0.34640
# Poissons Ratio (y) = 0.24912 0.26471
# Poissons Ratio (z) = 0.27144 0.25818
#
# Static dielectric constant tensor:
#      x y z
#    x 1.755320 0.000000 0.000000 
#    y 0.000000 1.714730 0.000000 
#    z 0.000000 0.000000 1.644400 
# 
# From -- ./inp_files/3111.got.cif
#   From: 2010.05.17/outbox.cif.g08.bks.cpg/sg16_2_cif.got.tgz:3111.got - 2010.06.03 22:28:35.
