data_PCOD9310898
_publ_section_title
;
Structure prediction by ZEFSAII (Michael W. Deem and Ramdas Pophale) SiO2 
 PCOD9310898
Probable space group: P 2 2 21
;
_chemical_formula_sum "Si O2"
_cell_formula_units_Z 32
_cell_length_a 12.628448
_cell_length_b 8.599656
_cell_length_c 14.673558
_cell_angle_alpha 90.000000
_cell_angle_beta 90.000000
_cell_angle_gamma 90.000000
_cell_volume 1593.552927
_symmetry_space_group_name_H-M "P 2 2 21"
_symmetry_group_IT_number 17
_symmetry_cell_setting 'orthorhombic'
loop_
_space_group_symop_operation_xyz
x,y,z
-x,-y,1/2+z
x,-y,-z
-x,y,1/2-z
loop_
_atom_site_type_symbol
_atom_site_label
_atom_site_fract_x
_atom_site_fract_y
_atom_site_fract_z
Si Si1 0.381295 0.689017 0.492404
Si Si2 0.003684 0.170495 0.652541
Si Si3 0.743098 0.838378 0.619046
Si Si4 0.449990 0.676528 0.154866
Si Si5 0.104068 0.168806 0.296563
Si Si6 0.765018 0.187037 0.584349
Si Si7 0.854548 0.686672 0.995029
Si Si8 0.520116 0.695345 0.651576
O O1 0.379470 0.500000 0.500000
O O2 0.472060 0.739484 0.423002
O O3 0.262563 0.737290 0.471588
O O4 0.422942 0.744567 0.589251
O O5 0.062112 0.244478 0.566430
O O6 0.000000 0.257656 0.750000
O O7 0.879798 0.164647 0.629147
O O8 0.063809 0.005397 0.673106
O O9 0.809486 0.828136 0.713845
O O10 0.791987 0.781046 0.522323
O O11 0.633905 0.748857 0.621237
O O12 0.716264 0.017145 0.599837
O O13 0.500000 0.735138 0.250000
O O14 0.326343 0.705180 0.129565
O O15 0.470967 0.491376 0.154426
O O16 0.133585 0.255036 0.390577
O O17 0.000000 0.242635 0.250000
O O18 0.861465 0.500000 0.000000
O O19 0.500000 0.761002 0.750000
#
# Coordination Sequence:
#
# PCOD9310898 Si02
#       8
#     4   4   4   4   4   4   4   4
#     4   9  19  39  59  86 130 165 206 255 326 398
#     4  11  24  45  66  92 131 179 220 266 334 405
#     4  11  22  38  66  94 128 168 219 275 320 389
#     4  10  22  39  66  93 128 175 211 265 337 395
#     4  11  22  44  68  91 126 182 220 259 339 402
#     4  11  23  42  63  97 131 168 224 278 323 391
#     4  11  25  43  68  99 130 169 221 283 326 392
#     4  10  20  39  63  94 126 170 213 263 334 397
#
# _framework density 20.080914
#
# number of rings (size 3 to 8) (size 9 to 14) (size 15 to 20)
#    0.000    1.500    3.750    1.875    3.500    2.000 
#    4.500    2.500    0.000    0.000    0.000    0.000 
#    0.000    0.000    0.000    0.000    0.000    0.000 
#
# Total GULP energy -178136.197779 kJ/mol
# GULP energy per Si atom -5566.756181 kJ/mol
# Density = 2.003521 g / cm^3
# Si number density = 20.080914 Si / 1000 Ang^3
#
#
#
# Elastic Constant Matrix: (Units=GPa)
#
#
# Indices 1 2 3 4 5 6 
#
# 1 75.8930 13.7531 23.9188 0.0000 0.0000 0.0000
# 2 13.7531 19.0298 19.7071 0.0000 0.0000 0.0000
# 3 23.9188 19.7071 126.0297 0.0000 0.0000 0.0000
# 4 0.0000 0.0000 0.0000 63.2601 0.0000 0.0000
# 5 0.0000 0.0000 0.0000 0.0000 42.4739 0.0000
# 6 0.0000 0.0000 0.0000 0.0000 0.0000 29.7417
#
#
#
# Elastic Compliance Matrix: (Units=1/GPa)
#
#
# Indices 1 2 3 4 5 6 
#
# 1 0.015369 -0.009649 -0.001408 0.000000 0.000000 0.000000
# 2 -0.009649 0.068761 -0.008921 0.000000 0.000000 0.000000
# 3 -0.001408 -0.008921 0.009597 0.000000 0.000000 0.000000
# 4 0.000000 0.000000 0.000000 0.015808 0.000000 0.000000
# 5 0.000000 0.000000 0.000000 0.000000 0.023544 0.000000
# 6 0.000000 0.000000 0.000000 0.000000 0.000000 0.033623
#
#
# Mechanical properties :
#
#
# Convention : Reuss Voigt Hill
#
# Bulk Modulus (GPa) = 18.59744 37.30116 27.94930
# Shear Modulus (GPa) = 22.26371 38.00004 30.13187
#
# Velocity S-wave (km/s) = 3.33333 4.35483 3.87786
# Velocity P-wave (km/s) = 4.90878 6.62584 5.83086
#
# Compressibility (1/GPa) = 0.05377084
#
# Stress axis : x y z
#
# Youngs Moduli (GPa) = 65.06695 14.54309 104.20151
#
# Poissons Ratio (x) = 0.14033 0.14671
# Poissons Ratio (y) = 0.62784 0.92956
# Poissons Ratio (z) = 0.09161 0.12974
#
# Static dielectric constant tensor:
#      x y z
#    x -0.063120 0.000000 0.000000 
#    y 0.000000 1.719950 0.000000 
#    z 0.000000 0.000000 1.769870 
# 
# From -- ./inp_files/8554.got.cif
#   From: 2010.05.17/outbox.cif.g08.bks.cpg/sg17_5_cif.got.tgz:8554.got - 2010.06.03 22:34:06.
