data_PCOD9310896
_publ_section_title
;
Structure prediction by ZEFSAII (Michael W. Deem and Ramdas Pophale) SiO2 
 PCOD9310896
Probable space group: P 2 2 21
;
_chemical_formula_sum "Si O2"
_cell_formula_units_Z 30
_cell_length_a 15.445538
_cell_length_b 11.653947
_cell_length_c 8.960380
_cell_angle_alpha 90.000000
_cell_angle_beta 90.000000
_cell_angle_gamma 90.000000
_cell_volume 1612.881672
_symmetry_space_group_name_H-M "P 2 2 21"
_symmetry_group_IT_number 17
_symmetry_cell_setting 'orthorhombic'
loop_
_space_group_symop_operation_xyz
x,y,z
-x,-y,1/2+z
x,-y,-z
-x,y,1/2-z
loop_
_atom_site_type_symbol
_atom_site_label
_atom_site_fract_x
_atom_site_fract_y
_atom_site_fract_z
Si Si1 0.755575 0.473414 0.174280
Si Si2 0.247222 0.067089 0.843491
Si Si3 0.094240 0.329359 0.185650
Si Si4 0.209784 0.671469 0.089532
Si Si5 0.413628 0.997872 0.675999
Si Si6 0.500000 0.774130 0.750000
Si Si7 0.914863 0.946046 0.666082
Si Si8 0.380552 0.392793 0.096858
O O1 0.830382 0.379085 0.207606
O O2 0.783799 0.585580 0.270910
O O3 0.664835 0.431703 0.247737
O O4 0.748554 0.500000 0.000000
O O5 0.211523 0.194758 0.868879
O O6 0.332714 0.060526 0.746525
O O7 0.172054 0.995740 0.763370
O O8 0.265374 0.000000 0.000000
O O9 0.090736 0.191078 0.174646
O O10 0.000000 0.366734 0.250000
O O11 0.129335 0.360863 0.018971
O O12 0.298067 0.655473 0.994302
O O13 0.500000 0.049338 0.750000
O O14 0.416331 0.000000 0.500000
O O15 0.421958 0.862368 0.714506
O O16 0.541363 0.693887 0.624624
O O17 0.000000 0.984909 0.750000
O O18 0.917243 0.000000 0.500000
O O19 0.411698 0.500000 0.000000
#
# Coordination Sequence:
#
# PCOD9310896 Si02
#       8
#     4   4   4   4   4   2   4   4
#     4  10  23  40  60  91 124 158 210 263 304 375
#     4  11  20  39  67  88 125 173 204 252 325 372
#     4  10  20  39  63  89 120 165 208 256 309 367
#     4  10  20  40  65  89 121 167 213 249 323 376
#     4  10  24  38  58  94 126 159 208 258 309 382
#     4  10  22  36  64  86 120 156 206 262 308 372
#     4  10  21  39  61  92 125 163 206 254 304 374
#     4   9  20  38  62  83 116 162 206 254 312 376
#
# _framework density 18.600249000000002
#
# number of rings (size 3 to 8) (size 9 to 14) (size 15 to 20)
#    0.400    1.600    2.667    2.400    3.733    3.200 
#    4.800    2.000    0.000    0.000    0.000    0.000 
#    0.000    0.000    0.000    0.000    0.000    0.000 
#
# Total GULP energy -167076.801336 kJ/mol
# GULP energy per Si atom -5569.226711 kJ/mol
# Density = 1.855791 g / cm^3
# Si number density = 18.600249 Si / 1000 Ang^3
#
#
#
# Elastic Constant Matrix: (Units=GPa)
#
#
# Indices 1 2 3 4 5 6 
#
# 1 77.7722 2.1889 26.0583 0.0000 0.0000 0.0000
# 2 2.1889 65.8301 13.8673 0.0000 0.0000 0.0000
# 3 26.0583 13.8673 91.5863 0.0000 0.0000 0.0000
# 4 0.0000 0.0000 0.0000 18.1119 0.0000 0.0000
# 5 0.0000 0.0000 0.0000 0.0000 20.9088 0.0000
# 6 0.0000 0.0000 0.0000 0.0000 0.0000 34.4973
#
#
#
# Elastic Compliance Matrix: (Units=1/GPa)
#
#
# Indices 1 2 3 4 5 6 
#
# 1 0.014223 0.000392 -0.004106 0.000000 0.000000 0.000000
# 2 0.000392 0.015702 -0.002489 0.000000 0.000000 0.000000
# 3 -0.004106 -0.002489 0.012464 0.000000 0.000000 0.000000
# 4 0.000000 0.000000 0.000000 0.055212 0.000000 0.000000
# 5 0.000000 0.000000 0.000000 0.000000 0.047827 0.000000
# 6 0.000000 0.000000 0.000000 0.000000 0.000000 0.028988
#
#
# Mechanical properties :
#
#
# Convention : Reuss Voigt Hill
#
# Bulk Modulus (GPa) = 33.35283 35.49083 34.42183
# Shear Modulus (GPa) = 25.40450 27.57520 26.48985
#
# Velocity S-wave (km/s) = 3.69970 3.85453 3.77791
# Velocity P-wave (km/s) = 6.01836 6.23956 6.12996
#
# Compressibility (1/GPa) = 0.02998246
#
# Stress axis : x y z
#
# Youngs Moduli (GPa) = 70.30959 63.68656 80.23236
#
# Poissons Ratio (x) = -0.02497 0.32944
# Poissons Ratio (y) = -0.02756 0.19970
# Poissons Ratio (z) = 0.28870 0.15852
#
# Static dielectric constant tensor:
#      x y z
#    x 1.661510 0.000000 0.000000 
#    y 0.000000 1.693440 0.000000 
#    z 0.000000 0.000000 1.635800 
# 
# From -- ./inp_files/5237.got.cif
#   From: 2010.05.17/outbox.cif.g08.bks.cpg/sg17_3_cif.got.tgz:5237.got - 2010.06.03 22:34:06.
