data_PCOD9310932
_publ_section_title
;
Structure prediction by ZEFSAII (Michael W. Deem and Ramdas Pophale) SiO2 
 PCOD9310932
Probable space group: P 2 2 21
;
_chemical_formula_sum "Si O2"
_cell_formula_units_Z 32
_cell_length_a 5.364236
_cell_length_b 14.357644
_cell_length_c 17.170774
_cell_angle_alpha 90.000000
_cell_angle_beta 90.000000
_cell_angle_gamma 90.000000
_cell_volume 1322.455080
_symmetry_space_group_name_H-M "P 2 2 21"
_symmetry_group_IT_number 17
_symmetry_cell_setting 'orthorhombic'
loop_
_space_group_symop_operation_xyz
x,y,z
-x,-y,1/2+z
x,-y,-z
-x,y,1/2-z
loop_
_atom_site_type_symbol
_atom_site_label
_atom_site_fract_x
_atom_site_fract_y
_atom_site_fract_z
Si Si1 0.306059 0.980006 0.407590
Si Si2 0.976429 0.531506 0.329013
Si Si3 0.995376 0.255426 0.069418
Si Si4 0.302984 0.347688 0.318795
Si Si5 0.910976 0.288723 0.900736
Si Si6 0.792985 0.052949 0.416590
Si Si7 0.640764 0.427765 0.431953
Si Si8 0.556034 0.796674 0.339793
O O1 0.438689 0.882004 0.389407
O O2 0.273135 0.000000 0.500000
O O3 0.028366 0.000737 0.376046
O O4 0.522588 0.048007 0.377172
O O5 0.038556 0.600696 0.398612
O O6 0.717351 0.487092 0.355582
O O7 0.000000 0.590161 0.250000
O O8 0.158490 0.445341 0.310743
O O9 0.883535 0.266104 0.156733
O O10 0.148590 0.160414 0.071220
O O11 0.144566 0.352055 0.055916
O O12 0.859499 0.247806 0.986169
O O13 0.500000 0.330672 0.250000
O O14 0.420144 0.362995 0.404318
O O15 0.162125 0.236591 0.864673
O O16 0.648945 0.282480 0.855817
O O17 0.765680 0.000000 0.500000
O O18 0.592962 0.500000 0.500000
O O19 0.500000 0.822399 0.250000
#
# Coordination Sequence:
#
# PCOD9310932 Si02
#       8
#     4   4   4   4   4   4   4   4
#     4  10  20  40  68  94 133 177 234 287 354 432
#     4  11  23  41  62  96 138 190 235 289 361 428
#     4  11  26  41  72 104 140 184 244 309 365 436
#     4  11  26  44  69  94 143 195 243 305 373 433
#     4  12  26  42  70 108 144 187 244 299 362 449
#     4  10  21  40  68 103 131 174 231 294 359 424
#     4  11  24  43  66 101 136 181 242 296 357 431
#     4  12  26  45  69 105 150 191 233 303 383 448
#
# _framework density 24.197420999999999
#
# number of rings (size 3 to 8) (size 9 to 14) (size 15 to 20)
#    0.000    1.000    2.500    4.875    7.000    0.500 
#    0.000    0.625    2.750    0.000    0.000    0.000 
#    0.000    0.000    0.000    0.000    0.000    0.000 
#
# Total GULP energy -178252.272521 kJ/mol
# GULP energy per Si atom -5570.383516 kJ/mol
# Density = 2.414235 g / cm^3
# Si number density = 24.197421 Si / 1000 Ang^3
#
#
#
# Elastic Constant Matrix: (Units=GPa)
#
#
# Indices 1 2 3 4 5 6 
#
# 1 81.1954 -20.9587 31.3875 0.0000 0.0000 0.0000
# 2 -20.9587 54.1496 20.6555 0.0000 0.0000 0.0000
# 3 31.3875 20.6555 87.1604 0.0000 0.0000 0.0000
# 4 0.0000 0.0000 0.0000 20.7837 0.0000 0.0000
# 5 0.0000 0.0000 0.0000 0.0000 12.0559 0.0000
# 6 0.0000 0.0000 0.0000 0.0000 0.0000 -17.0911
#
#
#
# Elastic Compliance Matrix: (Units=1/GPa)
#
#
# Indices 1 2 3 4 5 6 
#
# 1 0.018684 0.010772 -0.009281 0.000000 0.000000 0.000000
# 2 0.010772 0.026513 -0.010162 0.000000 0.000000 0.000000
# 3 -0.009281 -0.010162 0.017224 0.000000 0.000000 0.000000
# 4 0.000000 0.000000 0.000000 0.048115 0.000000 0.000000
# 5 0.000000 0.000000 0.000000 0.000000 0.082947 0.000000
# 6 0.000000 0.000000 0.000000 0.000000 0.000000 -0.058510
#
#
# Mechanical properties :
#
#
# Convention : Reuss Voigt Hill
#
# Bulk Modulus (GPa) = 22.18358 31.63045 26.90702
# Shear Modulus (GPa) = 29.87899 15.91112 22.89505
#
# Velocity S-wave (km/s) = 3.51779 2.56706 3.07934
# Velocity P-wave (km/s) = 5.06827 4.67831 4.87719
#
# Compressibility (1/GPa) = 0.04507838
#
# Stress axis : x y z
#
# Youngs Moduli (GPa) = 53.52063 37.71706 58.05958
#
# Poissons Ratio (x) = -0.40629 0.53887
# Poissons Ratio (y) = -0.57653 0.59002
# Poissons Ratio (z) = 0.49674 0.38329
#
# Static dielectric constant tensor:
#      x y z
#    x 2.144050 0.000000 0.000000 
#    y 0.000000 2.912210 0.000000 
#    z 0.000000 0.000000 1.106420 
# 
# From -- ./inp_files/9141.got.cif
#   From: 2010.05.17/outbox.cif.g08.bks.cpg/sg17_5_cif.got.tgz:9141.got - 2010.06.03 22:34:06.
