data_PCOD9310778
_publ_section_title
;
Structure prediction by ZEFSAII (Michael W. Deem and Ramdas Pophale) SiO2 
 PCOD9310778
Probable space group: P 2 2 21
;
_chemical_formula_sum "Si O2"
_cell_formula_units_Z 18
_cell_length_a 17.199023
_cell_length_b 10.199057
_cell_length_c 5.269453
_cell_angle_alpha 90.000000
_cell_angle_beta 90.000000
_cell_angle_gamma 90.000000
_cell_volume 924.334859
_symmetry_space_group_name_H-M "P 2 2 21"
_symmetry_group_IT_number 17
_symmetry_cell_setting 'orthorhombic'
loop_
_space_group_symop_operation_xyz
x,y,z
-x,-y,1/2+z
x,-y,-z
-x,y,1/2-z
loop_
_atom_site_type_symbol
_atom_site_label
_atom_site_fract_x
_atom_site_fract_y
_atom_site_fract_z
Si Si1 0.547936 0.341566 0.501020
Si Si2 0.185103 0.353592 0.502128
Si Si3 0.074139 0.868234 0.379868
Si Si4 0.803041 0.000000 0.500000
Si Si5 0.273830 0.270682 0.022338
O O1 0.555146 0.500000 0.500000
O O2 0.500000 0.303316 0.750000
O O3 0.634536 0.285587 0.509365
O O4 0.500000 0.303605 0.250000
O O5 0.151373 0.500000 0.500000
O O6 0.119897 0.241065 0.460339
O O7 0.228814 0.319887 0.767991
O O8 0.245029 0.349524 0.268625
O O9 0.140166 0.933510 0.204053
O O10 0.000000 0.801356 0.250000
O O11 0.038942 0.000000 0.500000
O O12 0.749765 0.120720 0.416486
#
# Coordination Sequence:
#
# PCOD9310778 Si02
#       5
#     4   4   4   2   4
#     4  10  20  35  56  84 117 155 197 242 300 361
#     4  11  23  39  62  92 123 159 205 255 308 358
#     4  11  21  39  62  88 120 161 208 249 304 366
#     4  10  22  38  60  88 114 160 208 244 294 368
#     4  11  22  39  63  88 123 159 203 252 300 362
#
# _framework density 19.473462999999999
#
# number of rings (size 3 to 8) (size 9 to 14) (size 15 to 20)
#    0.000    1.333    3.333    3.333    0.000    1.778 
#    0.000    6.667    0.000    0.000    0.000    0.000 
#    0.000    0.000    0.000    0.000    0.000    0.000 
#
# Total GULP energy -100399.540497 kJ/mol
# GULP energy per Si atom -5577.752250 kJ/mol
# Density = 1.942914 g / cm^3
# Si number density = 19.473463 Si / 1000 Ang^3
#
#
#
# Elastic Constant Matrix: (Units=GPa)
#
#
# Indices 1 2 3 4 5 6 
#
# 1 113.2046 27.6587 28.9902 0.0000 0.0000 0.0000
# 2 27.6587 86.7293 11.9803 0.0000 0.0000 0.0000
# 3 28.9902 11.9803 97.0968 0.0000 0.0000 0.0000
# 4 0.0000 0.0000 0.0000 5.7752 0.0000 0.0000
# 5 0.0000 0.0000 0.0000 0.0000 31.3689 0.0000
# 6 0.0000 0.0000 0.0000 0.0000 0.0000 17.3250
#
#
#
# Elastic Compliance Matrix: (Units=1/GPa)
#
#
# Indices 1 2 3 4 5 6 
#
# 1 0.010231 -0.002890 -0.002698 0.000000 0.000000 0.000000
# 2 -0.002890 0.012546 -0.000685 0.000000 0.000000 0.000000
# 3 -0.002698 -0.000685 0.011189 0.000000 0.000000 0.000000
# 4 0.000000 0.000000 0.000000 0.173153 0.000000 0.000000
# 5 0.000000 0.000000 0.000000 0.000000 0.031879 0.000000
# 6 0.000000 0.000000 0.000000 0.000000 0.000000 0.057720
#
#
# Mechanical properties :
#
#
# Convention : Reuss Voigt Hill
#
# Bulk Modulus (GPa) = 46.68563 48.25433 47.46998
# Shear Modulus (GPa) = 15.80257 26.12058 20.96157
#
# Velocity S-wave (km/s) = 2.85176 3.66641 3.28444
# Velocity P-wave (km/s) = 5.90503 6.53886 6.23001
#
# Compressibility (1/GPa) = 0.02141987
#
# Stress axis : x y z
#
# Youngs Moduli (GPa) = 97.74638 79.70413 89.37291
#
# Poissons Ratio (x) = 0.23034 0.24112
# Poissons Ratio (y) = 0.28248 0.06124
# Poissons Ratio (z) = 0.26372 0.05461
#
# Static dielectric constant tensor:
#      x y z
#    x 1.659480 0.000000 0.000000 
#    y 0.000000 1.698480 0.000000 
#    z 0.000000 0.000000 1.760650 
# 
# From -- ./inp_files/844.got.cif
#   From: 2010.05.17/outbox.cif.g08.bks.cpg/sg17_1_cif.got.tgz:844.got - 2010.06.03 22:34:06.
