data_PCOD9310911
_publ_section_title
;
Structure prediction by ZEFSAII (Michael W. Deem and Ramdas Pophale) SiO2 
 PCOD9310911
Probable space group: P 2 2 21
;
_chemical_formula_sum "Si O2"
_cell_formula_units_Z 20
_cell_length_a 9.027074
_cell_length_b 7.642256
_cell_length_c 13.889493
_cell_angle_alpha 90.000000
_cell_angle_beta 90.000000
_cell_angle_gamma 90.000000
_cell_volume 958.197376
_symmetry_space_group_name_H-M "P 2 2 21"
_symmetry_group_IT_number 17
_symmetry_cell_setting 'orthorhombic'
loop_
_space_group_symop_operation_xyz
x,y,z
-x,-y,1/2+z
x,-y,-z
-x,y,1/2-z
loop_
_atom_site_type_symbol
_atom_site_label
_atom_site_fract_x
_atom_site_fract_y
_atom_site_fract_z
Si Si1 0.575332 0.669106 0.853840
Si Si2 0.866171 0.414587 0.606015
Si Si3 0.808448 0.608327 0.182090
Si Si4 0.392323 0.191516 0.975635
Si Si5 0.373432 0.058041 0.669274
O O1 0.500000 0.639330 0.750000
O O2 0.686675 0.509783 0.872262
O O3 0.662207 0.855652 0.851795
O O4 0.444053 0.697065 0.931754
O O5 0.869348 0.500000 0.500000
O O6 0.827786 0.487342 0.713550
O O7 0.730700 0.281729 0.588743
O O8 0.037666 0.368904 0.626271
O O9 0.751389 0.805841 0.198574
O O10 0.543324 0.146737 0.920179
O O11 0.329930 0.000000 0.000000
O O12 0.500000 0.049614 0.750000
#
# Coordination Sequence:
#
# PCOD9310911 Si02
#       5
#     4   4   4   4   4
#     4  10  22  39  68  99 125 161 220 270 316 382
#     4  11  25  43  61  95 131 172 216 253 330 394
#     4  11  24  43  64  92 135 172 208 269 321 379
#     4  10  22  41  66  94 125 165 214 268 322 380
#     4  10  20  39  68  95 120 165 216 264 322 375
#
# _framework density 20.872527000000002
#
# number of rings (size 3 to 8) (size 9 to 14) (size 15 to 20)
#    0.000    1.600    2.000    1.800    5.600    0.000 
#    3.600    2.000    0.000    0.000    0.000    0.000 
#    0.000    0.000    0.000    0.000    0.000    0.000 
#
# Total GULP energy -111393.953851 kJ/mol
# GULP energy per Si atom -5569.697693 kJ/mol
# Density = 2.082502 g / cm^3
# Si number density = 20.872527 Si / 1000 Ang^3
#
#
#
# Elastic Constant Matrix: (Units=GPa)
#
#
# Indices 1 2 3 4 5 6 
#
# 1 65.9767 34.4754 7.5176 0.0000 0.0000 0.0000
# 2 34.4754 79.3127 -0.9014 0.0000 0.0000 0.0000
# 3 7.5176 -0.9014 89.7013 0.0000 0.0000 0.0000
# 4 0.0000 0.0000 0.0000 23.6239 0.0000 0.0000
# 5 0.0000 0.0000 0.0000 0.0000 32.0194 0.0000
# 6 0.0000 0.0000 0.0000 0.0000 0.0000 10.6861
#
#
#
# Elastic Compliance Matrix: (Units=1/GPa)
#
#
# Indices 1 2 3 4 5 6 
#
# 1 0.019883 -0.008663 -0.001753 0.000000 0.000000 0.000000
# 2 -0.008663 0.016384 0.000891 0.000000 0.000000 0.000000
# 3 -0.001753 0.000891 0.011304 0.000000 0.000000 0.000000
# 4 0.000000 0.000000 0.000000 0.042330 0.000000 0.000000
# 5 0.000000 0.000000 0.000000 0.000000 0.031231 0.000000
# 6 0.000000 0.000000 0.000000 0.000000 0.000000 0.093580
#
#
# Mechanical properties :
#
#
# Convention : Reuss Voigt Hill
#
# Bulk Modulus (GPa) = 35.06286 35.24156 35.15221
# Shear Modulus (GPa) = 20.55332 26.19249 23.37290
#
# Velocity S-wave (km/s) = 3.14141 3.54627 3.34996
# Velocity P-wave (km/s) = 5.47658 5.80421 5.64278
#
# Compressibility (1/GPa) = 0.02852020
#
# Stress axis : x y z
#
# Youngs Moduli (GPa) = 50.29349 61.03541 88.46422
#
# Poissons Ratio (x) = 0.52873 0.15511
# Poissons Ratio (y) = 0.43568 -0.07879
# Poissons Ratio (z) = 0.08819 -0.05436
#
# Static dielectric constant tensor:
#      x y z
#    x 1.719200 0.000000 0.000000 
#    y 0.000000 1.830180 0.000000 
#    z 0.000000 0.000000 1.847080 
# 
# From -- ./inp_files/7924.got.cif
#   From: 2010.05.17/outbox.cif.g08.bks.cpg/sg17_4_cif.got.tgz:7924.got - 2010.06.03 22:34:06.
