data_PCOD9310331
_publ_section_title
;
Structure prediction by ZEFSAII (Michael W. Deem and Ramdas Pophale) SiO2 
 PCOD9310331
Probable space group: P 2 2 2
;
_chemical_formula_sum "Si O2"
_cell_formula_units_Z 15
_cell_length_a 19.996065
_cell_length_b 5.773391
_cell_length_c 5.247023
_cell_angle_alpha 90.000000
_cell_angle_beta 90.000000
_cell_angle_gamma 90.000000
_cell_volume 605.743104
_symmetry_space_group_name_H-M "P 2 2 2"
_symmetry_group_IT_number 16
_symmetry_cell_setting 'orthorhombic'
loop_
_space_group_symop_operation_xyz
x,y,z
-x,-y,z
x,-y,-z
-x,y,-z
loop_
_atom_site_type_symbol
_atom_site_label
_atom_site_fract_x
_atom_site_fract_y
_atom_site_fract_z
Si Si1 0.101463 0.159117 0.752350
Si Si2 0.424962 0.893223 0.748125
Si Si3 0.251012 0.162204 0.750298
Si Si4 0.000000 0.500000 0.500000
Si Si5 0.356654 0.500000 0.500000
O O1 0.176170 0.264162 0.781221
O O2 0.046600 0.348281 0.684981
O O3 0.102313 0.000000 0.500000
O O4 0.088071 0.000000 0.000000
O O5 0.408468 0.628667 0.695060
O O6 0.500000 0.000000 0.746510
O O7 0.392006 0.000000 0.500000
O O8 0.396081 0.000000 0.000000
O O9 0.306347 0.355921 0.682757
O O10 0.248918 0.000000 0.500000
O O11 0.260510 0.000000 0.000000
#
# Coordination Sequence:
#
# PCOD9310331 Si02
#       5
#     4   4   4   1   2
#     4  10  24  45  68 102 148 188 237 305 358 420
#     4  10  25  48  70 104 147 185 234 294 358 435
#     4  10  24  46  70 104 145 186 241 301 359 426
#     4  12  24  42  76 108 138 198 250 284 368 444
#     4  12  25  45  80 107 139 196 242 296 368 433
#
# _framework density 24.762974
#
# number of rings (size 3 to 8) (size 9 to 14) (size 15 to 20)
#    0.000    1.600    0.000    2.000    0.000   14.933 
#    0.000   18.667    0.000    4.800    0.000    0.000 
#    0.000    0.000    0.000    0.000    0.000    0.000 
#
# Total GULP energy -83776.547288 kJ/mol
# GULP energy per Si atom -5585.103153 kJ/mol
# Density = 2.470661 g / cm^3
# Si number density = 24.762974 Si / 1000 Ang^3
#
#
#
# Elastic Constant Matrix: (Units=GPa)
#
#
# Indices 1 2 3 4 5 6 
#
# 1 251.2949 102.9369 48.1670 0.0000 0.0000 0.0000
# 2 102.9369 109.2878 66.8129 0.0000 0.0000 0.0000
# 3 48.1670 66.8129 240.8143 0.0000 0.0000 0.0000
# 4 0.0000 0.0000 0.0000 39.5499 0.0000 0.0000
# 5 0.0000 0.0000 0.0000 0.0000 32.3490 0.0000
# 6 0.0000 0.0000 0.0000 0.0000 0.0000 60.3401
#
#
#
# Elastic Compliance Matrix: (Units=1/GPa)
#
#
# Indices 1 2 3 4 5 6 
#
# 1 0.006525 -0.006441 0.000482 0.000000 0.000000 0.000000
# 2 -0.006441 0.017376 -0.003533 0.000000 0.000000 0.000000
# 3 0.000482 -0.003533 0.005036 0.000000 0.000000 0.000000
# 4 0.000000 0.000000 0.000000 0.025284 0.000000 0.000000
# 5 0.000000 0.000000 0.000000 0.000000 0.030913 0.000000
# 6 0.000000 0.000000 0.000000 0.000000 0.000000 0.016573
#
#
# Mechanical properties :
#
#
# Convention : Reuss Voigt Hill
#
# Bulk Modulus (GPa) = 100.45513 115.24785 107.85149
# Shear Modulus (GPa) = 40.31953 52.01315 46.16634
#
# Velocity S-wave (km/s) = 4.03950 4.58803 4.32247
# Velocity P-wave (km/s) = 7.90009 8.64338 8.28008
#
# Compressibility (1/GPa) = 0.00995469
#
# Stress axis : x y z
#
# Youngs Moduli (GPa) = 153.24982 57.54990 198.55617
#
# Poissons Ratio (x) = 0.37066 -0.09565
# Poissons Ratio (y) = 0.98702 0.70144
# Poissons Ratio (z) = -0.07383 0.20331
#
# Static dielectric constant tensor:
#      x y z
#    x 5.359590 0.000000 0.000000 
#    y 0.000000 1.744330 0.000000 
#    z 0.000000 0.000000 1.918640 
# 
# From -- ./inp_files/2559.got.cif
#   From: 2010.05.17/outbox.cif.g08.bks.cpg/sg16_2_cif.got.tgz:2559.got - 2010.06.03 22:28:35.
