data_PCOD9310513
_publ_section_title
;
Structure prediction by ZEFSAII (Michael W. Deem and Ramdas Pophale) SiO2 
 PCOD9310513
Probable space group: P 2 2 21
;
_chemical_formula_sum "Si O2"
_cell_formula_units_Z 26
_cell_length_a 30.731143
_cell_length_b 7.629300
_cell_length_c 5.103674
_cell_angle_alpha 90.000000
_cell_angle_beta 90.000000
_cell_angle_gamma 90.000000
_cell_volume 1196.592653
_symmetry_space_group_name_H-M "P 2 2 21"
_symmetry_group_IT_number 17
_symmetry_cell_setting 'orthorhombic'
loop_
_space_group_symop_operation_xyz
x,y,z
-x,-y,1/2+z
x,-y,-z
-x,y,1/2-z
loop_
_atom_site_type_symbol
_atom_site_label
_atom_site_fract_x
_atom_site_fract_y
_atom_site_fract_z
Si Si1 0.323888 0.786138 0.522334
Si Si2 0.906133 0.692177 0.369893
Si Si3 0.627748 0.790624 0.487811
Si Si4 0.764022 0.128675 0.245974
Si Si5 0.000000 0.373910 0.750000
Si Si6 0.858656 0.809847 0.866190
Si Si7 0.473324 0.288384 0.995644
O O1 0.339487 0.723370 0.237904
O O2 0.277371 0.753966 0.662428
O O3 0.325362 0.000000 0.500000
O O4 0.359051 0.720369 0.729217
O O5 0.906304 0.500000 0.500000
O O6 0.888368 0.807272 0.608910
O O7 0.955803 0.733169 0.292960
O O8 0.876809 0.695290 0.107946
O O9 0.576812 0.760678 0.455209
O O10 0.634506 0.000000 0.500000
O O11 0.810053 0.228686 0.244185
O O12 0.757819 0.000000 0.500000
O O13 0.767853 0.000000 0.000000
O O14 0.007256 0.500000 0.500000
O O15 0.858839 0.000000 0.000000
O O16 0.500000 0.227842 0.250000
O O17 0.474278 0.500000 0.000000
O O18 0.500000 0.221889 0.750000
#
# Coordination Sequence:
#
# PCOD9310513 Si02
#       7
#     4   4   4   4   2   4   4
#     4   9  17  30  50  77 105 133 172 214 259 313
#     4  11  22  39  62  85 113 154 197 241 290 349
#     4  10  19  31  51  78 102 126 165 221 265 299
#     4  10  18  32  54  80 111 149 184 221 272 339
#     4  10  20  38  62  86 110 152 206 240 280 360
#     4  11  22  37  59  90 120 150 192 242 291 344
#     4  10  21  36  52  70  97 136 175 206 251 322
#
# _framework density 21.728366000000001
#
# number of rings (size 3 to 8) (size 9 to 14) (size 15 to 20)
#    0.000    1.846    0.000    7.846    0.000    0.615 
#    0.000    1.538    0.000    7.385    0.000    0.000 
#    0.000    0.000    0.000    0.000    0.000    0.000 
#
# Total GULP energy -144971.276763 kJ/mol
# GULP energy per Si atom -5575.818337 kJ/mol
# Density = 2.167891 g / cm^3
# Si number density = 21.728366 Si / 1000 Ang^3
#
#
#
# Elastic Constant Matrix: (Units=GPa)
#
#
# Indices 1 2 3 4 5 6 
#
# 1 187.0172 7.8850 76.0228 0.0000 0.0000 0.0000
# 2 7.8850 27.9902 10.8095 0.0000 0.0000 0.0000
# 3 76.0228 10.8095 175.8636 0.0000 0.0000 0.0000
# 4 0.0000 0.0000 0.0000 -8.8724 0.0000 0.0000
# 5 0.0000 0.0000 0.0000 0.0000 42.5201 0.0000
# 6 0.0000 0.0000 0.0000 0.0000 0.0000 73.4709
#
#
#
# Elastic Compliance Matrix: (Units=1/GPa)
#
#
# Indices 1 2 3 4 5 6 
#
# 1 0.006503 -0.000764 -0.002764 0.000000 0.000000 0.000000
# 2 -0.000764 0.036685 -0.001924 0.000000 0.000000 0.000000
# 3 -0.002764 -0.001924 0.006999 0.000000 0.000000 0.000000
# 4 0.000000 0.000000 0.000000 -0.112708 0.000000 0.000000
# 5 0.000000 0.000000 0.000000 0.000000 0.023518 0.000000
# 6 0.000000 0.000000 0.000000 0.000000 0.000000 0.013611
#
#
# Mechanical properties :
#
#
# Convention : Reuss Voigt Hill
#
# Bulk Modulus (GPa) = 25.45716 64.47839 44.96778
# Shear Modulus (GPa) = -3592.39685 41.16731 -1775.61477
#
# Velocity S-wave (km/s) = -40.70516 4.35746 -28.61750
# Velocity P-wave (km/s) = 46.87721 7.41996 32.72932
#
# Compressibility (1/GPa) = 0.03928168
#
# Stress axis : x y z
#
# Youngs Moduli (GPa) = 153.77627 27.25887 142.86954
#
# Poissons Ratio (x) = 0.02084 0.39491
# Poissons Ratio (y) = 0.11756 0.27494
# Poissons Ratio (z) = 0.42506 0.05246
#
# Static dielectric constant tensor:
#      x y z
#    x 1.894310 0.000000 0.000000 
#    y 0.000000 1.825200 0.000000 
#    z 0.000000 0.000000 1.752230 
# 
# From -- ./inp_files/3196.got.cif
#   From: 2010.05.17/outbox.cif.g08.bks.cpg/sg17_2_cif.got.tgz:3196.got - 2010.06.03 22:34:06.
