data_PCOD9310870
_publ_section_title
;
Structure prediction by ZEFSAII (Michael W. Deem and Ramdas Pophale) SiO2 
 PCOD9310870
Probable space group: P 2 2 21
;
_chemical_formula_sum "Si O2"
_cell_formula_units_Z 24
_cell_length_a 7.961625
_cell_length_b 9.076133
_cell_length_c 14.580505
_cell_angle_alpha 90.000000
_cell_angle_beta 90.000000
_cell_angle_gamma 90.000000
_cell_volume 1053.598480
_symmetry_space_group_name_H-M "P 2 2 21"
_symmetry_group_IT_number 17
_symmetry_cell_setting 'orthorhombic'
loop_
_space_group_symop_operation_xyz
x,y,z
-x,-y,1/2+z
x,-y,-z
-x,y,1/2-z
loop_
_atom_site_type_symbol
_atom_site_label
_atom_site_fract_x
_atom_site_fract_y
_atom_site_fract_z
Si Si1 0.532246 0.058867 0.405355
Si Si2 0.021484 0.563055 0.897886
Si Si3 0.145623 0.724712 0.321778
Si Si4 0.500000 0.817252 0.250000
Si Si5 0.785047 0.214757 0.018419
Si Si6 0.371635 0.376214 0.166394
Si Si7 0.447401 0.500000 0.500000
O O1 0.339512 0.105523 0.428940
O O2 0.616393 0.207503 0.368930
O O3 0.608263 0.000000 0.500000
O O4 0.537499 0.926592 0.334294
O O5 0.176689 0.585138 0.829916
O O6 0.900676 0.439233 0.856107
O O7 0.929067 0.717012 0.917953
O O8 0.070482 0.500000 0.000000
O O9 0.329428 0.731607 0.275573
O O10 0.146752 0.820577 0.416454
O O11 0.000000 0.769813 0.250000
O O12 0.663805 0.354623 0.998704
O O13 0.500000 0.385914 0.250000
O O14 0.441528 0.486684 0.089709
#
# Coordination Sequence:
#
# PCOD9310870 Si02
#       7
#     4   4   4   2   4   4   2
#     4  11  24  47  74 100 147 204 256 305 375 455
#     4  10  22  45  68 111 150 188 251 309 401 448
#     4  11  25  43  74 109 150 188 251 322 373 456
#     4  12  26  52  72 112 146 198 268 298 380 458
#     4  10  21  44  67  99 151 198 238 319 378 444
#     4  11  24  41  73 112 148 200 254 313 384 465
#     4  10  20  38  64 102 146 196 240 302 384 448
#
# _framework density 22.779076
#
# number of rings (size 3 to 8) (size 9 to 14) (size 15 to 20)
#    0.000    1.333    5.833    0.000    2.333    4.000 
#    3.000    0.833    0.000    0.000    0.000    0.000 
#    0.000    0.000    0.000    0.000    0.000    0.000 
#
# Total GULP energy -134206.308887 kJ/mol
# GULP energy per Si atom -5591.929537 kJ/mol
# Density = 2.272723 g / cm^3
# Si number density = 22.779076 Si / 1000 Ang^3
#
#
#
# Elastic Constant Matrix: (Units=GPa)
#
#
# Indices 1 2 3 4 5 6 
#
# 1 140.6956 42.0624 55.1657 0.0000 0.0000 0.0000
# 2 42.0624 74.9421 37.8053 0.0000 0.0000 0.0000
# 3 55.1657 37.8053 131.9503 0.0000 0.0000 0.0000
# 4 0.0000 0.0000 0.0000 41.8077 0.0000 0.0000
# 5 0.0000 0.0000 0.0000 0.0000 39.8473 0.0000
# 6 0.0000 0.0000 0.0000 0.0000 0.0000 34.4115
#
#
#
# Elastic Compliance Matrix: (Units=1/GPa)
#
#
# Indices 1 2 3 4 5 6 
#
# 1 0.009356 -0.003832 -0.002814 0.000000 0.000000 0.000000
# 2 -0.003832 0.017168 -0.003317 0.000000 0.000000 0.000000
# 3 -0.002814 -0.003317 0.009705 0.000000 0.000000 0.000000
# 4 0.000000 0.000000 0.000000 0.023919 0.000000 0.000000
# 5 0.000000 0.000000 0.000000 0.000000 0.025096 0.000000
# 6 0.000000 0.000000 0.000000 0.000000 0.000000 0.029060
#
#
# Mechanical properties :
#
#
# Convention : Reuss Voigt Hill
#
# Bulk Modulus (GPa) = 61.33334 68.62833 64.98084
# Shear Modulus (GPa) = 35.80027 37.38359 36.59193
#
# Velocity S-wave (km/s) = 3.96868 4.05549 4.01232
# Velocity P-wave (km/s) = 6.92707 7.21959 7.07484
#
# Compressibility (1/GPa) = 0.01630435
#
# Stress axis : x y z
#
# Youngs Moduli (GPa) = 106.87835 58.24958 103.03681
#
# Poissons Ratio (x) = 0.22321 0.28993
# Poissons Ratio (y) = 0.40956 0.34173
# Poissons Ratio (z) = 0.30074 0.19319
#
# Static dielectric constant tensor:
#      x y z
#    x 1.851260 0.000000 0.000000 
#    y 0.000000 1.869980 0.000000 
#    z 0.000000 0.000000 1.899890 
# 
# From -- ./inp_files/8141.got.cif
#   From: 2010.05.17/outbox.cif.g08.bks.cpg/sg17_5_cif.got.tgz:8141.got - 2010.06.03 22:34:06.
