data_PCOD9310458
_publ_section_title
;
Structure prediction by ZEFSAII (Michael W. Deem and Ramdas Pophale) SiO2 
 PCOD9310458
Probable space group: P 2 2 21
;
_chemical_formula_sum "Si O2"
_cell_formula_units_Z 32
_cell_length_a 8.748312
_cell_length_b 9.886129
_cell_length_c 15.340348
_cell_angle_alpha 90.000000
_cell_angle_beta 90.000000
_cell_angle_gamma 90.000000
_cell_volume 1326.739772
_symmetry_space_group_name_H-M "P 2 2 21"
_symmetry_group_IT_number 17
_symmetry_cell_setting 'orthorhombic'
loop_
_space_group_symop_operation_xyz
x,y,z
-x,-y,1/2+z
x,-y,-z
-x,y,1/2-z
loop_
_atom_site_type_symbol
_atom_site_label
_atom_site_fract_x
_atom_site_fract_y
_atom_site_fract_z
Si Si1 0.106861 0.793231 0.016537
Si Si2 0.913896 0.899394 0.163671
Si Si3 0.548154 0.656433 0.048746
Si Si4 0.557940 0.866851 0.552107
Si Si5 0.804927 0.592521 0.171670
Si Si6 0.560865 0.929103 0.159393
Si Si7 0.744893 0.551691 0.369259
Si Si8 0.018339 0.330516 0.153686
O O1 0.269771 0.844255 0.979982
O O2 0.999200 0.757227 0.933649
O O3 0.150964 0.660018 0.075938
O O4 0.024581 0.900371 0.080078
O O5 0.884728 0.737992 0.174271
O O6 0.742665 0.957606 0.154236
O O7 0.000000 0.947896 0.250000
O O8 0.701459 0.595708 0.085677
O O9 0.526173 0.798057 0.100272
O O10 0.413880 0.561564 0.081253
O O11 0.532376 0.725399 0.954782
O O12 0.490972 0.000000 0.500000
O O13 0.539116 0.935876 0.645010
O O14 0.726922 0.587264 0.267074
O O15 0.910395 0.461921 0.162542
O O16 0.500000 0.875415 0.250000
O O17 0.819103 0.403407 0.366404
O O18 0.000000 0.264978 0.250000
#
# Coordination Sequence:
#
# PCOD9310458 Si02
#       8
#     4   4   4   4   4   4   4   4
#     4  11  21  37  66  89 130 164 212 265 319 381
#     4  11  20  34  65 104 122 155 216 278 331 378
#     4   9  18  32  61  91 124 156 206 261 317 366
#     4   9  21  40  64  89 123 167 214 257 327 383
#     4  10  17  31  55  95 132 155 205 259 314 366
#     4  10  21  37  68  91 127 168 212 273 333 391
#     4  10  17  31  57  94 121 162 206 253 303 375
#     4  10  21  36  62  87 128 173 208 250 314 386
#
# _framework density 24.119274000000001
#
# number of rings (size 3 to 8) (size 9 to 14) (size 15 to 20)
#    0.000    2.000    2.500    2.625    3.500    0.000 
#    0.000    3.125   38.500    1.500    0.000    0.000 
#    0.000    0.000    0.000    0.000    0.000    0.000 
#
# Total GULP energy -178478.494412 kJ/mol
# GULP energy per Si atom -5577.452950 kJ/mol
# Density = 2.406438 g / cm^3
# Si number density = 24.119274 Si / 1000 Ang^3
#
#
#
# Elastic Constant Matrix: (Units=GPa)
#
#
# Indices 1 2 3 4 5 6 
#
# 1 83.7904 23.4442 26.4879 0.0000 0.0000 0.0000
# 2 23.4442 81.3038 46.2218 0.0000 0.0000 0.0000
# 3 26.4879 46.2218 91.3900 0.0000 0.0000 0.0000
# 4 0.0000 0.0000 0.0000 -5.4550 0.0000 0.0000
# 5 0.0000 0.0000 0.0000 0.0000 13.9932 0.0000
# 6 0.0000 0.0000 0.0000 0.0000 0.0000 13.6928
#
#
#
# Elastic Compliance Matrix: (Units=1/GPa)
#
#
# Indices 1 2 3 4 5 6 
#
# 1 0.013446 -0.002332 -0.002718 0.000000 0.000000 0.000000
# 2 -0.002332 0.017668 -0.008260 0.000000 0.000000 0.000000
# 3 -0.002718 -0.008260 0.015907 0.000000 0.000000 0.000000
# 4 0.000000 0.000000 0.000000 -0.183317 0.000000 0.000000
# 5 0.000000 0.000000 0.000000 0.000000 0.071463 0.000000
# 6 0.000000 0.000000 0.000000 0.000000 0.000000 0.073031
#
#
# Mechanical properties :
#
#
# Convention : Reuss Voigt Hill
#
# Bulk Modulus (GPa) = 49.01483 49.86578 49.44030
# Shear Modulus (GPa) = 120.13926 15.13488 67.63707
#
# Velocity S-wave (km/s) = 7.06531 2.50772 5.30129
# Velocity P-wave (km/s) = 9.32331 5.39485 7.61671
#
# Compressibility (1/GPa) = 0.02040199
#
# Stress axis : x y z
#
# Youngs Moduli (GPa) = 74.37055 56.60016 62.86446
#
# Poissons Ratio (x) = 0.13201 0.17084
# Poissons Ratio (y) = 0.17345 0.51924
# Poissons Ratio (z) = 0.20211 0.46750
#
# Static dielectric constant tensor:
#      x y z
#    x 1.976580 0.000000 0.000000 
#    y 0.000000 1.981590 0.000000 
#    z 0.000000 0.000000 1.867100 
# 
# From -- ./inp_files/8274.got.cif
#   From: 2010.05.17/outbox.cif.g08.bks.cpg/sg17_5_cif.got.tgz:8274.got - 2010.06.03 22:34:06.
