data_PCOD9310075
_publ_section_title
;
Structure prediction by ZEFSAII (Michael W. Deem and Ramdas Pophale) SiO2 
 PCOD9310075
Probable space group: P 2 2 2
;
_chemical_formula_sum "Si O2"
_cell_formula_units_Z 21
_cell_length_a 7.546536
_cell_length_b 14.966244
_cell_length_c 9.493203
_cell_angle_alpha 90.000000
_cell_angle_beta 90.000000
_cell_angle_gamma 90.000000
_cell_volume 1072.193666
_symmetry_space_group_name_H-M "P 2 2 2"
_symmetry_group_IT_number 16
_symmetry_cell_setting 'orthorhombic'
loop_
_space_group_symop_operation_xyz
x,y,z
-x,-y,z
x,-y,-z
-x,y,-z
loop_
_atom_site_type_symbol
_atom_site_label
_atom_site_fract_x
_atom_site_fract_y
_atom_site_fract_z
Si Si1 0.894291 0.811552 0.630782
Si Si2 0.550080 0.731558 0.159033
Si Si3 0.462107 0.899710 0.332994
Si Si4 0.500000 0.500000 0.500000
Si Si5 0.251499 0.633276 0.330578
Si Si6 0.940944 0.321069 0.837878
O O1 0.744359 0.876865 0.684695
O O2 0.799326 0.719578 0.573245
O O3 0.993747 0.772259 0.239468
O O4 0.000000 0.850402 0.500000
O O5 0.564374 0.821562 0.251102
O O6 0.384355 0.675381 0.216458
O O7 0.729597 0.673869 0.169638
O O8 0.500000 0.755828 0.000000
O O9 0.500000 0.893499 0.500000
O O10 0.500000 0.000000 0.285556
O O11 0.365250 0.560361 0.409742
O O12 0.065983 0.611224 0.252231
O O13 0.000000 0.322663 0.000000
#
# Coordination Sequence:
#
# PCOD9310075 Si02
#       6
#     4   4   4   1   4   4
#     4   9  19  35  61  89 118 166 217 257 307 379
#     4  11  20  39  67  89 125 171 213 261 313 386
#     4  10  21  36  56  91 130 169 211 265 322 367
#     4  12  24  44  64 100 134 166 206 276 334 400
#     4   9  24  37  63  94 125 162 210 259 320 385
#     4  10  19  37  63  94 118 158 217 256 306 380
#
# _framework density 19.586013000000001
#
# number of rings (size 3 to 8) (size 9 to 14) (size 15 to 20)
#    1.143    0.952    1.905    1.143    8.000    0.381 
#    0.000   11.429    0.000    2.286    0.000    0.000 
#    0.000    0.000    0.000    0.000    0.000    0.000 
#
# Total GULP energy -116949.665034 kJ/mol
# GULP energy per Si atom -5569.031668 kJ/mol
# Density = 1.954143 g / cm^3
# Si number density = 19.586013 Si / 1000 Ang^3
#
#
#
# Elastic Constant Matrix: (Units=GPa)
#
#
# Indices 1 2 3 4 5 6 
#
# 1 118.2078 21.8104 16.9544 0.0000 0.0000 0.0000
# 2 21.8104 67.6492 30.7338 0.0000 0.0000 0.0000
# 3 16.9544 30.7338 71.2442 0.0000 0.0000 0.0000
# 4 0.0000 0.0000 0.0000 -31.5291 0.0000 0.0000
# 5 0.0000 0.0000 0.0000 0.0000 32.8707 0.0000
# 6 0.0000 0.0000 0.0000 0.0000 0.0000 4.4633
#
#
#
# Elastic Compliance Matrix: (Units=1/GPa)
#
#
# Indices 1 2 3 4 5 6 
#
# 1 0.009065 -0.002416 -0.001115 0.000000 0.000000 0.000000
# 2 -0.002416 0.019029 -0.007634 0.000000 0.000000 0.000000
# 3 -0.001115 -0.007634 0.017595 0.000000 0.000000 0.000000
# 4 0.000000 0.000000 0.000000 -0.031717 0.000000 0.000000
# 5 0.000000 0.000000 0.000000 0.000000 0.030422 0.000000
# 6 0.000000 0.000000 0.000000 0.000000 0.000000 0.224051
#
#
# Mechanical properties :
#
#
# Convention : Reuss Voigt Hill
#
# Bulk Modulus (GPa) = 42.80985 44.01094 43.41040
# Shear Modulus (GPa) = 16.74688 13.66781 15.20735
#
# Velocity S-wave (km/s) = 2.92728 2.64452 2.78949
# Velocity P-wave (km/s) = 5.77323 5.64305 5.70851
#
# Compressibility (1/GPa) = 0.02335911
#
# Stress axis : x y z
#
# Youngs Moduli (GPa) = 110.30939 52.55045 56.83498
#
# Poissons Ratio (x) = 0.12697 0.06337
# Poissons Ratio (y) = 0.26652 0.43388
# Poissons Ratio (z) = 0.12300 0.40117
#
# Static dielectric constant tensor:
#      x y z
#    x 1.729250 0.000000 0.000000 
#    y 0.000000 1.694980 0.000000 
#    z 0.000000 0.000000 1.723720 
# 
# From -- ./inp_files/4055.got.cif
#   From: 2010.05.17/outbox.cif.g08.bks.cpg/sg16_3_cif.got.tgz:4055.got - 2010.06.03 22:28:35.
