data_PCOD9310993
_publ_section_title
;
Structure prediction by ZEFSAII (Michael W. Deem and Ramdas Pophale) SiO2 
 PCOD9310993
Probable space group: P 2 2 21
;
_chemical_formula_sum "Si O2"
_cell_formula_units_Z 20
_cell_length_a 8.862453
_cell_length_b 7.516641
_cell_length_c 13.181593
_cell_angle_alpha 90.000000
_cell_angle_beta 90.000000
_cell_angle_gamma 90.000000
_cell_volume 878.103386
_symmetry_space_group_name_H-M "P 2 2 21"
_symmetry_group_IT_number 17
_symmetry_cell_setting 'orthorhombic'
loop_
_space_group_symop_operation_xyz
x,y,z
-x,-y,1/2+z
x,-y,-z
-x,y,1/2-z
loop_
_atom_site_type_symbol
_atom_site_label
_atom_site_fract_x
_atom_site_fract_y
_atom_site_fract_z
Si Si1 0.824642 0.612802 0.776606
Si Si2 0.370563 0.167449 0.879084
Si Si3 0.706009 0.260925 0.853330
Si Si4 0.760269 0.208315 0.418449
Si Si5 0.930231 0.971047 0.857434
O O1 0.757112 0.464065 0.848427
O O2 0.746505 0.642015 0.667299
O O3 0.822572 0.806324 0.828602
O O4 0.000000 0.572298 0.750000
O O5 0.541518 0.226959 0.897481
O O6 0.315630 0.211555 0.766238
O O7 0.351494 0.954882 0.891907
O O8 0.269716 0.257407 0.966060
O O9 0.833029 0.132293 0.900556
O O10 0.926665 0.119807 0.410695
O O11 0.000000 0.037239 0.750000
#
# Coordination Sequence:
#
# PCOD9310993 Si02
#       5
#     4   4   4   4   4
#     4   9  19  35  66  94 115 163 215 261 310 376
#     4  10  21  36  60  97 130 168 207 254 327 381
#     4  11  20  36  63  97 124 168 212 254 318 385
#     4   9  19  41  62  91 127 167 211 264 319 367
#     4   9  17  37  65  91 116 162 211 260 311 377
#
# _framework density 22.77636
#
# number of rings (size 3 to 8) (size 9 to 14) (size 15 to 20)
#    0.000    2.800    4.000    0.600    0.000    0.800 
#    7.200    4.000    0.000    0.000   15.600    0.000 
#    0.000    0.000    0.000    0.000    0.000    0.000 
#
# Total GULP energy -111715.971758 kJ/mol
# GULP energy per Si atom -5585.798588 kJ/mol
# Density = 2.272452 g / cm^3
# Si number density = 22.776360 Si / 1000 Ang^3
#
#
#
# Elastic Constant Matrix: (Units=GPa)
#
#
# Indices 1 2 3 4 5 6 
#
# 1 94.9658 32.9325 18.3229 0.0000 0.0000 0.0000
# 2 32.9325 82.7168 -6.3146 0.0000 0.0000 0.0000
# 3 18.3229 -6.3146 61.8185 0.0000 0.0000 0.0000
# 4 0.0000 0.0000 0.0000 19.8454 0.0000 0.0000
# 5 0.0000 0.0000 0.0000 0.0000 32.4721 0.0000
# 6 0.0000 0.0000 0.0000 0.0000 0.0000 24.4969
#
#
#
# Elastic Compliance Matrix: (Units=1/GPa)
#
#
# Indices 1 2 3 4 5 6 
#
# 1 0.013373 -0.005671 -0.004543 0.000000 0.000000 0.000000
# 2 -0.005671 0.014589 0.003171 0.000000 0.000000 0.000000
# 3 -0.004543 0.003171 0.017847 0.000000 0.000000 0.000000
# 4 0.000000 0.000000 0.000000 0.050390 0.000000 0.000000
# 5 0.000000 0.000000 0.000000 0.000000 0.030796 0.000000
# 6 0.000000 0.000000 0.000000 0.000000 0.000000 0.040822
#
#
# Mechanical properties :
#
#
# Convention : Reuss Voigt Hill
#
# Bulk Modulus (GPa) = 31.52246 36.59807 34.06027
# Shear Modulus (GPa) = 25.97708 28.33355 27.15532
#
# Velocity S-wave (km/s) = 3.38083 3.53085 3.45666
# Velocity P-wave (km/s) = 5.39538 5.72065 5.56039
#
# Compressibility (1/GPa) = 0.03172341
#
# Stress axis : x y z
#
# Youngs Moduli (GPa) = 74.77551 68.54263 56.03209
#
# Poissons Ratio (x) = 0.38872 0.25456
# Poissons Ratio (y) = 0.42407 -0.17769
# Poissons Ratio (z) = 0.33972 -0.21736
#
# Static dielectric constant tensor:
#      x y z
#    x 1.841060 0.000000 0.000000 
#    y 0.000000 1.851090 0.000000 
#    z 0.000000 0.000000 1.953180 
# 
# From -- ./inp_files/8003.got.cif
#   From: 2010.05.17/outbox.cif.g08.bks.cpg/sg17_5_cif.got.tgz:8003.got - 2010.06.03 22:34:06.
