data_PCOD9310587
_publ_section_title
;
Structure prediction by ZEFSAII (Michael W. Deem and Ramdas Pophale) SiO2 
 PCOD9310587
Probable space group: P 2 2 21
;
_chemical_formula_sum "Si O2"
_cell_formula_units_Z 32
_cell_length_a 36.402856
_cell_length_b 7.470277
_cell_length_c 5.398738
_cell_angle_alpha 90.000000
_cell_angle_beta 90.000000
_cell_angle_gamma 90.000000
_cell_volume 1468.129669
_symmetry_space_group_name_H-M "P 2 2 21"
_symmetry_group_IT_number 17
_symmetry_cell_setting 'orthorhombic'
loop_
_space_group_symop_operation_xyz
x,y,z
-x,-y,1/2+z
x,-y,-z
-x,y,1/2-z
loop_
_atom_site_type_symbol
_atom_site_label
_atom_site_fract_x
_atom_site_fract_y
_atom_site_fract_z
Si Si1 0.894356 0.780892 0.000000
Si Si2 0.518985 0.285598 0.500000
Si Si3 0.767795 0.713566 0.500000
Si Si4 0.269718 0.714292 0.500000
Si Si5 0.145739 0.785103 1.000000
Si Si6 0.979358 0.218562 1.000000
Si Si7 0.356227 0.214804 0.500000
Si Si8 0.605499 0.214601 0.500000
O O1 0.873773 0.720541 0.248979
O O2 0.873773 0.720541 0.751021
O O3 0.936877 0.726563 0.000000
O O4 0.893774 0.000000 0.000000
O O5 0.513781 0.500000 0.500000
O O6 0.500000 0.215611 0.250000
O O7 0.562268 0.250845 0.500000
O O8 0.500000 0.215611 0.750000
O O9 0.761585 0.500000 0.500000
O O10 0.749169 0.785163 0.750192
O O11 0.811237 0.743643 0.500000
O O12 0.749169 0.785163 0.249808
O O13 0.264213 0.500000 0.500000
O O14 0.313038 0.747884 0.500000
O O15 0.141940 0.000000 0.000000
O O16 0.000000 0.275981 0.250000
O O17 0.000000 0.275981 0.750000
O O18 0.979804 0.000000 0.000000
O O19 0.375402 0.283821 0.250064
O O20 0.360879 0.000000 0.500000
O O21 0.375402 0.283821 0.749936
O O22 0.610364 0.000000 0.500000
#
# Coordination Sequence:
#
# PCOD9310587 Si02
#       8
#     4   4   4   4   4   4   4   4
#     4   9  17  28  42  65  96 125 158 199 238 285
#     4  10  21  36  54  78 106 136 173 214 252 292
#     4  10  21  36  52  73 100 127 162 205 242 287
#     4  10  21  36  54  75  99 129 163 201 246 291
#     4  10  19  31  48  69  95 127 159 195 242 289
#     4   9  15  23  37  58  88 125 156 186 234 288
#     4  10  21  36  54  78 106 133 166 207 246 293
#     4  10  21  36  54  78 106 136 169 205 248 295
#
# _framework density 21.79644
#
# number of rings (size 3 to 8) (size 9 to 14) (size 15 to 20)
#    0.000    2.250    0.000    3.000    0.000    5.500 
#    0.000    0.000    0.000    0.000    0.000    0.000 
#    0.000   10.000    0.000    0.000    0.000    0.000 
#
# Total GULP energy -178914.804525 kJ/mol
# GULP energy per Si atom -5591.087641 kJ/mol
# Density = 2.174683 g / cm^3
# Si number density = 21.796440 Si / 1000 Ang^3
#
#
#
# Elastic Constant Matrix: (Units=GPa)
#
#
# Indices 1 2 3 4 5 6 
#
# 1 231.7664 -13.9700 170.4705 0.0000 0.0000 0.0000
# 2 -13.9700 64.0425 14.7568 0.0000 0.0000 0.0000
# 3 170.4705 14.7568 298.1073 0.0000 0.0000 0.0000
# 4 0.0000 0.0000 0.0000 -15.8415 0.0000 0.0000
# 5 0.0000 0.0000 0.0000 0.0000 53.2429 0.0000
# 6 0.0000 0.0000 0.0000 0.0000 0.0000 28.6653
#
#
#
# Elastic Compliance Matrix: (Units=1/GPa)
#
#
# Indices 1 2 3 4 5 6 
#
# 1 0.007914 0.002801 -0.004664 0.000000 0.000000 0.000000
# 2 0.002801 0.016786 -0.002433 0.000000 0.000000 0.000000
# 3 -0.004664 -0.002433 0.006142 0.000000 0.000000 0.000000
# 4 0.000000 0.000000 0.000000 -0.063125 0.000000 0.000000
# 5 0.000000 0.000000 0.000000 0.000000 0.018782 0.000000
# 6 0.000000 0.000000 0.000000 0.000000 0.000000 0.034885
#
#
# Mechanical properties :
#
#
# Convention : Reuss Voigt Hill
#
# Bulk Modulus (GPa) = 44.94223 104.04788 74.49505
# Shear Modulus (GPa) = 133.71256 41.39061 87.55158
#
# Velocity S-wave (km/s) = 7.84087 4.36244 6.34469
# Velocity P-wave (km/s) = 10.13095 8.55653 9.37684
#
# Compressibility (1/GPa) = 0.02225079
#
# Stress axis : x y z
#
# Youngs Moduli (GPa) = 126.35277 59.57260 162.80695
#
# Poissons Ratio (x) = -0.16687 0.75940
# Poissons Ratio (y) = -0.35394 0.39608
# Poissons Ratio (z) = 0.58936 0.14493
#
# Static dielectric constant tensor:
#      x y z
#    x 1.704300 0.000000 0.000000 
#    y 0.000000 1.820950 0.000000 
#    z 0.000000 0.000000 1.787960 
# 
# From -- ./inp_files/3249.got.cif
#   From: 2010.05.17/outbox.cif.g08.bks.cpg/sg17_2_cif.got.tgz:3249.got - 2010.06.03 22:34:06.
