data_PCOD9310632
_publ_section_title
;
Structure prediction by ZEFSAII (Michael W. Deem and Ramdas Pophale) SiO2 
 PCOD9310632
Probable space group: P 2 2 21
;
_chemical_formula_sum "Si O2"
_cell_formula_units_Z 24
_cell_length_a 9.612410
_cell_length_b 9.065317
_cell_length_c 15.334641
_cell_angle_alpha 90.000000
_cell_angle_beta 90.000000
_cell_angle_gamma 90.000000
_cell_volume 1336.253621
_symmetry_space_group_name_H-M "P 2 2 21"
_symmetry_group_IT_number 17
_symmetry_cell_setting 'orthorhombic'
loop_
_space_group_symop_operation_xyz
x,y,z
-x,-y,1/2+z
x,-y,-z
-x,y,1/2-z
loop_
_atom_site_type_symbol
_atom_site_label
_atom_site_fract_x
_atom_site_fract_y
_atom_site_fract_z
Si Si1 0.838441 0.066961 0.739968
Si Si2 0.361899 0.942997 0.403552
Si Si3 0.422280 0.622967 0.342966
Si Si4 0.332077 0.428687 0.089905
Si Si5 0.161649 0.416783 0.761411
Si Si6 0.345712 0.079628 0.093048
O O1 0.757142 0.043005 0.830938
O O2 0.829025 0.241688 0.717306
O O3 0.000000 0.028744 0.750000
O O4 0.762819 0.977777 0.664088
O O5 0.409431 0.771200 0.399893
O O6 0.321696 0.000000 0.500000
O O7 0.499097 0.034128 0.377566
O O8 0.500000 0.659955 0.250000
O O9 0.518244 0.500137 0.386708
O O10 0.267180 0.568031 0.320212
O O11 0.228068 0.483232 0.164386
O O12 0.337990 0.254203 0.083441
O O13 0.285190 0.500000 0.000000
O O14 0.000000 0.451860 0.750000
O O15 0.323085 0.000000 0.000000
#
# Coordination Sequence:
#
# PCOD9310632 Si02
#       6
#     4   4   4   4   4   4
#     4  10  21  37  57  81 114 151 182 223 277 331
#     4  10  19  34  56  82 110 143 184 228 275 328
#     4   9  18  35  57  80 108 143 181 225 276 329
#     4  11  21  35  56  81 108 140 184 232 274 323
#     4   9  19  37  58  79 109 147 183 218 272 331
#     4  11  22  36  57  83 111 144 186 230 275 326
#
# _framework density 17.960660000000001
#
# number of rings (size 3 to 8) (size 9 to 14) (size 15 to 20)
#    0.000    2.000    0.000    6.500    0.000    5.333 
#    0.000    2.500    0.000    0.000    0.000    0.000 
#    0.000    0.000    0.000    0.000    0.000    0.000 
#
# Total GULP energy -133958.567722 kJ/mol
# GULP energy per Si atom -5581.606988 kJ/mol
# Density = 1.791978 g / cm^3
# Si number density = 17.960660 Si / 1000 Ang^3
#
#
#
# Elastic Constant Matrix: (Units=GPa)
#
#
# Indices 1 2 3 4 5 6 
#
# 1 142.0245 70.1488 49.2266 0.0000 0.0000 0.0000
# 2 70.1488 138.7544 76.4100 0.0000 0.0000 0.0000
# 3 49.2266 76.4100 87.9314 0.0000 0.0000 0.0000
# 4 0.0000 0.0000 0.0000 34.1946 0.0000 0.0000
# 5 0.0000 0.0000 0.0000 0.0000 10.4047 0.0000
# 6 0.0000 0.0000 0.0000 0.0000 0.0000 17.9837
#
#
#
# Elastic Compliance Matrix: (Units=1/GPa)
#
#
# Indices 1 2 3 4 5 6 
#
# 1 0.009605 -0.003634 -0.002220 0.000000 0.000000 0.000000
# 2 -0.003634 0.015195 -0.011170 0.000000 0.000000 0.000000
# 3 -0.002220 -0.011170 0.022322 0.000000 0.000000 0.000000
# 4 0.000000 0.000000 0.000000 0.029244 0.000000 0.000000
# 5 0.000000 0.000000 0.000000 0.000000 0.096111 0.000000
# 6 0.000000 0.000000 0.000000 0.000000 0.000000 0.055606
#
#
# Mechanical properties :
#
#
# Convention : Reuss Voigt Hill
#
# Bulk Modulus (GPa) = 76.48045 84.47567 80.47806
# Shear Modulus (GPa) = 18.76258 24.04492 21.40375
#
# Velocity S-wave (km/s) = 3.23561 3.66287 3.45585
# Velocity P-wave (km/s) = 7.52553 8.06379 7.79930
#
# Compressibility (1/GPa) = 0.01307524
#
# Stress axis : x y z
#
# Youngs Moduli (GPa) = 104.11116 65.81061 44.79971
#
# Poissons Ratio (x) = 0.23913 0.09944
# Poissons Ratio (y) = 0.37830 0.50041
# Poissons Ratio (z) = 0.23110 0.73510
#
# Static dielectric constant tensor:
#      x y z
#    x 1.610220 0.000000 0.000000 
#    y 0.000000 1.603150 0.000000 
#    z 0.000000 0.000000 1.613220 
# 
# From -- ./inp_files/8121.got.cif
#   From: 2010.05.17/outbox.cif.g08.bks.cpg/sg17_5_cif.got.tgz:8121.got - 2010.06.03 22:34:06.
