data_PCOD9310078
_publ_section_title
;
Structure prediction by ZEFSAII (Michael W. Deem and Ramdas Pophale) SiO2 
 PCOD9310078
Probable space group: P 2 2 2
;
_chemical_formula_sum "Si O2"
_cell_formula_units_Z 32
_cell_length_a 11.402803
_cell_length_b 10.814363
_cell_length_c 12.185954
_cell_angle_alpha 90.000000
_cell_angle_beta 90.000000
_cell_angle_gamma 90.000000
_cell_volume 1502.699351
_symmetry_space_group_name_H-M "P 2 2 2"
_symmetry_group_IT_number 16
_symmetry_cell_setting 'orthorhombic'
loop_
_space_group_symop_operation_xyz
x,y,z
-x,-y,z
x,-y,-z
-x,y,-z
loop_
_atom_site_type_symbol
_atom_site_label
_atom_site_fract_x
_atom_site_fract_y
_atom_site_fract_z
Si Si1 0.491890 0.146735 0.209700
Si Si2 0.332805 0.077556 0.394938
Si Si3 0.164418 0.707642 0.597547
Si Si4 0.889966 0.676939 0.639588
Si Si5 0.134522 0.190889 0.981369
Si Si6 0.250553 0.877102 0.225422
Si Si7 0.132154 0.545150 0.142213
Si Si8 0.725095 0.690228 0.164960
O O1 0.444385 0.140449 0.335520
O O2 0.625253 0.190827 0.204782
O O3 0.402863 0.245439 0.155033
O O4 0.500000 0.000000 0.170404
O O5 0.225651 0.162799 0.432439
O O6 0.367445 0.000000 0.500000
O O7 0.282416 0.997765 0.294031
O O8 0.162171 0.642145 0.478800
O O9 0.238774 0.678840 0.707047
O O10 0.027915 0.707010 0.629991
O O11 0.829163 0.794680 0.695563
O O12 0.870565 0.570032 0.727659
O O13 0.193003 0.100340 0.892878
O O14 0.145618 0.323872 0.918235
O O15 0.194349 0.213295 0.098066
O O16 0.000000 0.161341 0.000000
O O17 0.233244 0.444077 0.119833
O O18 0.000000 0.500000 0.115918
#
# Coordination Sequence:
#
# PCOD9310078 Si02
#       8
#     4   4   4   4   4   4   4   4
#     4   9  22  41  64  90 124 171 223 277 333 403
#     4  10  19  38  64  91 122 170 227 280 341 417
#     4  10  20  35  56  90 127 168 209 269 342 412
#     4  10  20  35  55  88 132 163 203 270 335 401
#     4  11  22  38  65  92 128 171 219 278 342 410
#     4  10  21  39  58  92 122 162 220 280 330 396
#     4  11  20  37  65  95 123 169 220 270 335 417
#     4  11  21  38  61  94 124 168 224 269 330 411
#
# _framework density 21.295010999999999
#
# number of rings (size 3 to 8) (size 9 to 14) (size 15 to 20)
#    0.000    1.750    3.750    1.125    0.000    3.750 
#    0.000   11.250    0.000   14.250    0.000    3.500 
#    0.000    0.000    0.000    0.000    0.000    0.000 
#
# Total GULP energy -178312.926966 kJ/mol
# GULP energy per Si atom -5572.278968 kJ/mol
# Density = 2.124654 g / cm^3
# Si number density = 21.295011 Si / 1000 Ang^3
#
#
#
# Elastic Constant Matrix: (Units=GPa)
#
#
# Indices 1 2 3 4 5 6 
#
# 1 94.2014 27.0991 26.5963 0.0000 0.0000 0.0000
# 2 27.0991 47.7966 3.5896 0.0000 0.0000 0.0000
# 3 26.5963 3.5896 115.0097 0.0000 0.0000 0.0000
# 4 0.0000 0.0000 0.0000 18.8420 0.0000 0.0000
# 5 0.0000 0.0000 0.0000 0.0000 24.1855 0.0000
# 6 0.0000 0.0000 0.0000 0.0000 0.0000 20.7749
#
#
#
# Elastic Compliance Matrix: (Units=1/GPa)
#
#
# Indices 1 2 3 4 5 6 
#
# 1 0.013591 -0.007487 -0.002909 0.000000 0.000000 0.000000
# 2 -0.007487 0.025096 0.000948 0.000000 0.000000 0.000000
# 3 -0.002909 0.000948 0.009338 0.000000 0.000000 0.000000
# 4 0.000000 0.000000 0.000000 0.053073 0.000000 0.000000
# 5 0.000000 0.000000 0.000000 0.000000 0.041347 0.000000
# 6 0.000000 0.000000 0.000000 0.000000 0.000000 0.048135
#
#
# Mechanical properties :
#
#
# Convention : Reuss Voigt Hill
#
# Bulk Modulus (GPa) = 34.33089 41.28642 37.80865
# Shear Modulus (GPa) = 22.81175 26.07532 24.44353
#
# Velocity S-wave (km/s) = 3.27651 3.50305 3.39167
# Velocity P-wave (km/s) = 5.52002 5.98262 5.75597
#
# Compressibility (1/GPa) = 0.02912829
#
# Stress axis : x y z
#
# Youngs Moduli (GPa) = 73.57954 39.84747 107.08828
#
# Poissons Ratio (x) = 0.29834 0.31154
# Poissons Ratio (y) = 0.55089 -0.10153
# Poissons Ratio (z) = 0.21406 -0.03778
#
# Static dielectric constant tensor:
#      x y z
#    x 1.761430 0.000000 0.000000 
#    y 0.000000 1.910360 0.000000 
#    z 0.000000 0.000000 1.831620 
# 
# From -- ./inp_files/6931.got.cif
#   From: 2010.05.17/outbox.cif.g08.bks.cpg/sg16_4_cif.got.tgz:6931.got - 2010.06.03 22:28:35.
