data_PCOD9310921
_publ_section_title
;
Structure prediction by ZEFSAII (Michael W. Deem and Ramdas Pophale) SiO2 
 PCOD9310921
Probable space group: P 2 2 21
;
_chemical_formula_sum "Si O2"
_cell_formula_units_Z 24
_cell_length_a 8.787418
_cell_length_b 26.647026
_cell_length_c 5.155220
_cell_angle_alpha 90.000000
_cell_angle_beta 90.000000
_cell_angle_gamma 90.000000
_cell_volume 1207.138871
_symmetry_space_group_name_H-M "P 2 2 21"
_symmetry_group_IT_number 17
_symmetry_cell_setting 'orthorhombic'
loop_
_space_group_symop_operation_xyz
x,y,z
-x,-y,1/2+z
x,-y,-z
-x,y,1/2-z
loop_
_atom_site_type_symbol
_atom_site_label
_atom_site_fract_x
_atom_site_fract_y
_atom_site_fract_z
Si Si1 0.672343 0.204016 0.156586
Si Si2 0.677583 0.104062 0.824265
Si Si3 0.110601 0.388769 0.499968
Si Si4 0.107051 0.500000 0.500000
Si Si5 0.101471 0.841917 0.998238
Si Si6 0.391087 0.687773 0.497352
Si Si7 0.608664 0.000000 0.000000
O O1 0.500000 0.199350 0.250000
O O2 0.788902 0.202552 0.396828
O O3 0.702032 0.153726 0.994466
O O4 0.677442 0.255782 0.002496
O O5 0.500000 0.104292 0.750000
O O6 0.787226 0.112956 0.581255
O O7 0.703355 0.050705 0.957410
O O8 0.182837 0.445264 0.500160
O O9 0.249193 0.349945 0.499242
O O10 0.000000 0.383424 0.750000
O O11 0.000000 0.383432 0.250000
O O12 0.000000 0.500031 0.750000
O O13 0.000000 0.829327 0.250000
O O14 0.000000 0.854916 0.750000
O O15 0.500000 0.681185 0.250000
O O16 0.500000 0.682540 0.750000
O O17 0.500000 0.992491 0.750000
#
# Coordination Sequence:
#
# PCOD9310921 Si02
#       7
#     4   4   4   2   4   4   2
#     4  11  23  42  70  88 123 175 215 250 313 390
#     4  11  22  43  73  96 127 163 216 257 312 379
#     4  10  20  40  63  93 127 170 218 265 316 375
#     4   8  16  32  62  88 120 168 218 258 308 380
#     4  12  26  42  66  98 131 160 206 264 318 374
#     4  11  25  41  61  92 130 167 210 265 325 380
#     4  10  24  38  70 108 124 152 218 278 300 360
#
# _framework density 19.881723999999998
#
# number of rings (size 3 to 8) (size 9 to 14) (size 15 to 20)
#    0.000    1.333    3.333    2.000    4.667    0.667 
#    3.000    0.833    3.667    0.000    0.000    0.000 
#    0.000    0.000    0.000    0.000    0.000    0.000 
#
# Total GULP energy -133941.933895 kJ/mol
# GULP energy per Si atom -5580.913912 kJ/mol
# Density = 1.983647 g / cm^3
# Si number density = 19.881724 Si / 1000 Ang^3
#
#
#
# Elastic Constant Matrix: (Units=GPa)
#
#
# Indices 1 2 3 4 5 6 
#
# 1 119.6129 67.8786 59.6199 0.0000 0.0000 0.0000
# 2 67.8786 182.1599 51.0809 0.0000 0.0000 0.0000
# 3 59.6199 51.0809 151.7568 0.0000 0.0000 0.0000
# 4 0.0000 0.0000 0.0000 36.2838 0.0000 0.0000
# 5 0.0000 0.0000 0.0000 0.0000 33.5778 0.0000
# 6 0.0000 0.0000 0.0000 0.0000 0.0000 540.6834
#
#
#
# Elastic Compliance Matrix: (Units=1/GPa)
#
#
# Indices 1 2 3 4 5 6 
#
# 1 0.012146 -0.003520 -0.003587 0.000000 0.000000 0.000000
# 2 -0.003520 0.007082 -0.001001 0.000000 0.000000 0.000000
# 3 -0.003587 -0.001001 0.008335 0.000000 0.000000 0.000000
# 4 0.000000 0.000000 0.000000 0.027561 0.000000 0.000000
# 5 0.000000 0.000000 0.000000 0.000000 0.029782 0.000000
# 6 0.000000 0.000000 0.000000 0.000000 0.000000 0.001850
#
#
# Mechanical properties :
#
#
# Convention : Reuss Voigt Hill
#
# Bulk Modulus (GPa) = 88.12299 90.07651 89.09975
# Shear Modulus (GPa) = 46.83715 140.43901 93.63808
#
# Velocity S-wave (km/s) = 4.85891 8.41371 6.87021
# Velocity P-wave (km/s) = 8.71198 11.82337 10.38486
#
# Compressibility (1/GPa) = 0.01134778
#
# Stress axis : x y z
#
# Youngs Moduli (GPa) = 82.33376 141.20220 119.96888
#
# Poissons Ratio (x) = 0.49704 0.43030
# Poissons Ratio (y) = 0.28982 0.12007
# Poissons Ratio (z) = 0.29531 0.14133
#
# Static dielectric constant tensor:
#      x y z
#    x 1.700520 0.000000 0.000000 
#    y 0.000000 1.734410 0.000000 
#    z 0.000000 0.000000 1.699360 
# 
# From -- ./inp_files/1029.got.cif
#   From: 2010.05.17/outbox.cif.g08.bks.cpg/sg17_1_cif.got.tgz:1029.got - 2010.06.03 22:34:06.
