data_PCOD9310645
_publ_section_title
;
Structure prediction by ZEFSAII (Michael W. Deem and Ramdas Pophale) SiO2 
 PCOD9310645
Probable space group: P 2 2 21
;
_chemical_formula_sum "Si O2"
_cell_formula_units_Z 24
_cell_length_a 12.400411
_cell_length_b 11.784321
_cell_length_c 7.865360
_cell_angle_alpha 90.000000
_cell_angle_beta 90.000000
_cell_angle_gamma 90.000000
_cell_volume 1149.368390
_symmetry_space_group_name_H-M "P 2 2 21"
_symmetry_group_IT_number 17
_symmetry_cell_setting 'orthorhombic'
loop_
_space_group_symop_operation_xyz
x,y,z
-x,-y,1/2+z
x,-y,-z
-x,y,1/2-z
loop_
_atom_site_type_symbol
_atom_site_label
_atom_site_fract_x
_atom_site_fract_y
_atom_site_fract_z
Si Si1 0.116909 0.047275 0.806596
Si Si2 0.872633 0.800429 0.777754
Si Si3 0.900024 0.433503 0.674135
Si Si4 0.769769 0.590303 0.870119
Si Si5 0.254700 0.756814 0.075478
Si Si6 0.584518 0.384492 0.399109
O O1 0.217240 0.134221 0.815149
O O2 0.000000 0.095231 0.750000
O O3 0.137349 0.934851 0.693579
O O4 0.103070 0.000000 0.000000
O O5 0.809242 0.717977 0.908583
O O6 0.812644 0.775612 0.599158
O O7 0.000000 0.776304 0.750000
O O8 0.913429 0.500000 0.500000
O O9 0.878774 0.530031 0.811697
O O10 0.797895 0.352546 0.662277
O O11 0.000000 0.365673 0.750000
O O12 0.691762 0.589592 0.708744
O O13 0.720214 0.500000 0.000000
O O14 0.376000 0.718438 0.022958
O O15 0.554003 0.500000 0.500000
O O16 0.500000 0.353861 0.250000
#
# Coordination Sequence:
#
# PCOD9310645 Si02
#       6
#     4   4   4   4   4   4
#     4   9  18  34  53  79 117 166 208 239 292 360
#     4   9  18  32  51  77 119 160 201 238 291 368
#     4  12  21  32  49  79 123 163 196 243 304 378
#     4  11  21  34  53  84 119 159 205 250 311 371
#     4  10  19  35  53  80 114 152 207 250 298 363
#     4  11  21  40  59  83 116 153 201 266 323 382
#
# _framework density 20.881035000000001
#
# number of rings (size 3 to 8) (size 9 to 14) (size 15 to 20)
#    0.000    1.667    5.000    2.000    2.333    0.000 
#    3.000    0.000    0.000    0.000    0.000   29.167 
#    0.000    0.000    0.000    0.000    0.000    0.000 
#
# Total GULP energy -133604.613307 kJ/mol
# GULP energy per Si atom -5566.858888 kJ/mol
# Density = 2.083351 g / cm^3
# Si number density = 20.881035 Si / 1000 Ang^3
#
#
#
# Elastic Constant Matrix: (Units=GPa)
#
#
# Indices 1 2 3 4 5 6 
#
# 1 68.1108 40.9095 7.3423 0.0000 0.0000 0.0000
# 2 40.9095 136.1251 25.2575 0.0000 0.0000 0.0000
# 3 7.3423 25.2575 41.4606 0.0000 0.0000 0.0000
# 4 0.0000 0.0000 0.0000 22.6293 0.0000 0.0000
# 5 0.0000 0.0000 0.0000 0.0000 40.7070 0.0000
# 6 0.0000 0.0000 0.0000 0.0000 0.0000 16.4597
#
#
#
# Elastic Compliance Matrix: (Units=1/GPa)
#
#
# Indices 1 2 3 4 5 6 
#
# 1 0.017916 -0.005407 0.000121 0.000000 0.000000 0.000000
# 2 -0.005407 0.009914 -0.005082 0.000000 0.000000 0.000000
# 3 0.000121 -0.005082 0.027194 0.000000 0.000000 0.000000
# 4 0.000000 0.000000 0.000000 0.044190 0.000000 0.000000
# 5 0.000000 0.000000 0.000000 0.000000 0.024566 0.000000
# 6 0.000000 0.000000 0.000000 0.000000 0.000000 0.060754
#
#
# Mechanical properties :
#
#
# Convention : Reuss Voigt Hill
#
# Bulk Modulus (GPa) = 29.16434 43.63500 36.39967
# Shear Modulus (GPa) = 23.07334 27.43835 25.25585
#
# Velocity S-wave (km/s) = 3.32775 3.62889 3.48158
# Velocity P-wave (km/s) = 5.36306 6.20490 5.79928
#
# Compressibility (1/GPa) = 0.03428845
#
# Stress axis : x y z
#
# Youngs Moduli (GPa) = 55.81462 100.86690 36.77303
#
# Poissons Ratio (x) = 0.54537 -0.00445
# Poissons Ratio (y) = 0.30178 0.18688
# Poissons Ratio (z) = -0.00675 0.51261
#
# Static dielectric constant tensor:
#      x y z
#    x 1.803340 0.000000 0.000000 
#    y 0.000000 1.844150 0.000000 
#    z 0.000000 0.000000 1.877490 
# 
# From -- ./inp_files/4763.got.cif
#   From: 2010.05.17/outbox.cif.g08.bks.cpg/sg17_3_cif.got.tgz:4763.got - 2010.06.03 22:34:06.
