data_PCOD9310968
_publ_section_title
;
Structure prediction by ZEFSAII (Michael W. Deem and Ramdas Pophale) SiO2 
 PCOD9310968
Probable space group: P 2 2 21
;
_chemical_formula_sum "Si O2"
_cell_formula_units_Z 20
_cell_length_a 5.743225
_cell_length_b 7.878446
_cell_length_c 15.886400
_cell_angle_alpha 90.000000
_cell_angle_beta 90.000000
_cell_angle_gamma 90.000000
_cell_volume 718.822871
_symmetry_space_group_name_H-M "P 2 2 21"
_symmetry_group_IT_number 17
_symmetry_cell_setting 'orthorhombic'
loop_
_space_group_symop_operation_xyz
x,y,z
-x,-y,1/2+z
x,-y,-z
-x,y,1/2-z
loop_
_atom_site_type_symbol
_atom_site_label
_atom_site_fract_x
_atom_site_fract_y
_atom_site_fract_z
Si Si1 0.500000 0.611505 0.250000
Si Si2 0.126914 0.010546 0.649955
Si Si3 0.500000 0.185277 0.250000
Si Si4 0.910615 0.500000 0.000000
Si Si5 0.766337 0.267379 0.409387
Si Si6 0.547222 0.774325 0.067620
Si Si7 0.000000 0.662705 0.250000
O O1 0.478764 0.715144 0.161914
O O2 0.231942 0.549794 0.256822
O O3 0.273300 0.925387 0.726001
O O4 0.937444 0.885164 0.613969
O O5 0.332187 0.046787 0.584409
O O6 0.026019 0.194342 0.675866
O O7 0.572951 0.284446 0.335448
O O8 0.740660 0.647766 0.030274
O O9 0.075978 0.432584 0.074612
O O10 0.655425 0.230260 0.500032
#
# Coordination Sequence:
#
# PCOD9310968 Si02
#       7
#     2   4   2   2   4   4   2
#     4  10  25  48  83 114 165 206 275 336 413 490
#     4  11  24  46  84 117 158 199 265 340 417 479
#     4  12  25  50  83 124 159 202 267 356 411 496
#     4  12  30  56  74 110 166 222 274 328 412 498
#     4  12  28  51  81 115 164 212 272 339 413 494
#     4  11  28  53  78 119 162 210 273 339 405 500
#     4  10  20  44  76 122 156 194 260 340 414 482
#
# _framework density 27.823264999999999
#
# number of rings (size 3 to 8) (size 9 to 14) (size 15 to 20)
#    0.000    0.800    2.000    4.200    5.600    4.800 
#    0.000   15.000    0.000    0.000    0.000    0.000 
#    0.000    0.000    0.000    0.000    0.000    0.000 
#
# Total GULP energy -112104.010208 kJ/mol
# GULP energy per Si atom -5605.200510 kJ/mol
# Density = 2.775994 g / cm^3
# Si number density = 27.823265 Si / 1000 Ang^3
#
#
#
# Elastic Constant Matrix: (Units=GPa)
#
#
# Indices 1 2 3 4 5 6 
#
# 1 194.0112 36.6520 60.1216 0.0000 0.0000 0.0000
# 2 36.6520 87.4919 23.1168 0.0000 0.0000 0.0000
# 3 60.1216 23.1168 190.1364 0.0000 0.0000 0.0000
# 4 0.0000 0.0000 0.0000 49.7440 0.0000 0.0000
# 5 0.0000 0.0000 0.0000 0.0000 58.5639 0.0000
# 6 0.0000 0.0000 0.0000 0.0000 0.0000 54.7233
#
#
#
# Elastic Compliance Matrix: (Units=1/GPa)
#
#
# Indices 1 2 3 4 5 6 
#
# 1 0.006067 -0.002102 -0.001663 0.000000 0.000000 0.000000
# 2 -0.002102 0.012537 -0.000860 0.000000 0.000000 0.000000
# 3 -0.001663 -0.000860 0.005890 0.000000 0.000000 0.000000
# 4 0.000000 0.000000 0.000000 0.020103 0.000000 0.000000
# 5 0.000000 0.000000 0.000000 0.000000 0.017075 0.000000
# 6 0.000000 0.000000 0.000000 0.000000 0.000000 0.018274
#
#
# Mechanical properties :
#
#
# Convention : Reuss Voigt Hill
#
# Bulk Modulus (GPa) = 65.59608 79.04669 72.32139
# Shear Modulus (GPa) = 53.03556 56.05618 54.54587
#
# Velocity S-wave (km/s) = 4.37069 4.49344 4.43249
# Velocity P-wave (km/s) = 7.00698 7.44266 7.22811
#
# Compressibility (1/GPa) = 0.01524481
#
# Stress axis : x y z
#
# Youngs Moduli (GPa) = 164.83338 79.76150 169.78932
#
# Poissons Ratio (x) = 0.16767 0.28231
# Poissons Ratio (y) = 0.34650 0.14595
# Poissons Ratio (z) = 0.27407 0.06856
#
# Static dielectric constant tensor:
#      x y z
#    x 2.155680 0.000000 0.000000 
#    y 0.000000 2.211870 0.000000 
#    z 0.000000 0.000000 2.256470 
# 
# From -- ./inp_files/8997.got.cif
#   From: 2010.05.17/outbox.cif.g08.bks.cpg/sg17_5_cif.got.tgz:8997.got - 2010.06.03 22:34:06.
