data_PCOD9310948
_publ_section_title
;
Structure prediction by ZEFSAII (Michael W. Deem and Ramdas Pophale) SiO2 
 PCOD9310948
Probable space group: P 2 2 21
;
_chemical_formula_sum "Si O2"
_cell_formula_units_Z 20
_cell_length_a 7.268213
_cell_length_b 9.547250
_cell_length_c 12.145976
_cell_angle_alpha 90.000000
_cell_angle_beta 90.000000
_cell_angle_gamma 90.000000
_cell_volume 842.826845
_symmetry_space_group_name_H-M "P 2 2 21"
_symmetry_group_IT_number 17
_symmetry_cell_setting 'orthorhombic'
loop_
_space_group_symop_operation_xyz
x,y,z
-x,-y,1/2+z
x,-y,-z
-x,y,1/2-z
loop_
_atom_site_type_symbol
_atom_site_label
_atom_site_fract_x
_atom_site_fract_y
_atom_site_fract_z
Si Si1 0.871400 0.385540 0.650708
Si Si2 0.280107 0.164439 0.279122
Si Si3 0.343487 0.332899 0.491192
Si Si4 0.761281 0.332384 0.424344
Si Si5 0.292077 0.848181 0.292799
O O1 0.909083 0.352874 0.521884
O O2 0.734745 0.517640 0.636451
O O3 0.807770 0.237604 0.697657
O O4 0.000000 0.437570 0.750000
O O5 0.500000 0.166256 0.250000
O O6 0.257242 0.269395 0.380519
O O7 0.188595 0.219682 0.167213
O O8 0.226704 0.006443 0.309494
O O9 0.316747 0.500000 0.500000
O O10 0.563864 0.302009 0.479214
O O11 0.281660 0.248084 0.599018
O O12 0.500000 0.856952 0.250000
#
# Coordination Sequence:
#
# PCOD9310948 Si02
#       5
#     4   4   4   4   4
#     4  11  23  41  64  89 128 175 228 266 320 391
#     4   9  21  34  61  97 127 159 209 266 338 394
#     4  11  18  34  64  97 127 161 207 270 330 394
#     4  10  20  42  61  88 127 169 215 273 330 382
#     4  11  20  37  63  97 129 162 212 272 330 397
#
# _framework density 23.729668
#
# number of rings (size 3 to 8) (size 9 to 14) (size 15 to 20)
#    0.000    1.600    4.000    1.800    0.000    2.400 
#   10.800    1.000    4.400    0.000    0.000    0.000 
#    0.000    0.000    0.000    0.000    0.000    0.000 
#
# Total GULP energy -111723.236277 kJ/mol
# GULP energy per Si atom -5586.161814 kJ/mol
# Density = 2.367566 g / cm^3
# Si number density = 23.729668 Si / 1000 Ang^3
#
#
#
# Elastic Constant Matrix: (Units=GPa)
#
#
# Indices 1 2 3 4 5 6 
#
# 1 45.2911 11.2863 27.0068 0.0000 0.0000 0.0000
# 2 11.2863 193.9670 110.5937 0.0000 0.0000 0.0000
# 3 27.0068 110.5937 203.8773 0.0000 0.0000 0.0000
# 4 0.0000 0.0000 0.0000 56.7792 0.0000 0.0000
# 5 0.0000 0.0000 0.0000 0.0000 33.9777 0.0000
# 6 0.0000 0.0000 0.0000 0.0000 0.0000 5.8621
#
#
#
# Elastic Compliance Matrix: (Units=1/GPa)
#
#
# Indices 1 2 3 4 5 6 
#
# 1 0.024022 0.000603 -0.003509 0.000000 0.000000 0.000000
# 2 0.000603 0.007479 -0.004137 0.000000 0.000000 0.000000
# 3 -0.003509 -0.004137 0.007614 0.000000 0.000000 0.000000
# 4 0.000000 0.000000 0.000000 0.017612 0.000000 0.000000
# 5 0.000000 0.000000 0.000000 0.000000 0.029431 0.000000
# 6 0.000000 0.000000 0.000000 0.000000 0.000000 0.170587
#
#
# Mechanical properties :
#
#
# Convention : Reuss Voigt Hill
#
# Bulk Modulus (GPa) = 39.95450 82.32324 61.13887
# Shear Modulus (GPa) = 17.91000 38.94039 28.42520
#
# Velocity S-wave (km/s) = 2.75025 4.05532 3.46479
# Velocity P-wave (km/s) = 5.19222 7.52960 6.46738
#
# Compressibility (1/GPa) = 0.02502847
#
# Stress axis : x y z
#
# Youngs Moduli (GPa) = 41.62923 133.70405 131.33912
#
# Poissons Ratio (x) = -0.08063 0.46089
# Poissons Ratio (y) = -0.02511 0.54335
# Poissons Ratio (z) = 0.14608 0.55313
#
# Static dielectric constant tensor:
#      x y z
#    x 1.985040 0.000000 0.000000 
#    y 0.000000 1.849120 0.000000 
#    z 0.000000 0.000000 1.996300 
# 
# From -- ./inp_files/6409.got.cif
#   From: 2010.05.17/outbox.cif.g08.bks.cpg/sg17_4_cif.got.tgz:6409.got - 2010.06.03 22:34:06.
