data_PCOD9310257
_publ_section_title
;
Structure prediction by ZEFSAII (Michael W. Deem and Ramdas Pophale) SiO2 
 PCOD9310257
Probable space group: P 2 2 2
;
_chemical_formula_sum "Si O2"
_cell_formula_units_Z 19
_cell_length_a 8.593181
_cell_length_b 6.185418
_cell_length_c 16.786655
_cell_angle_alpha 90.000000
_cell_angle_beta 90.000000
_cell_angle_gamma 90.000000
_cell_volume 892.251277
_symmetry_space_group_name_H-M "P 2 2 2"
_symmetry_group_IT_number 16
_symmetry_cell_setting 'orthorhombic'
loop_
_space_group_symop_operation_xyz
x,y,z
-x,-y,z
x,-y,-z
-x,y,-z
loop_
_atom_site_type_symbol
_atom_site_label
_atom_site_fract_x
_atom_site_fract_y
_atom_site_fract_z
Si Si1 0.500000 0.500000 0.264525
Si Si2 0.770097 0.180401 0.753625
Si Si3 0.000000 0.500000 0.000000
Si Si4 0.278195 0.792589 0.370935
Si Si5 0.500000 0.000000 0.000000
Si Si6 0.792119 0.151344 0.926842
Si Si7 0.000000 0.500000 0.336424
Si Si8 0.500000 0.000000 0.500000
O O1 0.615532 0.677130 0.225796
O O2 0.384672 0.636561 0.318885
O O3 0.817039 0.072137 0.837276
O O4 0.898479 0.343936 0.719824
O O5 0.746549 0.004865 0.684057
O O6 0.885772 0.367787 0.942314
O O7 0.118342 0.658072 0.384616
O O8 0.382362 0.859277 0.446183
O O9 0.608566 0.150235 0.945806
O O10 0.843755 0.000000 0.000000
#
# Coordination Sequence:
#
# PCOD9310257 Si02
#       8
#     2   4   1   4   1   4   2   1
#     4  10  22  39  72 105 128 182 226 280 339 419
#     4  11  22  44  70 100 143 183 237 284 353 409
#     4  12  24  42  64  96 132 190 244 286 352 408
#     4  11  24  45  73 103 139 179 225 285 343 420
#     4   8  24  42  56  92 134 172 220 290 346 382
#     4  10  25  42  66  99 141 184 235 298 345 401
#     4  10  25  44  69 108 138 188 230 281 348 423
#     4  12  24  48  82 104 140 182 224 286 362 410
#
# _framework density 21.294447999999999
#
# number of rings (size 3 to 8) (size 9 to 14) (size 15 to 20)
#    0.632    0.842    2.105    1.579    2.947    9.263 
#    0.000    3.158    0.000    0.000    0.000    0.000 
#    0.000    0.000    0.000    0.000    0.000    0.000 
#
# Total GULP energy -105887.416545 kJ/mol
# GULP energy per Si atom -5573.021923 kJ/mol
# Density = 2.124598 g / cm^3
# Si number density = 21.294448 Si / 1000 Ang^3
#
#
#
# Elastic Constant Matrix: (Units=GPa)
#
#
# Indices 1 2 3 4 5 6 
#
# 1 156.4572 55.9684 46.9228 0.0000 0.0000 0.0000
# 2 55.9684 96.0264 45.0028 0.0000 0.0000 0.0000
# 3 46.9228 45.0028 124.3356 0.0000 0.0000 0.0000
# 4 0.0000 0.0000 0.0000 55.5769 0.0000 0.0000
# 5 0.0000 0.0000 0.0000 0.0000 -30.2315 0.0000
# 6 0.0000 0.0000 0.0000 0.0000 0.0000 93.7172
#
#
#
# Elastic Compliance Matrix: (Units=1/GPa)
#
#
# Indices 1 2 3 4 5 6 
#
# 1 0.008355 -0.004085 -0.001675 0.000000 0.000000 0.000000
# 2 -0.004085 0.014538 -0.003720 0.000000 0.000000 0.000000
# 3 -0.001675 -0.003720 0.010021 0.000000 0.000000 0.000000
# 4 0.000000 0.000000 0.000000 0.017993 0.000000 0.000000
# 5 0.000000 0.000000 0.000000 0.000000 -0.033078 0.000000
# 6 0.000000 0.000000 0.000000 0.000000 0.000000 0.010670
#
#
# Mechanical properties :
#
#
# Convention : Reuss Voigt Hill
#
# Bulk Modulus (GPa) = 71.66036 74.73416 73.19726
# Shear Modulus (GPa) = 95.94818 39.07418 67.51118
#
# Velocity S-wave (km/s) = 6.71980 4.28827 5.63671
# Velocity P-wave (km/s) = 9.69189 7.72599 8.76423
#
# Compressibility (1/GPa) = 0.01395472
#
# Stress axis : x y z
#
# Youngs Moduli (GPa) = 119.68885 68.78406 99.78715
#
# Poissons Ratio (x) = 0.28097 0.16710
# Poissons Ratio (y) = 0.48891 0.37126
# Poissons Ratio (z) = 0.20043 0.25591
#
# Static dielectric constant tensor:
#      x y z
#    x 1.824430 0.000000 0.000000 
#    y 0.000000 1.588670 0.000000 
#    z 0.000000 0.000000 1.765830 
# 
# From -- ./inp_files/8830.got.cif
#   From: 2010.05.17/outbox.cif.g08.bks.cpg/sg16_5_cif.got.tgz:8830.got - 2010.06.03 22:28:35.
