data_PCOD9310179
_publ_section_title
;
Structure prediction by ZEFSAII (Michael W. Deem and Ramdas Pophale) SiO2 
 PCOD9310179
Probable space group: P 2 2 2
;
_chemical_formula_sum "Si O2"
_cell_formula_units_Z 25
_cell_length_a 11.516115
_cell_length_b 10.488530
_cell_length_c 8.263487
_cell_angle_alpha 90.000000
_cell_angle_beta 90.000000
_cell_angle_gamma 90.000000
_cell_volume 998.122777
_symmetry_space_group_name_H-M "P 2 2 2"
_symmetry_group_IT_number 16
_symmetry_cell_setting 'orthorhombic'
loop_
_space_group_symop_operation_xyz
x,y,z
-x,-y,z
x,-y,-z
-x,y,-z
loop_
_atom_site_type_symbol
_atom_site_label
_atom_site_fract_x
_atom_site_fract_y
_atom_site_fract_z
Si Si1 0.352130 0.089190 0.224268
Si Si2 0.327893 0.191621 0.881249
Si Si3 0.052120 0.143436 0.835462
Si Si4 0.852109 0.783026 0.350828
Si Si5 0.295852 0.376837 0.602494
Si Si6 0.864741 0.530446 0.171817
Si Si7 0.500000 0.000000 0.500000
O O1 0.218231 0.096368 0.283545
O O2 0.377681 0.945563 0.169191
O O3 0.425522 0.095445 0.387833
O O4 0.361943 0.188165 0.073508
O O5 0.188361 0.170264 0.856621
O O6 0.361569 0.301610 0.750511
O O7 0.990600 0.194620 0.671183
O O8 0.000000 0.000000 0.839709
O O9 0.000000 0.204982 0.000000
O O10 0.771742 0.728315 0.494129
O O11 0.837667 0.672228 0.219536
O O12 0.348796 0.500000 0.500000
O O13 0.190479 0.445120 0.692375
O O14 0.000000 0.500000 0.168278
O O15 0.810678 0.500000 0.000000
#
# Coordination Sequence:
#
# PCOD9310179 Si02
#       7
#     4   4   4   4   4   4   1
#     4  11  23  43  67 101 129 186 231 311 384 448
#     4  11  21  39  68  94 140 185 246 288 364 474
#     4  11  19  34  57  95 134 191 236 280 344 444
#     4  11  21  36  61  90 141 183 236 287 351 426
#     4  10  23  38  53  88 134 185 242 296 341 409
#     4  10  21  34  54  83 126 187 238 279 336 413
#     4  12  28  46  68  98 146 166 252 328 416 470
#
# _framework density 25.047018000000001
#
# number of rings (size 3 to 8) (size 9 to 14) (size 15 to 20)
#    0.000    1.280    3.200    3.840    2.240    7.360 
#    0.000    0.800    0.000    0.000    0.000   35.840 
#    0.000   81.920    0.000    0.000    0.000    0.000 
#
# Total GULP energy -139241.521017 kJ/mol
# GULP energy per Si atom -5569.660841 kJ/mol
# Density = 2.499001 g / cm^3
# Si number density = 25.047018 Si / 1000 Ang^3
#
#
#
# Elastic Constant Matrix: (Units=GPa)
#
#
# Indices 1 2 3 4 5 6 
#
# 1 81.6252 10.8039 40.7546 0.0000 0.0000 0.0000
# 2 10.8039 86.9036 42.4070 0.0000 0.0000 0.0000
# 3 40.7546 42.4070 167.1337 0.0000 0.0000 0.0000
# 4 0.0000 0.0000 0.0000 53.4444 0.0000 0.0000
# 5 0.0000 0.0000 0.0000 0.0000 136.4090 0.0000
# 6 0.0000 0.0000 0.0000 0.0000 0.0000 63.6125
#
#
#
# Elastic Compliance Matrix: (Units=1/GPa)
#
#
# Indices 1 2 3 4 5 6 
#
# 1 0.013950 -0.000085 -0.003380 0.000000 0.000000 0.000000
# 2 -0.000085 0.013134 -0.003312 0.000000 0.000000 0.000000
# 3 -0.003380 -0.003312 0.007648 0.000000 0.000000 0.000000
# 4 0.000000 0.000000 0.000000 0.018711 0.000000 0.000000
# 5 0.000000 0.000000 0.000000 0.000000 0.007331 0.000000
# 6 0.000000 0.000000 0.000000 0.000000 0.000000 0.015720
#
#
# Mechanical properties :
#
#
# Convention : Reuss Voigt Hill
#
# Bulk Modulus (GPa) = 47.21881 58.17704 52.69793
# Shear Modulus (GPa) = 51.49008 66.80631 59.14819
#
# Velocity S-wave (km/s) = 4.53894 5.17013 4.86478
# Velocity P-wave (km/s) = 6.80899 7.67580 7.25535
#
# Compressibility (1/GPa) = 0.02117800
#
# Stress axis : x y z
#
# Youngs Moduli (GPa) = 71.68464 76.14059 130.75769
#
# Poissons Ratio (x) = 0.00646 0.44197
# Poissons Ratio (y) = 0.00608 0.43303
# Poissons Ratio (z) = 0.24230 0.25216
#
# Static dielectric constant tensor:
#      x y z
#    x 2.128810 0.000000 0.000000 
#    y 0.000000 1.111990 0.000000 
#    z 0.000000 0.000000 2.000250 
# 
# From -- ./inp_files/4750.got.cif
#   From: 2010.05.17/outbox.cif.g08.bks.cpg/sg16_3_cif.got.tgz:4750.got - 2010.06.03 22:28:35.
