data_PCOD9310713
_publ_section_title
;
Structure prediction by ZEFSAII (Michael W. Deem and Ramdas Pophale) SiO2 
 PCOD9310713
Probable space group: P 2 2 21
;
_chemical_formula_sum "Si O2"
_cell_formula_units_Z 26
_cell_length_a 8.538059
_cell_length_b 7.995550
_cell_length_c 18.629912
_cell_angle_alpha 90.000000
_cell_angle_beta 90.000000
_cell_angle_gamma 90.000000
_cell_volume 1271.798471
_symmetry_space_group_name_H-M "P 2 2 21"
_symmetry_group_IT_number 17
_symmetry_cell_setting 'orthorhombic'
loop_
_space_group_symop_operation_xyz
x,y,z
-x,-y,1/2+z
x,-y,-z
-x,y,1/2-z
loop_
_atom_site_type_symbol
_atom_site_label
_atom_site_fract_x
_atom_site_fract_y
_atom_site_fract_z
Si Si1 0.098520 0.090493 0.628182
Si Si2 0.131886 0.200508 0.982975
Si Si3 0.621120 0.272142 0.803630
Si Si4 0.167509 0.549600 0.741374
Si Si5 0.517813 0.677826 0.462022
Si Si6 0.675254 0.000000 0.000000
Si Si7 0.027572 0.746659 0.860372
O O1 0.219368 0.171465 0.682331
O O2 0.988631 0.216036 0.583115
O O3 0.211055 0.006362 0.568234
O O4 0.990860 0.942111 0.656608
O O5 0.297916 0.280827 0.965078
O O6 0.061858 0.276393 0.056174
O O7 0.149822 0.000000 0.000000
O O8 0.500000 0.185373 0.750000
O O9 0.682053 0.439410 0.765490
O O10 0.544094 0.314220 0.880199
O O11 0.163001 0.668284 0.810714
O O12 0.000000 0.451389 0.750000
O O13 0.128559 0.656863 0.670080
O O14 0.487003 0.500000 0.500000
O O15 0.428784 0.832948 0.500037
#
# Coordination Sequence:
#
# PCOD9310713 Si02
#       7
#     4   4   4   4   4   2   4
#     4  10  20  40  72  92 125 172 220 287 337 392
#     4  10  19  40  68  98 128 161 226 291 326 397
#     4  11  26  44  57  95 143 174 213 276 340 408
#     4   8  21  40  62  86 123 173 215 268 306 413
#     4  11  26  39  68  98 133 183 219 276 350 402
#     4  10  20  42  62 100 138 158 216 286 338 404
#     4   8  18  39  68  93 113 165 225 266 335 370
#
# _framework density 20.443491000000002
#
# number of rings (size 3 to 8) (size 9 to 14) (size 15 to 20)
#    0.923    1.231    3.077    0.000    4.308    2.462 
#   13.846    1.538    0.000    0.000    0.000    0.000 
#    0.000    0.000    0.000    0.000    0.000    0.000 
#
# Total GULP energy -144939.618712 kJ/mol
# GULP energy per Si atom -5574.600720 kJ/mol
# Density = 2.039696 g / cm^3
# Si number density = 20.443491 Si / 1000 Ang^3
#
#
#
# Elastic Constant Matrix: (Units=GPa)
#
#
# Indices 1 2 3 4 5 6 
#
# 1 76.1248 32.9182 19.9155 0.0000 0.0000 0.0000
# 2 32.9182 69.0931 29.6038 0.0000 0.0000 0.0000
# 3 19.9155 29.6038 38.1148 0.0000 0.0000 0.0000
# 4 0.0000 0.0000 0.0000 31.9004 0.0000 0.0000
# 5 0.0000 0.0000 0.0000 0.0000 32.2582 0.0000
# 6 0.0000 0.0000 0.0000 0.0000 0.0000 21.6105
#
#
#
# Elastic Compliance Matrix: (Units=1/GPa)
#
#
# Indices 1 2 3 4 5 6 
#
# 1 0.016917 -0.006403 -0.003866 0.000000 0.000000 0.000000
# 2 -0.006403 0.024116 -0.015385 0.000000 0.000000 0.000000
# 3 -0.003866 -0.015385 0.040206 0.000000 0.000000 0.000000
# 4 0.000000 0.000000 0.000000 0.031348 0.000000 0.000000
# 5 0.000000 0.000000 0.000000 0.000000 0.031000 0.000000
# 6 0.000000 0.000000 0.000000 0.000000 0.000000 0.046274
#
#
# Mechanical properties :
#
#
# Convention : Reuss Voigt Hill
#
# Bulk Modulus (GPa) = 33.41082 38.68973 36.05027
# Shear Modulus (GPa) = 19.90887 23.88019 21.89453
#
# Velocity S-wave (km/s) = 3.12404 3.42147 3.27613
# Velocity P-wave (km/s) = 5.42138 5.88004 5.65536
#
# Compressibility (1/GPa) = 0.02993043
#
# Stress axis : x y z
#
# Youngs Moduli (GPa) = 59.11359 41.46654 24.87192
#
# Poissons Ratio (x) = 0.26552 0.09615
# Poissons Ratio (y) = 0.37852 0.38265
# Poissons Ratio (z) = 0.22852 0.63796
#
# Static dielectric constant tensor:
#      x y z
#    x 1.641620 0.000000 0.000000 
#    y 0.000000 1.772810 0.000000 
#    z 0.000000 0.000000 1.759210 
# 
# From -- ./inp_files/9467.got.cif
#   From: 2010.05.17/outbox.cif.g08.bks.cpg/sg17_5_cif.got.tgz:9467.got - 2010.06.03 22:34:06.
