data_PCOD9310923
_publ_section_title
;
Structure prediction by ZEFSAII (Michael W. Deem and Ramdas Pophale) SiO2 
 PCOD9310923
Probable space group: P 2 2 21
;
_chemical_formula_sum "Si O2"
_cell_formula_units_Z 18
_cell_length_a 16.427171
_cell_length_b 6.277274
_cell_length_c 7.563181
_cell_angle_alpha 90.000000
_cell_angle_beta 90.000000
_cell_angle_gamma 90.000000
_cell_volume 779.898990
_symmetry_space_group_name_H-M "P 2 2 21"
_symmetry_group_IT_number 17
_symmetry_cell_setting 'orthorhombic'
loop_
_space_group_symop_operation_xyz
x,y,z
-x,-y,1/2+z
x,-y,-z
-x,y,1/2-z
loop_
_atom_site_type_symbol
_atom_site_label
_atom_site_fract_x
_atom_site_fract_y
_atom_site_fract_z
Si Si1 0.647340 0.881517 0.189227
Si Si2 0.812223 0.100063 0.180350
Si Si3 0.143152 0.500000 0.500000
Si Si4 0.578973 0.500000 0.000000
Si Si5 0.000000 0.661206 0.250000
Si Si6 0.923863 0.000000 0.500000
Si Si7 0.500000 0.158252 0.250000
O O1 0.737082 0.954360 0.246478
O O2 0.575410 0.001678 0.292033
O O3 0.628902 0.634617 0.148371
O O4 0.644928 0.000000 0.000000
O O5 0.872759 0.101474 0.341458
O O6 0.797019 0.332097 0.098060
O O7 0.849073 0.000000 0.000000
O O8 0.079667 0.551580 0.338092
O O9 0.525241 0.681122 0.906097
O O10 0.972131 0.810595 0.410114
#
# Coordination Sequence:
#
# PCOD9310923 Si02
#       7
#     4   4   2   2   2   2   2
#     4   9  21  40  67  97 140 189 232 291 346 421
#     4  11  24  46  68 104 147 186 235 303 360 432
#     4  12  24  45  74 105 138 192 238 296 373 434
#     4  10  20  41  68  97 138 190 236 284 359 410
#     4  12  24  44  76 104 142 182 244 292 368 446
#     4  12  24  48  70 110 142 184 234 300 362 440
#     4  10  20  40  64 106 136 182 244 280 348 420
#
# _framework density 23.079913999999999
#
# number of rings (size 3 to 8) (size 9 to 14) (size 15 to 20)
#    0.000    1.333    2.222    3.333    0.000    8.000 
#   10.000    0.000    0.000    0.000    0.000    0.000 
#    0.000    0.000    0.000    0.000    0.000    0.000 
#
# Total GULP energy -100324.591638 kJ/mol
# GULP energy per Si atom -5573.588424 kJ/mol
# Density = 2.302738 g / cm^3
# Si number density = 23.079914 Si / 1000 Ang^3
#
#
#
# Elastic Constant Matrix: (Units=GPa)
#
#
# Indices 1 2 3 4 5 6 
#
# 1 94.0977 44.3832 38.0419 0.0000 0.0000 0.0000
# 2 44.3832 111.4773 21.1560 0.0000 0.0000 0.0000
# 3 38.0419 21.1560 81.2556 0.0000 0.0000 0.0000
# 4 0.0000 0.0000 0.0000 41.9421 0.0000 0.0000
# 5 0.0000 0.0000 0.0000 0.0000 27.7285 0.0000
# 6 0.0000 0.0000 0.0000 0.0000 0.0000 36.8835
#
#
#
# Elastic Compliance Matrix: (Units=1/GPa)
#
#
# Indices 1 2 3 4 5 6 
#
# 1 0.015368 -0.005000 -0.005893 0.000000 0.000000 0.000000
# 2 -0.005000 0.011064 -0.000540 0.000000 0.000000 0.000000
# 3 -0.005893 -0.000540 0.015206 0.000000 0.000000 0.000000
# 4 0.000000 0.000000 0.000000 0.023842 0.000000 0.000000
# 5 0.000000 0.000000 0.000000 0.000000 0.036064 0.000000
# 6 0.000000 0.000000 0.000000 0.000000 0.000000 0.027112
#
#
# Mechanical properties :
#
#
# Convention : Reuss Voigt Hill
#
# Bulk Modulus (GPa) = 53.27010 54.88810 54.07910
# Shear Modulus (GPa) = 31.68964 33.52745 32.60854
#
# Velocity S-wave (km/s) = 3.70947 3.81552 3.76287
# Velocity P-wave (km/s) = 6.44032 6.57604 6.50854
#
# Compressibility (1/GPa) = 0.01877226
#
# Stress axis : x y z
#
# Youngs Moduli (GPa) = 65.06938 90.38632 65.76196
#
# Poissons Ratio (x) = 0.45195 0.38754
# Poissons Ratio (y) = 0.32536 0.03548
# Poissons Ratio (z) = 0.38346 0.04877
#
# Static dielectric constant tensor:
#      x y z
#    x 2.049150 0.000000 0.000000 
#    y 0.000000 2.001220 0.000000 
#    z 0.000000 0.000000 1.842120 
# 
# From -- ./inp_files/3448.got.cif
#   From: 2010.05.17/outbox.cif.g08.bks.cpg/sg17_2_cif.got.tgz:3448.got - 2010.06.03 22:34:06.
