data_PCOD9310611
_publ_section_title
;
Structure prediction by ZEFSAII (Michael W. Deem and Ramdas Pophale) SiO2 
 PCOD9310611
Probable space group: P 2 2 21
;
_chemical_formula_sum "Si O2"
_cell_formula_units_Z 20
_cell_length_a 9.458436
_cell_length_b 8.979797
_cell_length_c 13.104458
_cell_angle_alpha 90.000000
_cell_angle_beta 90.000000
_cell_angle_gamma 90.000000
_cell_volume 1113.024981
_symmetry_space_group_name_H-M "P 2 2 21"
_symmetry_group_IT_number 17
_symmetry_cell_setting 'orthorhombic'
loop_
_space_group_symop_operation_xyz
x,y,z
-x,-y,1/2+z
x,-y,-z
-x,y,1/2-z
loop_
_atom_site_type_symbol
_atom_site_label
_atom_site_fract_x
_atom_site_fract_y
_atom_site_fract_z
Si Si1 0.143209 0.827256 0.709223
Si Si2 0.216307 0.674060 0.507231
Si Si3 0.287620 0.067965 0.808294
Si Si4 0.574551 0.877372 0.086296
Si Si5 0.992497 0.100501 0.593027
O O1 0.215689 0.728126 0.624360
O O2 0.000000 0.752596 0.750000
O O3 0.243314 0.893232 0.797290
O O4 0.084890 0.978259 0.654145
O O5 0.190493 0.500000 0.500000
O O6 0.364470 0.723972 0.457470
O O7 0.093568 0.770682 0.450186
O O8 0.351016 0.102737 0.696519
O O9 0.409580 0.104135 0.889049
O O10 0.142193 0.149365 0.840561
O O11 0.615983 0.000000 0.000000
O O12 0.934426 0.000000 0.500000
#
# Coordination Sequence:
#
# PCOD9310611 Si02
#       5
#     4   4   4   4   4
#     4   9  17  35  59  84 105 139 190 235 265 316
#     4  11  21  36  55  81 120 151 170 215 287 339
#     4  10  19  32  62  82 103 134 197 233 268 309
#     4  11  20  35  57  82 109 145 185 227 276 323
#     4   9  17  34  57  83 106 139 185 232 267 317
#
# _framework density 17.969045999999999
#
# number of rings (size 3 to 8) (size 9 to 14) (size 15 to 20)
#    0.000    2.000    4.000    1.200    0.000    0.000 
#    3.600    1.000    8.800    0.000    0.000    0.000 
#    0.000    0.000    0.000    0.000    0.000    0.000 
#
# Total GULP energy -111335.144528 kJ/mol
# GULP energy per Si atom -5566.757226 kJ/mol
# Density = 1.792815 g / cm^3
# Si number density = 17.969046 Si / 1000 Ang^3
#
#
#
# Elastic Constant Matrix: (Units=GPa)
#
#
# Indices 1 2 3 4 5 6 
#
# 1 101.3631 27.7593 30.6215 0.0000 0.0000 0.0000
# 2 27.7593 80.5505 25.5825 0.0000 0.0000 0.0000
# 3 30.6215 25.5825 70.7058 0.0000 0.0000 0.0000
# 4 0.0000 0.0000 0.0000 12.6018 0.0000 0.0000
# 5 0.0000 0.0000 0.0000 0.0000 37.1640 0.0000
# 6 0.0000 0.0000 0.0000 0.0000 0.0000 10.1248
#
#
#
# Elastic Compliance Matrix: (Units=1/GPa)
#
#
# Indices 1 2 3 4 5 6 
#
# 1 0.011877 -0.002779 -0.004138 0.000000 0.000000 0.000000
# 2 -0.002779 0.014676 -0.004107 0.000000 0.000000 0.000000
# 3 -0.004138 -0.004107 0.017421 0.000000 0.000000 0.000000
# 4 0.000000 0.000000 0.000000 0.079354 0.000000 0.000000
# 5 0.000000 0.000000 0.000000 0.000000 0.026908 0.000000
# 6 0.000000 0.000000 0.000000 0.000000 0.000000 0.098767
#
#
# Mechanical properties :
#
#
# Convention : Reuss Voigt Hill
#
# Bulk Modulus (GPa) = 45.60592 46.72735 46.16663
# Shear Modulus (GPa) = 17.96243 23.22187 20.59215
#
# Velocity S-wave (km/s) = 3.16513 3.59879 3.38890
# Velocity P-wave (km/s) = 6.22838 6.58249 6.40788
#
# Compressibility (1/GPa) = 0.02192698
#
# Stress axis : x y z
#
# Youngs Moduli (GPa) = 84.19902 68.13632 57.40136
#
# Poissons Ratio (x) = 0.18933 0.23754
# Poissons Ratio (y) = 0.23396 0.23574
# Poissons Ratio (z) = 0.34843 0.27982
#
# Static dielectric constant tensor:
#      x y z
#    x 1.691840 0.000000 0.000000 
#    y 0.000000 1.581190 0.000000 
#    z 0.000000 0.000000 1.714870 
# 
# From -- ./inp_files/7920.got.cif
#   From: 2010.05.17/outbox.cif.g08.bks.cpg/sg17_4_cif.got.tgz:7920.got - 2010.06.03 22:34:06.
