data_PCOD9310538
_publ_section_title
;
Structure prediction by ZEFSAII (Michael W. Deem and Ramdas Pophale) SiO2 
 PCOD9310538
Probable space group: P 2 2 21
;
_chemical_formula_sum "Si O2"
_cell_formula_units_Z 26
_cell_length_a 7.849093
_cell_length_b 6.186298
_cell_length_c 26.221639
_cell_angle_alpha 90.000000
_cell_angle_beta 90.000000
_cell_angle_gamma 90.000000
_cell_volume 1273.239623
_symmetry_space_group_name_H-M "P 2 2 21"
_symmetry_group_IT_number 17
_symmetry_cell_setting 'orthorhombic'
loop_
_space_group_symop_operation_xyz
x,y,z
-x,-y,1/2+z
x,-y,-z
-x,y,1/2-z
loop_
_atom_site_type_symbol
_atom_site_label
_atom_site_fract_x
_atom_site_fract_y
_atom_site_fract_z
Si Si1 0.594872 0.174502 0.538141
Si Si2 0.666867 0.500000 0.000000
Si Si3 0.329882 0.036167 0.618485
Si Si4 0.318275 0.218706 0.277818
Si Si5 0.875232 0.408172 0.828209
Si Si6 0.839408 0.500000 0.500000
Si Si7 0.911942 0.312890 0.077385
Si Si8 0.000000 0.918073 0.250000
O O1 0.442915 0.286943 0.506654
O O2 0.502885 0.077346 0.587278
O O3 0.729431 0.367651 0.541504
O O4 0.670119 0.000000 0.500000
O O5 0.773304 0.468152 0.050783
O O6 0.257295 0.257117 0.641542
O O7 0.356840 0.877094 0.666078
O O8 0.180023 0.916594 0.586140
O O9 0.500000 0.229555 0.250000
O O10 0.227832 0.449085 0.287086
O O11 0.171201 0.064402 0.253301
O O12 0.957706 0.576759 0.868486
O O13 0.997103 0.240259 0.799058
O O14 0.944750 0.669511 0.534196
#
# Coordination Sequence:
#
# PCOD9310538 Si02
#       8
#     4   2   4   4   4   2   4   2
#     4  11  21  38  58  90 128 165 203 256 308 367
#     4  10  18  34  64  82 118 168 204 244 296 364
#     4  10  21  38  66  90 119 170 218 247 312 390
#     4  10  23  42  65  95 126 160 211 270 327 387
#     4  10  21  39  66  90 123 164 213 259 321 385
#     4  10  26  36  56  96 134 156 204 266 314 346
#     4  10  20  39  59  91 120 168 210 250 304 379
#     4  10  22  42  64  96 122 164 210 266 326 386
#
# _framework density 20.420349999999999
#
# number of rings (size 3 to 8) (size 9 to 14) (size 15 to 20)
#    0.000    1.846    3.077    0.462    0.000    4.923 
#    0.000    9.231    0.000    0.000    0.000    0.000 
#    0.000    0.000    0.000    0.000    0.000    0.000 
#
# Total GULP energy -144857.958295 kJ/mol
# GULP energy per Si atom -5571.459934 kJ/mol
# Density = 2.037387 g / cm^3
# Si number density = 20.420350 Si / 1000 Ang^3
#
#
#
# Elastic Constant Matrix: (Units=GPa)
#
#
# Indices 1 2 3 4 5 6 
#
# 1 96.9108 42.9578 49.2640 0.0000 0.0000 0.0000
# 2 42.9578 94.4268 27.5038 0.0000 0.0000 0.0000
# 3 49.2640 27.5038 75.0457 0.0000 0.0000 0.0000
# 4 0.0000 0.0000 0.0000 35.7103 0.0000 0.0000
# 5 0.0000 0.0000 0.0000 0.0000 -9.5060 0.0000
# 6 0.0000 0.0000 0.0000 0.0000 0.0000 1.8817
#
#
#
# Elastic Compliance Matrix: (Units=1/GPa)
#
#
# Indices 1 2 3 4 5 6 
#
# 1 0.017477 -0.005160 -0.009582 0.000000 0.000000 0.000000
# 2 -0.005160 0.013379 -0.001516 0.000000 0.000000 0.000000
# 3 -0.009582 -0.001516 0.020171 0.000000 0.000000 0.000000
# 4 0.000000 0.000000 0.000000 0.028003 0.000000 0.000000
# 5 0.000000 0.000000 0.000000 0.000000 -0.105197 0.000000
# 6 0.000000 0.000000 0.000000 0.000000 0.000000 0.531424
#
#
# Mechanical properties :
#
#
# Convention : Reuss Voigt Hill
#
# Bulk Modulus (GPa) = 54.02078 56.20384 55.11231
# Shear Modulus (GPa) = 9.19214 15.39440 12.29327
#
# Velocity S-wave (km/s) = 2.12397 2.74866 2.45625
# Velocity P-wave (km/s) = 5.70323 6.13650 5.92383
#
# Compressibility (1/GPa) = 0.01851139
#
# Stress axis : x y z
#
# Youngs Moduli (GPa) = 57.21882 74.74268 49.57671
#
# Poissons Ratio (x) = 0.38567 0.47502
# Poissons Ratio (y) = 0.29524 0.07517
# Poissons Ratio (z) = 0.54825 0.11332
#
# Static dielectric constant tensor:
#      x y z
#    x 1.736480 0.000000 0.000000 
#    y 0.000000 1.855890 0.000000 
#    z 0.000000 0.000000 1.755820 
# 
# From -- ./inp_files/10591.got.cif
#   From: 2010.05.17/outbox.cif.g08.bks.cpg/sg17_6_cif.got.tgz:10591.got - 2010.06.03 22:34:06.
