data_PCOD9310285
_publ_section_title
;
Structure prediction by ZEFSAII (Michael W. Deem and Ramdas Pophale) SiO2 
 PCOD9310285
Probable space group: P 2 2 2
;
_chemical_formula_sum "Si O2"
_cell_formula_units_Z 19
_cell_length_a 6.510671
_cell_length_b 5.138317
_cell_length_c 24.520328
_cell_angle_alpha 90.000000
_cell_angle_beta 90.000000
_cell_angle_gamma 90.000000
_cell_volume 820.300392
_symmetry_space_group_name_H-M "P 2 2 2"
_symmetry_group_IT_number 16
_symmetry_cell_setting 'orthorhombic'
loop_
_space_group_symop_operation_xyz
x,y,z
-x,-y,z
x,-y,-z
-x,y,-z
loop_
_atom_site_type_symbol
_atom_site_label
_atom_site_fract_x
_atom_site_fract_y
_atom_site_fract_z
Si Si1 0.000000 0.000000 0.500000
Si Si2 0.500000 0.500000 0.500000
Si Si3 0.850086 0.752409 0.927700
Si Si4 0.500000 0.500000 0.000000
Si Si5 0.282664 0.119472 0.583620
Si Si6 0.363181 0.745157 0.306416
Si Si7 0.861168 0.249658 0.194352
O O1 0.842556 0.090002 0.547621
O O2 0.347462 0.341138 0.540506
O O3 0.767257 0.794879 0.865647
O O4 0.000000 0.500000 0.930849
O O5 0.654482 0.683051 0.964954
O O6 0.000000 0.000000 0.939526
O O7 0.205553 0.208664 0.642832
O O8 0.500000 0.000000 0.597562
O O9 0.500000 0.500000 0.324000
O O10 0.271325 0.690883 0.247359
O O11 0.500000 0.000000 0.296977
O O12 0.000000 0.500000 0.186574
O O13 0.000000 0.000000 0.207297
#
# Coordination Sequence:
#
# PCOD9310285 Si02
#       7
#     1   1   4   1   4   4   4
#     4  12  22  42  64  86 122 172 222 262 346 428
#     4  12  18  46  58  78 130 168 194 272 338 388
#     4  10  25  47  72 108 153 188 242 303 354 422
#     4  12  26  46  82 108 148 210 246 292 376 456
#     4  11  24  42  61  90 130 163 213 278 336 398
#     4  11  24  42  68  96 131 172 222 279 340 408
#     4  10  22  45  69 100 139 177 224 294 343 402
#
# _framework density 23.162248000000002
#
# number of rings (size 3 to 8) (size 9 to 14) (size 15 to 20)
#    0.000    1.263    3.158    1.579    2.947    3.789 
#    3.789    0.000    0.000    0.000    0.000    0.000 
#    0.000    0.000    0.000    0.000    0.000    0.000 
#
# Total GULP energy -105774.044057 kJ/mol
# GULP energy per Si atom -5567.054950 kJ/mol
# Density = 2.310953 g / cm^3
# Si number density = 23.162248 Si / 1000 Ang^3
#
#
#
# Elastic Constant Matrix: (Units=GPa)
#
#
# Indices 1 2 3 4 5 6 
#
# 1 64.9718 11.8932 60.3536 0.0000 0.0000 0.0000
# 2 11.8932 118.0898 10.4954 0.0000 0.0000 0.0000
# 3 60.3536 10.4954 215.8265 0.0000 0.0000 0.0000
# 4 0.0000 0.0000 0.0000 24.2893 0.0000 0.0000
# 5 0.0000 0.0000 0.0000 0.0000 933.2822 0.0000
# 6 0.0000 0.0000 0.0000 0.0000 0.0000 13.9743
#
#
#
# Elastic Compliance Matrix: (Units=1/GPa)
#
#
# Indices 1 2 3 4 5 6 
#
# 1 0.021092 -0.001607 -0.005820 0.000000 0.000000 0.000000
# 2 -0.001607 0.008627 0.000030 0.000000 0.000000 0.000000
# 3 -0.005820 0.000030 0.006259 0.000000 0.000000 0.000000
# 4 0.000000 0.000000 0.000000 0.041170 0.000000 0.000000
# 5 0.000000 0.000000 0.000000 0.000000 0.001071 0.000000
# 6 0.000000 0.000000 0.000000 0.000000 0.000000 0.071560
#
#
# Mechanical properties :
#
#
# Convention : Reuss Voigt Hill
#
# Bulk Modulus (GPa) = 47.20480 62.70807 54.95643
# Shear Modulus (GPa) = 29.13150 215.38556 122.25853
#
# Velocity S-wave (km/s) = 3.55027 9.65359 7.27311
# Velocity P-wave (km/s) = 6.10166 12.30398 9.71129
#
# Compressibility (1/GPa) = 0.02118429
#
# Stress axis : x y z
#
# Youngs Moduli (GPa) = 47.41206 115.91084 159.76025
#
# Poissons Ratio (x) = 0.18626 0.92979
# Poissons Ratio (y) = 0.07619 -0.00477
# Poissons Ratio (z) = 0.27593 -0.00346
#
# Static dielectric constant tensor:
#      x y z
#    x 1.939970 0.000000 0.000000 
#    y 0.000000 1.644500 0.000000 
#    z 0.000000 0.000000 1.968890 
# 
# From -- ./inp_files/2801.got.cif
#   From: 2010.05.17/outbox.cif.g08.bks.cpg/sg16_2_cif.got.tgz:2801.got - 2010.06.03 22:28:35.
