data_PCOD9310579
_publ_section_title
;
Structure prediction by ZEFSAII (Michael W. Deem and Ramdas Pophale) SiO2 
 PCOD9310579
Probable space group: P 2 2 21
;
_chemical_formula_sum "Si O2"
_cell_formula_units_Z 18
_cell_length_a 7.055328
_cell_length_b 22.521653
_cell_length_c 5.376852
_cell_angle_alpha 90.000000
_cell_angle_beta 90.000000
_cell_angle_gamma 90.000000
_cell_volume 854.369142
_symmetry_space_group_name_H-M "P 2 2 21"
_symmetry_group_IT_number 17
_symmetry_cell_setting 'orthorhombic'
loop_
_space_group_symop_operation_xyz
x,y,z
-x,-y,1/2+z
x,-y,-z
-x,y,1/2-z
loop_
_atom_site_type_symbol
_atom_site_label
_atom_site_fract_x
_atom_site_fract_y
_atom_site_fract_z
Si Si1 0.629788 0.194196 1.000000
Si Si2 0.209394 0.680889 0.500000
Si Si3 0.782666 0.370767 0.500000
Si Si4 0.628621 0.936215 1.000000
Si Si5 0.371269 0.500000 0.000000
O O1 0.500000 0.198902 0.250000
O O2 0.776825 0.248292 1.000000
O O3 0.724036 0.128552 0.000000
O O4 0.500000 0.198902 0.750000
O O5 0.300169 0.655918 0.250829
O O6 0.998501 0.653303 0.500000
O O7 0.300169 0.655918 0.749171
O O8 0.756944 0.441074 0.500000
O O9 0.500000 0.936338 0.750000
O O10 0.500000 0.936338 0.250000
O O11 0.734458 0.000000 0.000000
O O12 0.500000 0.500000 0.750000
#
# Coordination Sequence:
#
# PCOD9310579 Si02
#       5
#     4   4   4   4   2
#     4  10  19  30  50  80 110 141 181 225 260 296
#     4  10  21  37  57  79 108 144 178 212 258 319
#     4  10  23  40  58  79 105 141 173 209 263 327
#     4   8  14  25  41  66 103 141 175 215 261 302
#     4  12  26  42  62  86 106 128 168 222 272 320
#
# _framework density 21.068176000000001
#
# number of rings (size 3 to 8) (size 9 to 14) (size 15 to 20)
#    0.000    2.222    0.000    2.667    0.000    8.889 
#    0.000    0.000    0.000    0.000    0.000    6.222 
#    0.000    0.000    0.000    0.000    0.000    0.444 
#
# Total GULP energy -100292.646271 kJ/mol
# GULP energy per Si atom -5571.813682 kJ/mol
# Density = 2.102022 g / cm^3
# Si number density = 21.068176 Si / 1000 Ang^3
#
#
#
# Elastic Constant Matrix: (Units=GPa)
#
#
# Indices 1 2 3 4 5 6 
#
# 1 96.9563 52.6283 16.5451 0.0000 0.0000 0.0000
# 2 52.6283 291.3881 36.9132 0.0000 0.0000 0.0000
# 3 16.5451 36.9132 205.5942 0.0000 0.0000 0.0000
# 4 0.0000 0.0000 0.0000 34.0552 0.0000 0.0000
# 5 0.0000 0.0000 0.0000 0.0000 -29.0019 0.0000
# 6 0.0000 0.0000 0.0000 0.0000 0.0000 44.2341
#
#
#
# Elastic Compliance Matrix: (Units=1/GPa)
#
#
# Indices 1 2 3 4 5 6 
#
# 1 0.011499 -0.002005 -0.000565 0.000000 0.000000 0.000000
# 2 -0.002005 0.003861 -0.000532 0.000000 0.000000 0.000000
# 3 -0.000565 -0.000532 0.005005 0.000000 0.000000 0.000000
# 4 0.000000 0.000000 0.000000 0.029364 0.000000 0.000000
# 5 0.000000 0.000000 0.000000 0.000000 -0.034481 0.000000
# 6 0.000000 0.000000 0.000000 0.000000 0.000000 0.022607
#
#
# Mechanical properties :
#
#
# Convention : Reuss Voigt Hill
#
# Bulk Modulus (GPa) = 70.62032 89.56800 80.09416
# Shear Modulus (GPa) = 102.49935 42.38094 72.44014
#
# Velocity S-wave (km/s) = 6.98261 4.48996 5.87012
# Velocity P-wave (km/s) = 9.92985 8.33579 9.16753
#
# Compressibility (1/GPa) = 0.01416023
#
# Stress axis : x y z
#
# Youngs Moduli (GPa) = 86.96529 258.97342 199.80220
#
# Poissons Ratio (x) = 0.51930 0.11296
# Poissons Ratio (y) = 0.17438 0.10628
# Poissons Ratio (z) = 0.04917 0.13775
#
# Static dielectric constant tensor:
#      x y z
#    x 1.671900 0.000000 0.000000 
#    y 0.000000 1.787520 0.000000 
#    z 0.000000 0.000000 1.783110 
# 
# From -- ./inp_files/847.got.cif
#   From: 2010.05.17/outbox.cif.g08.bks.cpg/sg17_1_cif.got.tgz:847.got - 2010.06.03 22:34:06.
