data_PCOD9310982
_publ_section_title
;
Structure prediction by ZEFSAII (Michael W. Deem and Ramdas Pophale) SiO2 
 PCOD9310982
Probable space group: P 2 2 21
;
_chemical_formula_sum "Si O2"
_cell_formula_units_Z 32
_cell_length_a 9.486539
_cell_length_b 16.569383
_cell_length_c 10.268393
_cell_angle_alpha 90.000000
_cell_angle_beta 90.000000
_cell_angle_gamma 90.000000
_cell_volume 1614.048629
_symmetry_space_group_name_H-M "P 2 2 21"
_symmetry_group_IT_number 17
_symmetry_cell_setting 'orthorhombic'
loop_
_space_group_symop_operation_xyz
x,y,z
-x,-y,1/2+z
x,-y,-z
-x,y,1/2-z
loop_
_atom_site_type_symbol
_atom_site_label
_atom_site_fract_x
_atom_site_fract_y
_atom_site_fract_z
Si Si1 0.344206 0.321356 0.301659
Si Si2 0.295227 0.773811 0.150652
Si Si3 0.150328 0.179241 0.227023
Si Si4 0.878352 0.908031 0.457034
Si Si5 0.865175 0.442451 0.338923
Si Si6 0.605470 0.237516 0.941464
Si Si7 0.890693 0.382276 0.626099
Si Si8 0.194968 0.090318 0.484473
O O1 0.500000 0.332846 0.250000
O O2 0.279296 0.237404 0.251515
O O3 0.246095 0.387638 0.235857
O O4 0.351147 0.307904 0.457740
O O5 0.344110 0.748912 0.294904
O O6 0.436940 0.775039 0.063466
O O7 0.190233 0.702003 0.112235
O O8 0.216625 0.860912 0.148163
O O9 0.152653 0.144947 0.084253
O O10 0.152835 0.108525 0.334647
O O11 0.000000 0.223299 0.250000
O O12 0.047460 0.902953 0.435495
O O13 0.846125 0.000000 0.500000
O O14 0.925853 0.404669 0.474597
O O15 0.805607 0.534266 0.347533
O O16 0.000000 0.450707 0.250000
O O17 0.689549 0.156661 0.981193
O O18 0.000000 0.373282 0.750000
O O19 0.248717 0.000000 0.500000
#
# Coordination Sequence:
#
# PCOD9310982 Si02
#       8
#     4   4   4   4   4   4   4   4
#     4  11  21  38  65  90 119 164 212 258 319 374
#     4  11  24  42  60  87 132 164 214 261 316 393
#     4   9  18  34  54  83 114 148 198 255 302 365
#     4  10  21  35  59  89 115 157 207 253 311 371
#     4  10  22  41  66  96 129 160 217 267 312 387
#     4  10  24  40  59  91 124 172 208 257 322 384
#     4  10  23  41  67  96 129 170 208 264 327 372
#     4   9  20  36  58  85 120 154 205 260 312 366
#
# _framework density 19.825921999999998
#
# number of rings (size 3 to 8) (size 9 to 14) (size 15 to 20)
#    0.000    2.000    0.000    2.625    5.250    1.500 
#    2.250    0.000    0.000    0.000    0.000    0.000 
#    0.000    0.000    0.000    0.000    0.000    0.000 
#
# Total GULP energy -178226.015667 kJ/mol
# GULP energy per Si atom -5569.562990 kJ/mol
# Density = 1.978080 g / cm^3
# Si number density = 19.825922 Si / 1000 Ang^3
#
#
#
# Elastic Constant Matrix: (Units=GPa)
#
#
# Indices 1 2 3 4 5 6 
#
# 1 62.4035 30.1142 18.2493 0.0000 0.0000 0.0000
# 2 30.1142 93.5085 15.4645 0.0000 0.0000 0.0000
# 3 18.2493 15.4645 77.1855 0.0000 0.0000 0.0000
# 4 0.0000 0.0000 0.0000 16.4605 0.0000 0.0000
# 5 0.0000 0.0000 0.0000 0.0000 27.1663 0.0000
# 6 0.0000 0.0000 0.0000 0.0000 0.0000 -879.3801
#
#
#
# Elastic Compliance Matrix: (Units=1/GPa)
#
#
# Indices 1 2 3 4 5 6 
#
# 1 0.019863 -0.005813 -0.003532 0.000000 0.000000 0.000000
# 2 -0.005813 0.012762 -0.001183 0.000000 0.000000 0.000000
# 3 -0.003532 -0.001183 0.014028 0.000000 0.000000 0.000000
# 4 0.000000 0.000000 0.000000 0.060752 0.000000 0.000000
# 5 0.000000 0.000000 0.000000 0.000000 0.036810 0.000000
# 6 0.000000 0.000000 0.000000 0.000000 0.000000 -0.001137
#
#
# Mechanical properties :
#
#
# Convention : Reuss Voigt Hill
#
# Bulk Modulus (GPa) = 39.06493 40.08372 39.57433
# Shear Modulus (GPa) = 28.95812 -155.86605 -63.45396
#
# Velocity S-wave (km/s) = 3.82595 -8.87626 -5.66348
# Velocity P-wave (km/s) = 6.26609 9.20809 4.77100
#
# Compressibility (1/GPa) = 0.02559841
#
# Stress axis : x y z
#
# Youngs Moduli (GPa) = 50.34602 78.35925 71.28735
#
# Poissons Ratio (x) = 0.45547 0.25176
# Poissons Ratio (y) = 0.29264 0.08430
# Poissons Ratio (z) = 0.17780 0.09267
#
# Static dielectric constant tensor:
#      x y z
#    x 1.698480 0.000000 0.000000 
#    y 0.000000 1.715570 0.000000 
#    z 0.000000 0.000000 2.352570 
# 
# From -- ./inp_files/6724.got.cif
#   From: 2010.05.17/outbox.cif.g08.bks.cpg/sg17_4_cif.got.tgz:6724.got - 2010.06.03 22:34:06.
