data_PCOD9310120
_publ_section_title
;
Structure prediction by ZEFSAII (Michael W. Deem and Ramdas Pophale) SiO2 
 PCOD9310120
Probable space group: P 2 2 2
;
_chemical_formula_sum "Si O2"
_cell_formula_units_Z 24
_cell_length_a 9.479774
_cell_length_b 10.881383
_cell_length_c 11.221082
_cell_angle_alpha 90.000000
_cell_angle_beta 90.000000
_cell_angle_gamma 90.000000
_cell_volume 1157.488851
_symmetry_space_group_name_H-M "P 2 2 2"
_symmetry_group_IT_number 16
_symmetry_cell_setting 'orthorhombic'
loop_
_space_group_symop_operation_xyz
x,y,z
-x,-y,z
x,-y,-z
-x,y,-z
loop_
_atom_site_type_symbol
_atom_site_label
_atom_site_fract_x
_atom_site_fract_y
_atom_site_fract_z
Si Si1 0.468510 0.195624 0.634676
Si Si2 0.156318 0.541635 0.860154
Si Si3 0.707244 0.007396 0.720681
Si Si4 0.909876 0.819905 0.169855
Si Si5 0.225191 0.833637 0.082739
Si Si6 0.601139 0.388562 0.169729
O O1 0.500000 0.230120 0.500000
O O2 0.590272 0.106876 0.686234
O O3 0.461275 0.309718 0.723296
O O4 0.326272 0.110382 0.637290
O O5 0.157674 0.684299 0.828038
O O6 0.264718 0.464047 0.785030
O O7 0.000000 0.500000 0.836520
O O8 0.181734 0.500000 0.000000
O O9 0.851916 0.084760 0.732619
O O10 0.691749 0.940456 0.849180
O O11 0.079669 0.809697 0.158902
O O12 0.842981 0.863701 0.043911
O O13 0.330885 0.715892 0.082006
O O14 0.500000 0.500000 0.126992
#
# Coordination Sequence:
#
# PCOD9310120 Si02
#       6
#     4   4   4   4   4   4
#     4  10  23  45  63  79 113 157 209 271 325 371
#     4  11  19  36  58  87 133 176 199 232 290 370
#     4  10  20  35  60  89 109 150 210 253 301 360
#     4  11  19  35  59  88 128 174 195 234 302 371
#     4  10  20  36  56  89 131 167 202 235 295 382
#     4  11  22  38  59  95 117 165 215 244 304 361
#
# _framework density 20.734541
#
# number of rings (size 3 to 8) (size 9 to 14) (size 15 to 20)
#    0.000    1.500    3.333    4.000    0.000    2.000 
#    3.000   13.333    0.000   17.000    4.333    0.000 
#    0.000    0.000    0.000    0.000    0.000    0.000 
#
# Total GULP energy -133602.255404 kJ/mol
# GULP energy per Si atom -5566.760642 kJ/mol
# Density = 2.068735 g / cm^3
# Si number density = 20.734541 Si / 1000 Ang^3
#
#
#
# Elastic Constant Matrix: (Units=GPa)
#
#
# Indices 1 2 3 4 5 6 
#
# 1 72.0527 27.4537 30.6468 0.0000 0.0000 0.0000
# 2 27.4537 102.1812 15.3563 0.0000 0.0000 0.0000
# 3 30.6468 15.3563 50.7595 0.0000 0.0000 0.0000
# 4 0.0000 0.0000 0.0000 -9.6383 0.0000 0.0000
# 5 0.0000 0.0000 0.0000 0.0000 13.1632 0.0000
# 6 0.0000 0.0000 0.0000 0.0000 0.0000 26.3377
#
#
#
# Elastic Compliance Matrix: (Units=1/GPa)
#
#
# Indices 1 2 3 4 5 6 
#
# 1 0.019936 -0.003716 -0.010913 0.000000 0.000000 0.000000
# 2 -0.003716 0.010945 -0.001068 0.000000 0.000000 0.000000
# 3 -0.010913 -0.001068 0.026612 0.000000 0.000000 0.000000
# 4 0.000000 0.000000 0.000000 -0.103753 0.000000 0.000000
# 5 0.000000 0.000000 0.000000 0.000000 0.075969 0.000000
# 6 0.000000 0.000000 0.000000 0.000000 0.000000 0.037968
#
#
# Mechanical properties :
#
#
# Convention : Reuss Voigt Hill
#
# Bulk Modulus (GPa) = 38.31243 41.32301 39.81772
# Shear Modulus (GPa) = 46.39410 16.07495 31.23453
#
# Velocity S-wave (km/s) = 4.73538 2.78740 3.88545
# Velocity P-wave (km/s) = 6.95817 5.50747 6.27489
#
# Compressibility (1/GPa) = 0.02610119
#
# Stress axis : x y z
#
# Youngs Moduli (GPa) = 50.15979 91.36196 37.57665
#
# Poissons Ratio (x) = 0.33954 0.41006
# Poissons Ratio (y) = 0.18641 0.04011
# Poissons Ratio (z) = 0.54737 0.09753
#
# Static dielectric constant tensor:
#      x y z
#    x 1.856820 0.000000 0.000000 
#    y 0.000000 1.819880 0.000000 
#    z 0.000000 0.000000 1.753550 
# 
# From -- ./inp_files/6506.got.cif
#   From: 2010.05.17/outbox.cif.g08.bks.cpg/sg16_4_cif.got.tgz:6506.got - 2010.06.03 22:28:35.
