data_PCOD9310154
_publ_section_title
;
Structure prediction by ZEFSAII (Michael W. Deem and Ramdas Pophale) SiO2 
 PCOD9310154
Probable space group: P 2 2 2
;
_chemical_formula_sum "Si O2"
_cell_formula_units_Z 32
_cell_length_a 9.078188
_cell_length_b 11.822349
_cell_length_c 14.032552
_cell_angle_alpha 90.000000
_cell_angle_beta 90.000000
_cell_angle_gamma 90.000000
_cell_volume 1506.050755
_symmetry_space_group_name_H-M "P 2 2 2"
_symmetry_group_IT_number 16
_symmetry_cell_setting 'orthorhombic'
loop_
_space_group_symop_operation_xyz
x,y,z
-x,-y,z
x,-y,-z
-x,y,-z
loop_
_atom_site_type_symbol
_atom_site_label
_atom_site_fract_x
_atom_site_fract_y
_atom_site_fract_z
Si Si1 0.420929 0.780822 0.598305
Si Si2 0.833691 0.311938 0.474889
Si Si3 0.121666 0.161005 0.700609
Si Si4 0.801589 0.751466 0.089083
Si Si5 0.147442 0.298773 0.887317
Si Si6 0.379136 0.578206 0.349490
Si Si7 0.666186 0.514436 0.139246
Si Si8 0.213368 0.092960 0.263695
O O1 0.500000 0.820999 0.500000
O O2 0.279092 0.710482 0.560305
O O3 0.537132 0.699519 0.652082
O O4 0.348710 0.870276 0.669498
O O5 0.836018 0.202592 0.404360
O O6 0.766060 0.409539 0.410357
O O7 0.000000 0.335223 0.500000
O O8 0.174273 0.249167 0.781887
O O9 0.943515 0.147761 0.702958
O O10 0.188536 0.040384 0.728493
O O11 0.709888 0.643281 0.123344
O O12 0.768691 0.857028 0.157359
O O13 0.971618 0.712072 0.102327
O O14 0.784480 0.771151 0.975991
O O15 0.215649 0.423829 0.900067
O O16 0.500000 0.500000 0.397831
O O17 0.343131 0.520171 0.249945
O O18 0.500000 0.500000 0.102548
#
# Coordination Sequence:
#
# PCOD9310154 Si02
#       8
#     4   4   4   4   4   4   4   4
#     4  10  22  39  63  87 132 166 213 267 318 382
#     4  11  21  40  65  92 122 167 219 266 322 376
#     4  10  21  38  65  93 128 165 208 275 313 376
#     4  10  22  38  65  95 127 165 204 263 317 396
#     4  10  21  40  62  95 129 160 212 257 323 383
#     4  10  22  41  62  88 130 172 206 264 319 383
#     4  11  21  37  65  91 124 166 208 257 316 376
#     4  10  20  39  62  94 129 165 212 262 325 376
#
# _framework density 21.247624999999999
#
# number of rings (size 3 to 8) (size 9 to 14) (size 15 to 20)
#    0.000    1.750    2.500    2.250    0.000    5.250 
#    0.000    8.125    0.000    0.000    0.000    1.750 
#    0.000    0.000    0.000    0.000    0.000    0.000 
#
# Total GULP energy -178654.754949 kJ/mol
# GULP energy per Si atom -5582.961092 kJ/mol
# Density = 2.119926 g / cm^3
# Si number density = 21.247625 Si / 1000 Ang^3
#
#
#
# Elastic Constant Matrix: (Units=GPa)
#
#
# Indices 1 2 3 4 5 6 
#
# 1 99.3047 28.5449 34.6143 0.0000 0.0000 0.0000
# 2 28.5449 60.8366 10.4621 0.0000 0.0000 0.0000
# 3 34.6143 10.4621 83.9695 0.0000 0.0000 0.0000
# 4 0.0000 0.0000 0.0000 19.5262 0.0000 0.0000
# 5 0.0000 0.0000 0.0000 0.0000 11.5347 0.0000
# 6 0.0000 0.0000 0.0000 0.0000 0.0000 23.8924
#
#
#
# Elastic Compliance Matrix: (Units=1/GPa)
#
#
# Indices 1 2 3 4 5 6 
#
# 1 0.013303 -0.005415 -0.004809 0.000000 0.000000 0.000000
# 2 -0.005415 0.019001 -0.000135 0.000000 0.000000 0.000000
# 3 -0.004809 -0.000135 0.013908 0.000000 0.000000 0.000000
# 4 0.000000 0.000000 0.000000 0.051213 0.000000 0.000000
# 5 0.000000 0.000000 0.000000 0.000000 0.086695 0.000000
# 6 0.000000 0.000000 0.000000 0.000000 0.000000 0.041854
#
#
# Mechanical properties :
#
#
# Convention : Reuss Voigt Hill
#
# Bulk Modulus (GPa) = 39.22469 43.48371 41.35420
# Shear Modulus (GPa) = 19.59315 22.35662 20.97488
#
# Velocity S-wave (km/s) = 3.03996 3.24727 3.14532
# Velocity P-wave (km/s) = 5.55181 5.87957 5.71804
#
# Compressibility (1/GPa) = 0.02549415
#
# Stress axis : x y z
#
# Youngs Moduli (GPa) = 75.17251 52.62779 71.89912
#
# Poissons Ratio (x) = 0.28496 0.34577
# Poissons Ratio (y) = 0.40704 0.00974
# Poissons Ratio (z) = 0.36151 0.00713
#
# Static dielectric constant tensor:
#      x y z
#    x 1.777240 0.000000 0.000000 
#    y 0.000000 1.762890 0.000000 
#    z 0.000000 0.000000 1.815400 
# 
# From -- ./inp_files/7974.got.cif
#   From: 2010.05.17/outbox.cif.g08.bks.cpg/sg16_4_cif.got.tgz:7974.got - 2010.06.03 22:28:35.
