data_PCOD9310157
_publ_section_title
;
Structure prediction by ZEFSAII (Michael W. Deem and Ramdas Pophale) SiO2 
 PCOD9310157
Probable space group: P 2 2 2
;
_chemical_formula_sum "Si O2"
_cell_formula_units_Z 14
_cell_length_a 6.521898
_cell_length_b 5.270057
_cell_length_c 18.574480
_cell_angle_alpha 90.000000
_cell_angle_beta 90.000000
_cell_angle_gamma 90.000000
_cell_volume 638.419258
_symmetry_space_group_name_H-M "P 2 2 2"
_symmetry_group_IT_number 16
_symmetry_cell_setting 'orthorhombic'
loop_
_space_group_symop_operation_xyz
x,y,z
-x,-y,z
x,-y,-z
-x,y,-z
loop_
_atom_site_type_symbol
_atom_site_label
_atom_site_fract_x
_atom_site_fract_y
_atom_site_fract_z
Si Si1 0.625526 0.748536 0.272895
Si Si2 0.874294 0.241664 0.861719
Si Si3 0.865888 0.748071 0.410764
Si Si4 0.000000 0.000000 0.000000
Si Si5 0.500000 0.500000 0.500000
O O1 0.500000 0.500000 0.292234
O O2 0.679078 0.736958 0.188510
O O3 0.817807 0.756613 0.325681
O O4 0.500000 0.000000 0.287898
O O5 0.000000 0.500000 0.855525
O O6 0.861831 0.168231 0.946092
O O7 0.000000 0.000000 0.831613
O O8 0.651772 0.684160 0.452917
O O9 0.000000 0.500000 0.423888
O O10 0.000000 0.000000 0.427097
#
# Coordination Sequence:
#
# PCOD9310157 Si02
#       5
#     4   4   4   1   1
#     4  12  24  44  71 105 141 183 243 313 359 439
#     4  10  20  39  67  93 132 180 237 283 361 436
#     4  12  28  51  79 109 150 200 249 305 388 447
#     4   8  22  36  68  92 138 180 242 296 354 458
#     4  12  30  54  72 120 160 194 256 330 364 480
#
# _framework density 21.929162000000002
#
# number of rings (size 3 to 8) (size 9 to 14) (size 15 to 20)
#    0.857    0.000    1.429    6.000    0.000    3.429 
#    0.000    0.714    0.000    0.000    0.000    0.000 
#    0.000    0.000    0.000    0.000    0.000    0.000 
#
# Total GULP energy -78133.365935 kJ/mol
# GULP energy per Si atom -5580.954710 kJ/mol
# Density = 2.187925 g / cm^3
# Si number density = 21.929162 Si / 1000 Ang^3
#
#
#
# Elastic Constant Matrix: (Units=GPa)
#
#
# Indices 1 2 3 4 5 6 
#
# 1 85.3742 65.9956 40.0967 0.0000 0.0000 0.0000
# 2 65.9956 217.4261 34.3431 0.0000 0.0000 0.0000
# 3 40.0967 34.3431 134.3811 0.0000 0.0000 0.0000
# 4 0.0000 0.0000 0.0000 1228.7131 0.0000 0.0000
# 5 0.0000 0.0000 0.0000 0.0000 42.6438 0.0000
# 6 0.0000 0.0000 0.0000 0.0000 0.0000 32.3331
#
#
#
# Elastic Compliance Matrix: (Units=1/GPa)
#
#
# Indices 1 2 3 4 5 6 
#
# 1 0.017090 -0.004566 -0.003932 0.000000 0.000000 0.000000
# 2 -0.004566 0.006013 -0.000174 0.000000 0.000000 0.000000
# 3 -0.003932 -0.000174 0.008659 0.000000 0.000000 0.000000
# 4 0.000000 0.000000 0.000000 0.000814 0.000000 0.000000
# 5 0.000000 0.000000 0.000000 0.000000 0.023450 0.000000
# 6 0.000000 0.000000 0.000000 0.000000 0.000000 0.030928
#
#
# Mechanical properties :
#
#
# Convention : Reuss Voigt Hill
#
# Bulk Modulus (GPa) = 69.36479 79.78361 74.57420
# Shear Modulus (GPa) = 45.82762 280.52107 163.17434
#
# Velocity S-wave (km/s) = 4.57640 11.32251 8.63547
# Velocity P-wave (km/s) = 7.72169 14.40117 11.55461
#
# Compressibility (1/GPa) = 0.01441654
#
# Stress axis : x y z
#
# Youngs Moduli (GPa) = 58.51488 166.31344 115.48195
#
# Poissons Ratio (x) = 0.75941 0.45411
# Poissons Ratio (y) = 0.26719 0.02012
# Poissons Ratio (z) = 0.23010 0.02897
#
# Static dielectric constant tensor:
#      x y z
#    x 1.806460 0.000000 0.000000 
#    y 0.000000 1.749190 0.000000 
#    z 0.000000 0.000000 1.817360 
# 
# From -- ./inp_files/9134.got.cif
#   From: 2010.05.17/outbox.cif.g08.bks.cpg/sg16_5_cif.got.tgz:9134.got - 2010.06.03 22:28:35.
