data_PCOD9310801
_publ_section_title
;
Structure prediction by ZEFSAII (Michael W. Deem and Ramdas Pophale) SiO2 
 PCOD9310801
Probable space group: P 2 2 21
;
_chemical_formula_sum "Si O2"
_cell_formula_units_Z 24
_cell_length_a 19.544767
_cell_length_b 5.524083
_cell_length_c 11.121723
_cell_angle_alpha 90.000000
_cell_angle_beta 90.000000
_cell_angle_gamma 90.000000
_cell_volume 1200.778123
_symmetry_space_group_name_H-M "P 2 2 21"
_symmetry_group_IT_number 17
_symmetry_cell_setting 'orthorhombic'
loop_
_space_group_symop_operation_xyz
x,y,z
-x,-y,1/2+z
x,-y,-z
-x,y,1/2-z
loop_
_atom_site_type_symbol
_atom_site_label
_atom_site_fract_x
_atom_site_fract_y
_atom_site_fract_z
Si Si1 0.053607 0.494786 0.140270
Si Si2 0.386042 0.856105 0.158759
Si Si3 0.267871 0.776671 0.779163
Si Si4 0.379351 0.456935 0.360915
Si Si5 0.500000 0.867645 0.750000
Si Si6 0.138445 0.004774 0.861499
Si Si7 0.306542 0.500000 0.000000
O O1 0.089219 0.230099 0.150522
O O2 0.000000 0.511732 0.250000
O O3 0.102418 0.733780 0.154370
O O4 0.027749 0.500000 0.000000
O O5 0.384390 0.694550 0.279058
O O6 0.358928 0.697465 0.050458
O O7 0.329027 0.057256 0.174665
O O8 0.460896 0.967959 0.152821
O O9 0.303313 0.651281 0.665311
O O10 0.201007 0.941145 0.772936
O O11 0.260392 0.581670 0.887362
O O12 0.388817 0.500000 0.500000
O O13 0.440414 0.287967 0.311316
O O14 0.164929 0.000000 0.000000
#
# Coordination Sequence:
#
# PCOD9310801 Si02
#       7
#     4   4   4   4   2   4   2
#     4  10  22  40  66  97 140 178 221 269 320 383
#     4  10  21  40  56  85 117 151 197 256 319 376
#     4  10  22  37  63  91 121 157 205 264 318 375
#     4  10  23  44  60  81 120 161 204 262 323 396
#     4  10  22  42  54  88 104 158 204 250 316 386
#     4  10  21  36  66 101 128 174 216 265 320 379
#     4  10  20  36  60  88 122 142 192 268 318 372
#
# _framework density 19.98704
#
# number of rings (size 3 to 8) (size 9 to 14) (size 15 to 20)
#    0.000    2.000    0.000    2.500    8.167    2.667 
#   36.000    0.833    3.667    0.000    0.000    0.000 
#    0.000    0.000    0.000    0.000    0.000    0.000 
#
# Total GULP energy -133824.293260 kJ/mol
# GULP energy per Si atom -5576.012219 kJ/mol
# Density = 1.994155 g / cm^3
# Si number density = 19.987040 Si / 1000 Ang^3
#
#
#
# Elastic Constant Matrix: (Units=GPa)
#
#
# Indices 1 2 3 4 5 6 
#
# 1 76.1352 20.5181 41.7015 0.0000 0.0000 0.0000
# 2 20.5181 79.9672 28.8841 0.0000 0.0000 0.0000
# 3 41.7015 28.8841 101.5502 0.0000 0.0000 0.0000
# 4 0.0000 0.0000 0.0000 21.2443 0.0000 0.0000
# 5 0.0000 0.0000 0.0000 0.0000 14.7025 0.0000
# 6 0.0000 0.0000 0.0000 0.0000 0.0000 14.4866
#
#
#
# Elastic Compliance Matrix: (Units=1/GPa)
#
#
# Indices 1 2 3 4 5 6 
#
# 1 0.017251 -0.002081 -0.006492 0.000000 0.000000 0.000000
# 2 -0.002081 0.014188 -0.003181 0.000000 0.000000 0.000000
# 3 -0.006492 -0.003181 0.013418 0.000000 0.000000 0.000000
# 4 0.000000 0.000000 0.000000 0.047072 0.000000 0.000000
# 5 0.000000 0.000000 0.000000 0.000000 0.068016 0.000000
# 6 0.000000 0.000000 0.000000 0.000000 0.000000 0.069029
#
#
# Mechanical properties :
#
#
# Convention : Reuss Voigt Hill
#
# Bulk Modulus (GPa) = 46.84130 48.87333 47.85731
# Shear Modulus (GPa) = 19.26046 21.18995 20.22520
#
# Velocity S-wave (km/s) = 3.10764 3.25958 3.18451
# Velocity P-wave (km/s) = 6.03019 6.21869 6.12517
#
# Compressibility (1/GPa) = 0.02134868
#
# Stress axis : x y z
#
# Youngs Moduli (GPa) = 57.96601 70.48174 74.52605
#
# Poissons Ratio (x) = 0.14670 0.48385
# Poissons Ratio (y) = 0.12065 0.23705
# Poissons Ratio (z) = 0.37633 0.22419
#
# Static dielectric constant tensor:
#      x y z
#    x 1.702120 0.000000 0.000000 
#    y 0.000000 1.797390 0.000000 
#    z 0.000000 0.000000 1.733080 
# 
# From -- ./inp_files/7355.got.cif
#   From: 2010.05.17/outbox.cif.g08.bks.cpg/sg17_4_cif.got.tgz:7355.got - 2010.06.03 22:34:06.
