data_PCOD9310152
_publ_section_title
;
Structure prediction by ZEFSAII (Michael W. Deem and Ramdas Pophale) SiO2 
 PCOD9310152
Probable space group: P 2 2 2
;
_chemical_formula_sum "Si O2"
_cell_formula_units_Z 17
_cell_length_a 14.190096
_cell_length_b 11.465650
_cell_length_c 5.521798
_cell_angle_alpha 90.000000
_cell_angle_beta 90.000000
_cell_angle_gamma 90.000000
_cell_volume 898.389214
_symmetry_space_group_name_H-M "P 2 2 2"
_symmetry_group_IT_number 16
_symmetry_cell_setting 'orthorhombic'
loop_
_space_group_symop_operation_xyz
x,y,z
-x,-y,z
x,-y,-z
-x,y,-z
loop_
_atom_site_type_symbol
_atom_site_label
_atom_site_fract_x
_atom_site_fract_y
_atom_site_fract_z
Si Si1 0.500000 0.500000 0.500000
Si Si2 0.796123 0.638801 0.993603
Si Si3 0.391580 0.953237 0.744783
Si Si4 0.592515 0.312910 0.838990
Si Si5 0.110399 0.357852 0.495495
O O1 0.567885 0.416118 0.654576
O O2 0.684629 0.658383 0.006682
O O3 0.841617 0.683764 0.245347
O O4 0.813737 0.500000 0.000000
O O5 0.839692 0.683954 0.742592
O O6 0.392643 0.814092 0.726596
O O7 0.500000 0.000000 0.745984
O O8 0.345370 0.000000 0.500000
O O9 0.351070 0.000000 0.000000
O O10 0.500000 0.302457 0.000000
O O11 0.117385 0.500000 0.500000
O O12 0.000000 0.328781 0.500000
#
# Coordination Sequence:
#
# PCOD9310152 Si02
#       5
#     1   4   4   4   4
#     4  12  26  36  54  78 130 176 202 226 302 372
#     4  10  21  33  52  80 116 150 198 232 283 357
#     4  10  20  39  59  77 101 154 203 260 288 319
#     4  12  25  38  56  83 124 166 203 240 298 362
#     4   9  18  34  54  75 106 151 196 240 285 338
#
# _framework density 18.922756
#
# number of rings (size 3 to 8) (size 9 to 14) (size 15 to 20)
#    0.000    1.647    2.353    3.882    8.235    2.824 
#    0.000    0.000    0.000    0.000    0.000    0.000 
#    0.000   14.118    0.000    0.000    0.000    0.000 
#
# Total GULP energy -94866.434144 kJ/mol
# GULP energy per Si atom -5580.378479 kJ/mol
# Density = 1.887969 g / cm^3
# Si number density = 18.922756 Si / 1000 Ang^3
#
#
#
# Elastic Constant Matrix: (Units=GPa)
#
#
# Indices 1 2 3 4 5 6 
#
# 1 107.9350 -4.4480 80.4355 0.0000 0.0000 0.0000
# 2 -4.4480 90.1393 47.7201 0.0000 0.0000 0.0000
# 3 80.4355 47.7201 189.6060 0.0000 0.0000 0.0000
# 4 0.0000 0.0000 0.0000 11.5287 0.0000 0.0000
# 5 0.0000 0.0000 0.0000 0.0000 20.4499 0.0000
# 6 0.0000 0.0000 0.0000 0.0000 0.0000 -16.5448
#
#
#
# Elastic Compliance Matrix: (Units=1/GPa)
#
#
# Indices 1 2 3 4 5 6 
#
# 1 0.015150 0.004788 -0.007632 0.000000 0.000000 0.000000
# 2 0.004788 0.014312 -0.005633 0.000000 0.000000 0.000000
# 3 -0.007632 -0.005633 0.009929 0.000000 0.000000 0.000000
# 4 0.000000 0.000000 0.000000 0.086740 0.000000 0.000000
# 5 0.000000 0.000000 0.000000 0.000000 0.048900 0.000000
# 6 0.000000 0.000000 0.000000 0.000000 0.000000 -0.060442
#
#
# Mechanical properties :
#
#
# Convention : Reuss Voigt Hill
#
# Bulk Modulus (GPa) = 44.56918 70.56617 57.56768
# Shear Modulus (GPa) = 35.96534 20.68495 28.32515
#
# Velocity S-wave (km/s) = 4.36436 3.30983 3.87315
# Velocity P-wave (km/s) = 7.00009 7.20967 7.10565
#
# Compressibility (1/GPa) = 0.02243703
#
# Stress axis : x y z
#
# Youngs Moduli (GPa) = 66.00859 69.86902 100.71009
#
# Poissons Ratio (x) = -0.33452 0.76860
# Poissons Ratio (y) = -0.31604 0.56733
# Poissons Ratio (z) = 0.50377 0.39359
#
# Static dielectric constant tensor:
#      x y z
#    x 1.629050 0.000000 0.000000 
#    y 0.000000 1.589060 0.000000 
#    z 0.000000 0.000000 1.657610 
# 
# From -- ./inp_files/1239.got.cif
#   From: 2010.05.17/outbox.cif.g08.bks.cpg/sg16_1_cif.got.tgz:1239.got - 2010.06.03 22:28:35.
