data_PCOD9310289
_publ_section_title
;
Structure prediction by ZEFSAII (Michael W. Deem and Ramdas Pophale) SiO2 
 PCOD9310289
Probable space group: P 2 2 2
;
_chemical_formula_sum "Si O2"
_cell_formula_units_Z 25
_cell_length_a 11.403738
_cell_length_b 8.789997
_cell_length_c 10.815291
_cell_angle_alpha 90.000000
_cell_angle_beta 90.000000
_cell_angle_gamma 90.000000
_cell_volume 1084.112038
_symmetry_space_group_name_H-M "P 2 2 2"
_symmetry_group_IT_number 16
_symmetry_cell_setting 'orthorhombic'
loop_
_space_group_symop_operation_xyz
x,y,z
-x,-y,z
x,-y,-z
-x,y,-z
loop_
_atom_site_type_symbol
_atom_site_label
_atom_site_fract_x
_atom_site_fract_y
_atom_site_fract_z
Si Si1 0.055300 0.165344 0.777254
Si Si2 0.253391 0.128131 0.603949
Si Si3 0.364394 0.875139 0.768058
Si Si4 0.437276 0.662825 0.314193
Si Si5 0.753103 0.333429 0.113083
Si Si6 0.827194 0.646022 0.167694
Si Si7 0.500000 0.000000 0.000000
O O1 0.122547 0.175223 0.645759
O O2 0.165887 0.186663 0.867114
O O3 0.955740 0.285126 0.816687
O O4 0.000000 0.000000 0.787829
O O5 0.335283 0.277939 0.592941
O O6 0.247965 0.000000 0.500000
O O7 0.319437 0.031949 0.711687
O O8 0.465361 0.793557 0.690054
O O9 0.257401 0.757477 0.759041
O O10 0.416892 0.905748 0.905385
O O11 0.500000 0.500000 0.335637
O O12 0.373149 0.662232 0.178176
O O13 0.819915 0.466727 0.191190
O O14 0.766757 0.353357 0.967917
#
# Coordination Sequence:
#
# PCOD9310289 Si02
#       7
#     4   4   4   4   4   4   1
#     4  11  23  41  65  96 127 183 239 302 354 422
#     4  11  26  49  71  99 137 187 246 305 367 427
#     4  12  23  40  67 100 142 189 227 300 352 451
#     4  11  22  44  71 104 138 186 240 294 365 439
#     4  10  23  39  63  98 147 188 226 294 357 440
#     4  11  22  39  61  99 143 188 233 281 367 435
#     4  12  24  40  64 102 152 180 238 270 386 440
#
# _framework density 23.060345999999999
#
# number of rings (size 3 to 8) (size 9 to 14) (size 15 to 20)
#    0.000    0.960    4.800    1.920    2.240    4.160 
#    0.000    1.600    0.000    0.000    8.320    0.000 
#    0.000    0.000    0.000    0.000    0.000    0.000 
#
# Total GULP energy -139383.282551 kJ/mol
# GULP energy per Si atom -5575.331302 kJ/mol
# Density = 2.300786 g / cm^3
# Si number density = 23.060346 Si / 1000 Ang^3
#
#
#
# Elastic Constant Matrix: (Units=GPa)
#
#
# Indices 1 2 3 4 5 6 
#
# 1 57.6117 31.7964 -4.3511 0.0000 0.0000 0.0000
# 2 31.7964 83.2197 -1.2583 0.0000 0.0000 0.0000
# 3 -4.3511 -1.2583 49.8236 0.0000 0.0000 0.0000
# 4 0.0000 0.0000 0.0000 28.8057 0.0000 0.0000
# 5 0.0000 0.0000 0.0000 0.0000 8.2470 0.0000
# 6 0.0000 0.0000 0.0000 0.0000 0.0000 39.0307
#
#
#
# Elastic Compliance Matrix: (Units=1/GPa)
#
#
# Indices 1 2 3 4 5 6 
#
# 1 0.022142 -0.008434 0.001721 0.000000 0.000000 0.000000
# 2 -0.008434 0.015234 -0.000352 0.000000 0.000000 0.000000
# 3 0.001721 -0.000352 0.020212 0.000000 0.000000 0.000000
# 4 0.000000 0.000000 0.000000 0.034715 0.000000 0.000000
# 5 0.000000 0.000000 0.000000 0.000000 0.121257 0.000000
# 6 0.000000 0.000000 0.000000 0.000000 0.000000 0.025621
#
#
# Mechanical properties :
#
#
# Convention : Reuss Voigt Hill
#
# Bulk Modulus (GPa) = 23.01089 27.00321 25.00705
# Shear Modulus (GPa) = 18.67083 26.18120 22.42601
#
# Velocity S-wave (km/s) = 2.84852 3.37313 3.12186
# Velocity P-wave (km/s) = 4.56278 5.18709 4.88492
#
# Compressibility (1/GPa) = 0.04345769
#
# Stress axis : x y z
#
# Youngs Moduli (GPa) = 45.16225 65.64460 49.47505
#
# Poissons Ratio (x) = 0.55365 -0.08513
# Poissons Ratio (y) = 0.38090 0.01741
# Poissons Ratio (z) = -0.07771 0.02309
#
# Static dielectric constant tensor:
#      x y z
#    x 1.878340 0.000000 0.000000 
#    y 0.000000 1.970370 0.000000 
#    z 0.000000 0.000000 1.988970 
# 
# From -- ./inp_files/6838.got.cif
#   From: 2010.05.17/outbox.cif.g08.bks.cpg/sg16_4_cif.got.tgz:6838.got - 2010.06.03 22:28:35.
