data_PCOD9310236
_publ_section_title
;
Structure prediction by ZEFSAII (Michael W. Deem and Ramdas Pophale) SiO2 
 PCOD9310236
Probable space group: P 2 2 2
;
_chemical_formula_sum "Si O2"
_cell_formula_units_Z 15
_cell_length_a 5.608569
_cell_length_b 19.621657
_cell_length_c 5.258334
_cell_angle_alpha 90.000000
_cell_angle_beta 90.000000
_cell_angle_gamma 90.000000
_cell_volume 578.676592
_symmetry_space_group_name_H-M "P 2 2 2"
_symmetry_group_IT_number 16
_symmetry_cell_setting 'orthorhombic'
loop_
_space_group_symop_operation_xyz
x,y,z
-x,-y,z
x,-y,-z
-x,y,-z
loop_
_atom_site_type_symbol
_atom_site_label
_atom_site_fract_x
_atom_site_fract_y
_atom_site_fract_z
Si Si1 0.834727 0.110819 0.747591
Si Si2 0.247324 0.306033 0.620883
Si Si3 0.500000 0.000000 0.500000
Si Si4 0.247650 0.577811 0.096822
Si Si5 0.500000 0.218923 0.000000
O O1 0.000000 0.124754 0.500000
O O2 0.674369 0.045651 0.673715
O O3 0.641357 0.169477 0.807666
O O4 0.000000 0.102398 0.000000
O O5 0.500000 0.289290 0.500000
O O6 0.245084 0.390065 0.623859
O O7 0.000000 0.284778 0.500000
O O8 0.291196 0.266522 0.884441
O O9 0.243657 0.500000 0.000000
O O10 0.500000 0.603627 0.000000
O O11 0.000000 0.607879 0.000000
#
# Coordination Sequence:
#
# PCOD9310236 Si02
#       5
#     4   4   1   4   2
#     4  12  31  54  88 125 174 229 287 361 437 525
#     4  12  29  49  82 119 161 227 289 353 443 525
#     4  12  30  58  84 136 168 226 292 362 438 518
#     4  10  21  45  74 105 158 208 267 354 426 505
#     4  12  32  51  79 120 176 218 290 362 428 526
#
# _framework density 25.921211
#
# number of rings (size 3 to 8) (size 9 to 14) (size 15 to 20)
#    0.000    0.533    1.333    3.600    9.333    8.000 
#    0.000   16.000    0.000    0.000    0.000    0.000 
#    0.000    0.000    0.000    0.000    0.000    0.000 
#
# Total GULP energy -83715.310440 kJ/mol
# GULP energy per Si atom -5581.020696 kJ/mol
# Density = 2.586221 g / cm^3
# Si number density = 25.921211 Si / 1000 Ang^3
#
#
#
# Elastic Constant Matrix: (Units=GPa)
#
#
# Indices 1 2 3 4 5 6 
#
# 1 275.8220 79.2725 89.9463 0.0000 0.0000 0.0000
# 2 79.2725 192.1430 68.6980 0.0000 0.0000 0.0000
# 3 89.9463 68.6980 122.9575 0.0000 0.0000 0.0000
# 4 0.0000 0.0000 0.0000 54.0122 0.0000 0.0000
# 5 0.0000 0.0000 0.0000 0.0000 55.0502 0.0000
# 6 0.0000 0.0000 0.0000 0.0000 0.0000 58.5936
#
#
#
# Elastic Compliance Matrix: (Units=1/GPa)
#
#
# Indices 1 2 3 4 5 6 
#
# 1 0.004889 -0.000923 -0.003061 0.000000 0.000000 0.000000
# 2 -0.000923 0.006678 -0.003056 0.000000 0.000000 0.000000
# 3 -0.003061 -0.003056 0.012079 0.000000 0.000000 0.000000
# 4 0.000000 0.000000 0.000000 0.018514 0.000000 0.000000
# 5 0.000000 0.000000 0.000000 0.000000 0.018165 0.000000
# 6 0.000000 0.000000 0.000000 0.000000 0.000000 0.017067
#
#
# Mechanical properties :
#
#
# Convention : Reuss Voigt Hill
#
# Bulk Modulus (GPa) = 104.52552 118.52844 111.52698
# Shear Modulus (GPa) = 52.82051 57.06490 54.94270
#
# Velocity S-wave (km/s) = 4.51902 4.69708 4.60891
# Velocity P-wave (km/s) = 8.22439 8.67424 8.45231
#
# Compressibility (1/GPa) = 0.00956704
#
# Stress axis : x y z
#
# Youngs Moduli (GPa) = 204.54773 149.75111 82.78571
#
# Poissons Ratio (x) = 0.13817 0.25339
# Poissons Ratio (y) = 0.18872 0.25299
# Poissons Ratio (z) = 0.62608 0.45764
#
# Static dielectric constant tensor:
#      x y z
#    x 1.944610 0.000000 0.000000 
#    y 0.000000 3.488400 0.000000 
#    z 0.000000 0.000000 2.184820 
# 
# From -- ./inp_files/204.got.cif
#   From: 2010.05.17/outbox.cif.g08.bks.cpg/sg16_1_cif.got.tgz:204.got - 2010.06.03 22:28:35.
