data_PCOD9310770
_publ_section_title
;
Structure prediction by ZEFSAII (Michael W. Deem and Ramdas Pophale) SiO2 
 PCOD9310770
Probable space group: P 2 2 21
;
_chemical_formula_sum "Si O2"
_cell_formula_units_Z 22
_cell_length_a 5.302153
_cell_length_b 12.943512
_cell_length_c 15.207353
_cell_angle_alpha 90.000000
_cell_angle_beta 90.000000
_cell_angle_gamma 90.000000
_cell_volume 1043.657536
_symmetry_space_group_name_H-M "P 2 2 21"
_symmetry_group_IT_number 17
_symmetry_cell_setting 'orthorhombic'
loop_
_space_group_symop_operation_xyz
x,y,z
-x,-y,1/2+z
x,-y,-z
-x,y,1/2-z
loop_
_atom_site_type_symbol
_atom_site_label
_atom_site_fract_x
_atom_site_fract_y
_atom_site_fract_z
Si Si1 0.715793 0.533314 0.911454
Si Si2 0.648197 0.289829 0.477775
Si Si3 0.419647 0.914319 0.573370
Si Si4 0.000000 0.517089 0.750000
Si Si5 0.917230 0.149834 0.347871
Si Si6 0.614779 0.643272 0.336050
O O1 0.486184 0.607542 0.940327
O O2 0.856377 0.577972 0.826573
O O3 0.611119 0.424548 0.876302
O O4 0.865193 0.500000 0.000000
O O5 0.442768 0.198267 0.471997
O O6 0.863736 0.246798 0.412976
O O7 0.725647 0.299112 0.579518
O O8 0.649320 0.909972 0.643704
O O9 0.144158 0.919422 0.614848
O O10 0.463967 0.000000 0.500000
O O11 0.809644 0.441828 0.698753
O O12 0.000000 0.179424 0.250000
O O13 0.500000 0.699914 0.250000
#
# Coordination Sequence:
#
# PCOD9310770 Si02
#       6
#     4   4   4   2   4   4
#     4   9  19  38  56  88 125 170 218 265 329 377
#     4   9  22  38  65  89 133 171 214 272 331 393
#     4  10  22  43  70  91 130 169 215 265 335 393
#     4  10  20  34  64  82 128 170 222 270 316 388
#     4  10  22  42  67  98 132 169 213 272 329 399
#     4   9  19  38  56  88 124 169 221 266 320 384
#
# _framework density 21.079712000000001
#
# number of rings (size 3 to 8) (size 9 to 14) (size 15 to 20)
#    1.091    1.455    0.000    1.091    0.000    8.000 
#   13.091    1.818    2.000    0.000    0.000    0.000 
#    0.000    0.000    0.000    0.000    0.000    0.000 
#
# Total GULP energy -122476.080919 kJ/mol
# GULP energy per Si atom -5567.094587 kJ/mol
# Density = 2.103173 g / cm^3
# Si number density = 21.079712 Si / 1000 Ang^3
#
#
#
# Elastic Constant Matrix: (Units=GPa)
#
#
# Indices 1 2 3 4 5 6 
#
# 1 89.9618 5.6514 58.4524 0.0000 0.0000 0.0000
# 2 5.6514 24.3611 24.8111 0.0000 0.0000 0.0000
# 3 58.4524 24.8111 192.5569 0.0000 0.0000 0.0000
# 4 0.0000 0.0000 0.0000 28.7622 0.0000 0.0000
# 5 0.0000 0.0000 0.0000 0.0000 33.0507 0.0000
# 6 0.0000 0.0000 0.0000 0.0000 0.0000 7.3266
#
#
#
# Elastic Compliance Matrix: (Units=1/GPa)
#
#
# Indices 1 2 3 4 5 6 
#
# 1 0.013879 0.001233 -0.004372 0.000000 0.000000 0.000000
# 2 0.001233 0.047359 -0.006477 0.000000 0.000000 0.000000
# 3 -0.004372 -0.006477 0.007355 0.000000 0.000000 0.000000
# 4 0.000000 0.000000 0.000000 0.034768 0.000000 0.000000
# 5 0.000000 0.000000 0.000000 0.000000 0.030257 0.000000
# 6 0.000000 0.000000 0.000000 0.000000 0.000000 0.136489
#
#
# Mechanical properties :
#
#
# Convention : Reuss Voigt Hill
#
# Bulk Modulus (GPa) = 20.25843 53.85663 37.05753
# Shear Modulus (GPa) = 16.35100 28.35890 22.35495
#
# Velocity S-wave (km/s) = 2.78812 3.67184 3.26006
# Velocity P-wave (km/s) = 4.47169 6.60159 5.63813
#
# Compressibility (1/GPa) = 0.04936217
#
# Stress axis : x y z
#
# Youngs Moduli (GPa) = 72.05106 21.11519 135.96307
#
# Poissons Ratio (x) = -0.02604 0.59443
# Poissons Ratio (y) = -0.08884 0.88058
# Poissons Ratio (z) = 0.31501 0.13675
#
# Static dielectric constant tensor:
#      x y z
#    x 1.835070 0.000000 0.000000 
#    y 0.000000 1.743430 0.000000 
#    z 0.000000 0.000000 1.883060 
# 
# From -- ./inp_files/7710.got.cif
#   From: 2010.05.17/outbox.cif.g08.bks.cpg/sg17_4_cif.got.tgz:7710.got - 2010.06.03 22:34:06.
