data_PCOD9310892
_publ_section_title
;
Structure prediction by ZEFSAII (Michael W. Deem and Ramdas Pophale) SiO2 
 PCOD9310892
Probable space group: P 2 2 21
;
_chemical_formula_sum "Si O2"
_cell_formula_units_Z 28
_cell_length_a 17.590345
_cell_length_b 9.653331
_cell_length_c 8.939804
_cell_angle_alpha 90.000000
_cell_angle_beta 90.000000
_cell_angle_gamma 90.000000
_cell_volume 1518.027197
_symmetry_space_group_name_H-M "P 2 2 21"
_symmetry_group_IT_number 17
_symmetry_cell_setting 'orthorhombic'
loop_
_space_group_symop_operation_xyz
x,y,z
-x,-y,1/2+z
x,-y,-z
-x,y,1/2-z
loop_
_atom_site_type_symbol
_atom_site_label
_atom_site_fract_x
_atom_site_fract_y
_atom_site_fract_z
Si Si1 0.313449 0.519813 0.841031
Si Si2 0.434696 0.403542 0.629882
Si Si3 0.575729 0.911573 0.147398
Si Si4 0.192801 0.252098 0.174812
Si Si5 0.747027 0.025536 0.821179
Si Si6 0.180017 0.707792 0.168243
Si Si7 0.082023 0.477697 0.321160
O O1 0.365416 0.485971 0.702590
O O2 0.273307 0.667043 0.829011
O O3 0.247319 0.405044 0.844605
O O4 0.354630 0.500000 0.000000
O O5 0.463835 0.500000 0.500000
O O6 0.500000 0.388976 0.750000
O O7 0.411152 0.247047 0.594885
O O8 0.500000 0.920503 0.250000
O O9 0.656582 0.960341 0.218193
O O10 0.561565 0.000000 0.000000
O O11 0.210907 0.102595 0.241645
O O12 0.137340 0.350362 0.272915
O O13 0.163301 0.247485 0.003033
O O14 0.789465 0.164742 0.766504
O O15 0.750246 0.000000 0.000000
O O16 0.113564 0.619232 0.245359
O O17 0.079992 0.500000 0.500000
O O18 0.000000 0.449107 0.250000
#
# Coordination Sequence:
#
# PCOD9310892 Si02
#       7
#     4   4   4   4   4   4   4
#     4   9  19  36  56  82 111 148 192 244 297 353
#     4  11  23  38  57  81 113 150 199 255 307 360
#     4  10  24  42  57  83 118 161 205 255 312 375
#     4  10  22  37  62  90 120 161 201 244 299 357
#     4  11  22  38  59  91 121 160 207 254 306 365
#     4  10  20  39  60  88 123 155 203 245 295 364
#     4  11  22  40  66  95 127 163 199 247 300 360
#
# _framework density 18.444991999999999
#
# number of rings (size 3 to 8) (size 9 to 14) (size 15 to 20)
#    0.000    1.714    1.429    3.857    4.000    4.000 
#    2.571    0.714    0.000    0.000    0.000    0.000 
#    0.000    0.000    0.000    0.000    0.000    0.000 
#
# Total GULP energy -156168.088144 kJ/mol
# GULP energy per Si atom -5577.431719 kJ/mol
# Density = 1.840301 g / cm^3
# Si number density = 18.444992 Si / 1000 Ang^3
#
#
#
# Elastic Constant Matrix: (Units=GPa)
#
#
# Indices 1 2 3 4 5 6 
#
# 1 70.0128 23.9668 23.6055 0.0000 0.0000 0.0000
# 2 23.9668 104.2880 37.6077 0.0000 0.0000 0.0000
# 3 23.6055 37.6077 91.5813 0.0000 0.0000 0.0000
# 4 0.0000 0.0000 0.0000 33.3869 0.0000 0.0000
# 5 0.0000 0.0000 0.0000 0.0000 22.0974 0.0000
# 6 0.0000 0.0000 0.0000 0.0000 0.0000 108.7822
#
#
#
# Elastic Compliance Matrix: (Units=1/GPa)
#
#
# Indices 1 2 3 4 5 6 
#
# 1 0.016224 -0.002607 -0.003112 0.000000 0.000000 0.000000
# 2 -0.002607 0.011674 -0.004122 0.000000 0.000000 0.000000
# 3 -0.003112 -0.004122 0.013414 0.000000 0.000000 0.000000
# 4 0.000000 0.000000 0.000000 0.029952 0.000000 0.000000
# 5 0.000000 0.000000 0.000000 0.000000 0.045254 0.000000
# 6 0.000000 0.000000 0.000000 0.000000 0.000000 0.009193
#
#
# Mechanical properties :
#
#
# Convention : Reuss Voigt Hill
#
# Bulk Modulus (GPa) = 46.22719 48.47133 47.34926
# Shear Modulus (GPa) = 32.76478 44.90012 38.83245
#
# Velocity S-wave (km/s) = 4.21925 4.93919 4.59335
# Velocity P-wave (km/s) = 6.98947 7.67224 7.33880
#
# Compressibility (1/GPa) = 0.02163229
#
# Stress axis : x y z
#
# Youngs Moduli (GPa) = 61.63531 85.65775 74.54872
#
# Poissons Ratio (x) = 0.22327 0.23196
# Poissons Ratio (y) = 0.16065 0.30731
# Poissons Ratio (z) = 0.19178 0.35310
#
# Static dielectric constant tensor:
#      x y z
#    x 1.636220 0.000000 0.000000 
#    y 0.000000 1.614480 0.000000 
#    z 0.000000 0.000000 1.523630 
# 
# From -- ./inp_files/5477.got.cif
#   From: 2010.05.17/outbox.cif.g08.bks.cpg/sg17_3_cif.got.tgz:5477.got - 2010.06.03 22:34:06.
