data_PCOD9310984
_publ_section_title
;
Structure prediction by ZEFSAII (Michael W. Deem and Ramdas Pophale) SiO2 
 PCOD9310984
Probable space group: P 2 2 21
;
_chemical_formula_sum "Si O2"
_cell_formula_units_Z 24
_cell_length_a 28.702451
_cell_length_b 8.601162
_cell_length_c 5.163747
_cell_angle_alpha 90.000000
_cell_angle_beta 90.000000
_cell_angle_gamma 90.000000
_cell_volume 1274.797102
_symmetry_space_group_name_H-M "P 2 2 21"
_symmetry_group_IT_number 17
_symmetry_cell_setting 'orthorhombic'
loop_
_space_group_symop_operation_xyz
x,y,z
-x,-y,1/2+z
x,-y,-z
-x,y,1/2-z
loop_
_atom_site_type_symbol
_atom_site_label
_atom_site_fract_x
_atom_site_fract_y
_atom_site_fract_z
Si Si1 0.310748 0.313115 0.013738
Si Si2 0.875923 0.106803 0.243813
Si Si3 0.470641 0.187679 0.503190
Si Si4 0.633250 0.687378 0.004301
Si Si5 0.230483 0.107473 0.251754
Si Si6 0.946068 0.392345 0.250704
O O1 0.349907 0.264799 0.220163
O O2 0.265045 0.241196 0.150021
O O3 0.305701 0.500000 0.000000
O O4 0.330062 0.263542 0.730333
O O5 0.822465 0.162545 0.198907
O O6 0.910818 0.249863 0.260291
O O7 0.877713 0.000000 0.500000
O O8 0.888463 0.000000 0.000000
O O9 0.500000 0.236219 0.250000
O O10 0.418713 0.251454 0.535716
O O11 0.467720 0.000000 0.500000
O O12 0.500000 0.238034 0.750000
O O13 0.632691 0.500000 0.000000
O O14 0.244605 0.000000 0.500000
O O15 0.228137 0.000000 0.000000
O O16 0.939510 0.500000 0.500000
O O17 0.000000 0.338000 0.250000
O O18 0.938686 0.500000 0.000000
#
# Coordination Sequence:
#
# PCOD9310984 Si02
#       6
#     4   4   4   4   4   4
#     4  10  21  37  55  79 109 140 178 224 272 327
#     4  10  21  37  57  83 115 150 192 240 288 344
#     4  10  21  36  53  76 105 135 171 215 262 317
#     4  10  21  36  55  79 106 137 176 219 265 322
#     4  10  21  37  56  81 111 144 186 232 278 334
#     4  10  21  37  57  84 117 152 194 242 291 348
#
# _framework density 18.826525
#
# number of rings (size 3 to 8) (size 9 to 14) (size 15 to 20)
#    0.000    2.000    0.000    3.000    0.000    4.000 
#    0.000    2.500    0.000    0.000    0.000    0.000 
#    0.000    0.000    0.000    0.000    0.000    0.000 
#
# Total GULP energy -133831.849495 kJ/mol
# GULP energy per Si atom -5576.327062 kJ/mol
# Density = 1.878368 g / cm^3
# Si number density = 18.826525 Si / 1000 Ang^3
#
#
#
# Elastic Constant Matrix: (Units=GPa)
#
#
# Indices 1 2 3 4 5 6 
#
# 1 135.4537 73.9219 50.1109 0.0000 0.0000 0.0000
# 2 73.9219 48.7107 42.8051 0.0000 0.0000 0.0000
# 3 50.1109 42.8051 152.0475 0.0000 0.0000 0.0000
# 4 0.0000 0.0000 0.0000 9.2883 0.0000 0.0000
# 5 0.0000 0.0000 0.0000 0.0000 42.7798 0.0000
# 6 0.0000 0.0000 0.0000 0.0000 0.0000 57.8223
#
#
#
# Elastic Compliance Matrix: (Units=1/GPa)
#
#
# Indices 1 2 3 4 5 6 
#
# 1 0.046849 -0.076438 0.006079 0.000000 0.000000 0.000000
# 2 -0.076438 0.151995 -0.017598 0.000000 0.000000 0.000000
# 3 0.006079 -0.017598 0.009528 0.000000 0.000000 0.000000
# 4 0.000000 0.000000 0.000000 0.107662 0.000000 0.000000
# 5 0.000000 0.000000 0.000000 0.000000 0.023376 0.000000
# 6 0.000000 0.000000 0.000000 0.000000 0.000000 0.017294
#
#
# Mechanical properties :
#
#
# Convention : Reuss Voigt Hill
#
# Bulk Modulus (GPa) = 30.81066 74.43197 52.62132
# Shear Modulus (GPa) = 9.20070 33.26967 21.23519
#
# Velocity S-wave (km/s) = 2.21308 4.20833 3.36213
# Velocity P-wave (km/s) = 4.78867 7.95204 6.56378
#
# Compressibility (1/GPa) = 0.03245630
#
# Stress axis : x y z
#
# Youngs Moduli (GPa) = 21.34528 6.57919 104.95775
#
# Poissons Ratio (x) = 0.50290 -0.63805
# Poissons Ratio (y) = 1.63160 1.84705
# Poissons Ratio (z) = -0.12976 0.11578
#
# Static dielectric constant tensor:
#      x y z
#    x 1.668160 0.000000 0.000000 
#    y 0.000000 1.607890 0.000000 
#    z 0.000000 0.000000 1.644030 
# 
# From -- ./inp_files/3059.got.cif
#   From: 2010.05.17/outbox.cif.g08.bks.cpg/sg17_2_cif.got.tgz:3059.got - 2010.06.03 22:34:06.
