data_PCOD9310681
_publ_section_title
;
Structure prediction by ZEFSAII (Michael W. Deem and Ramdas Pophale) SiO2 
 PCOD9310681
Probable space group: P 2 2 21
;
_chemical_formula_sum "Si O2"
_cell_formula_units_Z 20
_cell_length_a 17.155804
_cell_length_b 11.468337
_cell_length_c 5.039310
_cell_angle_alpha 90.000000
_cell_angle_beta 90.000000
_cell_angle_gamma 90.000000
_cell_volume 991.476894
_symmetry_space_group_name_H-M "P 2 2 21"
_symmetry_group_IT_number 17
_symmetry_cell_setting 'orthorhombic'
loop_
_space_group_symop_operation_xyz
x,y,z
-x,-y,1/2+z
x,-y,-z
-x,y,1/2-z
loop_
_atom_site_type_symbol
_atom_site_label
_atom_site_fract_x
_atom_site_fract_y
_atom_site_fract_z
Si Si1 0.673343 0.789139 0.014043
Si Si2 0.699207 0.364221 0.502806
Si Si3 0.151709 0.132559 0.467202
Si Si4 0.871671 0.276957 0.545725
Si Si5 0.444830 0.000000 0.500000
Si Si6 0.000000 0.570343 0.750000
O O1 0.656913 0.713380 0.275135
O O2 0.757136 0.853232 0.045345
O O3 0.609688 0.887255 0.960490
O O4 0.683532 0.697894 0.775891
O O5 0.678562 0.500000 0.500000
O O6 0.791557 0.349907 0.566832
O O7 0.143521 0.173508 0.165163
O O8 0.126256 0.000000 0.500000
O O9 0.108733 0.220384 0.670417
O O10 0.936355 0.355333 0.407832
O O11 0.500000 0.981602 0.250000
O O12 0.037502 0.500000 0.500000
#
# Coordination Sequence:
#
# PCOD9310681 Si02
#       6
#     4   4   4   4   2   2
#     4  10  21  37  60  90 120 156 195 245 301 343
#     4  10  20  36  61  89 119 152 202 253 294 346
#     4  10  19  37  60  85 118 148 195 253 299 352
#     4  10  22  35  57  88 113 156 201 244 307 360
#     4  12  24  40  64  92 126 156 196 242 292 364
#     4  12  24  40  58  78 120 160 200 256 308 372
#
# _framework density 20.171927
#
# number of rings (size 3 to 8) (size 9 to 14) (size 15 to 20)
#    0.000    1.600    1.000    4.200    0.000    3.200 
#    0.000    2.000    0.000   12.000    0.000    0.000 
#    0.000    0.000    0.000    0.000    0.000    0.000 
#
# Total GULP energy -111773.666437 kJ/mol
# GULP energy per Si atom -5588.683322 kJ/mol
# Density = 2.012602 g / cm^3
# Si number density = 20.171927 Si / 1000 Ang^3
#
#
#
# Elastic Constant Matrix: (Units=GPa)
#
#
# Indices 1 2 3 4 5 6 
#
# 1 50.1312 16.8940 -7.1175 0.0000 0.0000 0.0000
# 2 16.8940 97.6198 -2.2877 0.0000 0.0000 0.0000
# 3 -7.1175 -2.2877 72.3870 0.0000 0.0000 0.0000
# 4 0.0000 0.0000 0.0000 22.9041 0.0000 0.0000
# 5 0.0000 0.0000 0.0000 0.0000 20.9059 0.0000
# 6 0.0000 0.0000 0.0000 0.0000 0.0000 17.7157
#
#
#
# Elastic Compliance Matrix: (Units=1/GPa)
#
#
# Indices 1 2 3 4 5 6 
#
# 1 0.021467 -0.003668 0.001995 0.000000 0.000000 0.000000
# 2 -0.003668 0.010878 -0.000017 0.000000 0.000000 0.000000
# 3 0.001995 -0.000017 0.014010 0.000000 0.000000 0.000000
# 4 0.000000 0.000000 0.000000 0.043660 0.000000 0.000000
# 5 0.000000 0.000000 0.000000 0.000000 0.047833 0.000000
# 6 0.000000 0.000000 0.000000 0.000000 0.000000 0.056447
#
#
# Mechanical properties :
#
#
# Convention : Reuss Voigt Hill
#
# Bulk Modulus (GPa) = 23.26943 26.12395 24.69669
# Shear Modulus (GPa) = 23.58466 26.48175 25.03321
#
# Velocity S-wave (km/s) = 3.42304 3.62719 3.52659
# Velocity P-wave (km/s) = 5.21378 5.52456 5.37142
#
# Compressibility (1/GPa) = 0.04297483
#
# Stress axis : x y z
#
# Youngs Moduli (GPa) = 46.58290 91.92639 71.37630
#
# Poissons Ratio (x) = 0.33722 -0.14238
# Poissons Ratio (y) = 0.17088 0.00121
# Poissons Ratio (z) = -0.09293 0.00155
#
# Static dielectric constant tensor:
#      x y z
#    x 1.702500 0.000000 0.000000 
#    y 0.000000 1.713380 0.000000 
#    z 0.000000 0.000000 1.708430 
# 
# From -- ./inp_files/2498.got.cif
#   From: 2010.05.17/outbox.cif.g08.bks.cpg/sg17_2_cif.got.tgz:2498.got - 2010.06.03 22:34:06.
