data_PCOD9310322
_publ_section_title
;
Structure prediction by ZEFSAII (Michael W. Deem and Ramdas Pophale) SiO2 
 PCOD9310322
Probable space group: P 2 2 2
;
_chemical_formula_sum "Si O2"
_cell_formula_units_Z 12
_cell_length_a 6.085295
_cell_length_b 8.968629
_cell_length_c 10.605667
_cell_angle_alpha 90.000000
_cell_angle_beta 90.000000
_cell_angle_gamma 90.000000
_cell_volume 578.822870
_symmetry_space_group_name_H-M "P 2 2 2"
_symmetry_group_IT_number 16
_symmetry_cell_setting 'orthorhombic'
loop_
_space_group_symop_operation_xyz
x,y,z
-x,-y,z
x,-y,-z
-x,y,-z
loop_
_atom_site_type_symbol
_atom_site_label
_atom_site_fract_x
_atom_site_fract_y
_atom_site_fract_z
Si Si1 0.688363 0.747277 0.895056
Si Si2 0.340687 0.282816 0.612379
Si Si3 0.000000 0.000000 0.000000
Si Si4 0.000000 0.500000 0.000000
Si Si5 0.500000 0.000000 0.500000
Si Si6 0.000000 0.500000 0.500000
O O1 0.587265 0.719833 0.757051
O O2 0.845186 0.607240 0.919866
O O3 0.500000 0.754466 0.000000
O O4 0.842972 0.893294 0.915129
O O5 0.500000 0.337358 0.500000
O O6 0.339616 0.107207 0.578919
O O7 0.132137 0.386543 0.590465
#
# Coordination Sequence:
#
# PCOD9310322 Si02
#       6
#     4   4   1   1   1   1
#     4  11  24  43  69  94 138 172 220 278 331 389
#     4  10  25  44  67 100 132 175 225 272 338 392
#     4  10  26  38  68 102 128 174 230 264 336 400
#     4  10  24  42  60 106 126 178 222 264 334 408
#     4   8  24  44  62  96 134 162 222 266 328 398
#     4  12  24  42  72  96 138 174 222 282 322 400
#
# _framework density 20.731732999999998
#
# number of rings (size 3 to 8) (size 9 to 14) (size 15 to 20)
#    1.000    0.667    0.000    2.500    4.667   14.000 
#    0.000    0.000    0.000    0.000    0.000    0.000 
#    0.000    0.000    0.000    0.000    0.000    0.000 
#
# Total GULP energy -66801.691900 kJ/mol
# GULP energy per Si atom -5566.807658 kJ/mol
# Density = 2.068455 g / cm^3
# Si number density = 20.731733 Si / 1000 Ang^3
#
#
#
# Elastic Constant Matrix: (Units=GPa)
#
#
# Indices 1 2 3 4 5 6 
#
# 1 84.2342 47.2867 56.7665 0.0000 0.0000 0.0000
# 2 47.2867 147.9826 42.4217 0.0000 0.0000 0.0000
# 3 56.7665 42.4217 189.0553 0.0000 0.0000 0.0000
# 4 0.0000 0.0000 0.0000 -15.2957 0.0000 0.0000
# 5 0.0000 0.0000 0.0000 0.0000 21.1126 0.0000
# 6 0.0000 0.0000 0.0000 0.0000 0.0000 -29.1234
#
#
#
# Elastic Compliance Matrix: (Units=1/GPa)
#
#
# Indices 1 2 3 4 5 6 
#
# 1 0.017074 -0.004260 -0.004171 0.000000 0.000000 0.000000
# 2 -0.004260 0.008285 -0.000580 0.000000 0.000000 0.000000
# 3 -0.004171 -0.000580 0.006672 0.000000 0.000000 0.000000
# 4 0.000000 0.000000 0.000000 -0.065378 0.000000 0.000000
# 5 0.000000 0.000000 0.000000 0.000000 0.047365 0.000000
# 6 0.000000 0.000000 0.000000 0.000000 0.000000 -0.034337
#
#
# Mechanical properties :
#
#
# Convention : Reuss Voigt Hill
#
# Bulk Modulus (GPa) = 71.38147 79.35799 75.36973
# Shear Modulus (GPa) = 2106.89851 13.65851 1060.27851
#
# Velocity S-wave (km/s) = 31.91353 2.56954 22.63930
# Velocity P-wave (km/s) = 37.31582 6.86768 26.82942
#
# Compressibility (1/GPa) = 0.01400924
#
# Stress axis : x y z
#
# Youngs Moduli (GPa) = 58.56869 120.69851 149.88225
#
# Poissons Ratio (x) = 0.51420 0.62512
# Poissons Ratio (y) = 0.24952 0.08691
# Poissons Ratio (z) = 0.24428 0.06999
#
# Static dielectric constant tensor:
#      x y z
#    x 1.768820 0.000000 0.000000 
#    y 0.000000 1.773890 0.000000 
#    z 0.000000 0.000000 1.816670 
# 
# From -- ./inp_files/547.got.cif
#   From: 2010.05.17/outbox.cif.g08.bks.cpg/sg16_1_cif.got.tgz:547.got - 2010.06.03 22:28:35.
