data_PCOD9310242
_publ_section_title
;
Structure prediction by ZEFSAII (Michael W. Deem and Ramdas Pophale) SiO2 
 PCOD9310242
Probable space group: P 2 2 2
;
_chemical_formula_sum "Si O2"
_cell_formula_units_Z 20
_cell_length_a 5.518937
_cell_length_b 19.412597
_cell_length_c 9.087616
_cell_angle_alpha 90.000000
_cell_angle_beta 90.000000
_cell_angle_gamma 90.000000
_cell_volume 973.619005
_symmetry_space_group_name_H-M "P 2 2 2"
_symmetry_group_IT_number 16
_symmetry_cell_setting 'orthorhombic'
loop_
_space_group_symop_operation_xyz
x,y,z
-x,-y,z
x,-y,-z
-x,y,-z
loop_
_atom_site_type_symbol
_atom_site_label
_atom_site_fract_x
_atom_site_fract_y
_atom_site_fract_z
Si Si1 0.500320 0.710759 0.679548
Si Si2 0.000000 0.500000 0.000000
Si Si3 0.159182 0.064196 0.720608
Si Si4 0.998939 0.781754 0.324404
Si Si5 0.500000 0.000000 0.500000
Si Si6 0.000000 0.500000 0.500000
Si Si7 0.315592 0.437378 0.249878
Si Si8 0.000000 0.000000 0.000000
O O1 0.500000 0.708620 0.500000
O O2 0.262769 0.754559 0.727234
O O3 0.453396 0.634326 0.739310
O O4 0.758981 0.741802 0.729238
O O5 0.155862 0.549418 0.894394
O O6 0.036055 0.137567 0.704722
O O7 0.388583 0.054773 0.617584
O O8 0.000000 0.000000 0.662594
O O9 0.168275 0.045519 0.893014
O O10 0.000000 0.772204 0.500000
O O11 0.847454 0.549942 0.394241
O O12 0.500000 0.500000 0.251558
#
# Coordination Sequence:
#
# PCOD9310242 Si02
#       8
#     4   1   4   4   1   1   4   1
#     4  10  23  38  65 100 138 167 214 286 351 400
#     4  10  26  42  70  84 136 170 244 266 338 382
#     4  10  23  42  65  97 132 180 225 290 328 420
#     4  10  22  38  63 102 137 172 220 282 345 403
#     4  12  22  34  76  98 120 174 260 272 342 390
#     4  10  22  34  68 100 120 166 228 274 334 398
#     4  11  23  42  66  95 129 175 224 279 330 407
#     4   8  24  44  62  88 146 166 226 278 360 380
#
# _framework density 20.541914999999999
#
# number of rings (size 3 to 8) (size 9 to 14) (size 15 to 20)
#    0.600    1.200    0.000    3.300   16.800    0.400 
#    0.000    1.000    0.000    0.000    0.000    0.000 
#    0.000    0.000    0.000    0.000    0.000    0.000 
#
# Total GULP energy -111500.626592 kJ/mol
# GULP energy per Si atom -5575.031330 kJ/mol
# Density = 2.049516 g / cm^3
# Si number density = 20.541915 Si / 1000 Ang^3
#
#
#
# Elastic Constant Matrix: (Units=GPa)
#
#
# Indices 1 2 3 4 5 6 
#
# 1 122.3144 82.7273 54.7138 0.0000 0.0000 0.0000
# 2 82.7273 174.2069 23.6943 0.0000 0.0000 0.0000
# 3 54.7138 23.6943 94.3390 0.0000 0.0000 0.0000
# 4 0.0000 0.0000 0.0000 46.1799 0.0000 0.0000
# 5 0.0000 0.0000 0.0000 0.0000 22.4559 0.0000
# 6 0.0000 0.0000 0.0000 0.0000 0.0000 32.7077
#
#
#
# Elastic Compliance Matrix: (Units=1/GPa)
#
#
# Indices 1 2 3 4 5 6 
#
# 1 0.016052 -0.006581 -0.007657 0.000000 0.000000 0.000000
# 2 -0.006581 0.008642 0.001647 0.000000 0.000000 0.000000
# 3 -0.007657 0.001647 0.014627 0.000000 0.000000 0.000000
# 4 0.000000 0.000000 0.000000 0.021654 0.000000 0.000000
# 5 0.000000 0.000000 0.000000 0.000000 0.044532 0.000000
# 6 0.000000 0.000000 0.000000 0.000000 0.000000 0.030574
#
#
# Mechanical properties :
#
#
# Convention : Reuss Voigt Hill
#
# Bulk Modulus (GPa) = 70.73222 79.23680 74.98451
# Shear Modulus (GPa) = 30.12476 35.58368 32.85422
#
# Velocity S-wave (km/s) = 3.83365 4.16654 4.00356
# Velocity P-wave (km/s) = 7.35552 7.86154 7.61273
#
# Compressibility (1/GPa) = 0.01413783
#
# Stress axis : x y z
#
# Youngs Moduli (GPa) = 62.29783 115.71805 68.36596
#
# Poissons Ratio (x) = 0.76158 0.52346
# Poissons Ratio (y) = 0.41000 -0.11257
# Poissons Ratio (z) = 0.47699 -0.19053
#
# Static dielectric constant tensor:
#      x y z
#    x 1.486210 0.000000 0.000000 
#    y 0.000000 1.709280 0.000000 
#    z 0.000000 0.000000 1.714560 
# 
# From -- ./inp_files/3207.got.cif
#   From: 2010.05.17/outbox.cif.g08.bks.cpg/sg16_2_cif.got.tgz:3207.got - 2010.06.03 22:28:35.
