data_PCOD9310575
_publ_section_title
;
Structure prediction by ZEFSAII (Michael W. Deem and Ramdas Pophale) SiO2 
 PCOD9310575
Probable space group: P 2 2 21
;
_chemical_formula_sum "Si O2"
_cell_formula_units_Z 16
_cell_length_a 18.921290
_cell_length_b 7.275963
_cell_length_c 5.207683
_cell_angle_alpha 90.000000
_cell_angle_beta 90.000000
_cell_angle_gamma 90.000000
_cell_volume 716.944874
_symmetry_space_group_name_H-M "P 2 2 21"
_symmetry_group_IT_number 17
_symmetry_cell_setting 'orthorhombic'
loop_
_space_group_symop_operation_xyz
x,y,z
-x,-y,1/2+z
x,-y,-z
-x,y,1/2-z
loop_
_atom_site_type_symbol
_atom_site_label
_atom_site_fract_x
_atom_site_fract_y
_atom_site_fract_z
Si Si1 0.792974 0.216324 0.984167
Si Si2 0.280895 0.776212 0.973960
Si Si3 0.958473 0.278818 0.995658
Si Si4 0.423047 0.868504 0.754050
O O1 0.743583 0.290285 0.753923
O O2 0.774731 0.291404 0.264370
O O3 0.876530 0.232615 0.954000
O O4 0.776338 0.000000 0.000000
O O5 0.356807 0.743459 0.837939
O O6 0.278221 0.000000 0.000000
O O7 0.000000 0.216081 0.250000
O O8 0.961484 0.500000 0.000000
O O9 0.000000 0.209488 0.750000
O O10 0.500000 0.773108 0.750000
O O11 0.410219 0.000000 0.500000
O O12 0.430846 0.000000 0.000000
#
# Coordination Sequence:
#
# PCOD9310575 Si02
#       4
#     4   4   4   4
#     4  10  19  30  47  68  91 119 148 184 227 270
#     4   9  16  27  41  63  93 121 149 183 224 264
#     4  10  21  36  51  67  89 117 149 188 230 272
#     4   9  15  23  37  58  88 127 160 183 217 268
#
# _framework density 22.316917
#
# number of rings (size 3 to 8) (size 9 to 14) (size 15 to 20)
#    0.000    2.500    0.000    5.250    0.000    1.000 
#    0.000    0.000    0.000    0.000    0.000    0.000 
#    0.000    4.000    0.000   11.500    0.000    0.000 
#
# Total GULP energy -89112.906335 kJ/mol
# GULP energy per Si atom -5569.556646 kJ/mol
# Density = 2.226612 g / cm^3
# Si number density = 22.316917 Si / 1000 Ang^3
#
#
#
# Elastic Constant Matrix: (Units=GPa)
#
#
# Indices 1 2 3 4 5 6 
#
# 1 181.2879 -16.5818 70.6789 0.0000 0.0000 0.0000
# 2 -16.5818 59.7096 4.3990 0.0000 0.0000 0.0000
# 3 70.6789 4.3990 182.6024 0.0000 0.0000 0.0000
# 4 0.0000 0.0000 0.0000 -36.2581 0.0000 0.0000
# 5 0.0000 0.0000 0.0000 0.0000 42.5700 0.0000
# 6 0.0000 0.0000 0.0000 0.0000 0.0000 51.5805
#
#
#
# Elastic Compliance Matrix: (Units=1/GPa)
#
#
# Indices 1 2 3 4 5 6 
#
# 1 0.006742 0.002068 -0.002659 0.000000 0.000000 0.000000
# 2 0.002068 0.017412 -0.001220 0.000000 0.000000 0.000000
# 3 -0.002659 -0.001220 0.006535 0.000000 0.000000 0.000000
# 4 0.000000 0.000000 0.000000 -0.027580 0.000000 0.000000
# 5 0.000000 0.000000 0.000000 0.000000 0.023491 0.000000
# 6 0.000000 0.000000 0.000000 0.000000 0.000000 0.019387
#
#
# Mechanical properties :
#
#
# Convention : Reuss Voigt Hill
#
# Bulk Modulus (GPa) = 36.94557 60.06578 48.50568
# Shear Modulus (GPa) = 85.27797 35.91874 60.59836
#
# Velocity S-wave (km/s) = 6.18831 4.01619 5.21656
# Velocity P-wave (km/s) = 8.22503 6.96274 7.62007
#
# Compressibility (1/GPa) = 0.02706684
#
# Stress axis : x y z
#
# Youngs Moduli (GPa) = 148.32156 57.43169 153.01869
#
# Poissons Ratio (x) = -0.11878 0.40695
# Poissons Ratio (y) = -0.30677 0.18668
# Poissons Ratio (z) = 0.39445 0.07007
#
# Static dielectric constant tensor:
#      x y z
#    x 1.935520 0.000000 0.000000 
#    y 0.000000 1.848810 0.000000 
#    z 0.000000 0.000000 1.826290 
# 
# From -- ./inp_files/745.got.cif
#   From: 2010.05.17/outbox.cif.g08.bks.cpg/sg17_1_cif.got.tgz:745.got - 2010.06.03 22:34:06.
