data_PCOD9310186
_publ_section_title
;
Structure prediction by ZEFSAII (Michael W. Deem and Ramdas Pophale) SiO2 
 PCOD9310186
Probable space group: P 2 2 2
;
_chemical_formula_sum "Si O2"
_cell_formula_units_Z 25
_cell_length_a 28.087410
_cell_length_b 5.279541
_cell_length_c 7.456994
_cell_angle_alpha 90.000000
_cell_angle_beta 90.000000
_cell_angle_gamma 90.000000
_cell_volume 1105.787444
_symmetry_space_group_name_H-M "P 2 2 2"
_symmetry_group_IT_number 16
_symmetry_cell_setting 'orthorhombic'
loop_
_space_group_symop_operation_xyz
x,y,z
-x,-y,z
x,-y,-z
-x,y,-z
loop_
_atom_site_type_symbol
_atom_site_label
_atom_site_fract_x
_atom_site_fract_y
_atom_site_fract_z
Si Si1 0.714378 0.975190 0.703169
Si Si2 0.000000 0.000000 0.500000
Si Si3 0.080431 0.014086 0.782333
Si Si4 0.390917 0.069756 0.799651
Si Si5 0.137710 0.510052 0.785453
Si Si6 0.553605 0.561669 0.289065
Si Si7 0.754475 0.474482 0.706326
O O1 0.726208 0.242578 0.790204
O O2 0.733896 0.000000 0.500000
O O3 0.658283 0.928891 0.693247
O O4 0.741316 0.741864 0.791759
O O5 0.962387 0.899823 0.650949
O O6 0.119856 0.227930 0.743049
O O7 0.100398 0.733309 0.737473
O O8 0.069544 0.000000 0.000000
O O9 0.413353 0.347794 0.797402
O O10 0.427650 0.848178 0.738115
O O11 0.377307 0.000000 0.000000
O O12 0.189389 0.570577 0.708834
O O13 0.142319 0.500000 0.000000
O O14 0.500000 0.500000 0.226326
O O15 0.554933 0.500000 0.500000
O O16 0.737433 0.500000 0.500000
#
# Coordination Sequence:
#
# PCOD9310186 Si02
#       7
#     4   1   4   4   4   4   4
#     4  10  21  38  57  87 122 165 203 252 305 367
#     4  12  26  42  72  92 124 174 202 262 316 360
#     4  10  24  42  62  94 126 161 210 254 309 374
#     4  12  25  40  63  94 128 163 207 266 321 376
#     4  10  22  41  62  88 127 163 197 254 309 361
#     4  11  24  43  66  90 120 167 214 257 316 387
#     4  10  21  35  60  88 119 155 210 253 296 364
#
# _framework density 22.608322999999999
#
# number of rings (size 3 to 8) (size 9 to 14) (size 15 to 20)
#    0.000    1.440    0.000    4.560    2.240    7.040 
#    0.000    2.400    0.000    0.000    0.000    0.000 
#    0.000    0.000    0.000    0.000    0.000    0.000 
#
# Total GULP energy -139490.763387 kJ/mol
# GULP energy per Si atom -5579.630535 kJ/mol
# Density = 2.255687 g / cm^3
# Si number density = 22.608323 Si / 1000 Ang^3
#
#
#
# Elastic Constant Matrix: (Units=GPa)
#
#
# Indices 1 2 3 4 5 6 
#
# 1 84.7640 18.5226 -13.4305 0.0000 0.0000 0.0000
# 2 18.5226 124.4123 -5.5568 0.0000 0.0000 0.0000
# 3 -13.4305 -5.5568 59.5582 0.0000 0.0000 0.0000
# 4 0.0000 0.0000 0.0000 8.1385 0.0000 0.0000
# 5 0.0000 0.0000 0.0000 0.0000 95.2905 0.0000
# 6 0.0000 0.0000 0.0000 0.0000 0.0000 11.3602
#
#
#
# Elastic Compliance Matrix: (Units=1/GPa)
#
#
# Indices 1 2 3 4 5 6 
#
# 1 0.012606 -0.001757 0.002679 0.000000 0.000000 0.000000
# 2 -0.001757 0.008316 0.000380 0.000000 0.000000 0.000000
# 3 0.002679 0.000380 0.017430 0.000000 0.000000 0.000000
# 4 0.000000 0.000000 0.000000 0.122872 0.000000 0.000000
# 5 0.000000 0.000000 0.000000 0.000000 0.010494 0.000000
# 6 0.000000 0.000000 0.000000 0.000000 0.000000 0.088026
#
#
# Mechanical properties :
#
#
# Convention : Reuss Voigt Hill
#
# Bulk Modulus (GPa) = 24.41734 29.75612 27.08673
# Shear Modulus (GPa) = 18.46422 40.90447 29.68434
#
# Velocity S-wave (km/s) = 2.86090 4.25816 3.62744
# Velocity P-wave (km/s) = 4.66225 6.11278 5.43611
#
# Compressibility (1/GPa) = 0.04095450
#
# Stress axis : x y z
#
# Youngs Moduli (GPa) = 79.32820 120.24502 57.37309
#
# Poissons Ratio (x) = 0.21129 -0.15369
# Poissons Ratio (y) = 0.13939 -0.02178
# Poissons Ratio (z) = -0.21250 -0.04566
#
# Static dielectric constant tensor:
#      x y z
#    x 1.787960 0.000000 0.000000 
#    y 0.000000 1.239410 0.000000 
#    z 0.000000 0.000000 1.899860 
# 
# From -- ./inp_files/5610.got.cif
#   From: 2010.05.17/outbox.cif.g08.bks.cpg/sg16_3_cif.got.tgz:5610.got - 2010.06.03 22:28:35.
