data_PCOD9310844
_publ_section_title
;
Structure prediction by ZEFSAII (Michael W. Deem and Ramdas Pophale) SiO2 
 PCOD9310844
Probable space group: P 2 2 21
;
_chemical_formula_sum "Si O2"
_cell_formula_units_Z 24
_cell_length_a 14.645510
_cell_length_b 10.580795
_cell_length_c 8.165854
_cell_angle_alpha 90.000000
_cell_angle_beta 90.000000
_cell_angle_gamma 90.000000
_cell_volume 1265.390037
_symmetry_space_group_name_H-M "P 2 2 21"
_symmetry_group_IT_number 17
_symmetry_cell_setting 'orthorhombic'
loop_
_space_group_symop_operation_xyz
x,y,z
-x,-y,1/2+z
x,-y,-z
-x,y,1/2-z
loop_
_atom_site_type_symbol
_atom_site_label
_atom_site_fract_x
_atom_site_fract_y
_atom_site_fract_z
Si Si1 0.895320 0.499999 0.194938
Si Si2 0.210449 0.750439 0.802939
Si Si3 0.210449 0.750437 0.197060
Si Si4 0.600278 0.353779 0.697444
Si Si5 0.105409 0.000001 0.801452
Si Si6 0.600279 0.353780 0.302555
O O1 0.845532 0.375212 0.260572
O O2 0.845531 0.624785 0.260574
O O3 0.000000 0.500001 0.250000
O O4 0.890678 0.500000 0.000000
O O5 0.314164 0.728613 0.743435
O O6 0.158201 0.874675 0.742231
O O7 0.214453 0.760483 1.000000
O O8 0.314164 0.728614 0.256565
O O9 0.158199 0.874672 0.257768
O O10 0.500000 0.310168 0.750000
O O11 0.602768 0.355858 0.500000
O O12 0.611629 0.500000 0.753979
O O13 0.000000 1.000000 0.750000
O O14 0.107208 0.000000 0.000000
O O15 0.500000 0.310169 0.250000
#
# Coordination Sequence:
#
# PCOD9310844 Si02
#       6
#     4   4   4   4   4   4
#     4  12  24  36  55  82 109 142 183 232 280 328
#     4  10  20  38  58  81 111 146 185 228 276 328
#     4  10  20  38  58  81 111 146 185 228 276 328
#     4   9  17  31  53  79 110 144 178 222 274 325
#     4  10  22  38  59  80 108 148 187 226 277 334
#     4   9  17  31  53  79 110 144 178 222 274 325
#
# _framework density 18.966483
#
# number of rings (size 3 to 8) (size 9 to 14) (size 15 to 20)
#    0.000    2.000    1.667    2.500    0.000    5.333 
#    0.000    0.833    0.000    0.000    0.000    0.000 
#    0.000    0.000    0.000    0.000    0.000    0.000 
#
# Total GULP energy -133985.106289 kJ/mol
# GULP energy per Si atom -5582.712762 kJ/mol
# Density = 1.892331 g / cm^3
# Si number density = 18.966483 Si / 1000 Ang^3
#
#
#
# Elastic Constant Matrix: (Units=GPa)
#
#
# Indices 1 2 3 4 5 6 
#
# 1 225.4882 109.6612 8.4806 0.0000 0.0000 0.0000
# 2 109.6612 156.7249 5.6637 0.0000 0.0000 0.0000
# 3 8.4806 5.6637 3.4320 0.0000 0.0000 0.0000
# 4 0.0000 0.0000 0.0000 -8.9261 0.0000 0.0000
# 5 0.0000 0.0000 0.0000 0.0000 31.4939 0.0000
# 6 0.0000 0.0000 0.0000 0.0000 0.0000 69.3898
#
#
#
# Elastic Compliance Matrix: (Units=1/GPa)
#
#
# Indices 1 2 3 4 5 6 
#
# 1 0.007021 -0.004557 -0.009828 0.000000 0.000000 0.000000
# 2 -0.004557 0.009744 -0.004818 0.000000 0.000000 0.000000
# 3 -0.009828 -0.004818 0.323611 0.000000 0.000000 0.000000
# 4 0.000000 0.000000 0.000000 -0.112031 0.000000 0.000000
# 5 0.000000 0.000000 0.000000 0.000000 0.031752 0.000000
# 6 0.000000 0.000000 0.000000 0.000000 0.000000 0.014411
#
#
# Mechanical properties :
#
#
# Convention : Reuss Voigt Hill
#
# Bulk Modulus (GPa) = 3.31160 70.36181 36.83670
# Shear Modulus (GPa) = 12.08982 35.84750 23.96866
#
# Velocity S-wave (km/s) = 2.52748 4.35218 3.55877
# Velocity P-wave (km/s) = 3.20427 7.90151 6.02914
#
# Compressibility (1/GPa) = 0.30196917
#
# Stress axis : x y z
#
# Youngs Moduli (GPa) = 142.43376 102.63238 3.09013
#
# Poissons Ratio (x) = 0.46773 0.03037
# Poissons Ratio (y) = 0.64912 0.01489
# Poissons Ratio (z) = 1.39982 0.49449
#
# Static dielectric constant tensor:
#      x y z
#    x 1.655360 0.000000 0.000000 
#    y 0.000000 1.674780 0.000000 
#    z 0.000000 0.000000 1.670680 
# 
# From -- ./inp_files/5124.got.cif
#   From: 2010.05.17/outbox.cif.g08.bks.cpg/sg17_3_cif.got.tgz:5124.got - 2010.06.03 22:34:06.
