data_PCOD9310374
_publ_section_title
;
Structure prediction by ZEFSAII (Michael W. Deem and Ramdas Pophale) SiO2 
 PCOD9310374
Probable space group: P 2 2 2
;
_chemical_formula_sum "Si O2"
_cell_formula_units_Z 25
_cell_length_a 7.400015
_cell_length_b 12.846040
_cell_length_c 12.340342
_cell_angle_alpha 90.000000
_cell_angle_beta 90.000000
_cell_angle_gamma 90.000000
_cell_volume 1173.083877
_symmetry_space_group_name_H-M "P 2 2 2"
_symmetry_group_IT_number 16
_symmetry_cell_setting 'orthorhombic'
loop_
_space_group_symop_operation_xyz
x,y,z
-x,-y,z
x,-y,-z
-x,y,-z
loop_
_atom_site_type_symbol
_atom_site_label
_atom_site_fract_x
_atom_site_fract_y
_atom_site_fract_z
Si Si1 0.761879 0.793134 0.216865
Si Si2 0.780659 0.990532 0.873385
Si Si3 0.309553 0.644556 0.960115
Si Si4 0.000000 0.500000 0.000000
Si Si5 0.178499 0.762294 0.173009
Si Si6 0.285399 0.626247 0.611597
Si Si7 0.719319 0.604995 0.636294
O O1 0.763290 0.734177 0.330847
O O2 0.964437 0.781172 0.171781
O O3 0.711731 0.912962 0.198703
O O4 0.644978 0.719615 0.139122
O O5 0.734962 0.877438 0.825622
O O6 0.000000 0.000000 0.873847
O O7 0.724159 0.000000 0.000000
O O8 0.232492 0.708918 0.061023
O O9 0.500000 0.601126 0.000000
O O10 0.145425 0.566614 0.931456
O O11 0.220733 0.686524 0.273174
O O12 0.502118 0.614817 0.624444
O O13 0.223601 0.514605 0.660876
O O14 0.222051 0.627938 0.487138
#
# Coordination Sequence:
#
# PCOD9310374 Si02
#       7
#     4   4   4   1   4   4   4
#     4  11  21  38  61  89 121 160 209 258 311 374
#     4   9  18  36  61  82 119 167 206 253 309 370
#     4  12  25  40  60  91 128 165 206 256 313 376
#     4  12  26  44  56  88 130 172 206 252 314 380
#     4  11  21  38  61  89 121 160 209 258 311 374
#     4   9  20  39  60  83 116 160 206 254 313 379
#     4   9  20  39  60  83 116 160 206 254 313 379
#
# _framework density 21.311350000000001
#
# number of rings (size 3 to 8) (size 9 to 14) (size 15 to 20)
#    0.000    1.760    3.200    2.160    2.240    1.280 
#    0.000    6.400    0.000    4.800    0.000    0.000 
#    0.000    0.000    0.000    0.000    0.000    0.000 
#
# Total GULP energy -139522.623933 kJ/mol
# GULP energy per Si atom -5580.904957 kJ/mol
# Density = 2.126284 g / cm^3
# Si number density = 21.311350 Si / 1000 Ang^3
#
#
#
# Elastic Constant Matrix: (Units=GPa)
#
#
# Indices 1 2 3 4 5 6 
#
# 1 70.1946 -1.1146 -13.2899 0.0000 0.0000 0.0000
# 2 -1.1146 178.0958 74.4701 0.0000 0.0000 0.0000
# 3 -13.2899 74.4701 101.4728 0.0000 0.0000 0.0000
# 4 0.0000 0.0000 0.0000 19.9467 0.0000 0.0000
# 5 0.0000 0.0000 0.0000 0.0000 17.1901 0.0000
# 6 0.0000 0.0000 0.0000 0.0000 0.0000 7.4290
#
#
#
# Elastic Compliance Matrix: (Units=1/GPa)
#
#
# Indices 1 2 3 4 5 6 
#
# 1 0.014739 -0.001031 0.002687 0.000000 0.000000 0.000000
# 2 -0.001031 0.008173 -0.006133 0.000000 0.000000 0.000000
# 3 0.002687 -0.006133 0.014708 0.000000 0.000000 0.000000
# 4 0.000000 0.000000 0.000000 0.050134 0.000000 0.000000
# 5 0.000000 0.000000 0.000000 0.000000 0.058173 0.000000
# 6 0.000000 0.000000 0.000000 0.000000 0.000000 0.134607
#
#
# Mechanical properties :
#
#
# Convention : Reuss Voigt Hill
#
# Bulk Modulus (GPa) = 34.88610 52.21048 43.54829
# Shear Modulus (GPa) = 16.72001 28.22635 22.47318
#
# Velocity S-wave (km/s) = 2.80404 3.64328 3.25086
# Velocity P-wave (km/s) = 5.18544 6.50001 5.87958
#
# Compressibility (1/GPa) = 0.02866471
#
# Stress axis : x y z
#
# Youngs Moduli (GPa) = 67.84950 122.35262 67.99038
#
# Poissons Ratio (x) = 0.12620 -0.18271
# Poissons Ratio (y) = 0.06998 0.41700
# Poissons Ratio (z) = -0.18233 0.75042
#
# Static dielectric constant tensor:
#      x y z
#    x 1.842660 0.000000 0.000000 
#    y 0.000000 1.866160 0.000000 
#    z 0.000000 0.000000 1.741490 
# 
# From -- ./inp_files/6536.got.cif
#   From: 2010.05.17/outbox.cif.g08.bks.cpg/sg16_4_cif.got.tgz:6536.got - 2010.06.03 22:28:35.
