data_PCOD9310852
_publ_section_title
;
Structure prediction by ZEFSAII (Michael W. Deem and Ramdas Pophale) SiO2 
 PCOD9310852
Probable space group: P 2 2 21
;
_chemical_formula_sum "Si O2"
_cell_formula_units_Z 16
_cell_length_a 7.861539
_cell_length_b 20.206553
_cell_length_c 5.048637
_cell_angle_alpha 90.000000
_cell_angle_beta 90.000000
_cell_angle_gamma 90.000000
_cell_volume 801.999234
_symmetry_space_group_name_H-M "P 2 2 21"
_symmetry_group_IT_number 17
_symmetry_cell_setting 'orthorhombic'
loop_
_space_group_symop_operation_xyz
x,y,z
-x,-y,1/2+z
x,-y,-z
-x,y,1/2-z
loop_
_atom_site_type_symbol
_atom_site_label
_atom_site_fract_x
_atom_site_fract_y
_atom_site_fract_z
Si Si1 0.874153 0.500000 0.000000
Si Si2 0.376956 0.000000 0.000000
Si Si3 0.125808 0.642855 0.499494
Si Si4 0.810162 0.783675 0.131381
Si Si5 0.309782 0.857986 0.866449
O O1 0.000000 0.499031 0.250000
O O2 0.782356 0.428720 0.012480
O O3 0.500000 0.985537 0.250000
O O4 0.271423 0.065963 0.061180
O O5 0.235211 0.708794 0.456054
O O6 0.000000 0.652173 0.750000
O O7 0.000000 0.638394 0.250000
O O8 0.701155 0.814133 0.369593
O O9 0.000000 0.782117 0.250000
O O10 0.801851 0.828346 0.869988
O O11 0.500000 0.857904 0.750000
#
# Coordination Sequence:
#
# PCOD9310852 Si02
#       5
#     2   2   4   4   4
#     4   8  14  24  42  68 100 136 176 210 248 302
#     4  10  20  38  60  80 102 136 182 228 260 302
#     4   9  16  28  46  72 106 141 171 212 262 307
#     4  11  21  35  55  83 115 141 168 219 278 318
#     4  11  22  38  59  80 103 141 184 219 259 320
#
# _framework density 19.950144999999999
#
# number of rings (size 3 to 8) (size 9 to 14) (size 15 to 20)
#    0.000    2.000    0.000    7.500    0.000    0.000 
#    0.000    2.500    0.000    3.000    0.000    3.500 
#    0.000    4.000    0.000    0.000    0.000    0.000 
#
# Total GULP energy -89207.150274 kJ/mol
# GULP energy per Si atom -5575.446892 kJ/mol
# Density = 1.990474 g / cm^3
# Si number density = 19.950145 Si / 1000 Ang^3
#
#
#
# Elastic Constant Matrix: (Units=GPa)
#
#
# Indices 1 2 3 4 5 6 
#
# 1 18.1159 24.9955 3.5027 0.0000 0.0000 0.0000
# 2 24.9955 239.7111 62.4638 0.0000 0.0000 0.0000
# 3 3.5027 62.4638 153.4452 0.0000 0.0000 0.0000
# 4 0.0000 0.0000 0.0000 34.1872 0.0000 0.0000
# 5 0.0000 0.0000 0.0000 0.0000 30.5197 0.0000
# 6 0.0000 0.0000 0.0000 0.0000 0.0000 38.2152
#
#
#
# Elastic Compliance Matrix: (Units=1/GPa)
#
#
# Indices 1 2 3 4 5 6 
#
# 1 0.064752 -0.007122 0.001421 0.000000 0.000000 0.000000
# 2 -0.007122 0.005450 -0.002056 0.000000 0.000000 0.000000
# 3 0.001421 -0.002056 0.007321 0.000000 0.000000 0.000000
# 4 0.000000 0.000000 0.000000 0.029251 0.000000 0.000000
# 5 0.000000 0.000000 0.000000 0.000000 0.032766 0.000000
# 6 0.000000 0.000000 0.000000 0.000000 0.000000 0.026168
#
#
# Mechanical properties :
#
#
# Convention : Reuss Voigt Hill
#
# Bulk Modulus (GPa) = 16.12646 65.91068 41.01857
# Shear Modulus (GPa) = 24.76569 41.93845 33.35207
#
# Velocity S-wave (km/s) = 3.52714 4.58991 4.09317
# Velocity P-wave (km/s) = 4.96876 7.82299 6.55315
#
# Compressibility (1/GPa) = 0.06200989
#
# Stress axis : x y z
#
# Youngs Moduli (GPa) = 15.44342 183.48239 136.58405
#
# Poissons Ratio (x) = 1.30682 -0.19412
# Poissons Ratio (y) = 0.10999 0.28082
# Poissons Ratio (z) = -0.02195 0.37724
#
# Static dielectric constant tensor:
#      x y z
#    x 1.689270 0.000000 0.000000 
#    y 0.000000 1.811040 0.000000 
#    z 0.000000 0.000000 1.680760 
# 
# From -- ./inp_files/761.got.cif
#   From: 2010.05.17/outbox.cif.g08.bks.cpg/sg17_1_cif.got.tgz:761.got - 2010.06.03 22:34:06.
