data_PCOD9310661
_publ_section_title
;
Structure prediction by ZEFSAII (Michael W. Deem and Ramdas Pophale) SiO2 
 PCOD9310661
Probable space group: P 2 2 21
;
_chemical_formula_sum "Si O2"
_cell_formula_units_Z 18
_cell_length_a 7.804490
_cell_length_b 8.288619
_cell_length_c 14.575241
_cell_angle_alpha 90.000000
_cell_angle_beta 90.000000
_cell_angle_gamma 90.000000
_cell_volume 942.849663
_symmetry_space_group_name_H-M "P 2 2 21"
_symmetry_group_IT_number 17
_symmetry_cell_setting 'orthorhombic'
loop_
_space_group_symop_operation_xyz
x,y,z
-x,-y,1/2+z
x,-y,-z
-x,y,1/2-z
loop_
_atom_site_type_symbol
_atom_site_label
_atom_site_fract_x
_atom_site_fract_y
_atom_site_fract_z
Si Si1 0.500000 0.956050 0.750000
Si Si2 0.347872 0.632275 0.938199
Si Si3 0.714460 0.466243 0.899053
Si Si4 0.550565 0.864706 0.068348
Si Si5 0.189336 0.721005 0.748357
O O1 0.339050 0.845164 0.721307
O O2 0.533996 0.059746 0.659001
O O3 0.523247 0.546202 0.902599
O O4 0.238926 0.677931 0.851665
O O5 0.255600 0.500000 0.000000
O O6 0.411787 0.776425 0.003028
O O7 0.680736 0.274421 0.896216
O O8 0.805188 0.563339 0.817561
O O9 0.790957 0.500000 0.000000
O O10 0.628579 0.000000 0.000000
O O11 0.000000 0.792305 0.750000
#
# Coordination Sequence:
#
# PCOD9310661 Si02
#       5
#     2   4   4   4   4
#     4  12  22  38  66  88 132 162 212 256 330 374
#     4   9  19  37  63  88 119 162 213 254 317 372
#     4   9  19  37  65  89 115 161 216 252 306 377
#     4  10  19  35  66  92 118 167 200 264 324 375
#     4  12  23  39  64  92 128 169 211 264 312 383
#
# _framework density 19.091059999999999
#
# number of rings (size 3 to 8) (size 9 to 14) (size 15 to 20)
#    0.000    2.222    4.444    1.333    6.222    0.889 
#    0.000    1.111   24.444    0.000    0.000    0.000 
#    0.000    0.000    0.000    0.000    0.000    0.000 
#
# Total GULP energy -100275.011270 kJ/mol
# GULP energy per Si atom -5570.833959 kJ/mol
# Density = 1.904761 g / cm^3
# Si number density = 19.091060 Si / 1000 Ang^3
#
#
#
# Elastic Constant Matrix: (Units=GPa)
#
#
# Indices 1 2 3 4 5 6 
#
# 1 64.4129 16.8428 12.0783 0.0000 0.0000 0.0000
# 2 16.8428 103.4147 39.9923 0.0000 0.0000 0.0000
# 3 12.0783 39.9923 96.2798 0.0000 0.0000 0.0000
# 4 0.0000 0.0000 0.0000 34.6648 0.0000 0.0000
# 5 0.0000 0.0000 0.0000 0.0000 6.0979 0.0000
# 6 0.0000 0.0000 0.0000 0.0000 0.0000 -5.2743
#
#
#
# Elastic Compliance Matrix: (Units=1/GPa)
#
#
# Indices 1 2 3 4 5 6 
#
# 1 0.016317 -0.002223 -0.001124 0.000000 0.000000 0.000000
# 2 -0.002223 0.011823 -0.004632 0.000000 0.000000 0.000000
# 3 -0.001124 -0.004632 0.012451 0.000000 0.000000 0.000000
# 4 0.000000 0.000000 0.000000 0.028848 0.000000 0.000000
# 5 0.000000 0.000000 0.000000 0.000000 0.163990 0.000000
# 6 0.000000 0.000000 0.000000 0.000000 0.000000 -0.189598
#
#
# Mechanical properties :
#
#
# Convention : Reuss Voigt Hill
#
# Bulk Modulus (GPa) = 40.59435 44.65935 42.62685
# Shear Modulus (GPa) = 73.52978 20.11062 46.82020
#
# Velocity S-wave (km/s) = 6.21280 3.24914 4.95761
# Velocity P-wave (km/s) = 8.53082 6.12531 7.42612
#
# Compressibility (1/GPa) = 0.02463397
#
# Stress axis : x y z
#
# Youngs Moduli (GPa) = 61.28662 84.57952 80.31191
#
# Poissons Ratio (x) = 0.18802 0.09024
# Poissons Ratio (y) = 0.13624 0.37202
# Poissons Ratio (z) = 0.06886 0.39179
#
# Static dielectric constant tensor:
#      x y z
#    x 1.676950 0.000000 0.000000 
#    y 0.000000 1.732510 0.000000 
#    z 0.000000 0.000000 1.699030 
# 
# From -- ./inp_files/7926.got.cif
#   From: 2010.05.17/outbox.cif.g08.bks.cpg/sg17_4_cif.got.tgz:7926.got - 2010.06.03 22:34:06.
