data_PCOD9310721
_publ_section_title
;
Structure prediction by ZEFSAII (Michael W. Deem and Ramdas Pophale) SiO2 
 PCOD9310721
Probable space group: P 2 2 21
;
_chemical_formula_sum "Si O2"
_cell_formula_units_Z 14
_cell_length_a 14.827618
_cell_length_b 9.325066
_cell_length_c 5.197645
_cell_angle_alpha 90.000000
_cell_angle_beta 90.000000
_cell_angle_gamma 90.000000
_cell_volume 718.670663
_symmetry_space_group_name_H-M "P 2 2 21"
_symmetry_group_IT_number 17
_symmetry_cell_setting 'orthorhombic'
loop_
_space_group_symop_operation_xyz
x,y,z
-x,-y,1/2+z
x,-y,-z
-x,y,1/2-z
loop_
_atom_site_type_symbol
_atom_site_label
_atom_site_fract_x
_atom_site_fract_y
_atom_site_fract_z
Si Si1 0.099463 0.100496 0.250542
Si Si2 0.709285 0.238321 0.221266
Si Si3 0.641075 0.500000 0.500000
Si Si4 0.599372 0.204020 0.704340
O O1 0.186315 0.200315 0.264285
O O2 0.000000 0.171281 0.250000
O O3 0.102569 0.000000 0.500000
O O4 0.106362 0.000000 0.000000
O O5 0.696664 0.406105 0.293626
O O6 0.653135 0.158585 0.448143
O O7 0.663021 0.195944 0.953172
O O8 0.587788 0.374641 0.642634
O O9 0.500000 0.141579 0.750000
#
# Coordination Sequence:
#
# PCOD9310721 Si02
#       4
#     4   4   2   4
#     4  10  21  39  63  81  98 137 189 230 268 316
#     4  10  20  33  54  81 112 135 181 225 266 312
#     4   8  22  28  56  78 118 136 188 200 282 300
#     4  10  20  31  53  81 112 146 180 211 257 322
#
# _framework density 19.480412999999999
#
# number of rings (size 3 to 8) (size 9 to 14) (size 15 to 20)
#    1.714    0.571    0.000    3.429    4.000    0.000 
#    0.000    0.000    6.286   17.143    0.000    0.000 
#    0.000    0.000    0.000    0.000    0.000    0.000 
#
# Total GULP energy -77943.520770 kJ/mol
# GULP energy per Si atom -5567.394341 kJ/mol
# Density = 1.943607 g / cm^3
# Si number density = 19.480413 Si / 1000 Ang^3
#
#
#
# Elastic Constant Matrix: (Units=GPa)
#
#
# Indices 1 2 3 4 5 6 
#
# 1 139.3992 -7.8771 22.2031 0.0000 0.0000 0.0000
# 2 -7.8771 17.5984 -12.3606 0.0000 0.0000 0.0000
# 3 22.2031 -12.3606 138.0443 0.0000 0.0000 0.0000
# 4 0.0000 0.0000 0.0000 0.9500 0.0000 0.0000
# 5 0.0000 0.0000 0.0000 0.0000 -329.6417 0.0000
# 6 0.0000 0.0000 0.0000 0.0000 0.0000 29.8125
#
#
#
# Elastic Compliance Matrix: (Units=1/GPa)
#
#
# Indices 1 2 3 4 5 6 
#
# 1 0.007478 0.002670 -0.000964 0.000000 0.000000 0.000000
# 2 0.002670 0.061590 0.005085 0.000000 0.000000 0.000000
# 3 -0.000964 0.005085 0.007854 0.000000 0.000000 0.000000
# 4 0.000000 0.000000 0.000000 1.052663 0.000000 0.000000
# 5 0.000000 0.000000 0.000000 0.000000 -0.003034 0.000000
# 6 0.000000 0.000000 0.000000 0.000000 0.000000 0.033543
#
#
# Mechanical properties :
#
#
# Convention : Reuss Voigt Hill
#
# Bulk Modulus (GPa) = 11.04891 33.21921 22.13406
# Shear Modulus (GPa) = 4.24924 -40.23741 -17.99408
#
# Velocity S-wave (km/s) = 1.47852 -4.54974 -3.04254
# Velocity P-wave (km/s) = 2.93237 3.24200 0.97769
#
# Compressibility (1/GPa) = 0.09050669
#
# Stress axis : x y z
#
# Youngs Moduli (GPa) = 133.72520 16.23633 127.31723
#
# Poissons Ratio (x) = -0.04336 0.12269
# Poissons Ratio (y) = -0.35709 -0.64745
# Poissons Ratio (z) = 0.12887 -0.08257
#
# Static dielectric constant tensor:
#      x y z
#    x 1.676050 0.000000 0.000000 
#    y 0.000000 1.717960 0.000000 
#    z 0.000000 0.000000 1.685960 
# 
# From -- ./inp_files/1198.got.cif
#   From: 2010.05.17/outbox.cif.g08.bks.cpg/sg17_1_cif.got.tgz:1198.got - 2010.06.03 22:34:06.
