data_PCOD9310675
_publ_section_title
;
Structure prediction by ZEFSAII (Michael W. Deem and Ramdas Pophale) SiO2 
 PCOD9310675
Probable space group: P 2 2 21
;
_chemical_formula_sum "Si O2"
_cell_formula_units_Z 30
_cell_length_a 11.454698
_cell_length_b 14.112652
_cell_length_c 9.310706
_cell_angle_alpha 90.000000
_cell_angle_beta 90.000000
_cell_angle_gamma 90.000000
_cell_volume 1505.133041
_symmetry_space_group_name_H-M "P 2 2 21"
_symmetry_group_IT_number 17
_symmetry_cell_setting 'orthorhombic'
loop_
_space_group_symop_operation_xyz
x,y,z
-x,-y,1/2+z
x,-y,-z
-x,y,1/2-z
loop_
_atom_site_type_symbol
_atom_site_label
_atom_site_fract_x
_atom_site_fract_y
_atom_site_fract_z
Si Si1 0.547638 0.585897 0.596886
Si Si2 0.250261 0.849251 0.280687
Si Si3 0.900263 0.820209 0.864659
Si Si4 0.941260 0.752695 0.387587
Si Si5 0.741046 0.748203 0.628841
Si Si6 0.579212 0.108633 0.525820
Si Si7 0.577445 0.719533 0.107821
Si Si8 0.176758 0.000000 0.500000
O O1 0.592246 0.500000 0.500000
O O2 0.500000 0.553138 0.750000
O O3 0.647373 0.664277 0.622433
O O4 0.445126 0.637194 0.505459
O O5 0.130235 0.836718 0.193273
O O6 0.350851 0.884920 0.174761
O O7 0.294633 0.747045 0.337457
O O8 0.243757 0.922821 0.408245
O O9 0.791620 0.769339 0.787392
O O10 0.000000 0.803128 0.750000
O O11 0.949238 0.781116 0.014102
O O12 0.889079 0.932705 0.887915
O O13 0.840879 0.724360 0.506745
O O14 0.000000 0.698110 0.250000
O O15 0.672384 0.844618 0.584276
O O16 0.474756 0.183962 0.537641
O O17 0.546899 0.000000 0.500000
O O18 0.500000 0.699025 0.250000
#
# Coordination Sequence:
#
# PCOD9310675 Si02
#       8
#     4   4   4   4   4   4   4   2
#     4  11  24  42  70  97 120 148 190 250 319 388
#     4  10  21  32  49  79 115 164 210 257 289 353
#     4  10  22  35  52  79 118 167 211 262 294 343
#     4  10  19  37  56  79 113 164 207 250 302 343
#     4   9  21  40  59  86 121 157 199 254 307 359
#     4   9  17  34  53  75 115 162 204 245 301 355
#     4   9  20  39  58  83 121 157 196 251 306 371
#     4  12  22  28  50  78 122 164 226 248 298 332
#
# _framework density 19.931794
#
# number of rings (size 3 to 8) (size 9 to 14) (size 15 to 20)
#    0.000    2.133    1.333    2.000    4.667    0.000 
#    2.400    0.667    0.000    2.400    0.000    0.933 
#    0.000    0.000    0.000    0.000    0.000    0.000 
#
# Total GULP energy -167070.044633 kJ/mol
# GULP energy per Si atom -5569.001488 kJ/mol
# Density = 1.988643 g / cm^3
# Si number density = 19.931794 Si / 1000 Ang^3
#
#
#
# Elastic Constant Matrix: (Units=GPa)
#
#
# Indices 1 2 3 4 5 6 
#
# 1 53.1147 8.6465 26.0280 0.0000 0.0000 0.0000
# 2 8.6465 62.7296 22.7306 0.0000 0.0000 0.0000
# 3 26.0280 22.7306 115.7581 0.0000 0.0000 0.0000
# 4 0.0000 0.0000 0.0000 29.6442 0.0000 0.0000
# 5 0.0000 0.0000 0.0000 0.0000 26.2514 0.0000
# 6 0.0000 0.0000 0.0000 0.0000 0.0000 19.1838
#
#
#
# Elastic Compliance Matrix: (Units=1/GPa)
#
#
# Indices 1 2 3 4 5 6 
#
# 1 0.021255 -0.001290 -0.004526 0.000000 0.000000 0.000000
# 2 -0.001290 0.017241 -0.003095 0.000000 0.000000 0.000000
# 3 -0.004526 -0.003095 0.010264 0.000000 0.000000 0.000000
# 4 0.000000 0.000000 0.000000 0.033733 0.000000 0.000000
# 5 0.000000 0.000000 0.000000 0.000000 0.038093 0.000000
# 6 0.000000 0.000000 0.000000 0.000000 0.000000 0.052127
#
#
# Mechanical properties :
#
#
# Convention : Reuss Voigt Hill
#
# Bulk Modulus (GPa) = 32.32290 38.49028 35.40659
# Shear Modulus (GPa) = 24.89437 26.62905 25.76171
#
# Velocity S-wave (km/s) = 3.53792 3.65911 3.59903
# Velocity P-wave (km/s) = 5.73944 6.09959 5.92225
#
# Compressibility (1/GPa) = 0.03093782
#
# Stress axis : x y z
#
# Youngs Moduli (GPa) = 47.04782 58.00171 97.42623
#
# Poissons Ratio (x) = 0.07481 0.44094
# Poissons Ratio (y) = 0.06068 0.30158
# Poissons Ratio (z) = 0.21293 0.17954
#
# Static dielectric constant tensor:
#      x y z
#    x 1.761050 0.000000 0.000000 
#    y 0.000000 1.710840 0.000000 
#    z 0.000000 0.000000 1.765480 
# 
# From -- ./inp_files/4902.got.cif
#   From: 2010.05.17/outbox.cif.g08.bks.cpg/sg17_3_cif.got.tgz:4902.got - 2010.06.03 22:34:06.
