data_PCOD9310353
_publ_section_title
;
Structure prediction by ZEFSAII (Michael W. Deem and Ramdas Pophale) SiO2 
 PCOD9310353
Probable space group: P 2 2 2
;
_chemical_formula_sum "Si O2"
_cell_formula_units_Z 20
_cell_length_a 5.392778
_cell_length_b 14.024531
_cell_length_c 12.147594
_cell_angle_alpha 90.000000
_cell_angle_beta 90.000000
_cell_angle_gamma 90.000000
_cell_volume 918.736896
_symmetry_space_group_name_H-M "P 2 2 2"
_symmetry_group_IT_number 16
_symmetry_cell_setting 'orthorhombic'
loop_
_space_group_symop_operation_xyz
x,y,z
-x,-y,z
x,-y,-z
-x,y,-z
loop_
_atom_site_type_symbol
_atom_site_label
_atom_site_fract_x
_atom_site_fract_y
_atom_site_fract_z
Si Si1 0.743282 0.746672 0.796314
Si Si2 0.000000 0.171042 0.000000
Si Si3 0.660040 0.908813 0.185803
Si Si4 0.500000 0.697200 0.500000
Si Si5 0.879153 0.162695 0.616156
Si Si6 0.747820 0.437866 0.334420
O O1 0.498392 0.811876 0.800148
O O2 0.731499 0.636189 0.766382
O O3 0.924494 0.788870 0.700499
O O4 0.847190 0.763078 0.917696
O O5 0.155716 0.107905 0.085149
O O6 0.776818 0.921509 0.307040
O O7 0.500000 0.000000 0.159506
O O8 0.340524 0.763826 0.581480
O O9 0.299518 0.629728 0.440373
O O10 0.000000 0.135087 0.500000
O O11 0.500000 0.500000 0.330266
O O12 0.000000 0.500000 0.337955
#
# Coordination Sequence:
#
# PCOD9310353 Si02
#       6
#     4   2   4   2   4   4
#     4  11  24  45  70 101 147 190 244 318 382 443
#     4  10  26  45  79  98 144 192 249 320 383 446
#     4  11  25  47  75 111 142 191 255 317 382 463
#     4  12  23  42  71 106 152 202 249 314 373 466
#     4  11  21  41  72 102 154 198 236 300 385 460
#     4  12  27  43  73 109 149 198 260 317 383 461
#
# _framework density 21.769017000000002
#
# number of rings (size 3 to 8) (size 9 to 14) (size 15 to 20)
#    0.000    0.800    4.000    2.100    2.800    8.000 
#    0.000    8.000    0.000    1.200    0.000    0.000 
#    0.000    0.000    0.000    0.000    0.000    0.000 
#
# Total GULP energy -111782.194666 kJ/mol
# GULP energy per Si atom -5589.109733 kJ/mol
# Density = 2.171947 g / cm^3
# Si number density = 21.769017 Si / 1000 Ang^3
#
#
#
# Elastic Constant Matrix: (Units=GPa)
#
#
# Indices 1 2 3 4 5 6 
#
# 1 117.6270 47.3906 56.0111 0.0000 0.0000 0.0000
# 2 47.3906 84.1908 51.1437 0.0000 0.0000 0.0000
# 3 56.0111 51.1437 186.4439 0.0000 0.0000 0.0000
# 4 0.0000 0.0000 0.0000 14.1223 0.0000 0.0000
# 5 0.0000 0.0000 0.0000 0.0000 -19.7456 0.0000
# 6 0.0000 0.0000 0.0000 0.0000 0.0000 39.3053
#
#
#
# Elastic Compliance Matrix: (Units=1/GPa)
#
#
# Indices 1 2 3 4 5 6 
#
# 1 0.011603 -0.005297 -0.002033 0.000000 0.000000 0.000000
# 2 -0.005297 0.016671 -0.002982 0.000000 0.000000 0.000000
# 3 -0.002033 -0.002982 0.006792 0.000000 0.000000 0.000000
# 4 0.000000 0.000000 0.000000 0.070810 0.000000 0.000000
# 5 0.000000 0.000000 0.000000 0.000000 -0.050644 0.000000
# 6 0.000000 0.000000 0.000000 0.000000 0.000000 0.025442
#
#
# Mechanical properties :
#
#
# Convention : Reuss Voigt Hill
#
# Bulk Modulus (GPa) = 69.23461 77.48362 73.35911
# Shear Modulus (GPa) = 47.12048 22.31748 34.71898
#
# Velocity S-wave (km/s) = 4.65754 3.20534 3.99793
# Velocity P-wave (km/s) = 7.79723 7.02636 7.42181
#
# Compressibility (1/GPa) = 0.01444364
#
# Stress axis : x y z
#
# Youngs Moduli (GPa) = 86.18146 59.98615 147.22744
#
# Poissons Ratio (x) = 0.31772 0.29931
# Poissons Ratio (y) = 0.45646 0.43899
# Poissons Ratio (z) = 0.17520 0.17886
#
# Static dielectric constant tensor:
#      x y z
#    x 1.908280 0.000000 0.000000 
#    y 0.000000 1.951010 0.000000 
#    z 0.000000 0.000000 1.788370 
# 
# From -- ./inp_files/5908.got.cif
#   From: 2010.05.17/outbox.cif.g08.bks.cpg/sg16_3_cif.got.tgz:5908.got - 2010.06.03 22:28:35.
