data_PCOD9310672
_publ_section_title
;
Structure prediction by ZEFSAII (Michael W. Deem and Ramdas Pophale) SiO2 
 PCOD9310672
Probable space group: P 2 2 21
;
_chemical_formula_sum "Si O2"
_cell_formula_units_Z 18
_cell_length_a 9.400061
_cell_length_b 7.556996
_cell_length_c 11.665642
_cell_angle_alpha 90.000000
_cell_angle_beta 90.000000
_cell_angle_gamma 90.000000
_cell_volume 828.683151
_symmetry_space_group_name_H-M "P 2 2 21"
_symmetry_group_IT_number 17
_symmetry_cell_setting 'orthorhombic'
loop_
_space_group_symop_operation_xyz
x,y,z
-x,-y,1/2+z
x,-y,-z
-x,y,1/2-z
loop_
_atom_site_type_symbol
_atom_site_label
_atom_site_fract_x
_atom_site_fract_y
_atom_site_fract_z
Si Si1 0.781022 0.099047 0.775246
Si Si2 0.185198 0.500000 0.500000
Si Si3 0.661402 0.522475 0.221300
Si Si4 0.853239 0.250603 0.323626
Si Si5 0.012986 0.192034 0.930319
O O1 0.674813 0.263002 0.794963
O O2 0.882884 0.068166 0.885304
O O3 0.877197 0.177698 0.672492
O O4 0.750633 0.902585 0.728937
O O5 0.285434 0.565355 0.602103
O O6 0.076824 0.629560 0.437422
O O7 0.500000 0.480816 0.250000
O O8 0.767484 0.434025 0.314616
O O9 0.000000 0.263993 0.250000
O O10 0.902475 0.187502 0.449958
#
# Coordination Sequence:
#
# PCOD9310672 Si02
#       5
#     4   2   4   4   4
#     4  10  23  38  63  95 126 162 203 256 315 364
#     4  10  20  38  64  84 128 166 200 250 310 374
#     4  11  26  43  60  90 129 170 204 243 311 377
#     4  12  22  37  67  97 119 155 211 263 305 357
#     4  10  19  36  62  98 123 151 204 266 312 351
#
# _framework density 21.721209999999999
#
# number of rings (size 3 to 8) (size 9 to 14) (size 15 to 20)
#    0.000    1.333    4.444    2.000    3.111    2.667 
#    0.000    0.000    0.000    0.000    0.000    0.000 
#    0.000    0.000    0.000    0.000    0.000    0.000 
#
# Total GULP energy -100201.694789 kJ/mol
# GULP energy per Si atom -5566.760822 kJ/mol
# Density = 2.167177 g / cm^3
# Si number density = 21.721210 Si / 1000 Ang^3
#
#
#
# Elastic Constant Matrix: (Units=GPa)
#
#
# Indices 1 2 3 4 5 6 
#
# 1 73.0748 22.5809 26.0253 0.0000 0.0000 0.0000
# 2 22.5809 88.3790 -0.6782 0.0000 0.0000 0.0000
# 3 26.0253 -0.6782 130.3139 0.0000 0.0000 0.0000
# 4 0.0000 0.0000 0.0000 29.5308 0.0000 0.0000
# 5 0.0000 0.0000 0.0000 0.0000 9.8628 0.0000
# 6 0.0000 0.0000 0.0000 0.0000 0.0000 18.5644
#
#
#
# Elastic Compliance Matrix: (Units=1/GPa)
#
#
# Indices 1 2 3 4 5 6 
#
# 1 0.016119 -0.004143 -0.003241 0.000000 0.000000 0.000000
# 2 -0.004143 0.012380 0.000892 0.000000 0.000000 0.000000
# 3 -0.003241 0.000892 0.008326 0.000000 0.000000 0.000000
# 4 0.000000 0.000000 0.000000 0.033863 0.000000 0.000000
# 5 0.000000 0.000000 0.000000 0.000000 0.101392 0.000000
# 6 0.000000 0.000000 0.000000 0.000000 0.000000 0.053867
#
#
# Mechanical properties :
#
#
# Convention : Reuss Voigt Hill
#
# Bulk Modulus (GPa) = 41.94489 43.06929 42.50709
# Shear Modulus (GPa) = 20.25296 27.84757 24.05027
#
# Velocity S-wave (km/s) = 3.05684 3.58445 3.33111
# Velocity P-wave (km/s) = 5.64017 6.08295 5.86574
#
# Compressibility (1/GPa) = 0.02384081
#
# Stress axis : x y z
#
# Youngs Moduli (GPa) = 62.03815 80.77309 120.11099
#
# Poissons Ratio (x) = 0.33467 0.38925
# Poissons Ratio (y) = 0.25704 -0.10713
# Poissons Ratio (z) = 0.20105 -0.07204
#
# Static dielectric constant tensor:
#      x y z
#    x 1.748520 0.000000 0.000000 
#    y 0.000000 1.944050 0.000000 
#    z 0.000000 0.000000 1.871670 
# 
# From -- ./inp_files/6295.got.cif
#   From: 2010.05.17/outbox.cif.g08.bks.cpg/sg17_4_cif.got.tgz:6295.got - 2010.06.03 22:34:06.
