data_PCOD9310408
_publ_section_title
;
Structure prediction by ZEFSAII (Michael W. Deem and Ramdas Pophale) SiO2 
 PCOD9310408
Probable space group: P 2 2 2
;
_chemical_formula_sum "Si O2"
_cell_formula_units_Z 19
_cell_length_a 12.335436
_cell_length_b 7.561134
_cell_length_c 9.640859
_cell_angle_alpha 90.000000
_cell_angle_beta 90.000000
_cell_angle_gamma 90.000000
_cell_volume 899.201806
_symmetry_space_group_name_H-M "P 2 2 2"
_symmetry_group_IT_number 16
_symmetry_cell_setting 'orthorhombic'
loop_
_space_group_symop_operation_xyz
x,y,z
-x,-y,z
x,-y,-z
-x,y,-z
loop_
_atom_site_type_symbol
_atom_site_label
_atom_site_fract_x
_atom_site_fract_y
_atom_site_fract_z
Si Si1 0.811871 0.168740 0.672555
Si Si2 0.500000 0.000000 0.500000
Si Si3 0.879138 0.294680 0.964835
Si Si4 0.500000 0.000000 0.000000
Si Si5 0.000000 0.000000 0.500000
Si Si6 0.653016 0.314980 0.437333
Si Si7 0.302075 0.841441 0.171817
O O1 0.847312 0.279610 0.804737
O O2 0.740723 0.257992 0.552375
O O3 0.744136 0.005140 0.737328
O O4 0.920969 0.109083 0.597844
O O5 0.573294 0.144955 0.422676
O O6 0.878777 0.500000 0.000000
O O7 0.787514 0.198615 0.055504
O O8 0.000000 0.224579 0.000000
O O9 0.416459 0.112068 0.903138
O O10 0.611747 0.500000 0.500000
O O11 0.693196 0.323881 0.279047
#
# Coordination Sequence:
#
# PCOD9310408 Si02
#       7
#     4   1   4   1   1   4   4
#     4  12  23  44  71 103 145 189 248 299 377 454
#     4  12  22  48  68  98 134 184 232 302 354 428
#     4  11  25  44  69 103 146 190 245 310 378 456
#     4  12  26  44  78 100 150 202 254 306 376 436
#     4  12  22  40  76 110 144 198 252 312 384 460
#     4  12  26  45  73 105 144 188 239 304 370 435
#     4  12  23  47  72 103 144 195 247 308 366 454
#
# _framework density 21.129850999999999
#
# number of rings (size 3 to 8) (size 9 to 14) (size 15 to 20)
#    0.000    0.211    6.316    3.474    0.000    0.842 
#    0.000    0.526    0.000    0.000    0.000    0.000 
#    0.000    0.000    0.000    0.000    0.000    0.000 
#
# Total GULP energy -106064.484753 kJ/mol
# GULP energy per Si atom -5582.341303 kJ/mol
# Density = 2.108176 g / cm^3
# Si number density = 21.129851 Si / 1000 Ang^3
#
#
#
# Elastic Constant Matrix: (Units=GPa)
#
#
# Indices 1 2 3 4 5 6 
#
# 1 174.0400 53.6590 84.5310 0.0000 0.0000 0.0000
# 2 53.6590 103.8070 50.1798 0.0000 0.0000 0.0000
# 3 84.5310 50.1798 190.7723 0.0000 0.0000 0.0000
# 4 0.0000 0.0000 0.0000 59.1436 0.0000 0.0000
# 5 0.0000 0.0000 0.0000 0.0000 61.5558 0.0000
# 6 0.0000 0.0000 0.0000 0.0000 0.0000 18.9443
#
#
#
# Elastic Compliance Matrix: (Units=1/GPa)
#
#
# Indices 1 2 3 4 5 6 
#
# 1 0.007956 -0.002759 -0.002800 0.000000 0.000000 0.000000
# 2 -0.002759 0.011994 -0.001932 0.000000 0.000000 0.000000
# 3 -0.002800 -0.001932 0.006991 0.000000 0.000000 0.000000
# 4 0.000000 0.000000 0.000000 0.016908 0.000000 0.000000
# 5 0.000000 0.000000 0.000000 0.000000 0.016245 0.000000
# 6 0.000000 0.000000 0.000000 0.000000 0.000000 0.052786
#
#
# Mechanical properties :
#
#
# Convention : Reuss Voigt Hill
#
# Bulk Modulus (GPa) = 83.62371 93.92878 88.77625
# Shear Modulus (GPa) = 37.92235 46.61205 42.26720
#
# Velocity S-wave (km/s) = 4.24102 4.70188 4.47738
# Velocity P-wave (km/s) = 7.97770 8.60387 8.29669
#
# Compressibility (1/GPa) = 0.01195833
#
# Stress axis : x y z
#
# Youngs Moduli (GPa) = 125.68591 83.37804 143.05008
#
# Poissons Ratio (x) = 0.23007 0.40049
# Poissons Ratio (y) = 0.34682 0.27638
# Poissons Ratio (z) = 0.35187 0.16109
#
# Static dielectric constant tensor:
#      x y z
#    x 1.807350 0.000000 0.000000 
#    y 0.000000 1.780690 0.000000 
#    z 0.000000 0.000000 1.771100 
# 
# From -- ./inp_files/4563.got.cif
#   From: 2010.05.17/outbox.cif.g08.bks.cpg/sg16_3_cif.got.tgz:4563.got - 2010.06.03 22:28:35.
