data_PCOD9310368
_publ_section_title
;
Structure prediction by ZEFSAII (Michael W. Deem and Ramdas Pophale) SiO2 
 PCOD9310368
Probable space group: P 2 2 2
;
_chemical_formula_sum "Si O2"
_cell_formula_units_Z 26
_cell_length_a 8.476393
_cell_length_b 15.888062
_cell_length_c 9.136850
_cell_angle_alpha 90.000000
_cell_angle_beta 90.000000
_cell_angle_gamma 90.000000
_cell_volume 1230.491180
_symmetry_space_group_name_H-M "P 2 2 2"
_symmetry_group_IT_number 16
_symmetry_cell_setting 'orthorhombic'
loop_
_space_group_symop_operation_xyz
x,y,z
-x,-y,z
x,-y,-z
-x,y,-z
loop_
_atom_site_type_symbol
_atom_site_label
_atom_site_fract_x
_atom_site_fract_y
_atom_site_fract_z
Si Si1 0.336594 0.772541 0.484860
Si Si2 0.850695 0.241201 0.769271
Si Si3 0.500000 0.000000 0.000000
Si Si4 0.938492 0.915503 0.835187
Si Si5 0.876222 0.355985 0.307204
Si Si6 0.660429 0.696973 0.948159
Si Si7 0.000000 0.500000 0.500000
Si Si8 0.412849 0.129893 0.790646
O O1 0.500000 0.722273 0.500000
O O2 0.271577 0.789485 0.646302
O O3 0.207338 0.715737 0.405408
O O4 0.385931 0.851701 0.381936
O O5 0.984651 0.169468 0.776161
O O6 0.946645 0.324300 0.724483
O O7 0.763495 0.263141 0.920355
O O8 0.457766 0.072332 0.126754
O O9 0.750893 0.914093 0.838427
O O10 0.000000 0.000000 0.758603
O O11 0.000000 0.917192 0.000000
O O12 0.774591 0.355707 0.158058
O O13 0.892556 0.441139 0.397155
O O14 0.593322 0.776682 0.857025
O O15 0.500000 0.651663 0.000000
#
# Coordination Sequence:
#
# PCOD9310368 Si02
#       8
#     4   4   1   4   4   4   1   4
#     4  11  24  40  66  96 134 176 223 281 350 426
#     4  12  20  41  68  96 133 178 226 286 335 413
#     4  12  24  40  60  84 140 192 238 308 348 404
#     4  11  21  34  59  90 124 170 235 283 325 378
#     4  11  23  44  73 103 130 180 226 273 351 431
#     4  11  22  40  70 103 135 180 232 279 338 424
#     4  12  24  48  76 108 138 172 228 296 352 428
#     4  11  23  38  60  92 129 185 238 285 347 398
#
# _framework density 21.129774999999999
#
# number of rings (size 3 to 8) (size 9 to 14) (size 15 to 20)
#    0.000    0.769    6.923    3.231    0.000    0.000 
#    0.000    5.385    0.000    0.923    0.000    0.000 
#    0.000    0.000    0.000    0.000    0.000    0.000 
#
# Total GULP energy -144893.525808 kJ/mol
# GULP energy per Si atom -5572.827916 kJ/mol
# Density = 2.108168 g / cm^3
# Si number density = 21.129775 Si / 1000 Ang^3
#
#
#
# Elastic Constant Matrix: (Units=GPa)
#
#
# Indices 1 2 3 4 5 6 
#
# 1 85.9165 16.0060 30.0841 0.0000 0.0000 0.0000
# 2 16.0060 85.0253 44.9849 0.0000 0.0000 0.0000
# 3 30.0841 44.9849 138.6573 0.0000 0.0000 0.0000
# 4 0.0000 0.0000 0.0000 32.0114 0.0000 0.0000
# 5 0.0000 0.0000 0.0000 0.0000 41.4899 0.0000
# 6 0.0000 0.0000 0.0000 0.0000 0.0000 -62.0854
#
#
#
# Elastic Compliance Matrix: (Units=1/GPa)
#
#
# Indices 1 2 3 4 5 6 
#
# 1 0.012685 -0.001125 -0.002387 0.000000 0.000000 0.000000
# 2 -0.001125 0.014298 -0.004395 0.000000 0.000000 0.000000
# 3 -0.002387 -0.004395 0.009156 0.000000 0.000000 0.000000
# 4 0.000000 0.000000 0.000000 0.031239 0.000000 0.000000
# 5 0.000000 0.000000 0.000000 0.000000 0.024102 0.000000
# 6 0.000000 0.000000 0.000000 0.000000 0.000000 -0.016107
#
#
# Mechanical properties :
#
#
# Convention : Reuss Voigt Hill
#
# Bulk Modulus (GPa) = 49.20064 54.63880 51.91972
# Shear Modulus (GPa) = 51.04056 16.85145 33.94601
#
# Velocity S-wave (km/s) = 4.92018 2.82711 4.01253
# Velocity P-wave (km/s) = 7.45742 6.04744 6.78913
#
# Compressibility (1/GPa) = 0.02032494
#
# Stress axis : x y z
#
# Youngs Moduli (GPa) = 78.83540 69.93943 109.22087
#
# Poissons Ratio (x) = 0.07867 0.26073
# Poissons Ratio (y) = 0.08868 0.47999
# Poissons Ratio (z) = 0.18820 0.30736
#
# Static dielectric constant tensor:
#      x y z
#    x 1.899910 0.000000 0.000000 
#    y 0.000000 1.783400 0.000000 
#    z 0.000000 0.000000 2.134350 
# 
# From -- ./inp_files/4201.got.cif
#   From: 2010.05.17/outbox.cif.g08.bks.cpg/sg16_3_cif.got.tgz:4201.got - 2010.06.03 22:28:35.
