data_PCOD9310018
_publ_section_title
;
Structure prediction by ZEFSAII (Michael W. Deem and Ramdas Pophale) SiO2 
 PCOD9310018
Probable space group: P 2 2 2
;
_chemical_formula_sum "Si O2"
_cell_formula_units_Z 25
_cell_length_a 28.680063
_cell_length_b 5.363210
_cell_length_c 7.266752
_cell_angle_alpha 90.000000
_cell_angle_beta 90.000000
_cell_angle_gamma 90.000000
_cell_volume 1117.751451
_symmetry_space_group_name_H-M "P 2 2 2"
_symmetry_group_IT_number 16
_symmetry_cell_setting 'orthorhombic'
loop_
_space_group_symop_operation_xyz
x,y,z
-x,-y,z
x,-y,-z
-x,y,-z
loop_
_atom_site_type_symbol
_atom_site_label
_atom_site_fract_x
_atom_site_fract_y
_atom_site_fract_z
Si Si1 0.715745 0.987163 0.713820
Si Si2 0.000000 0.000000 0.500000
Si Si3 0.081415 0.016094 0.776723
Si Si4 0.393364 0.002619 0.777847
Si Si5 0.135595 0.489072 0.220385
Si Si6 0.553879 0.500098 0.224339
Si Si7 0.756863 0.484484 0.711711
O O1 0.731748 0.247694 0.798124
O O2 0.730566 0.000000 0.500000
O O3 0.660261 0.969891 0.722466
O O4 0.741575 0.747443 0.794528
O O5 0.962748 0.902108 0.652840
O O6 0.101574 0.741182 0.726573
O O7 0.118219 0.233988 0.731472
O O8 0.072249 0.000000 0.000000
O O9 0.421604 0.245377 0.715893
O O10 0.417633 0.745424 0.717319
O O11 0.394309 0.000000 0.000000
O O12 0.187904 0.444849 0.286106
O O13 0.136850 0.500000 0.000000
O O14 0.500000 0.500000 0.281191
O O15 0.554125 0.500000 0.000000
O O16 0.740543 0.500000 0.500000
#
# Coordination Sequence:
#
# PCOD9310018 Si02
#       7
#     4   1   4   4   4   4   4
#     4  10  21  36  51  78 110 146 177 228 281 328
#     4  12  26  42  72  92 124 174 202 246 308 348
#     4  10  24  42  62  94 126 157 204 249 296 356
#     4  10  19  31  51  75 100 133 177 221 268 334
#     4  10  22  41  62  88 124 155 189 248 299 337
#     4   9  17  30  49  74 101 131 172 225 276 322
#     4  10  21  35  57  80 109 143 192 226 270 345
#
# _framework density 22.366333000000001
#
# number of rings (size 3 to 8) (size 9 to 14) (size 15 to 20)
#    0.000    2.080    0.000    2.640    2.240    4.480 
#    0.000    2.400    0.000    2.880    0.000    0.000 
#    0.000    0.000    0.000    0.000    0.000    0.000 
#
# Total GULP energy -139512.599116 kJ/mol
# GULP energy per Si atom -5580.503965 kJ/mol
# Density = 2.231543 g / cm^3
# Si number density = 22.366333 Si / 1000 Ang^3
#
#
#
# Elastic Constant Matrix: (Units=GPa)
#
#
# Indices 1 2 3 4 5 6 
#
# 1 91.1744 39.6120 -15.3655 0.0000 0.0000 0.0000
# 2 39.6120 167.9101 6.1637 0.0000 0.0000 0.0000
# 3 -15.3655 6.1637 92.5931 0.0000 0.0000 0.0000
# 4 0.0000 0.0000 0.0000 -21.6414 0.0000 0.0000
# 5 0.0000 0.0000 0.0000 0.0000 26.5262 0.0000
# 6 0.0000 0.0000 0.0000 0.0000 0.0000 70.3495
#
#
#
# Elastic Compliance Matrix: (Units=1/GPa)
#
#
# Indices 1 2 3 4 5 6 
#
# 1 0.012696 -0.003080 0.002312 0.000000 0.000000 0.000000
# 2 -0.003080 0.006717 -0.000958 0.000000 0.000000 0.000000
# 3 0.002312 -0.000958 0.011247 0.000000 0.000000 0.000000
# 4 0.000000 0.000000 0.000000 -0.046208 0.000000 0.000000
# 5 0.000000 0.000000 0.000000 0.000000 0.037699 0.000000
# 6 0.000000 0.000000 0.000000 0.000000 0.000000 0.014215
#
#
# Mechanical properties :
#
#
# Convention : Reuss Voigt Hill
#
# Bulk Modulus (GPa) = 36.75430 45.83311 41.29370
# Shear Modulus (GPa) = 102.27494 36.46471 69.36982
#
# Velocity S-wave (km/s) = 6.76952 4.04213 5.57518
# Velocity P-wave (km/s) = 8.80741 6.50550 7.74248
#
# Compressibility (1/GPa) = 0.02720770
#
# Stress axis : x y z
#
# Youngs Moduli (GPa) = 78.76672 148.86851 88.90970
#
# Poissons Ratio (x) = 0.45851 -0.20554
# Poissons Ratio (y) = 0.24260 0.08520
# Poissons Ratio (z) = -0.18210 0.14265
#
# Static dielectric constant tensor:
#      x y z
#    x 1.744920 0.000000 0.000000 
#    y 0.000000 2.207790 0.000000 
#    z 0.000000 0.000000 2.134770 
# 
# From -- ./inp_files/5611.got.cif
#   From: 2010.05.17/outbox.cif.g08.bks.cpg/sg16_3_cif.got.tgz:5611.got - 2010.06.03 22:28:35.
