data_PCOD9310388
_publ_section_title
;
Structure prediction by ZEFSAII (Michael W. Deem and Ramdas Pophale) SiO2 
 PCOD9310388
Probable space group: P 2 2 2
;
_chemical_formula_sum "Si O2"
_cell_formula_units_Z 19
_cell_length_a 7.370059
_cell_length_b 19.465978
_cell_length_c 6.965816
_cell_angle_alpha 90.000000
_cell_angle_beta 90.000000
_cell_angle_gamma 90.000000
_cell_volume 999.353623
_symmetry_space_group_name_H-M "P 2 2 2"
_symmetry_group_IT_number 16
_symmetry_cell_setting 'orthorhombic'
loop_
_space_group_symop_operation_xyz
x,y,z
-x,-y,z
x,-y,-z
-x,y,-z
loop_
_atom_site_type_symbol
_atom_site_label
_atom_site_fract_x
_atom_site_fract_y
_atom_site_fract_z
Si Si1 0.753771 0.400326 0.238019
Si Si2 0.173884 0.216594 0.354658
Si Si3 0.500000 0.500000 0.000000
Si Si4 0.000000 0.000000 0.000000
Si Si5 0.000000 0.293356 0.000000
Si Si6 0.500000 0.690276 0.500000
Si Si7 0.000000 0.500000 0.500000
Si Si8 0.816630 0.060589 0.626851
O O1 0.606568 0.357649 0.354706
O O2 0.880412 0.448408 0.370441
O O3 0.635618 0.451636 0.113943
O O4 0.869825 0.345080 0.117635
O O5 0.341437 0.264049 0.410472
O O6 0.249577 0.138525 0.359880
O O7 0.000000 0.222940 0.500000
O O8 0.102330 0.243814 0.150143
O O9 0.871419 0.961120 0.155576
O O10 0.000000 0.068666 0.500000
O O11 0.720173 0.000000 0.500000
#
# Coordination Sequence:
#
# PCOD9310388 Si02
#       8
#     4   4   1   1   2   2   1   4
#     4  12  24  42  64  96 126 169 214 262 322 382
#     4  11  22  41  62  97 129 175 211 267 325 378
#     4  12  24  40  60  92 128 160 214 264 312 380
#     4   8  12  28  52  90 112 164 202 272 296 368
#     4  12  23  41  68  95 131 170 214 266 326 383
#     4  12  24  43  65  94 130 172 210 264 322 386
#     4  12  24  44  68  92 128 172 210 264 324 380
#     4   8  16  30  56  86 125 161 214 257 313 374
#
# _framework density 19.012288000000002
#
# number of rings (size 3 to 8) (size 9 to 14) (size 15 to 20)
#    0.000    1.474    2.105    5.684    0.000    0.000 
#    0.000    0.526    0.000    0.000    0.000    0.000 
#    0.000    0.000    0.000    0.000    0.000    0.000 
#
# Total GULP energy -105877.168504 kJ/mol
# GULP energy per Si atom -5572.482553 kJ/mol
# Density = 1.896901 g / cm^3
# Si number density = 19.012288 Si / 1000 Ang^3
#
#
#
# Elastic Constant Matrix: (Units=GPa)
#
#
# Indices 1 2 3 4 5 6 
#
# 1 98.3899 65.2335 57.4176 0.0000 0.0000 0.0000
# 2 65.2335 189.3936 87.5084 0.0000 0.0000 0.0000
# 3 57.4176 87.5084 141.4303 0.0000 0.0000 0.0000
# 4 0.0000 0.0000 0.0000 554.1401 0.0000 0.0000
# 5 0.0000 0.0000 0.0000 0.0000 44.6932 0.0000
# 6 0.0000 0.0000 0.0000 0.0000 0.0000 348.2025
#
#
#
# Elastic Compliance Matrix: (Units=1/GPa)
#
#
# Indices 1 2 3 4 5 6 
#
# 1 0.014587 -0.003204 -0.003940 0.000000 0.000000 0.000000
# 2 -0.003204 0.008098 -0.003710 0.000000 0.000000 0.000000
# 3 -0.003940 -0.003710 0.010965 0.000000 0.000000 0.000000
# 4 0.000000 0.000000 0.000000 0.001805 0.000000 0.000000
# 5 0.000000 0.000000 0.000000 0.000000 0.022375 0.000000
# 6 0.000000 0.000000 0.000000 0.000000 0.000000 0.002872
#
#
# Mechanical properties :
#
#
# Convention : Reuss Voigt Hill
#
# Bulk Modulus (GPa) = 83.72689 94.39251 89.05970
# Shear Modulus (GPa) = 57.87829 204.01078 130.94453
#
# Velocity S-wave (km/s) = 5.52346 10.37004 8.30802
# Velocity P-wave (km/s) = 9.20935 13.89746 11.78880
#
# Compressibility (1/GPa) = 0.01194359
#
# Stress axis : x y z
#
# Youngs Moduli (GPa) = 68.55458 123.49452 91.19754
#
# Poissons Ratio (x) = 0.39567 0.35928
# Poissons Ratio (y) = 0.21965 0.33830
# Poissons Ratio (z) = 0.27007 0.45810
#
# Static dielectric constant tensor:
#      x y z
#    x 0.789770 0.000000 0.000000 
#    y 0.000000 1.707210 0.000000 
#    z 0.000000 0.000000 1.661000 
# 
# From -- ./inp_files/921.got.cif
#   From: 2010.05.17/outbox.cif.g08.bks.cpg/sg16_1_cif.got.tgz:921.got - 2010.06.03 22:28:35.
