data_PCOD9310138
_publ_section_title
;
Structure prediction by ZEFSAII (Michael W. Deem and Ramdas Pophale) SiO2 
 PCOD9310138
Probable space group: P 2 2 2
;
_chemical_formula_sum "Si O2"
_cell_formula_units_Z 32
_cell_length_a 9.479422
_cell_length_b 16.341276
_cell_length_c 11.143200
_cell_angle_alpha 90.000000
_cell_angle_beta 90.000000
_cell_angle_gamma 90.000000
_cell_volume 1726.146881
_symmetry_space_group_name_H-M "P 2 2 2"
_symmetry_group_IT_number 16
_symmetry_cell_setting 'orthorhombic'
loop_
_space_group_symop_operation_xyz
x,y,z
-x,-y,z
x,-y,-z
-x,y,-z
loop_
_atom_site_type_symbol
_atom_site_label
_atom_site_fract_x
_atom_site_fract_y
_atom_site_fract_z
Si Si1 0.667711 0.836768 0.143877
Si Si2 0.331031 0.163252 0.856947
Si Si3 0.293861 0.664566 0.745132
Si Si4 0.837534 0.999760 0.145529
Si Si5 0.957464 0.589556 0.138362
Si Si6 0.170421 0.403156 0.500577
Si Si7 0.791681 0.329310 0.244013
Si Si8 0.543211 0.405912 0.130211
O O1 0.499068 0.845906 0.161346
O O2 0.720920 0.758551 0.217394
O O3 0.751914 0.918338 0.179643
O O4 0.690392 0.823055 0.000566
O O5 0.267950 0.240438 0.786494
O O6 0.248205 0.081177 0.820769
O O7 0.237005 0.639618 0.615674
O O8 0.455721 0.640852 0.767848
O O9 0.204691 0.609079 0.838593
O O10 0.000000 0.000000 0.187429
O O11 0.840942 0.000000 0.000000
O O12 0.046002 0.658460 0.207802
O O13 0.000000 0.500000 0.187665
O O14 0.000000 0.592006 0.000000
O O15 0.205303 0.500000 0.500000
O O16 0.224788 0.359551 0.620657
O O17 0.000000 0.396708 0.500000
O O18 0.705712 0.391340 0.157742
O O19 0.500000 0.500000 0.133063
O O20 0.500000 0.371376 0.000000
#
# Coordination Sequence:
#
# PCOD9310138 Si02
#       8
#     4   4   4   4   4   4   4   4
#     4  10  20  37  59  88 126 160 193 240 305 372
#     4  10  20  37  59  88 126 160 193 240 305 372
#     4  12  23  38  60  85 117 162 207 253 301 359
#     4   9  19  33  57  92 125 158 193 237 295 363
#     4  11  22  35  55  84 116 154 200 251 312 368
#     4  11  24  43  61  80 115 164 219 267 302 349
#     4  12  23  38  60  85 117 162 207 253 301 359
#     4  11  22  37  57  86 122 152 190 249 312 370
#
# _framework density 18.538398999999998
#
# number of rings (size 3 to 8) (size 9 to 14) (size 15 to 20)
#    0.000    1.250    2.500    4.875    1.750    4.000 
#    0.000    1.250    0.000    0.750    0.000    3.500 
#    0.000    0.000    0.000    0.000    0.000    0.000 
#
# Total GULP energy -178796.120557 kJ/mol
# GULP energy per Si atom -5587.378767 kJ/mol
# Density = 1.849620 g / cm^3
# Si number density = 18.538399 Si / 1000 Ang^3
#
#
#
# Elastic Constant Matrix: (Units=GPa)
#
#
# Indices 1 2 3 4 5 6 
#
# 1 82.9502 54.8761 27.5309 0.0000 0.0000 0.0000
# 2 54.8761 165.0821 44.7906 0.0000 0.0000 0.0000
# 3 27.5309 44.7906 92.2879 0.0000 0.0000 0.0000
# 4 0.0000 0.0000 0.0000 3.2256 0.0000 0.0000
# 5 0.0000 0.0000 0.0000 0.0000 24.4208 0.0000
# 6 0.0000 0.0000 0.0000 0.0000 0.0000 33.7573
#
#
#
# Elastic Compliance Matrix: (Units=1/GPa)
#
#
# Indices 1 2 3 4 5 6 
#
# 1 0.015945 -0.004618 -0.002515 0.000000 0.000000 0.000000
# 2 -0.004618 0.008314 -0.002657 0.000000 0.000000 0.000000
# 3 -0.002515 -0.002657 0.012876 0.000000 0.000000 0.000000
# 4 0.000000 0.000000 0.000000 0.310017 0.000000 0.000000
# 5 0.000000 0.000000 0.000000 0.000000 0.040949 0.000000
# 6 0.000000 0.000000 0.000000 0.000000 0.000000 0.029623
#
#
# Mechanical properties :
#
#
# Convention : Reuss Voigt Hill
#
# Bulk Modulus (GPa) = 56.96950 66.07946 61.52448
# Shear Modulus (GPa) = 11.28270 26.48891 18.88581
#
# Velocity S-wave (km/s) = 2.46968 3.78414 3.19523
# Velocity P-wave (km/s) = 6.23937 7.40371 6.84634
#
# Compressibility (1/GPa) = 0.01755325
#
# Stress axis : x y z
#
# Youngs Moduli (GPa) = 62.71413 120.28360 77.66543
#
# Poissons Ratio (x) = 0.55547 0.19536
# Poissons Ratio (y) = 0.28961 0.20638
# Poissons Ratio (z) = 0.15775 0.31963
#
# Static dielectric constant tensor:
#      x y z
#    x 1.623800 0.000000 0.000000 
#    y 0.000000 1.632640 0.000000 
#    z 0.000000 0.000000 1.627070 
# 
# From -- ./inp_files/6658.got.cif
#   From: 2010.05.17/outbox.cif.g08.bks.cpg/sg16_4_cif.got.tgz:6658.got - 2010.06.03 22:28:35.
