data_PCOD9310093
_publ_section_title
;
Structure prediction by ZEFSAII (Michael W. Deem and Ramdas Pophale) SiO2 
 PCOD9310093
Probable space group: P 2 2 2
;
_chemical_formula_sum "Si O2"
_cell_formula_units_Z 28
_cell_length_a 11.689643
_cell_length_b 12.733962
_cell_length_c 10.153074
_cell_angle_alpha 90.000000
_cell_angle_beta 90.000000
_cell_angle_gamma 90.000000
_cell_volume 1511.340600
_symmetry_space_group_name_H-M "P 2 2 2"
_symmetry_group_IT_number 16
_symmetry_cell_setting 'orthorhombic'
loop_
_space_group_symop_operation_xyz
x,y,z
-x,-y,z
x,-y,-z
-x,y,-z
loop_
_atom_site_type_symbol
_atom_site_label
_atom_site_fract_x
_atom_site_fract_y
_atom_site_fract_z
Si Si1 0.446635 0.386231 0.316202
Si Si2 0.233673 0.692632 0.545094
Si Si3 0.676667 0.623091 0.037211
Si Si4 0.122800 0.374808 0.206382
Si Si5 0.372312 0.885988 0.440593
Si Si6 0.135270 0.386341 0.711867
Si Si7 0.645929 0.749189 0.784010
O O1 0.500000 0.500000 0.321319
O O2 0.350643 0.371266 0.426452
O O3 0.383856 0.366925 0.177406
O O4 0.552828 0.307966 0.308383
O O5 0.171832 0.703556 0.684519
O O6 0.279611 0.803289 0.493958
O O7 0.147885 0.633976 0.444736
O O8 0.811991 0.639867 0.068495
O O9 0.659147 0.500000 0.000000
O O10 0.627727 0.707837 0.933470
O O11 0.160138 0.492245 0.254353
O O12 0.986929 0.367882 0.220275
O O13 0.500000 0.865449 0.500000
O O14 0.363384 0.865537 0.280933
O O15 0.344247 0.000000 0.500000
O O16 0.232013 0.306877 0.761511
#
# Coordination Sequence:
#
# PCOD9310093 Si02
#       7
#     4   4   4   4   4   4   4
#     4  11  20  31  51  80 121 158 191 233 291 367
#     4  10  20  34  53  79 108 148 196 246 302 347
#     4  11  20  33  51  79 119 164 195 231 276 354
#     4  10  20  34  51  77 114 162 193 235 278 346
#     4  10  21  39  59  80 106 142 190 254 316 364
#     4  10  20  33  50  77 116 158 200 234 276 345
#     4  11  20  34  53  82 110 154 195 237 290 353
#
# _framework density 18.526599000000001
#
# number of rings (size 3 to 8) (size 9 to 14) (size 15 to 20)
#    0.000    1.571    4.286    2.143    0.000    2.857 
#    0.000    1.429    0.000   10.286    0.000    0.000 
#    0.000    9.143    0.000    0.000    0.286    0.000 
#
# Total GULP energy -155914.099448 kJ/mol
# GULP energy per Si atom -5568.360695 kJ/mol
# Density = 1.848443 g / cm^3
# Si number density = 18.526599 Si / 1000 Ang^3
#
#
#
# Elastic Constant Matrix: (Units=GPa)
#
#
# Indices 1 2 3 4 5 6 
#
# 1 92.3443 27.1230 24.0109 0.0000 0.0000 0.0000
# 2 27.1230 72.6510 26.0322 0.0000 0.0000 0.0000
# 3 24.0109 26.0322 87.0210 0.0000 0.0000 0.0000
# 4 0.0000 0.0000 0.0000 20.3348 0.0000 0.0000
# 5 0.0000 0.0000 0.0000 0.0000 32.1473 0.0000
# 6 0.0000 0.0000 0.0000 0.0000 0.0000 18.5993
#
#
#
# Elastic Compliance Matrix: (Units=1/GPa)
#
#
# Indices 1 2 3 4 5 6 
#
# 1 0.012565 -0.003863 -0.002311 0.000000 0.000000 0.000000
# 2 -0.003863 0.016604 -0.003901 0.000000 0.000000 0.000000
# 3 -0.002311 -0.003901 0.013296 0.000000 0.000000 0.000000
# 4 0.000000 0.000000 0.000000 0.049177 0.000000 0.000000
# 5 0.000000 0.000000 0.000000 0.000000 0.031107 0.000000
# 6 0.000000 0.000000 0.000000 0.000000 0.000000 0.053765
#
#
# Mechanical properties :
#
#
# Convention : Reuss Voigt Hill
#
# Bulk Modulus (GPa) = 44.81366 45.14983 44.98175
# Shear Modulus (GPa) = 24.49743 25.87297 25.18520
#
# Velocity S-wave (km/s) = 3.64027 3.74107 3.69101
# Velocity P-wave (km/s) = 6.47380 6.56384 6.51898
#
# Compressibility (1/GPa) = 0.02231463
#
# Stress axis : x y z
#
# Youngs Moduli (GPa) = 79.58921 60.22500 75.20869
#
# Poissons Ratio (x) = 0.23262 0.17383
# Poissons Ratio (y) = 0.30742 0.29342
# Poissons Ratio (z) = 0.18396 0.23496
#
# Static dielectric constant tensor:
#      x y z
#    x 1.708500 0.000000 0.000000 
#    y 0.000000 1.637720 0.000000 
#    z 0.000000 0.000000 1.785700 
# 
# From -- ./inp_files/6902.got.cif
#   From: 2010.05.17/outbox.cif.g08.bks.cpg/sg16_4_cif.got.tgz:6902.got - 2010.06.03 22:28:35.
