data_PCOD9310198
_publ_section_title
;
Structure prediction by ZEFSAII (Michael W. Deem and Ramdas Pophale) SiO2 
 PCOD9310198
Probable space group: P 2 2 2
;
_chemical_formula_sum "Si O2"
_cell_formula_units_Z 17
_cell_length_a 12.006547
_cell_length_b 8.157523
_cell_length_c 8.488622
_cell_angle_alpha 90.000000
_cell_angle_beta 90.000000
_cell_angle_gamma 90.000000
_cell_volume 831.406905
_symmetry_space_group_name_H-M "P 2 2 2"
_symmetry_group_IT_number 16
_symmetry_cell_setting 'orthorhombic'
loop_
_space_group_symop_operation_xyz
x,y,z
-x,-y,z
x,-y,-z
-x,y,-z
loop_
_atom_site_type_symbol
_atom_site_label
_atom_site_fract_x
_atom_site_fract_y
_atom_site_fract_z
Si Si1 0.127181 0.692107 0.970588
Si Si2 0.615161 0.688022 0.568057
Si Si3 0.796261 0.830930 0.345421
Si Si4 0.681628 0.110845 0.146992
Si Si5 0.000000 0.000000 0.500000
O O1 0.176006 0.709886 0.795779
O O2 0.130051 0.500000 0.000000
O O3 0.209794 0.798468 0.077553
O O4 0.000000 0.749056 0.000000
O O5 0.614878 0.500000 0.500000
O O6 0.500000 0.760169 0.500000
O O7 0.726206 0.757750 0.487714
O O8 0.617673 0.747401 0.751874
O O9 0.916133 0.893480 0.398222
O O10 0.722475 0.976133 0.271902
O O11 0.633613 0.000000 0.000000
#
# Coordination Sequence:
#
# PCOD9310198 Si02
#       5
#     4   4   4   4   1
#     4  10  21  37  59  90 132 173 217 270 337 405
#     4  11  24  44  67  93 132 177 225 282 340 398
#     4  11  22  38  63  91 128 169 217 266 333 403
#     4  10  21  40  64  93 127 170 219 279 329 404
#     4  12  20  36  62  96 132 164 216 266 336 400
#
# _framework density 20.447268999999999
#
# number of rings (size 3 to 8) (size 9 to 14) (size 15 to 20)
#    0.000    1.412    2.353    2.824    0.000    5.176 
#    0.000    8.235    0.000   12.706    0.000    0.000 
#    0.000    0.000    0.000    0.000    0.000    0.000 
#
# Total GULP energy -94690.847357 kJ/mol
# GULP energy per Si atom -5570.049845 kJ/mol
# Density = 2.040073 g / cm^3
# Si number density = 20.447269 Si / 1000 Ang^3
#
#
#
# Elastic Constant Matrix: (Units=GPa)
#
#
# Indices 1 2 3 4 5 6 
#
# 1 87.1750 14.0318 23.1785 0.0000 0.0000 0.0000
# 2 14.0318 77.4534 37.0449 0.0000 0.0000 0.0000
# 3 23.1785 37.0449 96.8968 0.0000 0.0000 0.0000
# 4 0.0000 0.0000 0.0000 56.8765 0.0000 0.0000
# 5 0.0000 0.0000 0.0000 0.0000 30.4279 0.0000
# 6 0.0000 0.0000 0.0000 0.0000 0.0000 76.0472
#
#
#
# Elastic Compliance Matrix: (Units=1/GPa)
#
#
# Indices 1 2 3 4 5 6 
#
# 1 0.012314 -0.001006 -0.002561 0.000000 0.000000 0.000000
# 2 -0.001006 0.015882 -0.005831 0.000000 0.000000 0.000000
# 3 -0.002561 -0.005831 0.013162 0.000000 0.000000 0.000000
# 4 0.000000 0.000000 0.000000 0.017582 0.000000 0.000000
# 5 0.000000 0.000000 0.000000 0.000000 0.032865 0.000000
# 6 0.000000 0.000000 0.000000 0.000000 0.000000 0.013150
#
#
# Mechanical properties :
#
#
# Convention : Reuss Voigt Hill
#
# Bulk Modulus (GPa) = 44.32250 45.55950 44.94100
# Shear Modulus (GPa) = 38.08878 45.15499 41.62188
#
# Velocity S-wave (km/s) = 4.32068 4.70442 4.51663
# Velocity P-wave (km/s) = 6.82748 7.19990 7.01616
#
# Compressibility (1/GPa) = 0.02256190
#
# Stress axis : x y z
#
# Youngs Moduli (GPa) = 81.20815 62.96316 75.97463
#
# Poissons Ratio (x) = 0.06334 0.19457
# Poissons Ratio (y) = 0.08169 0.44304
# Poissons Ratio (z) = 0.20798 0.36716
#
# Static dielectric constant tensor:
#      x y z
#    x 1.692420 0.000000 0.000000 
#    y 0.000000 1.783030 0.000000 
#    z 0.000000 0.000000 1.661830 
# 
# From -- ./inp_files/3676.got.cif
#   From: 2010.05.17/outbox.cif.g08.bks.cpg/sg16_2_cif.got.tgz:3676.got - 2010.06.03 22:28:35.
