data_PCOD9310115
_publ_section_title
;
Structure prediction by ZEFSAII (Michael W. Deem and Ramdas Pophale) SiO2 
 PCOD9310115
Probable space group: P 2 2 2
;
_chemical_formula_sum "Si O2"
_cell_formula_units_Z 28
_cell_length_a 21.346577
_cell_length_b 5.875374
_cell_length_c 10.846006
_cell_angle_alpha 90.000000
_cell_angle_beta 90.000000
_cell_angle_gamma 90.000000
_cell_volume 1360.296566
_symmetry_space_group_name_H-M "P 2 2 2"
_symmetry_group_IT_number 16
_symmetry_cell_setting 'orthorhombic'
loop_
_space_group_symop_operation_xyz
x,y,z
-x,-y,z
x,-y,-z
-x,y,-z
loop_
_atom_site_type_symbol
_atom_site_label
_atom_site_fract_x
_atom_site_fract_y
_atom_site_fract_z
Si Si1 0.435496 0.103567 0.138222
Si Si2 0.760020 0.451056 0.369273
Si Si3 0.118413 0.237374 0.686620
Si Si4 0.000000 0.000000 0.734915
Si Si5 0.684486 0.148428 0.176584
Si Si6 0.083551 0.369657 0.120868
Si Si7 0.201129 0.852106 0.818007
Si Si8 0.617182 0.500000 0.000000
O O1 0.424726 0.368199 0.103036
O O2 0.500000 0.000000 0.189860
O O3 0.376240 0.002157 0.209902
O O4 0.432493 0.000000 0.000000
O O5 0.729198 0.500000 0.500000
O O6 0.827036 0.330568 0.400676
O O7 0.716548 0.288098 0.287005
O O8 0.776553 0.670342 0.285369
O O9 0.097256 0.446248 0.772827
O O10 0.053238 0.119500 0.652366
O O11 0.156991 0.046062 0.760140
O O12 0.035678 0.817272 0.823772
O O13 0.661204 0.325221 0.073525
O O14 0.737445 0.973059 0.133067
O O15 0.152364 0.266320 0.090086
O O16 0.062651 0.500000 0.000000
#
# Coordination Sequence:
#
# PCOD9310115 Si02
#       8
#     4   4   4   2   4   4   4   2
#     4   9  19  34  54  84 124 169 203 240 291 354
#     4  10  21  40  62  83 115 154 202 255 308 362
#     4   9  20  36  54  80 105 142 189 246 299 358
#     4  10  20  35  58  73 112 146 194 243 299 374
#     4  10  20  36  55  90 120 160 203 246 297 358
#     4  10  21  37  53  81 111 154 194 239 294 364
#     4   9  20  39  53  82 114 146 194 244 300 349
#     4  10  20  37  56  90 132 162 201 244 292 360
#
# _framework density 20.583746999999999
#
# number of rings (size 3 to 8) (size 9 to 14) (size 15 to 20)
#    0.000    2.429    0.000    1.286    0.000   10.857 
#   38.571    0.000    1.571   24.857    0.000   14.000 
#    0.000    0.000    0.000    0.000    0.000    0.000 
#
# Total GULP energy -156052.616415 kJ/mol
# GULP energy per Si atom -5573.307729 kJ/mol
# Density = 2.053690 g / cm^3
# Si number density = 20.583747 Si / 1000 Ang^3
#
#
#
# Elastic Constant Matrix: (Units=GPa)
#
#
# Indices 1 2 3 4 5 6 
#
# 1 177.4915 68.2255 28.4959 0.0000 0.0000 0.0000
# 2 68.2255 109.7747 23.0604 0.0000 0.0000 0.0000
# 3 28.4959 23.0604 52.6768 0.0000 0.0000 0.0000
# 4 0.0000 0.0000 0.0000 15.8713 0.0000 0.0000
# 5 0.0000 0.0000 0.0000 0.0000 7.9728 0.0000
# 6 0.0000 0.0000 0.0000 0.0000 0.0000 34.2105
#
#
#
# Elastic Compliance Matrix: (Units=1/GPa)
#
#
# Indices 1 2 3 4 5 6 
#
# 1 0.007640 -0.004273 -0.002262 0.000000 0.000000 0.000000
# 2 -0.004273 0.012422 -0.003127 0.000000 0.000000 0.000000
# 3 -0.002262 -0.003127 0.021576 0.000000 0.000000 0.000000
# 4 0.000000 0.000000 0.000000 0.063007 0.000000 0.000000
# 5 0.000000 0.000000 0.000000 0.000000 0.125427 0.000000
# 6 0.000000 0.000000 0.000000 0.000000 0.000000 0.029231
#
#
# Mechanical properties :
#
#
# Convention : Reuss Voigt Hill
#
# Bulk Modulus (GPa) = 44.81376 64.38964 54.60170
# Shear Modulus (GPa) = 17.47861 26.28832 21.88347
#
# Velocity S-wave (km/s) = 2.91717 3.57759 3.26412
# Velocity P-wave (km/s) = 5.75893 6.95810 6.38672
#
# Compressibility (1/GPa) = 0.02231458
#
# Stress axis : x y z
#
# Youngs Moduli (GPa) = 130.89492 80.50242 46.34744
#
# Poissons Ratio (x) = 0.34398 0.10485
# Poissons Ratio (y) = 0.55930 0.14491
# Poissons Ratio (z) = 0.29611 0.25169
#
# Static dielectric constant tensor:
#      x y z
#    x 1.802590 0.000000 0.000000 
#    y 0.000000 1.838380 0.000000 
#    z 0.000000 0.000000 1.703480 
# 
# From -- ./inp_files/7322.got.cif
#   From: 2010.05.17/outbox.cif.g08.bks.cpg/sg16_4_cif.got.tgz:7322.got - 2010.06.03 22:28:35.
