data_PCOD9310858
_publ_section_title
;
Structure prediction by ZEFSAII (Michael W. Deem and Ramdas Pophale) SiO2 
 PCOD9310858
Probable space group: P 2 2 21
;
_chemical_formula_sum "Si O2"
_cell_formula_units_Z 24
_cell_length_a 4.824351
_cell_length_b 15.373914
_cell_length_c 14.412355
_cell_angle_alpha 90.000000
_cell_angle_beta 90.000000
_cell_angle_gamma 90.000000
_cell_volume 1068.952226
_symmetry_space_group_name_H-M "P 2 2 21"
_symmetry_group_IT_number 17
_symmetry_cell_setting 'orthorhombic'
loop_
_space_group_symop_operation_xyz
x,y,z
-x,-y,1/2+z
x,-y,-z
-x,y,1/2-z
loop_
_atom_site_type_symbol
_atom_site_label
_atom_site_fract_x
_atom_site_fract_y
_atom_site_fract_z
Si Si1 0.636759 0.343177 0.491318
Si Si2 0.123598 0.570192 0.581956
Si Si3 0.227485 0.066499 0.311620
Si Si4 0.123597 0.929808 0.081956
Si Si5 0.363242 0.843177 0.491318
Si Si6 0.227485 0.433501 0.811620
O O1 0.938845 0.347189 0.446160
O O2 0.500000 0.250000 0.500000
O O3 0.668538 0.387038 0.593453
O O4 0.439636 0.399334 0.422000
O O5 0.111148 0.500000 0.500000
O O6 0.958779 0.516843 0.659180
O O7 0.500000 0.049186 0.250000
O O8 0.331462 0.112963 0.406547
O O9 0.000000 0.119784 0.250000
O O10 0.041221 0.983157 0.340820
O O11 0.938845 0.847189 0.053840
O O12 0.439635 0.899335 0.078000
O O13 0.111146 0.000000 0.000000
O O14 0.500000 0.450815 0.750000
O O15 0.000000 0.380217 0.750000
#
# Coordination Sequence:
#
# PCOD9310858 Si02
#       6
#     4   4   4   4   4   4
#     4  11  22  39  62  89 123 164 203 247 310 380
#     4  10  20  38  61  84 114 161 208 241 294 377
#     4  11  22  39  62  91 123 161 211 266 305 349
#     4  10  20  38  61  84 114 161 208 241 294 377
#     4  11  22  39  62  89 123 164 203 247 310 380
#     4  11  22  39  62  91 123 161 211 266 305 349
#
# _framework density 22.451891
#
# number of rings (size 3 to 8) (size 9 to 14) (size 15 to 20)
#    0.000    1.333    0.000   10.000    0.000    0.000 
#    0.000   10.000    0.000    0.000    0.000    0.000 
#    0.000    0.000    0.000    0.000    0.000    0.000 
#
# Total GULP energy -133781.922144 kJ/mol
# GULP energy per Si atom -5574.246756 kJ/mol
# Density = 2.240079 g / cm^3
# Si number density = 22.451891 Si / 1000 Ang^3
#
#
#
# Elastic Constant Matrix: (Units=GPa)
#
#
# Indices 1 2 3 4 5 6 
#
# 1 166.9461 10.6363 49.1365 0.0000 0.0000 0.0000
# 2 10.6363 68.4541 19.2335 0.0000 0.0000 0.0000
# 3 49.1365 19.2335 83.2440 0.0000 0.0000 0.0000
# 4 0.0000 0.0000 0.0000 10.4165 0.0000 0.0000
# 5 0.0000 0.0000 0.0000 0.0000 45.1414 0.0000
# 6 0.0000 0.0000 0.0000 0.0000 0.0000 26.2118
#
#
#
# Elastic Compliance Matrix: (Units=1/GPa)
#
#
# Indices 1 2 3 4 5 6 
#
# 1 0.007250 0.000081 -0.004298 0.000000 0.000000 0.000000
# 2 0.000081 0.015623 -0.003658 0.000000 0.000000 0.000000
# 3 -0.004298 -0.003658 0.015395 0.000000 0.000000 0.000000
# 4 0.000000 0.000000 0.000000 0.096002 0.000000 0.000000
# 5 0.000000 0.000000 0.000000 0.000000 0.022153 0.000000
# 6 0.000000 0.000000 0.000000 0.000000 0.000000 0.038151
#
#
# Mechanical properties :
#
#
# Convention : Reuss Voigt Hill
#
# Bulk Modulus (GPa) = 44.40692 52.96186 48.68439
# Shear Modulus (GPa) = 22.95381 32.32981 27.64181
#
# Velocity S-wave (km/s) = 3.20090 3.79880 3.51259
# Velocity P-wave (km/s) = 5.78642 6.54839 6.17916
#
# Compressibility (1/GPa) = 0.02251901
#
# Stress axis : x y z
#
# Youngs Moduli (GPa) = 137.93424 64.00646 64.95595
#
# Poissons Ratio (x) = -0.00520 0.27919
# Poissons Ratio (y) = -0.01120 0.23759
# Poissons Ratio (z) = 0.59286 0.23412
#
# Static dielectric constant tensor:
#      x y z
#    x 1.907910 0.000000 0.000000 
#    y 0.000000 1.841930 0.000000 
#    z 0.000000 0.000000 1.962850 
# 
# From -- ./inp_files/7707.got.cif
#   From: 2010.05.17/outbox.cif.g08.bks.cpg/sg17_4_cif.got.tgz:7707.got - 2010.06.03 22:34:06.
