data_PCOD9310674
_publ_section_title
;
Structure prediction by ZEFSAII (Michael W. Deem and Ramdas Pophale) SiO2 
 PCOD9310674
Probable space group: P 2 2 21
;
_chemical_formula_sum "Si O2"
_cell_formula_units_Z 32
_cell_length_a 13.943731
_cell_length_b 15.433460
_cell_length_c 9.885579
_cell_angle_alpha 90.000000
_cell_angle_beta 90.000000
_cell_angle_gamma 90.000000
_cell_volume 2127.376746
_symmetry_space_group_name_H-M "P 2 2 21"
_symmetry_group_IT_number 17
_symmetry_cell_setting 'orthorhombic'
loop_
_space_group_symop_operation_xyz
x,y,z
-x,-y,1/2+z
x,-y,-z
-x,y,1/2-z
loop_
_atom_site_type_symbol
_atom_site_label
_atom_site_fract_x
_atom_site_fract_y
_atom_site_fract_z
Si Si1 0.906224 0.605765 0.660158
Si Si2 0.292445 0.691693 0.771069
Si Si3 0.406892 0.516761 0.842861
Si Si4 0.520876 0.917255 0.092286
Si Si5 0.387750 0.255731 0.506670
Si Si6 0.299931 0.343848 0.763817
Si Si7 0.905953 0.601543 0.338732
Si Si8 0.395276 0.229798 0.995088
O O1 0.816975 0.661477 0.714755
O O2 0.918961 0.620889 0.498772
O O3 0.886928 0.502234 0.673321
O O4 0.000000 0.624157 0.750000
O O5 0.353016 0.606670 0.815140
O O6 0.326996 0.727951 0.627568
O O7 0.324253 0.762277 0.880701
O O8 0.500000 0.513151 0.750000
O O9 0.337557 0.438810 0.800378
O O10 0.430058 0.500000 0.000000
O O11 0.500000 0.935873 0.250000
O O12 0.601705 0.842434 0.066240
O O13 0.573910 0.867506 0.461274
O O14 0.540658 0.000000 0.000000
O O15 0.341282 0.316041 0.619841
O O16 0.500648 0.275616 0.478153
O O17 0.185868 0.347655 0.781440
O O18 0.347211 0.277731 0.869753
O O19 0.000000 0.620186 0.250000
#
# Coordination Sequence:
#
# PCOD9310674 Si02
#       8
#     4   4   4   4   4   4   4   4
#     4  10  21  38  51  71 100 138 196 245 275 310
#     4  12  22  35  52  76 107 149 185 229 270 311
#     4  12  24  33  47  71 106 148 190 220 256 322
#     4  10  22  38  58  81 111 147 176 213 266 333
#     4  10  23  35  53  81 113 139 179 220 262 325
#     4  12  20  37  53  70 110 148 182 228 272 304
#     4  10  21  37  54  69  96 145 195 239 280 314
#     4  10  19  37  55  76 111 146 171 222 266 315
#
# _framework density 15.042001000000001
#
# number of rings (size 3 to 8) (size 9 to 14) (size 15 to 20)
#    0.750    0.500    5.000    2.250    5.250    0.000 
#    0.000    0.000    0.000    0.000    0.000    0.000 
#    0.000    6.000    0.000    0.000    0.000    0.000 
#
# Total GULP energy -178329.752913 kJ/mol
# GULP energy per Si atom -5572.804779 kJ/mol
# Density = 1.500776 g / cm^3
# Si number density = 15.042001 Si / 1000 Ang^3
#
#
#
# Elastic Constant Matrix: (Units=GPa)
#
#
# Indices 1 2 3 4 5 6 
#
# 1 111.9639 16.1030 40.8525 0.0000 0.0000 0.0000
# 2 16.1030 49.0746 23.2831 0.0000 0.0000 0.0000
# 3 40.8525 23.2831 108.5351 0.0000 0.0000 0.0000
# 4 0.0000 0.0000 0.0000 22.2344 0.0000 0.0000
# 5 0.0000 0.0000 0.0000 0.0000 14.4744 0.0000
# 6 0.0000 0.0000 0.0000 0.0000 0.0000 6.6895
#
#
#
# Elastic Compliance Matrix: (Units=1/GPa)
#
#
# Indices 1 2 3 4 5 6 
#
# 1 0.010486 -0.001746 -0.003572 0.000000 0.000000 0.000000
# 2 -0.001746 0.022977 -0.004272 0.000000 0.000000 0.000000
# 3 -0.003572 -0.004272 0.011475 0.000000 0.000000 0.000000
# 4 0.000000 0.000000 0.000000 0.044975 0.000000 0.000000
# 5 0.000000 0.000000 0.000000 0.000000 0.069087 0.000000
# 6 0.000000 0.000000 0.000000 0.000000 0.000000 0.149488
#
#
# Mechanical properties :
#
#
# Convention : Reuss Voigt Hill
#
# Bulk Modulus (GPa) = 38.82420 47.78343 43.30381
# Shear Modulus (GPa) = 14.86969 21.30200 18.08584
#
# Velocity S-wave (km/s) = 3.14752 3.76728 3.47126
# Velocity P-wave (km/s) = 6.25106 7.12453 6.70204
#
# Compressibility (1/GPa) = 0.02575713
#
# Stress axis : x y z
#
# Youngs Moduli (GPa) = 95.36513 43.52222 87.14856
#
# Poissons Ratio (x) = 0.07599 0.31133
# Poissons Ratio (y) = 0.16650 0.37229
# Poissons Ratio (z) = 0.34068 0.18592
#
# Static dielectric constant tensor:
#      x y z
#    x 1.486560 0.000000 0.000000 
#    y 0.000000 1.502990 0.000000 
#    z 0.000000 0.000000 1.534600 
# 
# From -- ./inp_files/5320.got.cif
#   From: 2010.05.17/outbox.cif.g08.bks.cpg/sg17_3_cif.got.tgz:5320.got - 2010.06.03 22:34:06.
