data_PCOD9310781
_publ_section_title
;
Structure prediction by ZEFSAII (Michael W. Deem and Ramdas Pophale) SiO2 
 PCOD9310781
Probable space group: P 2 2 21
;
_chemical_formula_sum "Si O2"
_cell_formula_units_Z 30
_cell_length_a 6.483365
_cell_length_b 9.446919
_cell_length_c 24.419754
_cell_angle_alpha 90.000000
_cell_angle_beta 90.000000
_cell_angle_gamma 90.000000
_cell_volume 1495.656795
_symmetry_space_group_name_H-M "P 2 2 21"
_symmetry_group_IT_number 17
_symmetry_cell_setting 'orthorhombic'
loop_
_space_group_symop_operation_xyz
x,y,z
-x,-y,1/2+z
x,-y,-z
-x,y,1/2-z
loop_
_atom_site_type_symbol
_atom_site_label
_atom_site_fract_x
_atom_site_fract_y
_atom_site_fract_z
Si Si1 0.531918 0.344916 0.008629
Si Si2 0.654778 0.810960 0.825440
Si Si3 0.712847 0.025476 0.655846
Si Si4 0.761432 0.298170 0.593206
Si Si5 0.351461 0.396180 0.129891
Si Si6 0.000000 0.073921 0.250000
Si Si7 0.030707 0.806059 0.900509
Si Si8 0.918749 0.831840 0.015052
O O1 0.444778 0.349412 0.070297
O O2 0.635585 0.500000 0.000000
O O3 0.357401 0.331143 0.962894
O O4 0.685465 0.219179 0.992570
O O5 0.526739 0.664304 0.829275
O O6 0.817333 0.833406 0.776783
O O7 0.801147 0.828965 0.878691
O O8 0.486256 0.936291 0.826015
O O9 0.665010 0.177914 0.631882
O O10 0.824224 0.941367 0.606454
O O11 0.884351 0.018878 0.703820
O O12 0.728300 0.444091 0.626219
O O13 0.978332 0.231716 0.570235
O O14 0.144401 0.305849 0.137991
O O15 0.024968 0.758203 0.962534
O O16 0.935340 0.000000 0.000000
#
# Coordination Sequence:
#
# PCOD9310781 Si02
#       8
#     4   4   4   4   4   2   4   4
#     4  10  23  35  53  83 125 181 211 240 296 366
#     4  10  21  40  66  92 117 159 212 265 319 370
#     4  10  22  40  63  90 121 155 205 268 315 372
#     4  11  24  37  57  91 133 169 205 249 311 371
#     4  10  21  38  59  88 130 170 207 251 305 378
#     4  10  22  42  72  90 110 158 216 270 332 372
#     4  10  20  35  57  86 123 163 209 249 296 363
#     4  12  23  33  54  85 129 175 213 249 290 358
#
# _framework density 20.058077999999998
#
# number of rings (size 3 to 8) (size 9 to 14) (size 15 to 20)
#    0.000    1.600    4.000    0.400    3.733    0.533 
#    0.000    0.000    0.000   19.200    0.000    0.000 
#    0.000    0.000    0.000    0.000    0.000    0.000 
#
# Total GULP energy -167010.186041 kJ/mol
# GULP energy per Si atom -5567.006201 kJ/mol
# Density = 2.001242 g / cm^3
# Si number density = 20.058078 Si / 1000 Ang^3
#
#
#
# Elastic Constant Matrix: (Units=GPa)
#
#
# Indices 1 2 3 4 5 6 
#
# 1 72.7899 36.9124 3.2989 0.0000 0.0000 0.0000
# 2 36.9124 118.6889 7.1847 0.0000 0.0000 0.0000
# 3 3.2989 7.1847 50.5515 0.0000 0.0000 0.0000
# 4 0.0000 0.0000 0.0000 13.4692 0.0000 0.0000
# 5 0.0000 0.0000 0.0000 0.0000 28.7032 0.0000
# 6 0.0000 0.0000 0.0000 0.0000 0.0000 18.9703
#
#
#
# Elastic Compliance Matrix: (Units=1/GPa)
#
#
# Indices 1 2 3 4 5 6 
#
# 1 0.016317 -0.005054 -0.000347 0.000000 0.000000 0.000000
# 2 -0.005054 0.010064 -0.001101 0.000000 0.000000 0.000000
# 3 -0.000347 -0.001101 0.019961 0.000000 0.000000 0.000000
# 4 0.000000 0.000000 0.000000 0.074243 0.000000 0.000000
# 5 0.000000 0.000000 0.000000 0.000000 0.034839 0.000000
# 6 0.000000 0.000000 0.000000 0.000000 0.000000 0.052714
#
#
# Mechanical properties :
#
#
# Convention : Reuss Voigt Hill
#
# Bulk Modulus (GPa) = 29.99411 37.42471 33.70941
# Shear Modulus (GPa) = 21.52832 25.20415 23.36624
#
# Velocity S-wave (km/s) = 3.27968 3.54864 3.41681
# Velocity P-wave (km/s) = 5.41552 5.95728 5.69285
#
# Compressibility (1/GPa) = 0.03333988
#
# Stress axis : x y z
#
# Youngs Moduli (GPa) = 61.28743 99.36746 50.09809
#
# Poissons Ratio (x) = 0.50215 0.01736
# Poissons Ratio (y) = 0.30972 0.05513
# Poissons Ratio (z) = 0.02124 0.10936
#
# Static dielectric constant tensor:
#      x y z
#    x 1.753630 0.000000 0.000000 
#    y 0.000000 1.760780 0.000000 
#    z 0.000000 0.000000 1.755580 
# 
# From -- ./inp_files/11162.got.cif
#   From: 2010.05.17/outbox.cif.g08.bks.cpg/sg17_6_cif.got.tgz:11162.got - 2010.06.03 22:34:06.
