data_PCOD9310003
_publ_section_title
;
Structure prediction by ZEFSAII (Michael W. Deem and Ramdas Pophale) SiO2 
 PCOD9310003
Probable space group: P 2 2 2
;
_chemical_formula_sum "Si O2"
_cell_formula_units_Z 32
_cell_length_a 5.064169
_cell_length_b 22.785924
_cell_length_c 12.589382
_cell_angle_alpha 90.000000
_cell_angle_beta 90.000000
_cell_angle_gamma 90.000000
_cell_volume 1452.711072
_symmetry_space_group_name_H-M "P 2 2 2"
_symmetry_group_IT_number 16
_symmetry_cell_setting 'orthorhombic'
loop_
_space_group_symop_operation_xyz
x,y,z
-x,-y,z
x,-y,-z
-x,y,-z
loop_
_atom_site_type_symbol
_atom_site_label
_atom_site_fract_x
_atom_site_fract_y
_atom_site_fract_z
Si Si1 0.903773 0.935458 0.340101
Si Si2 0.995812 0.289274 0.382725
Si Si3 0.406223 0.135476 0.608797
Si Si4 0.564762 0.561334 0.749404
Si Si5 0.475987 0.302112 0.243861
Si Si6 0.591625 0.811622 0.840316
Si Si7 0.091697 0.114787 0.108811
Si Si8 0.916820 0.576072 0.385457
O O1 0.611282 0.918563 0.376820
O O2 0.914533 0.925994 0.212668
O O3 0.111173 0.889283 0.388981
O O4 0.000000 0.000000 0.367727
O O5 0.703382 0.295590 0.334655
O O6 0.000000 0.260040 0.500000
O O7 0.202912 0.273385 0.289761
O O8 0.107637 0.354461 0.399210
O O9 0.500000 0.165123 0.500000
O O10 0.431655 0.173948 0.714112
O O11 0.500000 0.500000 0.812106
O O12 0.485686 0.628156 0.788032
O O13 0.364925 0.554535 0.650967
O O14 0.863038 0.564203 0.705030
O O15 0.554637 0.257756 0.149643
O O16 0.371396 0.852602 0.893419
O O17 0.875788 0.834336 0.874073
O O18 0.000000 0.084483 0.000000
O O19 0.000000 0.555606 0.500000
#
# Coordination Sequence:
#
# PCOD9310003 Si02
#       8
#     4   4   4   4   4   4   4   4
#     4  10  21  36  56  84 113 143 182 219 258 311
#     4   9  17  28  42  62  87 123 170 210 252 300
#     4  10  21  35  52  77 112 153 190 224 256 291
#     4  10  19  28  40  59  84 117 158 203 255 312
#     4  10  19  32  47  65  95 129 165 218 264 304
#     4  10  21  37  55  79 107 139 180 220 263 315
#     4  10  21  39  61  83 109 136 167 216 271 319
#     4   9  17  27  37  51  76 112 155 204 251 293
#
# _framework density 22.027781000000001
#
# number of rings (size 3 to 8) (size 9 to 14) (size 15 to 20)
#    0.000    2.250    0.000    3.000    0.000    7.250 
#    0.000    0.000    0.000    4.500    0.000    0.000 
#    0.000    3.000    0.000    0.000    0.000    0.000 
#
# Total GULP energy -178386.170020 kJ/mol
# GULP energy per Si atom -5574.567813 kJ/mol
# Density = 2.197764 g / cm^3
# Si number density = 22.027781 Si / 1000 Ang^3
#
#
#
# Elastic Constant Matrix: (Units=GPa)
#
#
# Indices 1 2 3 4 5 6 
#
# 1 85.0164 2.0288 5.0827 0.0000 0.0000 0.0000
# 2 2.0288 78.9553 -9.3836 0.0000 0.0000 0.0000
# 3 5.0827 -9.3836 67.5134 0.0000 0.0000 0.0000
# 4 0.0000 0.0000 0.0000 -7.1019 0.0000 0.0000
# 5 0.0000 0.0000 0.0000 0.0000 22.0875 0.0000
# 6 0.0000 0.0000 0.0000 0.0000 0.0000 17.9080
#
#
#
# Elastic Compliance Matrix: (Units=1/GPa)
#
#
# Indices 1 2 3 4 5 6 
#
# 1 0.011829 -0.000417 -0.000948 0.000000 0.000000 0.000000
# 2 -0.000417 0.012893 0.001823 0.000000 0.000000 0.000000
# 3 -0.000948 0.001823 0.015137 0.000000 0.000000 0.000000
# 4 0.000000 0.000000 0.000000 -0.140807 0.000000 0.000000
# 5 0.000000 0.000000 0.000000 0.000000 0.045275 0.000000
# 6 0.000000 0.000000 0.000000 0.000000 0.000000 0.055841
#
#
# Mechanical properties :
#
#
# Convention : Reuss Voigt Hill
#
# Bulk Modulus (GPa) = 24.52485 25.21565 24.87025
# Shear Modulus (GPa) = 389.33007 22.16254 205.74631
#
# Velocity S-wave (km/s) = 13.30897 3.17538 9.67501
# Velocity P-wave (km/s) = 15.72671 4.99160 11.66716
#
# Compressibility (1/GPa) = 0.04077498
#
# Stress axis : x y z
#
# Youngs Moduli (GPa) = 84.53745 77.56265 66.06461
#
# Poissons Ratio (x) = 0.03232 0.06266
# Poissons Ratio (y) = 0.03522 -0.12046
# Poissons Ratio (z) = 0.08018 -0.14142
#
# Static dielectric constant tensor:
#      x y z
#    x 1.830430 0.000000 0.000000 
#    y 0.000000 1.891640 0.000000 
#    z 0.000000 0.000000 1.911770 
# 
# From -- ./inp_files/6142.got.cif
#   From: 2010.05.17/outbox.cif.g08.bks.cpg/sg16_4_cif.got.tgz:6142.got - 2010.06.03 22:28:35.
