data_PCOD9310774
_publ_section_title
;
Structure prediction by ZEFSAII (Michael W. Deem and Ramdas Pophale) SiO2 
 PCOD9310774
Probable space group: P 2 2 21
;
_chemical_formula_sum "Si O2"
_cell_formula_units_Z 30
_cell_length_a 11.911510
_cell_length_b 6.779639
_cell_length_c 18.555813
_cell_angle_alpha 90.000000
_cell_angle_beta 90.000000
_cell_angle_gamma 90.000000
_cell_volume 1498.488368
_symmetry_space_group_name_H-M "P 2 2 21"
_symmetry_group_IT_number 17
_symmetry_cell_setting 'orthorhombic'
loop_
_space_group_symop_operation_xyz
x,y,z
-x,-y,1/2+z
x,-y,-z
-x,y,1/2-z
loop_
_atom_site_type_symbol
_atom_site_label
_atom_site_fract_x
_atom_site_fract_y
_atom_site_fract_z
Si Si1 0.143885 0.035985 0.415394
Si Si2 0.500000 0.302159 0.250000
Si Si3 0.603053 0.865453 0.930058
Si Si4 0.284447 0.027835 0.222647
Si Si5 0.757012 0.693247 0.165285
Si Si6 0.468054 0.454251 0.603046
Si Si7 0.107031 0.305793 0.294586
Si Si8 0.609616 0.081730 0.580945
O O1 0.152104 0.823945 0.377560
O O2 0.122035 0.000000 0.500000
O O3 0.270460 0.125439 0.402876
O O4 0.072926 0.189986 0.368326
O O5 0.505926 0.444181 0.180376
O O6 0.388701 0.167407 0.245517
O O7 0.561772 0.645399 0.944646
O O8 0.500997 0.967238 0.888155
O O9 0.608197 0.000000 0.000000
O O10 0.284195 0.825030 0.267802
O O11 0.295822 0.971644 0.138638
O O12 0.174129 0.147627 0.245718
O O13 0.649359 0.659632 0.114359
O O14 0.811561 0.488297 0.188205
O O15 0.568910 0.308696 0.581792
O O16 0.000000 0.375766 0.250000
O O17 0.631119 0.000000 0.500000
#
# Coordination Sequence:
#
# PCOD9310774 Si02
#       8
#     4   2   4   4   4   4   4   4
#     4  10  21  41  64  96 128 164 208 271 337 389
#     4  12  20  36  62  94 128 158 218 262 322 404
#     4  10  20  35  53  89 131 167 201 249 317 392
#     4  11  23  41  63  93 131 170 213 270 323 393
#     4  11  21  37  64  93 126 170 211 263 328 384
#     4  12  20  35  58  91 129 172 207 255 316 389
#     4  11  25  45  67  96 128 169 227 280 328 389
#     4  11  24  38  57  93 138 179 218 261 321 401
#
# _framework density 20.020175999999999
#
# number of rings (size 3 to 8) (size 9 to 14) (size 15 to 20)
#    0.000    1.067    5.333    2.400    0.000    4.800 
#    0.000    0.667    0.000    1.600    0.000    0.000 
#    0.000    0.000    0.000    0.000    0.000    0.000 
#
# Total GULP energy -167450.609872 kJ/mol
# GULP energy per Si atom -5581.686996 kJ/mol
# Density = 1.997461 g / cm^3
# Si number density = 20.020176 Si / 1000 Ang^3
#
#
#
# Elastic Constant Matrix: (Units=GPa)
#
#
# Indices 1 2 3 4 5 6 
#
# 1 24.3892 7.2131 15.7445 0.0000 0.0000 0.0000
# 2 7.2131 135.1123 49.4994 0.0000 0.0000 0.0000
# 3 15.7445 49.4994 131.0610 0.0000 0.0000 0.0000
# 4 0.0000 0.0000 0.0000 35.1209 0.0000 0.0000
# 5 0.0000 0.0000 0.0000 0.0000 23.3727 0.0000
# 6 0.0000 0.0000 0.0000 0.0000 0.0000 13.6156
#
#
#
# Elastic Compliance Matrix: (Units=1/GPa)
#
#
# Indices 1 2 3 4 5 6 
#
# 1 0.044476 -0.000484 -0.005160 0.000000 0.000000 0.000000
# 2 -0.000484 0.008595 -0.003188 0.000000 0.000000 0.000000
# 3 -0.005160 -0.003188 0.009454 0.000000 0.000000 0.000000
# 4 0.000000 0.000000 0.000000 0.028473 0.000000 0.000000
# 5 0.000000 0.000000 0.000000 0.000000 0.042785 0.000000
# 6 0.000000 0.000000 0.000000 0.000000 0.000000 0.073445
#
#
# Mechanical properties :
#
#
# Convention : Reuss Voigt Hill
#
# Bulk Modulus (GPa) = 22.29118 48.38629 35.33874
# Shear Modulus (GPa) = 20.84668 28.96221 24.90444
#
# Velocity S-wave (km/s) = 3.23039 3.80761 3.53082
# Velocity P-wave (km/s) = 5.00724 6.59938 5.85765
#
# Compressibility (1/GPa) = 0.04486078
#
# Stress axis : x y z
#
# Youngs Moduli (GPa) = 22.48399 116.34600 105.77526
#
# Poissons Ratio (x) = 0.05630 0.54582
# Poissons Ratio (y) = 0.01088 0.33722
# Poissons Ratio (z) = 0.11602 0.37092
#
# Static dielectric constant tensor:
#      x y z
#    x 1.710730 0.000000 0.000000 
#    y 0.000000 1.731610 0.000000 
#    z 0.000000 0.000000 1.803310 
# 
# From -- ./inp_files/10232.got.cif
#   From: 2010.05.17/outbox.cif.g08.bks.cpg/sg17_6_cif.got.tgz:10232.got - 2010.06.03 22:34:06.
