data_PCOD9310627
_publ_section_title
;
Structure prediction by ZEFSAII (Michael W. Deem and Ramdas Pophale) SiO2 
 PCOD9310627
Probable space group: P 2 2 21
;
_chemical_formula_sum "Si O2"
_cell_formula_units_Z 18
_cell_length_a 16.299258
_cell_length_b 11.474399
_cell_length_c 5.146856
_cell_angle_alpha 90.000000
_cell_angle_beta 90.000000
_cell_angle_gamma 90.000000
_cell_volume 962.586573
_symmetry_space_group_name_H-M "P 2 2 21"
_symmetry_group_IT_number 17
_symmetry_cell_setting 'orthorhombic'
loop_
_space_group_symop_operation_xyz
x,y,z
-x,-y,1/2+z
x,-y,-z
-x,y,1/2-z
loop_
_atom_site_type_symbol
_atom_site_label
_atom_site_fract_x
_atom_site_fract_y
_atom_site_fract_z
Si Si1 0.840374 0.715342 0.518617
Si Si2 0.085895 0.102789 0.652156
Si Si3 0.740407 0.360168 0.982156
Si Si4 0.000000 0.280155 0.250000
Si Si5 0.551085 0.641936 0.001213
O O1 0.867396 0.840456 0.395943
O O2 0.786640 0.701024 0.777429
O O3 0.929032 0.657170 0.584922
O O4 0.787549 0.664145 0.284615
O O5 0.054054 0.202880 0.452614
O O6 0.000000 0.050018 0.750000
O O7 0.131493 0.000000 0.500000
O O8 0.741250 0.500000 0.000000
O O9 0.645629 0.321038 0.985211
O O10 0.500000 0.679959 0.250000
O O11 0.552522 0.500000 0.000000
O O12 0.500000 0.679148 0.750000
#
# Coordination Sequence:
#
# PCOD9310627 Si02
#       5
#     4   4   4   2   4
#     4  11  22  36  54  77 110 146 188 231 272 323
#     4  10  19  33  59  80 104 138 182 233 302 341
#     4  11  22  37  55  76 111 154 186 224 277 323
#     4  10  20  38  54  76 104 142 182 236 274 330
#     4   9  17  31  53  79 102 132 177 225 275 330
#
# _framework density 18.699618999999998
#
# number of rings (size 3 to 8) (size 9 to 14) (size 15 to 20)
#    0.000    1.778    3.333    2.000    0.000    3.556 
#    0.000    2.222    2.444    0.000    0.000    0.000 
#    0.000    5.333    0.889    0.000    0.000    0.000 
#
# Total GULP energy -100278.676605 kJ/mol
# GULP energy per Si atom -5571.037589 kJ/mol
# Density = 1.865706 g / cm^3
# Si number density = 18.699619 Si / 1000 Ang^3
#
#
#
# Elastic Constant Matrix: (Units=GPa)
#
#
# Indices 1 2 3 4 5 6 
#
# 1 185.9128 34.6186 97.4181 0.0000 0.0000 0.0000
# 2 34.6186 18.2039 12.2892 0.0000 0.0000 0.0000
# 3 97.4181 12.2892 163.6963 0.0000 0.0000 0.0000
# 4 0.0000 0.0000 0.0000 11.9708 0.0000 0.0000
# 5 0.0000 0.0000 0.0000 0.0000 32.1850 0.0000
# 6 0.0000 0.0000 0.0000 0.0000 0.0000 25.5590
#
#
#
# Elastic Compliance Matrix: (Units=1/GPa)
#
#
# Indices 1 2 3 4 5 6 
#
# 1 0.011793 -0.018634 -0.005619 0.000000 0.000000 0.000000
# 2 -0.018634 0.087308 0.004535 0.000000 0.000000 0.000000
# 3 -0.005619 0.004535 0.009113 0.000000 0.000000 0.000000
# 4 0.000000 0.000000 0.000000 0.083537 0.000000 0.000000
# 5 0.000000 0.000000 0.000000 0.000000 0.031070 0.000000
# 6 0.000000 0.000000 0.000000 0.000000 0.000000 0.039125
#
#
# Mechanical properties :
#
#
# Convention : Reuss Voigt Hill
#
# Bulk Modulus (GPa) = 14.53974 72.94054 43.74014
# Shear Modulus (GPa) = 15.41741 28.84209 22.12975
#
# Velocity S-wave (km/s) = 2.87449 3.93159 3.44384
# Velocity P-wave (km/s) = 4.33696 7.72664 6.26539
#
# Compressibility (1/GPa) = 0.06877701
#
# Stress axis : x y z
#
# Youngs Moduli (GPa) = 84.79473 11.45371 109.73776
#
# Poissons Ratio (x) = 0.21342 0.61666
# Poissons Ratio (y) = 1.58004 -0.49763
# Poissons Ratio (z) = 0.47650 -0.05194
#
# Static dielectric constant tensor:
#      x y z
#    x 1.654760 0.000000 0.000000 
#    y 0.000000 1.684440 0.000000 
#    z 0.000000 0.000000 1.701520 
# 
# From -- ./inp_files/2005.got.cif
#   From: 2010.05.17/outbox.cif.g08.bks.cpg/sg17_2_cif.got.tgz:2005.got - 2010.06.03 22:34:06.
