data_PCOD9310112
_publ_section_title
;
Structure prediction by ZEFSAII (Michael W. Deem and Ramdas Pophale) SiO2 
 PCOD9310112
Probable space group: P 2 2 2
;
_chemical_formula_sum "Si O2"
_cell_formula_units_Z 32
_cell_length_a 7.781939
_cell_length_b 12.683168
_cell_length_c 15.717809
_cell_angle_alpha 90.000000
_cell_angle_beta 90.000000
_cell_angle_gamma 90.000000
_cell_volume 1551.342085
_symmetry_space_group_name_H-M "P 2 2 2"
_symmetry_group_IT_number 16
_symmetry_cell_setting 'orthorhombic'
loop_
_space_group_symop_operation_xyz
x,y,z
-x,-y,z
x,-y,-z
-x,y,-z
loop_
_atom_site_type_symbol
_atom_site_label
_atom_site_fract_x
_atom_site_fract_y
_atom_site_fract_z
Si Si1 0.205430 0.727670 0.841093
Si Si2 0.295246 0.121602 0.000000
Si Si3 0.301250 0.000000 0.601377
Si Si4 0.703579 0.224526 0.648942
Si Si5 0.296421 0.775474 0.351057
Si Si6 0.710681 0.378988 0.500000
Si Si7 0.794570 0.727670 0.841093
Si Si8 0.209546 0.500000 0.098224
O O1 0.246042 0.811079 0.916009
O O2 0.273616 0.754860 0.748152
O O3 0.270111 0.610130 0.863152
O O4 1.000000 0.723146 0.835988
O O5 0.500000 0.114609 0.000000
O O6 0.246041 0.188922 0.916010
O O7 0.227931 0.000000 0.000000
O O8 0.219897 0.890471 0.629836
O O9 0.500000 0.000000 0.633860
O O10 0.307659 0.000000 0.500000
O O11 0.219897 0.109530 0.629836
O O12 0.500000 0.218164 0.629782
O O13 0.767619 0.314276 0.584004
O O14 0.232381 0.685723 0.415996
O O15 0.273618 0.754860 0.251847
O O16 0.769393 0.500000 0.500000
O O17 0.500000 0.382377 0.500000
O O18 0.729889 0.610130 0.863151
O O19 0.000000 0.500000 0.103042
O O20 0.257105 0.500000 0.000000
#
# Coordination Sequence:
#
# PCOD9310112 Si02
#       8
#     4   4   4   4   4   4   4   4
#     4  11  23  40  62  87 118 155 193 235 291 351
#     4  11  25  44  63  86 118 153 192 239 288 343
#     4   9  16  32  57  80 105 146 195 237 282 338
#     4  10  20  35  57  84 114 151 195 242 291 340
#     4  10  20  35  57  84 114 151 195 242 291 340
#     4   9  18  33  54  82 117 153 196 249 294 338
#     4  11  23  40  62  87 118 155 193 235 291 351
#     4   9  18  38  62  81 110 153 193 232 280 342
#
# _framework density 20.627303000000001
#
# number of rings (size 3 to 8) (size 9 to 14) (size 15 to 20)
#    0.000    2.000    2.500    1.125    3.500    1.000 
#    0.000    3.125    0.000    1.500    0.000    0.000 
#    0.000    0.000    0.000    0.000    0.000    0.000 
#
# Total GULP energy -178572.494815 kJ/mol
# GULP energy per Si atom -5580.390463 kJ/mol
# Density = 2.058035 g / cm^3
# Si number density = 20.627303 Si / 1000 Ang^3
#
#
#
# Elastic Constant Matrix: (Units=GPa)
#
#
# Indices 1 2 3 4 5 6 
#
# 1 29.8875 1.0253 -19.1934 0.0000 0.0000 0.0000
# 2 1.0253 238.9703 103.7006 0.0000 0.0000 0.0000
# 3 -19.1934 103.7006 135.9314 0.0000 0.0000 0.0000
# 4 0.0000 0.0000 0.0000 41.4767 0.0000 0.0000
# 5 0.0000 0.0000 0.0000 0.0000 439.8879 0.0000
# 6 0.0000 0.0000 0.0000 0.0000 0.0000 31.4446
#
#
#
# Elastic Compliance Matrix: (Units=1/GPa)
#
#
# Indices 1 2 3 4 5 6 
#
# 1 0.038999 -0.003822 0.008423 0.000000 0.000000 0.000000
# 2 -0.003822 0.006630 -0.005598 0.000000 0.000000 0.000000
# 3 0.008423 -0.005598 0.012816 0.000000 0.000000 0.000000
# 4 0.000000 0.000000 0.000000 0.024110 0.000000 0.000000
# 5 0.000000 0.000000 0.000000 0.000000 0.002273 0.000000
# 6 0.000000 0.000000 0.000000 0.000000 0.000000 0.031802
#
#
# Mechanical properties :
#
#
# Convention : Reuss Voigt Hill
#
# Bulk Modulus (GPa) = 17.71467 63.98378 40.84922
# Shear Modulus (GPa) = 36.37891 123.84563 80.11227
#
# Velocity S-wave (km/s) = 4.20411 7.75693 6.23877
# Velocity P-wave (km/s) = 5.67210 10.55050 8.47012
#
# Compressibility (1/GPa) = 0.05645040
#
# Stress axis : x y z
#
# Youngs Moduli (GPa) = 25.64181 150.82590 78.02510
#
# Poissons Ratio (x) = 0.57650 -0.65717
# Poissons Ratio (y) = 0.09801 0.43677
# Poissons Ratio (z) = -0.21597 0.84429
#
# Static dielectric constant tensor:
#      x y z
#    x 1.756100 0.000000 0.000000 
#    y 0.000000 1.713740 0.000000 
#    z 0.000000 0.000000 1.557630 
# 
# From -- ./inp_files/7986.got.cif
#   From: 2010.05.17/outbox.cif.g08.bks.cpg/sg16_4_cif.got.tgz:7986.got - 2010.06.03 22:28:35.
