data_PCOD9310746
_publ_section_title
;
Structure prediction by ZEFSAII (Michael W. Deem and Ramdas Pophale) SiO2 
 PCOD9310746
Probable space group: P 2 2 21
;
_chemical_formula_sum "Si O2"
_cell_formula_units_Z 16
_cell_length_a 8.195045
_cell_length_b 11.444147
_cell_length_c 7.176823
_cell_angle_alpha 90.000000
_cell_angle_beta 90.000000
_cell_angle_gamma 90.000000
_cell_volume 673.080496
_symmetry_space_group_name_H-M "P 2 2 21"
_symmetry_group_IT_number 17
_symmetry_cell_setting 'orthorhombic'
loop_
_space_group_symop_operation_xyz
x,y,z
-x,-y,1/2+z
x,-y,-z
-x,y,1/2-z
loop_
_atom_site_type_symbol
_atom_site_label
_atom_site_fract_x
_atom_site_fract_y
_atom_site_fract_z
Si Si1 0.802720 0.374880 0.721440
Si Si2 0.308635 0.125047 0.217580
Si Si3 0.806620 0.625710 0.721068
Si Si4 0.806256 0.875645 0.283781
O O1 0.740953 0.500534 0.793044
O O2 0.773785 0.374224 0.499798
O O3 0.739796 0.249107 0.790837
O O4 0.000000 0.375025 0.750000
O O5 0.500000 0.125455 0.250000
O O6 0.247310 0.248884 0.296328
O O7 0.245837 0.875782 0.997758
O O8 0.249690 0.000131 0.294021
O O9 0.000000 0.622126 0.750000
O O10 0.000000 0.872556 0.250000
#
# Coordination Sequence:
#
# PCOD9310746 Si02
#       4
#     4   4   4   4
#     4   8  15  29  51  76 102 133 185 237 268 311
#     4  10  20  34  52  83 118 145 177 233 291 333
#     4   9  16  29  52  78 103 140 184 228 272 329
#     4   9  18  36  58  79 105 150 197 230 269 335
#
# _framework density 23.771304000000001
#
# number of rings (size 3 to 8) (size 9 to 14) (size 15 to 20)
#    0.000    3.000    0.000    0.750    0.000    0.000 
#    0.000   21.250    0.000   21.000    0.000    0.000 
#    0.000    0.000    0.000    0.000    0.000    0.000 
#
# Total GULP energy -89130.659800 kJ/mol
# GULP energy per Si atom -5570.666237 kJ/mol
# Density = 2.371720 g / cm^3
# Si number density = 23.771304 Si / 1000 Ang^3
#
#
#
# Elastic Constant Matrix: (Units=GPa)
#
#
# Indices 1 2 3 4 5 6 
#
# 1 66.3465 48.3906 9.3518 0.0000 0.0000 0.0000
# 2 48.3906 385.4056 19.3835 0.0000 0.0000 0.0000
# 3 9.3518 19.3835 146.2911 0.0000 0.0000 0.0000
# 4 0.0000 0.0000 0.0000 -33.9889 0.0000 0.0000
# 5 0.0000 0.0000 0.0000 0.0000 9.4882 0.0000
# 6 0.0000 0.0000 0.0000 0.0000 0.0000 -93.5270
#
#
#
# Elastic Compliance Matrix: (Units=1/GPa)
#
#
# Indices 1 2 3 4 5 6 
#
# 1 0.016683 -0.002055 -0.000794 0.000000 0.000000 0.000000
# 2 -0.002055 0.002865 -0.000248 0.000000 0.000000 0.000000
# 3 -0.000794 -0.000248 0.006919 0.000000 0.000000 0.000000
# 4 0.000000 0.000000 0.000000 -0.029421 0.000000 0.000000
# 5 0.000000 0.000000 0.000000 0.000000 0.105394 0.000000
# 6 0.000000 0.000000 0.000000 0.000000 0.000000 -0.010692
#
#
# Mechanical properties :
#
#
# Convention : Reuss Voigt Hill
#
# Bulk Modulus (GPa) = 49.32669 83.58833 66.45751
# Shear Modulus (GPa) = 47.75549 11.12229 29.43889
#
# Velocity S-wave (km/s) = 4.48700 2.16542 3.52294
# Velocity P-wave (km/s) = 6.90216 6.44142 6.67577
#
# Compressibility (1/GPa) = 0.02027300
#
# Stress axis : x y z
#
# Youngs Moduli (GPa) = 59.94136 349.02281 144.52218
#
# Poissons Ratio (x) = 0.71715 0.11478
# Poissons Ratio (y) = 0.12316 0.03588
# Poissons Ratio (z) = 0.04761 0.08666
#
# Static dielectric constant tensor:
#      x y z
#    x 1.804620 0.000000 0.000000 
#    y 0.000000 2.040190 0.000000 
#    z 0.000000 0.000000 1.843900 
# 
# From -- ./inp_files/5784.got.cif
#   From: 2010.05.17/outbox.cif.g08.bks.cpg/sg17_3_cif.got.tgz:5784.got - 2010.06.03 22:34:06.
