data_PCOD9310819
_publ_section_title
;
Structure prediction by ZEFSAII (Michael W. Deem and Ramdas Pophale) SiO2 
 PCOD9310819
Probable space group: P 2 2 21
;
_chemical_formula_sum "Si O2"
_cell_formula_units_Z 18
_cell_length_a 10.583229
_cell_length_b 9.804747
_cell_length_c 7.464939
_cell_angle_alpha 90.000000
_cell_angle_beta 90.000000
_cell_angle_gamma 90.000000
_cell_volume 774.605985
_symmetry_space_group_name_H-M "P 2 2 21"
_symmetry_group_IT_number 17
_symmetry_cell_setting 'orthorhombic'
loop_
_space_group_symop_operation_xyz
x,y,z
-x,-y,1/2+z
x,-y,-z
-x,y,1/2-z
loop_
_atom_site_type_symbol
_atom_site_label
_atom_site_fract_x
_atom_site_fract_y
_atom_site_fract_z
Si Si1 0.179199 0.396473 0.212384
Si Si2 0.684327 0.000000 0.500000
Si Si3 0.520513 0.782018 0.966092
Si Si4 0.583400 0.500000 0.500000
Si Si5 0.216624 0.892206 0.625997
Si Si6 0.978243 0.500000 0.000000
O O1 0.170991 0.259073 0.325446
O O2 0.116538 0.512933 0.334521
O O3 0.317195 0.440277 0.146917
O O4 0.080327 0.383197 0.048893
O O5 0.591160 0.874062 0.455588
O O6 0.757851 0.958891 0.679228
O O7 0.500000 0.779528 0.750000
O O8 0.504577 0.629572 0.039384
O O9 0.654650 0.854694 0.983709
O O10 0.145067 0.000000 0.500000
#
# Coordination Sequence:
#
# PCOD9310819 Si02
#       6
#     4   2   4   2   4   2
#     4  10  21  42  66  95 125 171 227 285 354 395
#     4  10  20  40  60  90 144 196 214 270 324 398
#     4  10  20  37  55  95 141 181 221 262 320 405
#     4  11  20  37  64  94 140 175 226 281 320 412
#     4  11  23  41  65  98 140 185 231 260 334 428
#     4   9  22  43  70  84 130 159 218 313 344 394
#
# _framework density 23.237622000000002
#
# number of rings (size 3 to 8) (size 9 to 14) (size 15 to 20)
#    0.000    1.778    5.556    0.000    0.000    2.667 
#    8.000    0.000    9.778    0.000    0.000    0.000 
#    0.000    0.000    0.000    0.000    0.000    0.000 
#
# Total GULP energy -100341.935518 kJ/mol
# GULP energy per Si atom -5574.551973 kJ/mol
# Density = 2.318473 g / cm^3
# Si number density = 23.237622 Si / 1000 Ang^3
#
#
#
# Elastic Constant Matrix: (Units=GPa)
#
#
# Indices 1 2 3 4 5 6 
#
# 1 35.3801 11.3854 18.1541 0.0000 0.0000 0.0000
# 2 11.3854 134.9532 25.3026 0.0000 0.0000 0.0000
# 3 18.1541 25.3026 86.5488 0.0000 0.0000 0.0000
# 4 0.0000 0.0000 0.0000 42.9618 0.0000 0.0000
# 5 0.0000 0.0000 0.0000 0.0000 27.1040 0.0000
# 6 0.0000 0.0000 0.0000 0.0000 0.0000 -4.8380
#
#
#
# Elastic Compliance Matrix: (Units=1/GPa)
#
#
# Indices 1 2 3 4 5 6 
#
# 1 0.031967 -0.001523 -0.006260 0.000000 0.000000 0.000000
# 2 -0.001523 0.007912 -0.001994 0.000000 0.000000 0.000000
# 3 -0.006260 -0.001994 0.013450 0.000000 0.000000 0.000000
# 4 0.000000 0.000000 0.000000 0.023276 0.000000 0.000000
# 5 0.000000 0.000000 0.000000 0.000000 0.036895 0.000000
# 6 0.000000 0.000000 0.000000 0.000000 0.000000 -0.206697
#
#
# Mechanical properties :
#
#
# Convention : Reuss Voigt Hill
#
# Bulk Modulus (GPa) = 29.60722 40.72960 35.16841
# Shear Modulus (GPa) = -80.14853 26.51489 -26.81682
#
# Velocity S-wave (km/s) = -5.87926 3.38158 -3.40078
# Velocity P-wave (km/s) = 5.77225 5.72820 0.50330
#
# Compressibility (1/GPa) = 0.03377554
#
# Stress axis : x y z
#
# Youngs Moduli (GPa) = 31.28250 126.38580 74.34898
#
# Poissons Ratio (x) = 0.19251 0.46542
# Poissons Ratio (y) = 0.04765 0.14823
# Poissons Ratio (z) = 0.19583 0.25197
#
# Static dielectric constant tensor:
#      x y z
#    x 1.905150 0.000000 0.000000 
#    y 0.000000 1.920790 0.000000 
#    z 0.000000 0.000000 2.429770 
# 
# From -- ./inp_files/4590.got.cif
#   From: 2010.05.17/outbox.cif.g08.bks.cpg/sg17_3_cif.got.tgz:4590.got - 2010.06.03 22:34:06.
