data_PCOD9310545
_publ_section_title
;
Structure prediction by ZEFSAII (Michael W. Deem and Ramdas Pophale) SiO2 
 PCOD9310545
Probable space group: P 2 2 21
;
_chemical_formula_sum "Si O2"
_cell_formula_units_Z 20
_cell_length_a 5.611231
_cell_length_b 21.119417
_cell_length_c 8.241194
_cell_angle_alpha 90.000000
_cell_angle_beta 90.000000
_cell_angle_gamma 90.000000
_cell_volume 976.630338
_symmetry_space_group_name_H-M "P 2 2 21"
_symmetry_group_IT_number 17
_symmetry_cell_setting 'orthorhombic'
loop_
_space_group_symop_operation_xyz
x,y,z
-x,-y,1/2+z
x,-y,-z
-x,y,1/2-z
loop_
_atom_site_type_symbol
_atom_site_label
_atom_site_fract_x
_atom_site_fract_y
_atom_site_fract_z
Si Si1 0.641017 0.690801 0.990376
Si Si2 0.634025 0.568083 0.577705
Si Si3 0.642180 0.808217 0.420454
Si Si4 0.252286 0.948408 0.142806
Si Si5 0.000000 0.273228 0.750000
Si Si6 0.000000 0.635859 0.750000
O O1 0.471714 0.630133 0.007566
O O2 0.798604 0.678255 0.831168
O O3 0.511917 0.758788 0.975486
O O4 0.799891 0.690177 0.152722
O O5 0.612810 0.500000 0.500000
O O6 0.500000 0.564224 0.750000
O O7 0.903089 0.589180 0.612300
O O8 0.500000 0.810086 0.250000
O O9 0.703141 0.881113 0.449169
O O10 0.885280 0.771493 0.385722
O O11 0.500000 0.959061 0.250000
O O12 0.000000 0.945906 0.250000
O O13 0.228920 0.000000 0.000000
#
# Coordination Sequence:
#
# PCOD9310545 Si02
#       6
#     4   4   4   4   2   2
#     4  10  21  38  61  90 121 159 209 265 323 387
#     4  10  23  41  59  84 121 162 207 265 323 392
#     4   9  19  36  63  90 123 167 214 262 317 385
#     4  11  23  44  72 101 144 186 233 286 344 414
#     4  10  18  36  63  90 113 158 212 258 308 386
#     4  10  22  40  59  82 127 162 200 262 338 378
#
# _framework density 20.478577000000001
#
# number of rings (size 3 to 8) (size 9 to 14) (size 15 to 20)
#    0.000    2.000    1.000    1.800    0.000    7.200 
#    0.000    7.000    2.200    0.000    0.000    0.000 
#    0.000    0.000    0.000    0.000    0.000    0.000 
#
# Total GULP energy -111397.251246 kJ/mol
# GULP energy per Si atom -5569.862562 kJ/mol
# Density = 2.043197 g / cm^3
# Si number density = 20.478577 Si / 1000 Ang^3
#
#
#
# Elastic Constant Matrix: (Units=GPa)
#
#
# Indices 1 2 3 4 5 6 
#
# 1 100.0389 61.7157 28.7610 0.0000 0.0000 0.0000
# 2 61.7157 193.4401 67.6452 0.0000 0.0000 0.0000
# 3 28.7610 67.6452 53.0931 0.0000 0.0000 0.0000
# 4 0.0000 0.0000 0.0000 39.2039 0.0000 0.0000
# 5 0.0000 0.0000 0.0000 0.0000 41.1242 0.0000
# 6 0.0000 0.0000 0.0000 0.0000 0.0000 9.1616
#
#
#
# Elastic Compliance Matrix: (Units=1/GPa)
#
#
# Indices 1 2 3 4 5 6 
#
# 1 0.012723 -0.002974 -0.003103 0.000000 0.000000 0.000000
# 2 -0.002974 0.010019 -0.011154 0.000000 0.000000 0.000000
# 3 -0.003103 -0.011154 0.034727 0.000000 0.000000 0.000000
# 4 0.000000 0.000000 0.000000 0.025508 0.000000 0.000000
# 5 0.000000 0.000000 0.000000 0.000000 0.024317 0.000000
# 6 0.000000 0.000000 0.000000 0.000000 0.000000 0.109152
#
#
# Mechanical properties :
#
#
# Convention : Reuss Voigt Hill
#
# Bulk Modulus (GPa) = 43.46525 73.64621 58.55573
# Shear Modulus (GPa) = 19.33675 30.46128 24.89901
#
# Velocity S-wave (km/s) = 3.07619 3.86096 3.49070
# Velocity P-wave (km/s) = 5.82134 7.47774 6.70092
#
# Compressibility (1/GPa) = 0.02300688
#
# Stress axis : x y z
#
# Youngs Moduli (GPa) = 78.59806 99.81155 28.79637
#
# Poissons Ratio (x) = 0.29685 0.08935
# Poissons Ratio (y) = 0.23376 0.32119
# Poissons Ratio (z) = 0.24388 1.11328
#
# Static dielectric constant tensor:
#      x y z
#    x 1.870190 0.000000 0.000000 
#    y 0.000000 1.728320 0.000000 
#    z 0.000000 0.000000 1.740770 
# 
# From -- ./inp_files/3508.got.cif
#   From: 2010.05.17/outbox.cif.g08.bks.cpg/sg17_2_cif.got.tgz:3508.got - 2010.06.03 22:34:06.
