data_PCOD9310117
_publ_section_title
;
Structure prediction by ZEFSAII (Michael W. Deem and Ramdas Pophale) SiO2 
 PCOD9310117
Probable space group: P 2 2 2
;
_chemical_formula_sum "Si O2"
_cell_formula_units_Z 32
_cell_length_a 16.142949
_cell_length_b 12.222861
_cell_length_c 7.700910
_cell_angle_alpha 90.000000
_cell_angle_beta 90.000000
_cell_angle_gamma 90.000000
_cell_volume 1519.489822
_symmetry_space_group_name_H-M "P 2 2 2"
_symmetry_group_IT_number 16
_symmetry_cell_setting 'orthorhombic'
loop_
_space_group_symop_operation_xyz
x,y,z
-x,-y,z
x,-y,-z
-x,y,-z
loop_
_atom_site_type_symbol
_atom_site_label
_atom_site_fract_x
_atom_site_fract_y
_atom_site_fract_z
Si Si1 0.658643 0.260431 0.293871
Si Si2 0.000000 0.123156 0.793344
Si Si3 0.658643 0.739570 0.293871
Si Si4 0.500000 0.126731 0.286816
Si Si5 0.596015 0.500000 0.208215
Si Si6 0.159899 0.732941 0.291540
Si Si7 0.096170 0.500000 0.712305
Si Si8 0.159899 0.732941 0.708460
O O1 0.660057 0.239297 0.500000
O O2 0.581763 0.190484 0.224222
O O3 0.639991 0.388993 0.268678
O O4 0.749890 0.232249 0.224153
O O5 0.917219 0.188384 0.743156
O O6 0.082781 0.188383 0.743156
O O7 0.000000 0.000000 0.721048
O O8 0.000000 0.116761 0.000000
O O9 0.581763 0.809517 0.224223
O O10 0.639991 0.611008 0.268677
O O11 0.749890 0.767752 0.224153
O O12 0.500000 0.130493 0.500000
O O13 0.500000 0.000000 0.236787
O O14 0.500000 0.500000 0.269140
O O15 0.595565 0.500000 0.000000
O O16 0.138510 0.611227 0.226553
O O17 0.166674 0.724855 0.500000
O O18 0.098173 0.500000 0.500000
O O19 0.138510 0.611227 0.773447
O O20 0.000000 0.500000 0.762793
#
# Coordination Sequence:
#
# PCOD9310117 Si02
#       8
#     4   4   4   4   4   4   4   4
#     4  10  20  35  59  86 113 148 188 235 291 340
#     4  11  25  42  57  78 114 157 194 233 284 337
#     4  10  20  35  59  86 113 148 188 235 291 340
#     4   9  18  33  53  80 112 143 182 235 288 335
#     4  11  22  35  55  84 120 158 194 231 275 336
#     4  10  20  36  60  87 111 143 188 236 285 340
#     4   9  15  28  52  79 108 134 164 218 283 333
#     4  10  20  36  60  87 111 143 188 236 285 340
#
# _framework density 21.059701
#
# number of rings (size 3 to 8) (size 9 to 14) (size 15 to 20)
#    0.000    2.000    2.500    1.500    0.000    5.500 
#    0.000    3.750    0.000    1.500    0.000    0.000 
#    0.000    0.000    0.000    0.000    0.000    0.000 
#
# Total GULP energy -178759.162593 kJ/mol
# GULP energy per Si atom -5586.223831 kJ/mol
# Density = 2.101177 g / cm^3
# Si number density = 21.059701 Si / 1000 Ang^3
#
#
#
# Elastic Constant Matrix: (Units=GPa)
#
#
# Indices 1 2 3 4 5 6 
#
# 1 241.5963 109.4077 8.3746 0.0000 0.0000 0.0000
# 2 109.4077 165.5124 -7.7214 0.0000 0.0000 0.0000
# 3 8.3746 -7.7214 32.8988 0.0000 0.0000 0.0000
# 4 0.0000 0.0000 0.0000 -1.1840 0.0000 0.0000
# 5 0.0000 0.0000 0.0000 0.0000 -0.1379 0.0000
# 6 0.0000 0.0000 0.0000 0.0000 0.0000 0.1654
#
#
#
# Elastic Compliance Matrix: (Units=1/GPa)
#
#
# Indices 1 2 3 4 5 6 
#
# 1 0.006109 -0.004156 -0.002531 0.000000 0.000000 0.000000
# 2 -0.004156 0.008936 0.003155 0.000000 0.000000 0.000000
# 3 -0.002531 0.003155 0.031781 0.000000 0.000000 0.000000
# 4 0.000000 0.000000 0.000000 -0.844612 0.000000 0.000000
# 5 0.000000 0.000000 0.000000 0.000000 -7.250916 0.000000
# 6 0.000000 0.000000 0.000000 0.000000 0.000000 6.045590
#
#
# Mechanical properties :
#
#
# Convention : Reuss Voigt Hill
#
# Bulk Modulus (GPa) = 25.14863 73.34770 49.24817
# Shear Modulus (GPa) = -2.52169 21.76514 9.62172
#
# Velocity S-wave (km/s) = -1.09545 3.21829 2.13979
# Velocity P-wave (km/s) = 3.21986 6.97954 5.43514
#
# Compressibility (1/GPa) = 0.03976359
#
# Stress axis : x y z
#
# Youngs Moduli (GPa) = 163.69181 111.90131 31.46532
#
# Poissons Ratio (x) = 0.46509 0.07963
# Poissons Ratio (y) = 0.68035 -0.09929
# Poissons Ratio (z) = 0.41423 -0.35309
#
# Static dielectric constant tensor:
#      x y z
#    x 1.785040 0.000000 0.000000 
#    y 0.000000 1.703380 0.000000 
#    z 0.000000 0.000000 1.756550 
# 
# From -- ./inp_files/5213.got.cif
#   From: 2010.05.17/outbox.cif.g08.bks.cpg/sg16_3_cif.got.tgz:5213.got - 2010.06.03 22:28:35.
