data_PCOD9310050
_publ_section_title
;
Structure prediction by ZEFSAII (Michael W. Deem and Ramdas Pophale) SiO2 
 PCOD9310050
Probable space group: P 2 2 2
;
_chemical_formula_sum "Si O2"
_cell_formula_units_Z 28
_cell_length_a 12.778973
_cell_length_b 22.331436
_cell_length_c 5.201668
_cell_angle_alpha 90.000000
_cell_angle_beta 90.000000
_cell_angle_gamma 90.000000
_cell_volume 1484.414654
_symmetry_space_group_name_H-M "P 2 2 2"
_symmetry_group_IT_number 16
_symmetry_cell_setting 'orthorhombic'
loop_
_space_group_symop_operation_xyz
x,y,z
-x,-y,z
x,-y,-z
-x,y,-z
loop_
_atom_site_type_symbol
_atom_site_label
_atom_site_fract_x
_atom_site_fract_y
_atom_site_fract_z
Si Si1 0.382116 0.527069 0.748402
Si Si2 0.069848 0.225504 0.747161
Si Si3 0.930084 0.914891 0.743957
Si Si4 0.614731 0.665319 0.385311
Si Si5 0.302067 0.962094 0.248142
Si Si6 0.293604 0.279390 0.860253
Si Si7 0.572290 0.838643 0.750087
O O1 0.500000 0.500000 0.749252
O O2 0.327823 0.500000 0.500000
O O3 0.391297 0.597997 0.723724
O O4 0.330461 0.500000 0.000000
O O5 0.098576 0.155459 0.704497
O O6 0.172575 0.262734 0.821318
O O7 0.000000 0.244529 0.500000
O O8 0.000000 0.226709 0.000000
O O9 0.822659 0.950765 0.762648
O O10 0.000000 0.932152 0.500000
O O11 0.000000 0.920821 0.000000
O O12 0.500000 0.682395 0.500000
O O13 0.682418 0.670560 0.644679
O O14 0.663604 0.703135 0.146058
O O15 0.357936 0.898167 0.258431
O O16 0.327661 0.000000 0.500000
O O17 0.334509 0.000000 0.000000
O O18 0.356692 0.220198 0.774124
O O19 0.500000 0.835214 0.500000
O O20 0.500000 0.841342 0.000000
#
# Coordination Sequence:
#
# PCOD9310050 Si02
#       7
#     4   4   4   4   4   4   4
#     4  10  19  34  54  79 125 181 203 242 282 340
#     4  10  21  40  65  88 118 160 198 252 327 385
#     4  10  21  39  64  89 117 148 186 247 326 390
#     4  12  23  36  59  93 133 174 213 239 296 355
#     4  12  26  42  63  88 115 151 205 256 302 378
#     4  12  24  40  62  93 125 159 213 261 307 375
#     4  12  26  45  61  82 120 162 203 252 308 351
#
# _framework density 18.862655
#
# number of rings (size 3 to 8) (size 9 to 14) (size 15 to 20)
#    0.000    0.857    2.857    6.000    2.000    3.429 
#    0.000    0.000    0.000    0.000    0.000    0.000 
#    0.000   40.000    0.000    0.000    0.000    0.000 
#
# Total GULP energy -156405.677094 kJ/mol
# GULP energy per Si atom -5585.917039 kJ/mol
# Density = 1.881972 g / cm^3
# Si number density = 18.862655 Si / 1000 Ang^3
#
#
#
# Elastic Constant Matrix: (Units=GPa)
#
#
# Indices 1 2 3 4 5 6 
#
# 1 70.6468 32.0739 34.9481 0.0000 0.0000 0.0000
# 2 32.0739 85.8798 28.4088 0.0000 0.0000 0.0000
# 3 34.9481 28.4088 167.2253 0.0000 0.0000 0.0000
# 4 0.0000 0.0000 0.0000 -1.6747 0.0000 0.0000
# 5 0.0000 0.0000 0.0000 0.0000 65.7509 0.0000
# 6 0.0000 0.0000 0.0000 0.0000 0.0000 8.1446
#
#
#
# Elastic Compliance Matrix: (Units=1/GPa)
#
#
# Indices 1 2 3 4 5 6 
#
# 1 0.018210 -0.005872 -0.002808 0.000000 0.000000 0.000000
# 2 -0.005872 0.014231 -0.001190 0.000000 0.000000 0.000000
# 3 -0.002808 -0.001190 0.006769 0.000000 0.000000 0.000000
# 4 0.000000 0.000000 0.000000 -0.597134 0.000000 0.000000
# 5 0.000000 0.000000 0.000000 0.000000 0.015209 0.000000
# 6 0.000000 0.000000 0.000000 0.000000 0.000000 0.122780
#
#
# Mechanical properties :
#
#
# Convention : Reuss Voigt Hill
#
# Bulk Modulus (GPa) = 51.36397 57.17928 54.27163
# Shear Modulus (GPa) = -12.69990 29.66558 8.48284
#
# Velocity S-wave (km/s) = -2.59758 3.97005 2.12295
# Velocity P-wave (km/s) = 4.27704 7.16899 5.90285
#
# Compressibility (1/GPa) = 0.01946890
#
# Stress axis : x y z
#
# Youngs Moduli (GPa) = 54.91488 70.26893 147.73123
#
# Poissons Ratio (x) = 0.41262 0.41484
# Poissons Ratio (y) = 0.32246 0.17586
# Poissons Ratio (z) = 0.15421 0.08365
#
# Static dielectric constant tensor:
#      x y z
#    x 1.699950 0.000000 0.000000 
#    y 0.000000 1.665910 0.000000 
#    z 0.000000 0.000000 1.639440 
# 
# From -- ./inp_files/1659.got.cif
#   From: 2010.05.17/outbox.cif.g08.bks.cpg/sg16_1_cif.got.tgz:1659.got - 2010.06.03 22:28:35.
