data_PCOD9310816
_publ_section_title
;
Structure prediction by ZEFSAII (Michael W. Deem and Ramdas Pophale) SiO2 
 PCOD9310816
Probable space group: P 2 2 21
;
_chemical_formula_sum "Si O2"
_cell_formula_units_Z 24
_cell_length_a 5.580291
_cell_length_b 12.969259
_cell_length_c 16.479696
_cell_angle_alpha 90.000000
_cell_angle_beta 90.000000
_cell_angle_gamma 90.000000
_cell_volume 1192.672502
_symmetry_space_group_name_H-M "P 2 2 21"
_symmetry_group_IT_number 17
_symmetry_cell_setting 'orthorhombic'
loop_
_space_group_symop_operation_xyz
x,y,z
-x,-y,1/2+z
x,-y,-z
-x,y,1/2-z
loop_
_atom_site_type_symbol
_atom_site_label
_atom_site_fract_x
_atom_site_fract_y
_atom_site_fract_z
Si Si1 0.330467 0.690069 0.381918
Si Si2 0.501016 0.468843 0.347850
Si Si3 0.000000 0.215411 0.750000
Si Si4 0.411735 0.000000 0.500000
Si Si5 0.999591 0.645798 0.847329
Si Si6 0.074193 0.802178 0.520348
Si Si7 0.701317 0.872465 0.391156
O O1 0.472470 0.583881 0.381873
O O2 0.159179 0.707082 0.304457
O O3 0.185173 0.711434 0.464140
O O4 0.507475 0.785596 0.374038
O O5 0.500000 0.476324 0.250000
O O6 0.752929 0.414015 0.370854
O O7 0.251226 0.411297 0.369102
O O8 0.872496 0.138891 0.685921
O O9 0.252143 0.899598 0.518968
O O10 0.568300 0.975118 0.419874
O O11 0.000000 0.656875 0.750000
O O12 0.989676 0.754324 0.893669
O O13 0.844229 0.839505 0.471209
#
# Coordination Sequence:
#
# PCOD9310816 Si02
#       7
#     4   4   2   2   4   4   4
#     4  10  22  37  64  98 134 173 214 274 325 398
#     4  10  22  39  64  95 134 180 216 265 327 390
#     4  10  20  36  66  98 132 168 220 272 340 388
#     4  10  22  42  70  88 128 176 214 278 350 392
#     4  10  24  43  67  93 136 178 222 268 322 397
#     4  10  23  42  66  95 126 173 221 278 337 391
#     4  10  21  39  66  93 130 171 211 280 335 404
#
# _framework density 20.122875000000001
#
# number of rings (size 3 to 8) (size 9 to 14) (size 15 to 20)
#    0.000    2.000    0.000    2.000   12.833    0.667 
#    0.000    0.000   44.000    0.000    0.000    0.000 
#    0.000    0.000    0.000    0.000    0.000    0.000 
#
# Total GULP energy -133887.386936 kJ/mol
# GULP energy per Si atom -5578.641122 kJ/mol
# Density = 2.007707 g / cm^3
# Si number density = 20.122875 Si / 1000 Ang^3
#
#
#
# Elastic Constant Matrix: (Units=GPa)
#
#
# Indices 1 2 3 4 5 6 
#
# 1 104.2326 33.2583 36.5651 0.0000 0.0000 0.0000
# 2 33.2583 78.7387 48.9767 0.0000 0.0000 0.0000
# 3 36.5651 48.9767 62.1906 0.0000 0.0000 0.0000
# 4 0.0000 0.0000 0.0000 12.5059 0.0000 0.0000
# 5 0.0000 0.0000 0.0000 0.0000 14.6233 0.0000
# 6 0.0000 0.0000 0.0000 0.0000 0.0000 -113.0891
#
#
#
# Elastic Compliance Matrix: (Units=1/GPa)
#
#
# Indices 1 2 3 4 5 6 
#
# 1 0.012160 -0.001351 -0.006086 0.000000 0.000000 0.000000
# 2 -0.001351 0.025045 -0.018930 0.000000 0.000000 0.000000
# 3 -0.006086 -0.018930 0.034565 0.000000 0.000000 0.000000
# 4 0.000000 0.000000 0.000000 0.079962 0.000000 0.000000
# 5 0.000000 0.000000 0.000000 0.000000 0.068384 0.000000
# 6 0.000000 0.000000 0.000000 0.000000 0.000000 -0.008843
#
#
# Mechanical properties :
#
#
# Convention : Reuss Voigt Hill
#
# Bulk Modulus (GPa) = 52.52575 53.64022 53.08299
# Shear Modulus (GPa) = 18.49441 -8.76786 4.86328
#
# Velocity S-wave (km/s) = 3.03491 -2.08965 1.55629
# Velocity P-wave (km/s) = 6.20001 4.57078 5.44666
#
# Compressibility (1/GPa) = 0.01903828
#
# Stress axis : x y z
#
# Youngs Moduli (GPa) = 82.23839 39.92763 28.93093
#
# Poissons Ratio (x) = 0.05394 0.17606
# Poissons Ratio (y) = 0.11109 0.54765
# Poissons Ratio (z) = 0.50046 0.75581
#
# Static dielectric constant tensor:
#      x y z
#    x 1.808870 0.000000 0.000000 
#    y 0.000000 1.727550 0.000000 
#    z 0.000000 0.000000 1.761090 
# 
# From -- ./inp_files/9050.got.cif
#   From: 2010.05.17/outbox.cif.g08.bks.cpg/sg17_5_cif.got.tgz:9050.got - 2010.06.03 22:34:06.
