data_PCOD9310004
_publ_section_title
;
Structure prediction by ZEFSAII (Michael W. Deem and Ramdas Pophale) SiO2 
 PCOD9310004
Probable space group: P 2 2 2
;
_chemical_formula_sum "Si O2"
_cell_formula_units_Z 32
_cell_length_a 5.081252
_cell_length_b 27.310243
_cell_length_c 12.749423
_cell_angle_alpha 90.000000
_cell_angle_beta 90.000000
_cell_angle_gamma 90.000000
_cell_volume 1769.240322
_symmetry_space_group_name_H-M "P 2 2 2"
_symmetry_group_IT_number 16
_symmetry_cell_setting 'orthorhombic'
loop_
_space_group_symop_operation_xyz
x,y,z
-x,-y,z
x,-y,-z
-x,y,-z
loop_
_atom_site_type_symbol
_atom_site_label
_atom_site_fract_x
_atom_site_fract_y
_atom_site_fract_z
Si Si1 0.933181 0.447227 0.253842
Si Si2 0.071511 0.240739 0.614904
Si Si3 0.570052 0.426501 0.884916
Si Si4 0.431162 0.779901 0.753759
Si Si5 0.019679 0.055599 0.126820
Si Si6 0.481566 0.119236 0.873735
Si Si7 0.965284 0.656254 0.313904
Si Si8 0.535410 0.675889 0.811410
O O1 0.646761 0.443872 0.200321
O O2 0.000000 0.500000 0.300963
O O3 0.145094 0.440298 0.159421
O O4 0.977173 0.400937 0.330911
O O5 0.853610 0.224351 0.699993
O O6 0.055041 0.300125 0.611206
O O7 0.000000 0.221466 0.500000
O O8 0.353273 0.225962 0.661119
O O9 0.551206 0.367297 0.887489
O O10 0.500000 0.445041 0.000000
O O11 0.473253 0.829879 0.815398
O O12 0.478034 0.732806 0.829543
O O13 0.790154 0.093140 0.156612
O O14 0.293498 0.080359 0.154289
O O15 0.000000 0.000000 0.166711
O O16 0.000000 0.052539 0.000000
O O17 0.500000 0.126731 0.000000
O O18 0.657872 0.663839 0.287912
O O19 0.157340 0.668125 0.214279
#
# Coordination Sequence:
#
# PCOD9310004 Si02
#       8
#     4   4   4   4   4   4   4   4
#     4  10  19  30  43  59  82 112 144 186 239 278
#     4  10  19  33  53  73  96 126 159 199 249 298
#     4  10  19  29  41  59  82 112 153 189 221 273
#     4  10  19  32  49  74 104 127 159 202 243 293
#     4   9  17  30  47  68  99 139 178 210 238 273
#     4  10  19  30  47  73 105 139 168 199 242 285
#     4   8  16  30  45  62  82 109 144 178 221 283
#     4   8  16  29  43  58  83 117 145 178 223 270
#
# _framework density 18.086860000000001
#
# number of rings (size 3 to 8) (size 9 to 14) (size 15 to 20)
#    0.000    2.625    0.000    2.250    0.000    3.500 
#    0.000    0.000    0.000    7.875    0.000    0.000 
#    0.000   47.000    0.000    0.000    0.000    2.000 
#
# Total GULP energy -178201.070473 kJ/mol
# GULP energy per Si atom -5568.783452 kJ/mol
# Density = 1.804569 g / cm^3
# Si number density = 18.086860 Si / 1000 Ang^3
#
#
#
# Elastic Constant Matrix: (Units=GPa)
#
#
# Indices 1 2 3 4 5 6 
#
# 1 58.0476 -17.9521 -8.0364 0.0000 0.0000 0.0000
# 2 -17.9521 120.7270 11.5583 0.0000 0.0000 0.0000
# 3 -8.0364 11.5583 17.5836 0.0000 0.0000 0.0000
# 4 0.0000 0.0000 0.0000 6.8540 0.0000 0.0000
# 5 0.0000 0.0000 0.0000 0.0000 6.7270 0.0000
# 6 0.0000 0.0000 0.0000 0.0000 0.0000 12.5792
#
#
#
# Elastic Compliance Matrix: (Units=1/GPa)
#
#
# Indices 1 2 3 4 5 6 
#
# 1 0.018884 0.002115 0.007240 0.000000 0.000000 0.000000
# 2 0.002115 0.009076 -0.005000 0.000000 0.000000 0.000000
# 3 0.007240 -0.005000 0.063467 0.000000 0.000000 0.000000
# 4 0.000000 0.000000 0.000000 0.145901 0.000000 0.000000
# 5 0.000000 0.000000 0.000000 0.000000 0.148654 0.000000
# 6 0.000000 0.000000 0.000000 0.000000 0.000000 0.079496
#
#
# Mechanical properties :
#
#
# Convention : Reuss Voigt Hill
#
# Bulk Modulus (GPa) = 9.98620 18.61085 14.29853
# Shear Modulus (GPa) = 10.20103 19.28460 14.74282
#
# Velocity S-wave (km/s) = 2.37745 3.26885 2.85811
# Velocity P-wave (km/s) = 3.61519 4.95572 4.33756
#
# Compressibility (1/GPa) = 0.10013818
#
# Stress axis : x y z
#
# Youngs Moduli (GPa) = 52.95572 110.17724 15.75626
#
# Poissons Ratio (x) = -0.23300 -0.11408
# Poissons Ratio (y) = -0.11199 0.07878
# Poissons Ratio (z) = -0.38342 0.55084
#
# Static dielectric constant tensor:
#      x y z
#    x 1.615280 0.000000 0.000000 
#    y 0.000000 1.653240 0.000000 
#    z 0.000000 0.000000 1.595730 
# 
# From -- ./inp_files/6137.got.cif
#   From: 2010.05.17/outbox.cif.g08.bks.cpg/sg16_4_cif.got.tgz:6137.got - 2010.06.03 22:28:35.
