data_PCOD9310522
_publ_section_title
;
Structure prediction by ZEFSAII (Michael W. Deem and Ramdas Pophale) SiO2 
 PCOD9310522
Probable space group: P 2 2 21
;
_chemical_formula_sum "Si O2"
_cell_formula_units_Z 20
_cell_length_a 8.153329
_cell_length_b 7.148399
_cell_length_c 14.306086
_cell_angle_alpha 90.000000
_cell_angle_beta 90.000000
_cell_angle_gamma 90.000000
_cell_volume 833.805171
_symmetry_space_group_name_H-M "P 2 2 21"
_symmetry_group_IT_number 17
_symmetry_cell_setting 'orthorhombic'
loop_
_space_group_symop_operation_xyz
x,y,z
-x,-y,1/2+z
x,-y,-z
-x,y,1/2-z
loop_
_atom_site_type_symbol
_atom_site_label
_atom_site_fract_x
_atom_site_fract_y
_atom_site_fract_z
Si Si1 0.484676 0.303549 0.517225
Si Si2 0.632331 0.150503 0.326331
Si Si3 0.253049 0.000000 0.500000
Si Si4 0.000000 0.741759 0.250000
Si Si5 0.340318 0.298313 0.804300
Si Si6 0.047955 0.936411 0.899919
O O1 0.397602 0.500000 0.500000
O O2 0.550692 0.209642 0.423546
O O3 0.630996 0.351406 0.588278
O O4 0.362691 0.146191 0.557359
O O5 0.500000 0.217410 0.250000
O O6 0.827129 0.194459 0.342913
O O7 0.653032 0.928314 0.306830
O O8 0.132879 0.876502 0.565591
O O9 0.827981 0.636565 0.258106
O O10 0.993809 0.879776 0.339314
O O11 0.500000 0.364809 0.750000
O O12 0.127416 0.000000 0.000000
#
# Coordination Sequence:
#
# PCOD9310522 Si02
#       6
#     4   4   2   2   4   4
#     4  12  24  41  66  99 136 182 224 278 343 411
#     4  10  20  37  65  98 128 171 226 279 341 409
#     4  10  22  40  66  94 134 176 230 276 334 416
#     4  10  18  32  64 100 120 176 224 270 342 404
#     4  10  20  37  65  93 131 173 222 277 341 402
#     4   9  20  34  63  96 132 172 223 279 343 404
#
# _framework density 23.986419000000001
#
# number of rings (size 3 to 8) (size 9 to 14) (size 15 to 20)
#    0.600    1.200    2.000    3.600    5.600    0.800 
#    0.000    1.000    0.000    1.200    5.200    0.000 
#    0.000    0.000    0.000    0.000    0.000    0.000 
#
# Total GULP energy -111408.012454 kJ/mol
# GULP energy per Si atom -5570.400623 kJ/mol
# Density = 2.393182 g / cm^3
# Si number density = 23.986419 Si / 1000 Ang^3
#
#
#
# Elastic Constant Matrix: (Units=GPa)
#
#
# Indices 1 2 3 4 5 6 
#
# 1 191.4372 28.6608 58.2316 0.0000 0.0000 0.0000
# 2 28.6608 84.9874 -0.4856 0.0000 0.0000 0.0000
# 3 58.2316 -0.4856 118.9147 0.0000 0.0000 0.0000
# 4 0.0000 0.0000 0.0000 -5.1887 0.0000 0.0000
# 5 0.0000 0.0000 0.0000 0.0000 39.9890 0.0000
# 6 0.0000 0.0000 0.0000 0.0000 0.0000 -22.9839
#
#
#
# Elastic Compliance Matrix: (Units=1/GPa)
#
#
# Indices 1 2 3 4 5 6 
#
# 1 0.006532 -0.002221 -0.003208 0.000000 0.000000 0.000000
# 2 -0.002221 0.012522 0.001139 0.000000 0.000000 0.000000
# 3 -0.003208 0.001139 0.009985 0.000000 0.000000 0.000000
# 4 0.000000 0.000000 0.000000 -0.192726 0.000000 0.000000
# 5 0.000000 0.000000 0.000000 0.000000 0.025007 0.000000
# 6 0.000000 0.000000 0.000000 0.000000 0.000000 -0.043509
#
#
# Mechanical properties :
#
#
# Convention : Reuss Voigt Hill
#
# Bulk Modulus (GPa) = 48.87898 63.12810 56.00354
# Shear Modulus (GPa) = -29.97790 22.95878 -3.50956
#
# Velocity S-wave (km/s) = -3.53907 3.09715 -1.21092
# Velocity P-wave (km/s) = 1.92925 6.25821 4.63072
#
# Compressibility (1/GPa) = 0.02045869
#
# Stress axis : x y z
#
# Youngs Moduli (GPa) = 153.09485 79.85951 100.15199
#
# Poissons Ratio (x) = 0.17738 0.32126
# Poissons Ratio (y) = 0.34004 -0.11405
# Poissons Ratio (z) = 0.49108 -0.09094
#
# Static dielectric constant tensor:
#      x y z
#    x 2.059760 0.000000 0.000000 
#    y 0.000000 1.868900 0.000000 
#    z 0.000000 0.000000 1.952830 
# 
# From -- ./inp_files/8015.got.cif
#   From: 2010.05.17/outbox.cif.g08.bks.cpg/sg17_5_cif.got.tgz:8015.got - 2010.06.03 22:34:06.
