data_PCOD9310649
_publ_section_title
;
Structure prediction by ZEFSAII (Michael W. Deem and Ramdas Pophale) SiO2 
 PCOD9310649
Probable space group: P 2 2 21
;
_chemical_formula_sum "Si O2"
_cell_formula_units_Z 24
_cell_length_a 11.777005
_cell_length_b 11.538746
_cell_length_c 8.543199
_cell_angle_alpha 90.000000
_cell_angle_beta 90.000000
_cell_angle_gamma 90.000000
_cell_volume 1160.951282
_symmetry_space_group_name_H-M "P 2 2 21"
_symmetry_group_IT_number 17
_symmetry_cell_setting 'orthorhombic'
loop_
_space_group_symop_operation_xyz
x,y,z
-x,-y,1/2+z
x,-y,-z
-x,y,1/2-z
loop_
_atom_site_type_symbol
_atom_site_label
_atom_site_fract_x
_atom_site_fract_y
_atom_site_fract_z
Si Si1 0.376220 0.461205 0.820120
Si Si2 0.300496 0.695474 0.756553
Si Si3 0.198206 0.908011 0.173925
Si Si4 0.590131 0.783730 0.439827
Si Si5 0.894889 0.160592 0.367407
Si Si6 0.334510 0.137297 0.536192
O O1 0.500000 0.478210 0.750000
O O2 0.304533 0.557777 0.728240
O O3 0.363808 0.323124 0.832520
O O4 0.368937 0.500000 0.000000
O O5 0.183794 0.728996 0.840519
O O6 0.310386 0.776062 0.605982
O O7 0.396491 0.736213 0.882236
O O8 0.318544 0.884466 0.087172
O O9 0.228628 0.856906 0.343037
O O10 0.169196 0.042919 0.186993
O O11 0.101547 0.856811 0.056871
O O12 0.461638 0.823812 0.410808
O O13 0.000000 0.169205 0.250000
O O14 0.344259 0.000000 0.500000
#
# Coordination Sequence:
#
# PCOD9310649 Si02
#       6
#     4   4   4   4   4   4
#     4  10  19  35  56  84 126 171 218 257 312 393
#     4  10  21  37  56  87 123 170 221 265 326 384
#     4  10  22  38  58  88 122 162 214 267 334 399
#     4  10  22  36  56  90 132 181 208 251 315 406
#     4  10  22  41  60  81 116 163 219 280 344 399
#     4  12  22  32  58  96 142 170 215 260 336 411
#
# _framework density 20.672701
#
# number of rings (size 3 to 8) (size 9 to 14) (size 15 to 20)
#    0.000    1.667    1.667    4.000    4.667    4.000 
#    0.000    0.000    0.000    1.000    0.000   17.500 
#    0.000    0.000    0.000    0.000    0.000    0.000 
#
# Total GULP energy -133637.365814 kJ/mol
# GULP energy per Si atom -5568.223576 kJ/mol
# Density = 2.062565 g / cm^3
# Si number density = 20.672701 Si / 1000 Ang^3
#
#
#
# Elastic Constant Matrix: (Units=GPa)
#
#
# Indices 1 2 3 4 5 6 
#
# 1 60.4806 36.7325 19.3162 0.0000 0.0000 0.0000
# 2 36.7325 130.0384 41.8635 0.0000 0.0000 0.0000
# 3 19.3162 41.8635 96.6820 0.0000 0.0000 0.0000
# 4 0.0000 0.0000 0.0000 37.1312 0.0000 0.0000
# 5 0.0000 0.0000 0.0000 0.0000 36.3101 0.0000
# 6 0.0000 0.0000 0.0000 0.0000 0.0000 10.6633
#
#
#
# Elastic Compliance Matrix: (Units=1/GPa)
#
#
# Indices 1 2 3 4 5 6 
#
# 1 0.020231 -0.005128 -0.001821 0.000000 0.000000 0.000000
# 2 -0.005128 0.010236 -0.003407 0.000000 0.000000 0.000000
# 3 -0.001821 -0.003407 0.012183 0.000000 0.000000 0.000000
# 4 0.000000 0.000000 0.000000 0.026931 0.000000 0.000000
# 5 0.000000 0.000000 0.000000 0.000000 0.027541 0.000000
# 6 0.000000 0.000000 0.000000 0.000000 0.000000 0.093780
#
#
# Mechanical properties :
#
#
# Convention : Reuss Voigt Hill
#
# Bulk Modulus (GPa) = 45.59019 53.66949 49.62984
# Shear Modulus (GPa) = 22.83875 29.44018 26.13947
#
# Velocity S-wave (km/s) = 3.32743 3.77783 3.55976
# Velocity P-wave (km/s) = 6.07154 6.71172 6.39964
#
# Compressibility (1/GPa) = 0.02193455
#
# Stress axis : x y z
#
# Youngs Moduli (GPa) = 49.43027 97.69821 82.08487
#
# Poissons Ratio (x) = 0.50102 0.14950
# Poissons Ratio (y) = 0.25349 0.27970
# Poissons Ratio (z) = 0.09003 0.33290
#
# Static dielectric constant tensor:
#      x y z
#    x 1.726540 0.000000 0.000000 
#    y 0.000000 1.764430 0.000000 
#    z 0.000000 0.000000 1.905630 
# 
# From -- ./inp_files/4785.got.cif
#   From: 2010.05.17/outbox.cif.g08.bks.cpg/sg17_3_cif.got.tgz:4785.got - 2010.06.03 22:34:06.
