data_PCOD9310002
_publ_section_title
;
Structure prediction by ZEFSAII (Michael W. Deem and Ramdas Pophale) SiO2 
 PCOD9310002
Probable space group: P 2 2 2
;
_chemical_formula_sum "Si O2"
_cell_formula_units_Z 32
_cell_length_a 26.370829
_cell_length_b 5.399436
_cell_length_c 11.822983
_cell_angle_alpha 90.000000
_cell_angle_beta 90.000000
_cell_angle_gamma 90.000000
_cell_volume 1683.446215
_symmetry_space_group_name_H-M "P 2 2 2"
_symmetry_group_IT_number 16
_symmetry_cell_setting 'orthorhombic'
loop_
_space_group_symop_operation_xyz
x,y,z
-x,-y,z
x,-y,-z
-x,y,-z
loop_
_atom_site_type_symbol
_atom_site_label
_atom_site_fract_x
_atom_site_fract_y
_atom_site_fract_z
Si Si1 0.442301 0.001593 0.636400
Si Si2 0.619312 0.499465 0.637447
Si Si3 0.941115 0.062776 0.830230
Si Si4 0.887455 0.428551 0.114500
Si Si5 0.854749 0.079251 0.670997
Si Si6 0.276016 0.457887 0.771339
Si Si7 0.769249 0.051862 0.869287
Si Si8 0.176454 0.422248 0.654739
O O1 0.414055 0.257266 0.664398
O O2 0.500000 0.000000 0.680428
O O3 0.445397 0.000000 0.500000
O O4 0.410909 0.753851 0.665401
O O5 0.629477 0.500000 0.500000
O O6 0.669470 0.518546 0.713852
O O7 0.915380 0.833884 0.897119
O O8 0.912249 0.041973 0.710205
O O9 0.926843 0.343305 0.866900
O O10 0.000000 0.000000 0.827878
O O11 0.849901 0.411286 0.219756
O O12 0.858841 0.500000 0.000000
O O13 0.818060 0.085999 0.785100
O O14 0.833842 0.844500 0.607685
O O15 0.849559 0.336380 0.608364
O O16 0.262570 0.191008 0.827725
O O17 0.235302 0.472736 0.669288
O O18 0.262601 0.693866 0.851103
O O19 0.783271 0.000000 0.000000
#
# Coordination Sequence:
#
# PCOD9310002 Si02
#       8
#     4   4   4   4   4   4   4   4
#     4   9  17  30  49  72  99 131 159 181 211 254
#     4  10  19  31  48  72 104 132 152 181 218 261
#     4  10  19  27  34  46  65  90 125 169 209 250
#     4  10  19  28  36  47  65  93 129 165 208 257
#     4   8  16  27  39  53  71 100 137 173 216 264
#     4  10  19  30  45  67  92 119 153 186 227 272
#     4  10  19  31  46  63  87 118 153 196 236 268
#     4   8  16  27  39  52  71 100 135 171 206 249
#
# _framework density 19.008628000000002
#
# number of rings (size 3 to 8) (size 9 to 14) (size 15 to 20)
#    0.000    2.625    0.000    2.250    0.000   12.000 
#    0.000    0.000    0.000    0.000    0.000    0.000 
#    0.000   35.000    0.000    0.000    0.000  303.750 
#
# Total GULP energy -178241.047667 kJ/mol
# GULP energy per Si atom -5570.032740 kJ/mol
# Density = 1.896536 g / cm^3
# Si number density = 19.008628 Si / 1000 Ang^3
#
#
#
# Elastic Constant Matrix: (Units=GPa)
#
#
# Indices 1 2 3 4 5 6 
#
# 1 109.9639 46.4714 19.1651 0.0000 0.0000 0.0000
# 2 46.4714 169.8769 8.4783 0.0000 0.0000 0.0000
# 3 19.1651 8.4783 47.6223 0.0000 0.0000 0.0000
# 4 0.0000 0.0000 0.0000 14.6222 0.0000 0.0000
# 5 0.0000 0.0000 0.0000 0.0000 11.7978 0.0000
# 6 0.0000 0.0000 0.0000 0.0000 0.0000 28.1094
#
#
#
# Elastic Compliance Matrix: (Units=1/GPa)
#
#
# Indices 1 2 3 4 5 6 
#
# 1 0.010960 -0.002803 -0.003912 0.000000 0.000000 0.000000
# 2 -0.002803 0.006656 -0.000057 0.000000 0.000000 0.000000
# 3 -0.003912 -0.000057 0.022583 0.000000 0.000000 0.000000
# 4 0.000000 0.000000 0.000000 0.068389 0.000000 0.000000
# 5 0.000000 0.000000 0.000000 0.000000 0.084762 0.000000
# 6 0.000000 0.000000 0.000000 0.000000 0.000000 0.035575
#
#
# Mechanical properties :
#
#
# Convention : Reuss Voigt Hill
#
# Bulk Modulus (GPa) = 37.51524 52.85477 45.18500
# Shear Modulus (GPa) = 19.89220 27.79575 23.84397
#
# Velocity S-wave (km/s) = 3.23845 3.82811 3.54556
# Velocity P-wave (km/s) = 5.81052 6.88515 6.37054
#
# Compressibility (1/GPa) = 0.02665583
#
# Stress axis : x y z
#
# Youngs Moduli (GPa) = 91.23882 150.23456 44.28109
#
# Poissons Ratio (x) = 0.42111 0.17322
# Poissons Ratio (y) = 0.25575 0.00252
# Poissons Ratio (z) = 0.35691 0.00856
#
# Static dielectric constant tensor:
#      x y z
#    x 1.635060 0.000000 0.000000 
#    y 0.000000 1.744480 0.000000 
#    z 0.000000 0.000000 1.724740 
# 
# From -- ./inp_files/7367.got.cif
#   From: 2010.05.17/outbox.cif.g08.bks.cpg/sg16_4_cif.got.tgz:7367.got - 2010.06.03 22:28:35.
