data_PCOD9310899
_publ_section_title
;
Structure prediction by ZEFSAII (Michael W. Deem and Ramdas Pophale) SiO2 
 PCOD9310899
Probable space group: P 2 2 21
;
_chemical_formula_sum "Si O2"
_cell_formula_units_Z 24
_cell_length_a 7.753271
_cell_length_b 12.246580
_cell_length_c 10.549413
_cell_angle_alpha 90.000000
_cell_angle_beta 90.000000
_cell_angle_gamma 90.000000
_cell_volume 1001.677879
_symmetry_space_group_name_H-M "P 2 2 21"
_symmetry_group_IT_number 17
_symmetry_cell_setting 'orthorhombic'
loop_
_space_group_symop_operation_xyz
x,y,z
-x,-y,1/2+z
x,-y,-z
-x,y,1/2-z
loop_
_atom_site_type_symbol
_atom_site_label
_atom_site_fract_x
_atom_site_fract_y
_atom_site_fract_z
Si Si1 0.291402 0.733416 0.023947
Si Si2 0.703381 0.869139 0.731099
Si Si3 0.179617 0.343184 0.320012
Si Si4 0.694406 0.699064 0.069169
Si Si5 0.288874 0.114256 0.742974
Si Si6 0.199427 0.444009 0.798061
O O1 0.497026 0.712246 0.025161
O O2 0.234959 0.816073 0.135309
O O3 0.211731 0.616707 0.066674
O O4 0.254027 0.801731 0.896821
O O5 0.500000 0.882043 0.750000
O O6 0.754278 0.780078 0.833459
O O7 0.775514 0.990348 0.746226
O O8 0.195500 0.370677 0.467763
O O9 0.269596 0.433583 0.230296
O O10 0.000000 0.332539 0.250000
O O11 0.759992 0.817892 0.117546
O O12 0.696799 0.630874 0.199517
O O13 0.500000 0.113843 0.750000
O O14 0.000000 0.444012 0.750000
#
# Coordination Sequence:
#
# PCOD9310899 Si02
#       6
#     4   4   4   4   4   4
#     4  10  20  39  64  94 125 158 214 266 318 381
#     4  11  21  37  61  96 126 159 206 262 324 383
#     4  11  25  41  59  88 133 170 210 258 327 392
#     4  10  20  42  64  92 122 164 215 270 315 385
#     4   8  18  35  65  91 120 158 206 261 326 378
#     4  10  23  41  63  88 122 176 215 260 322 384
#
# _framework density 23.959797999999999
#
# number of rings (size 3 to 8) (size 9 to 14) (size 15 to 20)
#    0.000    2.000    1.667    2.500    2.333    2.667 
#    3.000    3.333    3.667    0.000    0.000    0.000 
#    0.000    0.000    0.000    0.000    0.000    0.000 
#
# Total GULP energy -133784.209846 kJ/mol
# GULP energy per Si atom -5574.342077 kJ/mol
# Density = 2.390526 g / cm^3
# Si number density = 23.959798 Si / 1000 Ang^3
#
#
#
# Elastic Constant Matrix: (Units=GPa)
#
#
# Indices 1 2 3 4 5 6 
#
# 1 51.7316 18.8573 11.0057 0.0000 0.0000 0.0000
# 2 18.8573 196.4344 43.8624 0.0000 0.0000 0.0000
# 3 11.0057 43.8624 117.6619 0.0000 0.0000 0.0000
# 4 0.0000 0.0000 0.0000 -160.4497 0.0000 0.0000
# 5 0.0000 0.0000 0.0000 0.0000 32.3294 0.0000
# 6 0.0000 0.0000 0.0000 0.0000 0.0000 21.1452
#
#
#
# Elastic Compliance Matrix: (Units=1/GPa)
#
#
# Indices 1 2 3 4 5 6 
#
# 1 0.020205 -0.001655 -0.001273 0.000000 0.000000 0.000000
# 2 -0.001655 0.005689 -0.001966 0.000000 0.000000 0.000000
# 3 -0.001273 -0.001966 0.009351 0.000000 0.000000 0.000000
# 4 0.000000 0.000000 0.000000 -0.006232 0.000000 0.000000
# 5 0.000000 0.000000 0.000000 0.000000 0.030932 0.000000
# 6 0.000000 0.000000 0.000000 0.000000 0.000000 0.047292
#
#
# Mechanical properties :
#
#
# Convention : Reuss Voigt Hill
#
# Bulk Modulus (GPa) = 39.28312 57.03096 48.15704
# Shear Modulus (GPa) = 39.83784 -1.92154 18.95815
#
# Velocity S-wave (km/s) = 4.08204 -0.89651 2.81597
# Velocity P-wave (km/s) = 6.21679 4.77313 5.54217
#
# Compressibility (1/GPa) = 0.02545623
#
# Stress axis : x y z
#
# Youngs Moduli (GPa) = 49.49328 175.78955 106.94287
#
# Poissons Ratio (x) = 0.29101 0.13611
# Poissons Ratio (y) = 0.08193 0.21023
# Poissons Ratio (z) = 0.06299 0.34556
#
# Static dielectric constant tensor:
#      x y z
#    x 2.029010 0.000000 0.000000 
#    y 0.000000 1.995420 0.000000 
#    z 0.000000 0.000000 1.963990 
# 
# From -- ./inp_files/6571.got.cif
#   From: 2010.05.17/outbox.cif.g08.bks.cpg/sg17_4_cif.got.tgz:6571.got - 2010.06.03 22:34:06.
