data_PCOD9310577
_publ_section_title
;
Structure prediction by ZEFSAII (Michael W. Deem and Ramdas Pophale) SiO2 
 PCOD9310577
Probable space group: P 2 2 21
;
_chemical_formula_sum "Si O2"
_cell_formula_units_Z 26
_cell_length_a 8.404511
_cell_length_b 5.609148
_cell_length_c 23.270416
_cell_angle_alpha 90.000000
_cell_angle_beta 90.000000
_cell_angle_gamma 90.000000
_cell_volume 1097.017350
_symmetry_space_group_name_H-M "P 2 2 21"
_symmetry_group_IT_number 17
_symmetry_cell_setting 'orthorhombic'
loop_
_space_group_symop_operation_xyz
x,y,z
-x,-y,1/2+z
x,-y,-z
-x,y,1/2-z
loop_
_atom_site_type_symbol
_atom_site_label
_atom_site_fract_x
_atom_site_fract_y
_atom_site_fract_z
Si Si1 0.703788 0.939581 0.828208
Si Si2 0.489538 0.500000 0.500000
Si Si3 0.639264 0.436340 0.621377
Si Si4 0.232760 0.000000 0.000000
Si Si5 0.956938 0.500000 0.500000
Si Si6 0.660105 0.939584 0.627293
Si Si7 0.796851 0.195199 0.047417
Si Si8 0.356550 0.561154 0.295475
O O1 0.513883 0.940205 0.843598
O O2 0.735456 0.188266 0.795981
O O3 0.784973 0.921528 0.890278
O O4 0.731484 0.692769 0.793958
O O5 0.599537 0.435984 0.553926
O O6 0.369408 0.701013 0.523761
O O7 0.726540 0.198984 0.642812
O O8 0.458598 0.440114 0.645510
O O9 0.726343 0.678130 0.640016
O O10 0.332182 0.050042 0.057843
O O11 0.133551 0.248065 0.990693
O O12 0.079813 0.583611 0.549752
O O13 0.843581 0.000000 0.000000
O O14 0.500000 0.565855 0.250000
#
# Coordination Sequence:
#
# PCOD9310577 Si02
#       8
#     4   2   4   2   2   4   4   4
#     4  10  21  33  54  85 102 144 191 212 281 316
#     4  11  18  27  50  76 107 136 167 222 246 319
#     4  10  19  30  47  83 103 138 180 202 271 314
#     4  12  22  38  48  72 110 152 188 210 274 322
#     4  11  26  37  48  72 107 162 183 216 270 315
#     4  10  19  31  51  71 104 135 179 223 243 324
#     4  11  21  35  54  72 112 145 183 228 252 325
#     4  10  19  33  49  76 122 148 166 217 275 345
#
# _framework density 23.700626
#
# number of rings (size 3 to 8) (size 9 to 14) (size 15 to 20)
#    0.000    1.538    3.846    4.154    3.231    0.000 
#    0.000    0.000    0.000    0.000    0.000    0.000 
#    0.000   73.846    0.000    0.000    0.000    0.000 
#
# Total GULP energy -144836.231322 kJ/mol
# GULP energy per Si atom -5570.624282 kJ/mol
# Density = 2.364668 g / cm^3
# Si number density = 23.700626 Si / 1000 Ang^3
#
#
#
# Elastic Constant Matrix: (Units=GPa)
#
#
# Indices 1 2 3 4 5 6 
#
# 1 35.9845 34.3264 0.3409 0.0000 0.0000 0.0000
# 2 34.3264 271.2303 1.4918 0.0000 0.0000 0.0000
# 3 0.3409 1.4918 34.9494 0.0000 0.0000 0.0000
# 4 0.0000 0.0000 0.0000 13.3112 0.0000 0.0000
# 5 0.0000 0.0000 0.0000 0.0000 -7.5749 0.0000
# 6 0.0000 0.0000 0.0000 0.0000 0.0000 29.5635
#
#
#
# Elastic Compliance Matrix: (Units=1/GPa)
#
#
# Indices 1 2 3 4 5 6 
#
# 1 0.031606 -0.003999 -0.000138 0.000000 0.000000 0.000000
# 2 -0.003999 0.004194 -0.000140 0.000000 0.000000 0.000000
# 3 -0.000138 -0.000140 0.028620 0.000000 0.000000 0.000000
# 4 0.000000 0.000000 0.000000 0.075125 0.000000 0.000000
# 5 0.000000 0.000000 0.000000 0.000000 -0.132016 0.000000
# 6 0.000000 0.000000 0.000000 0.000000 0.000000 0.033825
#
#
# Mechanical properties :
#
#
# Convention : Reuss Voigt Hill
#
# Bulk Modulus (GPa) = 17.89987 46.05358 31.97672
# Shear Modulus (GPa) = 72.96041 27.46031 50.21036
#
# Velocity S-wave (km/s) = 5.55437 3.40756 4.60774
# Velocity P-wave (km/s) = 6.97879 5.91232 6.46758
#
# Compressibility (1/GPa) = 0.05586634
#
# Stress axis : x y z
#
# Youngs Moduli (GPa) = 31.63956 238.44669 34.94047
#
# Poissons Ratio (x) = 0.95361 0.00481
# Poissons Ratio (y) = 0.12653 0.00489
# Poissons Ratio (z) = 0.00435 0.03338
#
# Static dielectric constant tensor:
#      x y z
#    x 1.922170 0.000000 0.000000 
#    y 0.000000 2.079840 0.000000 
#    z 0.000000 0.000000 1.916470 
# 
# From -- ./inp_files/10652.got.cif
#   From: 2010.05.17/outbox.cif.g08.bks.cpg/sg17_6_cif.got.tgz:10652.got - 2010.06.03 22:34:06.
