data_PCOD9310503
_publ_section_title
;
Structure prediction by ZEFSAII (Michael W. Deem and Ramdas Pophale) SiO2 
 PCOD9310503
Probable space group: P 2 2 21
;
_chemical_formula_sum "Si O2"
_cell_formula_units_Z 32
_cell_length_a 18.811037
_cell_length_b 5.413808
_cell_length_c 13.660084
_cell_angle_alpha 90.000000
_cell_angle_beta 90.000000
_cell_angle_gamma 90.000000
_cell_volume 1391.133974
_symmetry_space_group_name_H-M "P 2 2 21"
_symmetry_group_IT_number 17
_symmetry_cell_setting 'orthorhombic'
loop_
_space_group_symop_operation_xyz
x,y,z
-x,-y,1/2+z
x,-y,-z
-x,y,1/2-z
loop_
_atom_site_type_symbol
_atom_site_label
_atom_site_fract_x
_atom_site_fract_y
_atom_site_fract_z
Si Si1 0.444293 0.747943 0.052529
Si Si2 0.820662 0.614434 0.106767
Si Si3 0.702776 0.126944 0.798353
Si Si4 0.805107 0.264159 0.298579
Si Si5 0.963938 0.852164 0.642366
Si Si6 0.427313 0.909436 0.779077
Si Si7 0.324981 0.491812 0.133996
Si Si8 0.020256 0.654427 0.364891
O O1 0.359286 0.688913 0.060301
O O2 0.453952 0.842052 0.164372
O O3 0.474888 0.500000 0.000000
O O4 0.464964 0.000000 0.000000
O O5 0.752059 0.791330 0.112825
O O6 0.814147 0.421076 0.197582
O O7 0.897825 0.733943 0.124483
O O8 0.822376 0.500000 0.000000
O O9 0.679339 0.368846 0.738689
O O10 0.758158 0.973193 0.731235
O O11 0.629501 0.974987 0.805702
O O12 0.881903 0.209516 0.340899
O O13 0.755156 0.403165 0.376982
O O14 0.000000 0.881350 0.750000
O O15 0.005163 0.620317 0.595422
O O16 0.972878 0.121979 0.596442
O O17 0.500000 0.778103 0.750000
O O18 0.381062 0.731999 0.850386
O O19 0.000000 0.624181 0.250000
#
# Coordination Sequence:
#
# PCOD9310503 Si02
#       8
#     4   4   4   4   4   4   4   4
#     4  11  21  40  65  99 132 164 211 266 321 383
#     4  11  22  36  58  90 128 172 217 272 333 397
#     4   9  20  37  58  90 122 166 219 266 314 391
#     4  10  19  36  59  91 117 162 218 266 328 392
#     4  10  18  31  57  84 113 152 210 264 303 367
#     4  10  21  40  68  98 133 175 217 269 320 395
#     4   9  20  36  63  95 123 166 214 269 315 396
#     4  10  19  34  54  87 112 162 214 265 311 371
#
# _framework density 23.002818000000001
#
# number of rings (size 3 to 8) (size 9 to 14) (size 15 to 20)
#    0.000    2.000    3.750    1.500    1.750    2.500 
#    0.000    0.625    5.500    0.750    9.750    0.000 
#    0.000    0.000    0.000    0.000    0.000    0.000 
#
# Total GULP energy -178245.726385 kJ/mol
# GULP energy per Si atom -5570.178950 kJ/mol
# Density = 2.295046 g / cm^3
# Si number density = 23.002818 Si / 1000 Ang^3
#
#
#
# Elastic Constant Matrix: (Units=GPa)
#
#
# Indices 1 2 3 4 5 6 
#
# 1 150.0532 17.6365 22.1554 0.0000 0.0000 0.0000
# 2 17.6365 109.3760 5.9060 0.0000 0.0000 0.0000
# 3 22.1554 5.9060 53.1131 0.0000 0.0000 0.0000
# 4 0.0000 0.0000 0.0000 14.0690 0.0000 0.0000
# 5 0.0000 0.0000 0.0000 0.0000 10.0693 0.0000
# 6 0.0000 0.0000 0.0000 0.0000 0.0000 24.3764
#
#
#
# Elastic Compliance Matrix: (Units=1/GPa)
#
#
# Indices 1 2 3 4 5 6 
#
# 1 0.007210 -0.001006 -0.002896 0.000000 0.000000 0.000000
# 2 -0.001006 0.009338 -0.000619 0.000000 0.000000 0.000000
# 3 -0.002896 -0.000619 0.020104 0.000000 0.000000 0.000000
# 4 0.000000 0.000000 0.000000 0.071078 0.000000 0.000000
# 5 0.000000 0.000000 0.000000 0.000000 0.099312 0.000000
# 6 0.000000 0.000000 0.000000 0.000000 0.000000 0.041023
#
#
# Mechanical properties :
#
#
# Convention : Reuss Voigt Hill
#
# Bulk Modulus (GPa) = 36.21645 44.88201 40.54923
# Shear Modulus (GPa) = 18.77499 27.49257 23.13378
#
# Velocity S-wave (km/s) = 2.86003 3.46089 3.17471
# Velocity P-wave (km/s) = 5.16574 5.96022 5.57715
#
# Compressibility (1/GPa) = 0.02761176
#
# Stress axis : x y z
#
# Youngs Moduli (GPa) = 138.69385 107.08434 49.74029
#
# Poissons Ratio (x) = 0.10775 0.14403
# Poissons Ratio (y) = 0.13956 0.03077
# Poissons Ratio (z) = 0.40162 0.06625
#
# Static dielectric constant tensor:
#      x y z
#    x 1.842620 0.000000 0.000000 
#    y 0.000000 1.989310 0.000000 
#    z 0.000000 0.000000 1.921030 
# 
# From -- ./inp_files/8687.got.cif
#   From: 2010.05.17/outbox.cif.g08.bks.cpg/sg17_5_cif.got.tgz:8687.got - 2010.06.03 22:34:06.
