data_PCOD9310251
_publ_section_title
;
Structure prediction by ZEFSAII (Michael W. Deem and Ramdas Pophale) SiO2 
 PCOD9310251
Probable space group: P 2 2 2
;
_chemical_formula_sum "Si O2"
_cell_formula_units_Z 30
_cell_length_a 20.839812
_cell_length_b 5.515847
_cell_length_c 12.845661
_cell_angle_alpha 90.000000
_cell_angle_beta 90.000000
_cell_angle_gamma 90.000000
_cell_volume 1476.598642
_symmetry_space_group_name_H-M "P 2 2 2"
_symmetry_group_IT_number 16
_symmetry_cell_setting 'orthorhombic'
loop_
_space_group_symop_operation_xyz
x,y,z
-x,-y,z
x,-y,-z
-x,y,-z
loop_
_atom_site_type_symbol
_atom_site_label
_atom_site_fract_x
_atom_site_fract_y
_atom_site_fract_z
Si Si1 0.112993 0.756979 0.061506
Si Si2 0.751247 0.374913 0.113094
Si Si3 0.748954 0.736699 0.293268
Si Si4 0.253955 0.500000 0.500000
Si Si5 0.962446 0.254685 0.270332
Si Si6 0.842392 0.116753 0.397609
Si Si7 0.665324 0.989700 0.118934
Si Si8 0.526714 0.756322 0.118574
O O1 0.186756 0.798425 0.100854
O O2 0.061451 0.731019 0.151949
O O3 0.114299 0.500000 0.000000
O O4 0.096335 0.000000 0.000000
O O5 0.772271 0.533658 0.212255
O O6 0.679867 0.273855 0.140807
O O7 0.745181 0.500000 0.000000
O O8 0.715735 0.634509 0.399251
O O9 0.702150 0.878835 0.216226
O O10 0.806148 0.909803 0.331771
O O11 0.210520 0.699428 0.442094
O O12 0.897159 0.246941 0.335066
O O13 0.000000 0.500000 0.296552
O O14 0.000000 0.000000 0.286373
O O15 0.873156 0.000000 0.500000
O O16 0.601285 0.829793 0.110117
O O17 0.692233 0.000000 0.000000
O O18 0.500000 0.500000 0.162097
O O19 0.500000 0.000000 0.172902
O O20 0.500000 0.754325 0.000000
#
# Coordination Sequence:
#
# PCOD9310251 Si02
#       8
#     4   4   4   2   4   4   4   4
#     4  11  25  43  64  89 133 180 222 273 348 421
#     4  11  24  36  65 101 140 180 224 292 363 427
#     4  11  23  40  68 100 138 174 232 288 370 423
#     4  10  22  46  71  92 131 180 220 290 372 436
#     4  12  28  44  68  97 127 168 230 286 344 428
#     4  10  25  47  71  93 130 171 220 297 371 435
#     4  12  22  36  60 100 141 183 234 287 335 418
#     4  10  22  38  56  85 138 202 236 269 328 404
#
# _framework density 20.316962
#
# number of rings (size 3 to 8) (size 9 to 14) (size 15 to 20)
#    0.000    1.067    2.667    3.600   13.067    1.867 
#    0.000    0.000    0.000    0.000    0.000    0.467 
#    0.000    0.000    0.000    0.000    0.000    0.000 
#
# Total GULP energy -167010.829451 kJ/mol
# GULP energy per Si atom -5567.027648 kJ/mol
# Density = 2.027072 g / cm^3
# Si number density = 20.316962 Si / 1000 Ang^3
#
#
#
# Elastic Constant Matrix: (Units=GPa)
#
#
# Indices 1 2 3 4 5 6 
#
# 1 68.3079 35.6467 40.6386 0.0000 0.0000 0.0000
# 2 35.6467 125.9240 48.2734 0.0000 0.0000 0.0000
# 3 40.6386 48.2734 137.2709 0.0000 0.0000 0.0000
# 4 0.0000 0.0000 0.0000 32.8761 0.0000 0.0000
# 5 0.0000 0.0000 0.0000 0.0000 3.9720 0.0000
# 6 0.0000 0.0000 0.0000 0.0000 0.0000 0.1574
#
#
#
# Elastic Compliance Matrix: (Units=1/GPa)
#
#
# Indices 1 2 3 4 5 6 
#
# 1 0.019197 -0.003763 -0.004360 0.000000 0.000000 0.000000
# 2 -0.003763 0.009916 -0.002373 0.000000 0.000000 0.000000
# 3 -0.004360 -0.002373 0.009410 0.000000 0.000000 0.000000
# 4 0.000000 0.000000 0.000000 0.030417 0.000000 0.000000
# 5 0.000000 0.000000 0.000000 0.000000 0.251761 0.000000
# 6 0.000000 0.000000 0.000000 0.000000 0.000000 6.353467
#
#
# Mechanical properties :
#
#
# Convention : Reuss Voigt Hill
#
# Bulk Modulus (GPa) = 57.04043 64.51335 60.77689
# Shear Modulus (GPa) = 0.74616 21.19737 10.97176
#
# Velocity S-wave (km/s) = 0.60668 3.23357 2.32637
# Velocity P-wave (km/s) = 5.35042 6.76489 6.09880
#
# Compressibility (1/GPa) = 0.01753142
#
# Stress axis : x y z
#
# Youngs Moduli (GPa) = 52.09098 100.84409 106.26770
#
# Poissons Ratio (x) = 0.37947 0.46332
# Poissons Ratio (y) = 0.19602 0.25220
# Poissons Ratio (z) = 0.22711 0.23932
#
# Static dielectric constant tensor:
#      x y z
#    x 1.771260 0.000000 0.000000 
#    y 0.000000 1.797740 0.000000 
#    z 0.000000 0.000000 2.181170 
# 
# From -- ./inp_files/7340.got.cif
#   From: 2010.05.17/outbox.cif.g08.bks.cpg/sg16_4_cif.got.tgz:7340.got - 2010.06.03 22:28:35.
