data_PCOD9310474
_publ_section_title
;
Structure prediction by ZEFSAII (Michael W. Deem and Ramdas Pophale) SiO2 
 PCOD9310474
Probable space group: P 2 2 21
;
_chemical_formula_sum "Si O2"
_cell_formula_units_Z 30
_cell_length_a 15.098489
_cell_length_b 21.276383
_cell_length_c 5.396487
_cell_angle_alpha 90.000000
_cell_angle_beta 90.000000
_cell_angle_gamma 90.000000
_cell_volume 1733.574147
_symmetry_space_group_name_H-M "P 2 2 21"
_symmetry_group_IT_number 17
_symmetry_cell_setting 'orthorhombic'
loop_
_space_group_symop_operation_xyz
x,y,z
-x,-y,1/2+z
x,-y,-z
-x,y,1/2-z
loop_
_atom_site_type_symbol
_atom_site_label
_atom_site_fract_x
_atom_site_fract_y
_atom_site_fract_z
Si Si1 0.101377 0.747110 0.182534
Si Si2 0.235799 0.859428 0.632545
Si Si3 0.500000 0.460258 0.250000
Si Si4 0.592984 0.724490 0.332734
Si Si5 0.817212 0.288002 0.180647
Si Si6 0.947683 0.924569 0.996920
Si Si7 0.268701 0.164494 0.859155
Si Si8 0.367982 0.651169 0.675567
O O1 0.136114 0.705670 0.414163
O O2 0.168206 0.807050 0.165135
O O3 0.000000 0.762934 0.250000
O O4 0.116954 0.714157 0.916248
O O5 0.222988 0.783426 0.663205
O O6 0.145988 0.892939 0.553803
O O7 0.295878 0.868782 0.394221
O O8 0.270053 0.878392 0.900068
O O9 0.515979 0.500000 0.500000
O O10 0.585766 0.416413 0.194017
O O11 0.500000 0.753881 0.250000
O O12 0.668497 0.775428 0.373964
O O13 0.587306 0.688120 0.593009
O O14 0.615944 0.679624 0.099177
O O15 0.737244 0.337034 0.216749
O O16 0.000000 0.905913 0.750000
O O17 0.000000 0.908171 0.250000
O O18 0.937707 0.000000 0.000000
#
# Coordination Sequence:
#
# PCOD9310474 Si02
#       8
#     4   4   2   4   4   4   4   4
#     4  10  18  28  44  68 106 137 167 213 262 326
#     4  10  18  30  48  68 101 134 180 235 268 318
#     4  12  26  40  56  88 116 148 196 220 256 344
#     4  12  19  33  55  80 100 150 181 211 284 342
#     4  10  19  32  47  72 101 141 179 217 280 327
#     4  10  21  35  49  70 104 153 204 236 273 332
#     4  10  19  31  45  74 109 131 181 226 272 345
#     4  12  20  37  56  73 113 149 173 229 269 319
#
# _framework density 17.305289999999999
#
# number of rings (size 3 to 8) (size 9 to 14) (size 15 to 20)
#    0.000    1.333    6.667    2.000    0.000    6.400 
#    0.000    0.000    0.000    0.000    0.000    0.000 
#    0.000   12.800    0.000    0.000    0.000    0.000 
#
# Total GULP energy -167022.272837 kJ/mol
# GULP energy per Si atom -5567.409095 kJ/mol
# Density = 1.726590 g / cm^3
# Si number density = 17.305290 Si / 1000 Ang^3
#
#
#
# Elastic Constant Matrix: (Units=GPa)
#
#
# Indices 1 2 3 4 5 6 
#
# 1 54.8711 15.2420 18.0681 0.0000 0.0000 0.0000
# 2 15.2420 18.7627 20.5543 0.0000 0.0000 0.0000
# 3 18.0681 20.5543 183.1839 0.0000 0.0000 0.0000
# 4 0.0000 0.0000 0.0000 -35.8256 0.0000 0.0000
# 5 0.0000 0.0000 0.0000 0.0000 28.8652 0.0000
# 6 0.0000 0.0000 0.0000 0.0000 0.0000 29.0557
#
#
#
# Elastic Compliance Matrix: (Units=1/GPa)
#
#
# Indices 1 2 3 4 5 6 
#
# 1 0.023542 -0.018904 -0.000201 0.000000 0.000000 0.000000
# 2 -0.018904 0.075947 -0.006657 0.000000 0.000000 0.000000
# 3 -0.000201 -0.006657 0.006226 0.000000 0.000000 0.000000
# 4 0.000000 0.000000 0.000000 -0.027913 0.000000 0.000000
# 5 0.000000 0.000000 0.000000 0.000000 0.034644 0.000000
# 6 0.000000 0.000000 0.000000 0.000000 0.000000 0.034417
#
#
# Mechanical properties :
#
#
# Convention : Reuss Voigt Hill
#
# Bulk Modulus (GPa) = 18.45356 40.50516 29.47936
# Shear Modulus (GPa) = 23.10002 17.94928 20.52465
#
# Velocity S-wave (km/s) = 3.65753 3.22407 3.44762
# Velocity P-wave (km/s) = 5.34073 6.10873 5.73759
#
# Compressibility (1/GPa) = 0.05419010
#
# Stress axis : x y z
#
# Youngs Moduli (GPa) = 42.47754 13.16707 160.62262
#
# Poissons Ratio (x) = 0.24891 0.03226
# Poissons Ratio (y) = 0.80301 1.06928
# Poissons Ratio (z) = 0.00853 0.08765
#
# Static dielectric constant tensor:
#      x y z
#    x 1.677640 0.000000 0.000000 
#    y 0.000000 1.569340 0.000000 
#    z 0.000000 0.000000 1.661900 
# 
# From -- ./inp_files/2310.got.cif
#   From: 2010.05.17/outbox.cif.g08.bks.cpg/sg17_2_cif.got.tgz:2310.got - 2010.06.03 22:34:06.
