data_PCOD9310860
_publ_section_title
;
Structure prediction by ZEFSAII (Michael W. Deem and Ramdas Pophale) SiO2 
 PCOD9310860
Probable space group: P 2 2 21
;
_chemical_formula_sum "Si O2"
_cell_formula_units_Z 20
_cell_length_a 13.309697
_cell_length_b 14.395929
_cell_length_c 5.116867
_cell_angle_alpha 90.000000
_cell_angle_beta 90.000000
_cell_angle_gamma 90.000000
_cell_volume 980.419620
_symmetry_space_group_name_H-M "P 2 2 21"
_symmetry_group_IT_number 17
_symmetry_cell_setting 'orthorhombic'
loop_
_space_group_symop_operation_xyz
x,y,z
-x,-y,1/2+z
x,-y,-z
-x,y,1/2-z
loop_
_atom_site_type_symbol
_atom_site_label
_atom_site_fract_x
_atom_site_fract_y
_atom_site_fract_z
Si Si1 0.719966 0.566452 0.250543
Si Si2 0.197441 0.243464 0.633258
Si Si3 0.500000 0.566528 0.250000
Si Si4 0.713843 0.148432 0.352372
Si Si5 0.145243 0.000000 0.000000
Si Si6 0.000000 0.850911 0.250000
Si Si7 0.500000 0.935808 0.750000
O O1 0.732270 0.500000 0.500000
O O2 0.796698 0.650136 0.220629
O O3 0.608361 0.614423 0.260269
O O4 0.723715 0.500000 0.000000
O O5 0.253379 0.223446 0.362059
O O6 0.082352 0.210758 0.603082
O O7 0.253365 0.184094 0.860941
O O8 0.498078 0.500000 0.500000
O O9 0.778758 0.053676 0.305148
O O10 0.597355 0.124249 0.325806
O O11 0.069767 0.919373 0.084991
O O12 0.475425 0.000000 0.500000
#
# Coordination Sequence:
#
# PCOD9310860 Si02
#       7
#     4   4   2   4   2   2   2
#     4  10  20  38  61  86 119 159 197 250 314 374
#     4  11  24  41  61  93 124 158 213 267 304 362
#     4   8  16  30  54  82 106 144 190 230 286 360
#     4  11  24  39  62  91 126 165 207 253 304 369
#     4  10  20  40  62  90 116 172 204 262 306 372
#     4  10  22  38  64  88 120 158 212 264 310 354
#     4  12  24  40  62  92 130 176 204 238 304 386
#
# _framework density 20.399428
#
# number of rings (size 3 to 8) (size 9 to 14) (size 15 to 20)
#    0.000    1.600    1.000    3.600    2.800    4.000 
#    0.000    3.000    0.000    0.000    0.000    0.000 
#    0.000    0.000    0.000    0.000    0.000    0.000 
#
# Total GULP energy -111593.056051 kJ/mol
# GULP energy per Si atom -5579.652803 kJ/mol
# Density = 2.035300 g / cm^3
# Si number density = 20.399428 Si / 1000 Ang^3
#
#
#
# Elastic Constant Matrix: (Units=GPa)
#
#
# Indices 1 2 3 4 5 6 
#
# 1 126.1809 35.7709 -2.8153 0.0000 0.0000 0.0000
# 2 35.7709 79.5862 -1.7447 0.0000 0.0000 0.0000
# 3 -2.8153 -1.7447 83.1002 0.0000 0.0000 0.0000
# 4 0.0000 0.0000 0.0000 27.4820 0.0000 0.0000
# 5 0.0000 0.0000 0.0000 0.0000 16.4457 0.0000
# 6 0.0000 0.0000 0.0000 0.0000 0.0000 11.1199
#
#
#
# Elastic Compliance Matrix: (Units=1/GPa)
#
#
# Indices 1 2 3 4 5 6 
#
# 1 0.009086 -0.004079 0.000222 0.000000 0.000000 0.000000
# 2 -0.004079 0.014402 0.000164 0.000000 0.000000 0.000000
# 3 0.000222 0.000164 0.012045 0.000000 0.000000 0.000000
# 4 0.000000 0.000000 0.000000 0.036387 0.000000 0.000000
# 5 0.000000 0.000000 0.000000 0.000000 0.060806 0.000000
# 6 0.000000 0.000000 0.000000 0.000000 0.000000 0.089929
#
#
# Mechanical properties :
#
#
# Convention : Reuss Voigt Hill
#
# Bulk Modulus (GPa) = 35.52702 39.03211 37.27957
# Shear Modulus (GPa) = 20.88347 28.18661 24.53504
#
# Velocity S-wave (km/s) = 3.20305 3.72120 3.47180
# Velocity P-wave (km/s) = 5.57968 6.13503 5.86393
#
# Compressibility (1/GPa) = 0.02814759
#
# Stress axis : x y z
#
# Youngs Moduli (GPa) = 110.05365 69.43479 83.02444
#
# Poissons Ratio (x) = 0.28323 -0.01845
# Poissons Ratio (y) = 0.44892 -0.01363
# Poissons Ratio (z) = -0.02445 -0.01140
#
# Static dielectric constant tensor:
#      x y z
#    x 1.759620 0.000000 0.000000 
#    y 0.000000 1.727170 0.000000 
#    z 0.000000 0.000000 1.745190 
# 
# From -- ./inp_files/1598.got.cif
#   From: 2010.05.17/outbox.cif.g08.bks.cpg/sg17_1_cif.got.tgz:1598.got - 2010.06.03 22:34:06.
