data_PCOD9310394
_publ_section_title
;
Structure prediction by ZEFSAII (Michael W. Deem and Ramdas Pophale) SiO2 
 PCOD9310394
Probable space group: P 2 2 2
;
_chemical_formula_sum "Si O2"
_cell_formula_units_Z 28
_cell_length_a 8.952497
_cell_length_b 11.867987
_cell_length_c 17.389482
_cell_angle_alpha 90.000000
_cell_angle_beta 90.000000
_cell_angle_gamma 90.000000
_cell_volume 1847.599736
_symmetry_space_group_name_H-M "P 2 2 2"
_symmetry_group_IT_number 16
_symmetry_cell_setting 'orthorhombic'
loop_
_space_group_symop_operation_xyz
x,y,z
-x,-y,z
x,-y,-z
-x,y,-z
loop_
_atom_site_type_symbol
_atom_site_label
_atom_site_fract_x
_atom_site_fract_y
_atom_site_fract_z
Si Si1 0.821674 0.000000 0.408064
Si Si2 0.829029 0.631239 0.769800
Si Si3 0.000000 0.363362 0.913273
Si Si4 0.677419 0.233585 0.359557
Si Si5 0.322581 0.766415 0.640443
Si Si6 0.829029 0.368761 0.769800
Si Si7 0.175025 0.365210 0.500000
O O1 0.750181 0.888452 0.372019
O O2 0.792213 0.000000 0.500000
O O3 0.750181 0.111548 0.372019
O O4 0.000000 0.000000 0.397245
O O5 0.724669 0.711346 0.721229
O O6 0.782435 0.500000 0.765953
O O7 0.858398 0.665230 0.858855
O O8 1.000000 0.636382 0.736934
O O9 0.858398 0.334770 0.858855
O O10 0.000000 0.500000 0.915923
O O11 0.000000 0.320408 0.000000
O O12 0.500000 0.226795 0.367445
O O13 0.745768 0.313687 0.425491
O O14 0.275331 0.711346 0.721229
O O15 0.254232 0.686313 0.574509
O O16 0.185076 0.500000 0.500000
O O17 0.000000 0.332675 0.500000
#
# Coordination Sequence:
#
# PCOD9310394 Si02
#       7
#     4   4   4   4   4   4   4
#     4  11  23  39  57  69  88 131 180 221 255 294
#     4   8  16  30  50  75 104 134 167 204 244 292
#     4   7  12  26  52  80 103 132 170 206 239 287
#     4  12  23  34  50  73 102 132 168 212 260 301
#     4  12  23  34  50  73 102 132 168 212 260 301
#     4   8  16  30  50  75 104 134 167 204 244 292
#     4  11  23  36  51  68  95 135 177 211 244 291
#
# _framework density 15.154797
#
# number of rings (size 3 to 8) (size 9 to 14) (size 15 to 20)
#    0.857    1.286    1.429    4.286    0.000    5.714 
#    0.000    0.000    0.000    0.857    0.000    6.000 
#    0.000    2.286    0.000    0.000    0.000    0.000 
#
# Total GULP energy -155943.723726 kJ/mol
# GULP energy per Si atom -5569.418705 kJ/mol
# Density = 1.512030 g / cm^3
# Si number density = 15.154797 Si / 1000 Ang^3
#
#
#
# Elastic Constant Matrix: (Units=GPa)
#
#
# Indices 1 2 3 4 5 6 
#
# 1 95.4370 52.3366 51.4730 0.0000 0.0000 0.0000
# 2 52.3366 85.9407 50.5254 0.0000 0.0000 0.0000
# 3 51.4730 50.5254 119.2022 0.0000 0.0000 0.0000
# 4 0.0000 0.0000 0.0000 -8.3935 0.0000 0.0000
# 5 0.0000 0.0000 0.0000 0.0000 5.4247 0.0000
# 6 0.0000 0.0000 0.0000 0.0000 0.0000 108.3783
#
#
#
# Elastic Compliance Matrix: (Units=1/GPa)
#
#
# Indices 1 2 3 4 5 6 
#
# 1 0.017014 -0.008047 -0.003936 0.000000 0.000000 0.000000
# 2 -0.008047 0.019304 -0.004707 0.000000 0.000000 0.000000
# 3 -0.003936 -0.004707 0.012084 0.000000 0.000000 0.000000
# 4 0.000000 0.000000 0.000000 -0.119140 0.000000 0.000000
# 5 0.000000 0.000000 0.000000 0.000000 0.184341 0.000000
# 6 0.000000 0.000000 0.000000 0.000000 0.000000 0.009227
#
#
# Mechanical properties :
#
#
# Convention : Reuss Voigt Hill
#
# Bulk Modulus (GPa) = 66.57387 67.69444 67.13415
# Shear Modulus (GPa) = 31.01384 30.83157 30.92270
#
# Velocity S-wave (km/s) = 4.52870 4.51537 4.52204
# Velocity P-wave (km/s) = 8.44808 8.48236 8.46524
#
# Compressibility (1/GPa) = 0.01502091
#
# Stress axis : x y z
#
# Youngs Moduli (GPa) = 58.77525 51.80235 82.75427
#
# Poissons Ratio (x) = 0.41687 0.32571
# Poissons Ratio (y) = 0.47298 0.38956
# Poissons Ratio (z) = 0.23133 0.24385
#
# Static dielectric constant tensor:
#      x y z
#    x 1.498910 0.000000 0.000000 
#    y 0.000000 1.489420 0.000000 
#    z 0.000000 0.000000 1.523480 
# 
# From -- ./inp_files/8951.got.cif
#   From: 2010.05.17/outbox.cif.g08.bks.cpg/sg16_5_cif.got.tgz:8951.got - 2010.06.03 22:28:35.
