data_PCOD9310262
_publ_section_title
;
Structure prediction by ZEFSAII (Michael W. Deem and Ramdas Pophale) SiO2 
 PCOD9310262
Probable space group: P 2 2 2
;
_chemical_formula_sum "Si O2"
_cell_formula_units_Z 24
_cell_length_a 13.772090
_cell_length_b 6.602315
_cell_length_c 13.920947
_cell_angle_alpha 90.000000
_cell_angle_beta 90.000000
_cell_angle_gamma 90.000000
_cell_volume 1265.799364
_symmetry_space_group_name_H-M "P 2 2 2"
_symmetry_group_IT_number 16
_symmetry_cell_setting 'orthorhombic'
loop_
_space_group_symop_operation_xyz
x,y,z
-x,-y,z
x,-y,-z
-x,y,-z
loop_
_atom_site_type_symbol
_atom_site_label
_atom_site_fract_x
_atom_site_fract_y
_atom_site_fract_z
Si Si1 0.919356 0.830197 0.844013
Si Si2 0.606700 0.419306 0.608030
Si Si3 0.744286 0.647515 0.746355
Si Si4 0.000000 0.500000 0.000000
Si Si5 0.672392 0.674676 0.110019
Si Si6 0.217714 0.000000 0.000000
Si Si7 0.611669 0.960544 0.279851
Si Si8 0.500000 0.500000 0.000000
O O1 0.855488 0.722822 0.760090
O O2 0.845131 0.962272 0.906250
O O3 0.953360 0.659361 0.922153
O O4 0.000000 0.000000 0.814486
O O5 0.500000 0.500000 0.647239
O O6 0.610285 0.500000 0.500000
O O7 0.702332 0.500697 0.663350
O O8 0.608606 0.177196 0.623955
O O9 0.720845 0.526013 0.845340
O O10 0.675301 0.838911 0.725131
O O11 0.658666 0.822384 0.198614
O O12 0.567960 0.626705 0.068594
O O13 0.725088 0.796694 0.025893
O O14 0.500000 0.000000 0.255091
#
# Coordination Sequence:
#
# PCOD9310262 Si02
#       8
#     4   4   4   1   4   2   4   1
#     4  12  24  39  62  92 118 161 217 264 324 369
#     4  10  22  40  63  96 127 163 213 258 318 395
#     4  11  23  42  60  88 126 164 204 263 326 381
#     4  12  22  42  68  86 128 156 214 282 312 374
#     4  11  25  36  56  80 125 169 219 257 306 371
#     4  12  21  41  54  86 122 164 213 274 303 368
#     4  11  21  37  61  84 126 165 204 253 312 377
#     4  12  24  36  48  80 114 180 220 240 292 364
#
# _framework density 18.960349999999998
#
# number of rings (size 3 to 8) (size 9 to 14) (size 15 to 20)
#    0.000    0.833    5.000    3.000    4.667    0.667 
#    0.000    0.000    0.000    0.000    0.000    8.750 
#    0.000    0.000    0.000    0.000    0.000    0.000 
#
# Total GULP energy -133620.328670 kJ/mol
# GULP energy per Si atom -5567.513695 kJ/mol
# Density = 1.891720 g / cm^3
# Si number density = 18.960350 Si / 1000 Ang^3
#
#
#
# Elastic Constant Matrix: (Units=GPa)
#
#
# Indices 1 2 3 4 5 6 
#
# 1 102.0255 38.2535 22.5869 0.0000 0.0000 0.0000
# 2 38.2535 101.6860 16.2074 0.0000 0.0000 0.0000
# 3 22.5869 16.2074 53.9068 0.0000 0.0000 0.0000
# 4 0.0000 0.0000 0.0000 21.2991 0.0000 0.0000
# 5 0.0000 0.0000 0.0000 0.0000 33.1229 0.0000
# 6 0.0000 0.0000 0.0000 0.0000 0.0000 37.7744
#
#
#
# Elastic Compliance Matrix: (Units=1/GPa)
#
#
# Indices 1 2 3 4 5 6 
#
# 1 0.012145 -0.003947 -0.003902 0.000000 0.000000 0.000000
# 2 -0.003947 0.011612 -0.001837 0.000000 0.000000 0.000000
# 3 -0.003902 -0.001837 0.020738 0.000000 0.000000 0.000000
# 4 0.000000 0.000000 0.000000 0.046950 0.000000 0.000000
# 5 0.000000 0.000000 0.000000 0.000000 0.030191 0.000000
# 6 0.000000 0.000000 0.000000 0.000000 0.000000 0.026473
#
#
# Mechanical properties :
#
#
# Convention : Reuss Voigt Hill
#
# Bulk Modulus (GPa) = 39.80577 45.74598 42.77587
# Shear Modulus (GPa) = 28.43236 30.47732 29.45484
#
# Velocity S-wave (km/s) = 3.87663 4.01362 3.94572
# Velocity P-wave (km/s) = 6.40917 6.75710 6.58543
#
# Compressibility (1/GPa) = 0.02512199
#
# Stress axis : x y z
#
# Youngs Moduli (GPa) = 82.33687 86.11872 48.22076
#
# Poissons Ratio (x) = 0.33991 0.18816
# Poissons Ratio (y) = 0.32498 0.08860
# Poissons Ratio (z) = 0.32129 0.15823
#
# Static dielectric constant tensor:
#      x y z
#    x 1.742080 0.000000 0.000000 
#    y 0.000000 1.427250 0.000000 
#    z 0.000000 0.000000 1.669570 
# 
# From -- ./inp_files/2045.got.cif
#   From: 2010.05.17/outbox.cif.g08.bks.cpg/sg16_2_cif.got.tgz:2045.got - 2010.06.03 22:28:35.
