data_PCOD9310415
_publ_section_title
;
Structure prediction by ZEFSAII (Michael W. Deem and Ramdas Pophale) SiO2 
 PCOD9310415
Probable space group: P 2 2 2
;
_chemical_formula_sum "Si O2"
_cell_formula_units_Z 19
_cell_length_a 9.003407
_cell_length_b 6.315798
_cell_length_c 15.003296
_cell_angle_alpha 90.000000
_cell_angle_beta 90.000000
_cell_angle_gamma 90.000000
_cell_volume 853.142922
_symmetry_space_group_name_H-M "P 2 2 2"
_symmetry_group_IT_number 16
_symmetry_cell_setting 'orthorhombic'
loop_
_space_group_symop_operation_xyz
x,y,z
-x,-y,z
x,-y,-z
-x,y,-z
loop_
_atom_site_type_symbol
_atom_site_label
_atom_site_fract_x
_atom_site_fract_y
_atom_site_fract_z
Si Si1 0.677690 0.494114 0.102983
Si Si2 0.758581 0.655689 0.577281
Si Si3 0.648341 0.136546 0.254861
Si Si4 0.000000 0.500000 0.302798
Si Si5 0.114096 0.151756 0.185709
Si Si6 0.000000 0.000000 0.500000
O O1 0.500000 0.500000 0.098232
O O2 0.688922 0.300227 0.174250
O O3 0.766934 0.696443 0.139162
O O4 0.729568 0.500000 0.000000
O O5 0.700019 0.500000 0.500000
O O6 0.642462 0.754301 0.647844
O O7 0.856417 0.498357 0.637177
O O8 0.880680 0.835401 0.546681
O O9 0.500000 0.000000 0.236241
O O10 0.785923 0.977359 0.254596
O O11 0.994872 0.699352 0.239952
O O12 0.000000 0.000000 0.132052
#
# Coordination Sequence:
#
# PCOD9310415 Si02
#       6
#     4   4   4   2   4   1
#     4  11  25  48  76 109 149 198 255 313 380 468
#     4  12  24  40  72 105 144 191 246 309 370 447
#     4  12  26  47  76 107 147 199 249 310 387 456
#     4  12  21  42  71 106 140 190 247 304 369 438
#     4  12  23  43  78 109 146 194 250 314 378 455
#     4  12  22  40  70 110 136 198 252 300 368 470
#
# _framework density 22.270593000000002
#
# number of rings (size 3 to 8) (size 9 to 14) (size 15 to 20)
#    0.000    0.211    8.421    1.263    0.000    0.842 
#    0.000    8.421    4.632    0.000    0.000    0.000 
#    0.000    0.000    0.000    0.000    0.000    0.000 
#
# Total GULP energy -105774.970724 kJ/mol
# GULP energy per Si atom -5567.103722 kJ/mol
# Density = 2.221990 g / cm^3
# Si number density = 22.270593 Si / 1000 Ang^3
#
#
#
# Elastic Constant Matrix: (Units=GPa)
#
#
# Indices 1 2 3 4 5 6 
#
# 1 89.5626 49.3592 24.5116 0.0000 0.0000 0.0000
# 2 49.3592 126.5442 72.3514 0.0000 0.0000 0.0000
# 3 24.5116 72.3514 133.8772 0.0000 0.0000 0.0000
# 4 0.0000 0.0000 0.0000 10.3097 0.0000 0.0000
# 5 0.0000 0.0000 0.0000 0.0000 50.7371 0.0000
# 6 0.0000 0.0000 0.0000 0.0000 0.0000 53.4363
#
#
#
# Elastic Compliance Matrix: (Units=1/GPa)
#
#
# Indices 1 2 3 4 5 6 
#
# 1 0.014253 -0.005886 0.000572 0.000000 0.000000 0.000000
# 2 -0.005886 0.013867 -0.006416 0.000000 0.000000 0.000000
# 3 0.000572 -0.006416 0.010833 0.000000 0.000000 0.000000
# 4 0.000000 0.000000 0.000000 0.096996 0.000000 0.000000
# 5 0.000000 0.000000 0.000000 0.000000 0.019709 0.000000
# 6 0.000000 0.000000 0.000000 0.000000 0.000000 0.018714
#
#
# Mechanical properties :
#
#
# Convention : Reuss Voigt Hill
#
# Bulk Modulus (GPa) = 64.55704 71.38093 67.96898
# Shear Modulus (GPa) = 24.63089 36.48073 30.55581
#
# Velocity S-wave (km/s) = 3.32924 4.05170 3.70810
# Velocity P-wave (km/s) = 6.62034 7.34912 6.99423
#
# Compressibility (1/GPa) = 0.01549018
#
# Stress axis : x y z
#
# Youngs Moduli (GPa) = 70.16102 72.11430 92.31467
#
# Poissons Ratio (x) = 0.42448 -0.05276
# Poissons Ratio (y) = 0.41298 0.59233
# Poissons Ratio (z) = -0.04010 0.46271
#
# Static dielectric constant tensor:
#      x y z
#    x 1.848000 0.000000 0.000000 
#    y 0.000000 1.850320 0.000000 
#    z 0.000000 0.000000 1.915310 
# 
# From -- ./inp_files/8810.got.cif
#   From: 2010.05.17/outbox.cif.g08.bks.cpg/sg16_5_cif.got.tgz:8810.got - 2010.06.03 22:28:35.
