data_PCOD9310324
_publ_section_title
;
Structure prediction by ZEFSAII (Michael W. Deem and Ramdas Pophale) SiO2 
 PCOD9310324
Probable space group: P 2 2 2
;
_chemical_formula_sum "Si O2"
_cell_formula_units_Z 26
_cell_length_a 8.280768
_cell_length_b 8.088995
_cell_length_c 17.734519
_cell_angle_alpha 90.000000
_cell_angle_beta 90.000000
_cell_angle_gamma 90.000000
_cell_volume 1187.912899
_symmetry_space_group_name_H-M "P 2 2 2"
_symmetry_group_IT_number 16
_symmetry_cell_setting 'orthorhombic'
loop_
_space_group_symop_operation_xyz
x,y,z
-x,-y,z
x,-y,-z
-x,y,-z
loop_
_atom_site_type_symbol
_atom_site_label
_atom_site_fract_x
_atom_site_fract_y
_atom_site_fract_z
Si Si1 0.594583 0.843558 0.878761
Si Si2 0.676511 0.651672 0.208675
Si Si3 0.835752 0.999639 0.228972
Si Si4 0.500000 0.500000 0.500000
Si Si5 0.080301 0.231438 0.627261
Si Si6 0.814508 0.434772 0.078966
Si Si7 0.000000 0.000000 0.500000
Si Si8 0.737684 0.579864 0.373089
O O1 0.465115 0.714187 0.846362
O O2 0.680518 0.917499 0.805786
O O3 0.742118 0.751317 0.920531
O O4 0.500000 0.000000 0.914710
O O5 0.759482 0.510614 0.158954
O O6 0.644429 0.597837 0.294002
O O7 0.790613 0.807803 0.226261
O O8 0.879975 0.112655 0.301684
O O9 0.000000 0.000000 0.180666
O O10 0.618095 0.600511 0.443685
O O11 0.102496 0.117772 0.554274
O O12 0.189486 0.394297 0.625514
O O13 0.894405 0.298663 0.624917
O O14 0.000000 0.500000 0.076528
O O15 0.742221 0.500000 0.000000
#
# Coordination Sequence:
#
# PCOD9310324 Si02
#       8
#     4   4   4   1   4   4   1   4
#     4  10  24  42  69 106 147 192 237 300 371 445
#     4  11  23  41  70 103 143 188 238 292 366 446
#     4  11  20  40  66 103 134 181 242 298 353 434
#     4  12  28  42  60  98 146 170 236 306 376 426
#     4  11  23  40  68  92 126 178 240 287 356 437
#     4  11  25  45  73 110 147 193 253 314 372 444
#     4  12  20  38  60  86 120 158 214 286 352 410
#     4  11  25  43  65  98 130 184 234 298 353 442
#
# _framework density 21.887125000000001
#
# number of rings (size 3 to 8) (size 9 to 14) (size 15 to 20)
#    0.000    1.077    2.308    3.231    6.462    2.462 
#    0.000    5.385    0.000   10.154    0.000    0.000 
#    0.000    0.000    0.000    0.000    0.000    0.000 
#
# Total GULP energy -144784.714871 kJ/mol
# GULP energy per Si atom -5568.642880 kJ/mol
# Density = 2.183731 g / cm^3
# Si number density = 21.887125 Si / 1000 Ang^3
#
#
#
# Elastic Constant Matrix: (Units=GPa)
#
#
# Indices 1 2 3 4 5 6 
#
# 1 91.3390 32.9854 6.7634 0.0000 0.0000 0.0000
# 2 32.9854 111.7692 19.7987 0.0000 0.0000 0.0000
# 3 6.7634 19.7987 95.2075 0.0000 0.0000 0.0000
# 4 0.0000 0.0000 0.0000 -18.0025 0.0000 0.0000
# 5 0.0000 0.0000 0.0000 0.0000 -31.2062 0.0000
# 6 0.0000 0.0000 0.0000 0.0000 0.0000 13.6267
#
#
#
# Elastic Compliance Matrix: (Units=1/GPa)
#
#
# Indices 1 2 3 4 5 6 
#
# 1 0.012256 -0.003595 -0.000123 0.000000 0.000000 0.000000
# 2 -0.003595 0.010344 -0.001896 0.000000 0.000000 0.000000
# 3 -0.000123 -0.001896 0.010906 0.000000 0.000000 0.000000
# 4 0.000000 0.000000 0.000000 -0.055548 0.000000 0.000000
# 5 0.000000 0.000000 0.000000 0.000000 -0.032045 0.000000
# 6 0.000000 0.000000 0.000000 0.000000 0.000000 0.073385
#
#
# Mechanical properties :
#
#
# Convention : Reuss Voigt Hill
#
# Bulk Modulus (GPa) = 44.88682 46.37896 45.63289
# Shear Modulus (GPa) = 131.74555 8.80148 70.27352
#
# Velocity S-wave (km/s) = 7.76684 2.00750 5.67247
# Velocity P-wave (km/s) = 10.04911 5.15843 7.98731
#
# Compressibility (1/GPa) = 0.02227825
#
# Stress axis : x y z
#
# Youngs Moduli (GPa) = 81.59516 96.67642 91.68999
#
# Poissons Ratio (x) = 0.34756 0.01128
# Poissons Ratio (y) = 0.29334 0.17381
# Poissons Ratio (z) = 0.01004 0.18326
#
# Static dielectric constant tensor:
#      x y z
#    x 1.809050 0.000000 0.000000 
#    y 0.000000 1.870070 0.000000 
#    z 0.000000 0.000000 1.797810 
# 
# From -- ./inp_files/8920.got.cif
#   From: 2010.05.17/outbox.cif.g08.bks.cpg/sg16_5_cif.got.tgz:8920.got - 2010.06.03 22:28:35.
