data_PCOD9310403
_publ_section_title
;
Structure prediction by ZEFSAII (Michael W. Deem and Ramdas Pophale) SiO2 
 PCOD9310403
Probable space group: P 2 2 2
;
_chemical_formula_sum "Si O2"
_cell_formula_units_Z 24
_cell_length_a 11.273800
_cell_length_b 12.223835
_cell_length_c 8.242295
_cell_angle_alpha 90.000000
_cell_angle_beta 90.000000
_cell_angle_gamma 90.000000
_cell_volume 1135.863017
_symmetry_space_group_name_H-M "P 2 2 2"
_symmetry_group_IT_number 16
_symmetry_cell_setting 'orthorhombic'
loop_
_space_group_symop_operation_xyz
x,y,z
-x,-y,z
x,-y,-z
-x,y,-z
loop_
_atom_site_type_symbol
_atom_site_label
_atom_site_fract_x
_atom_site_fract_y
_atom_site_fract_z
Si Si1 0.763561 0.171173 0.179102
Si Si2 0.734794 0.232774 0.809630
Si Si3 0.492549 0.871652 0.305965
Si Si4 0.160316 0.450768 0.180310
Si Si5 0.936677 0.655166 0.673796
Si Si6 0.862442 0.966561 0.321672
O O1 0.631163 0.179455 0.248197
O O2 0.861429 0.238517 0.281142
O O3 0.797206 0.043722 0.193089
O O4 0.765926 0.214822 0.997479
O O5 0.605815 0.186555 0.770912
O O6 0.742189 0.361215 0.775891
O O7 0.829304 0.158572 0.710535
O O8 0.500000 0.864654 0.500000
O O9 0.500000 0.000000 0.260857
O O10 0.149395 0.550436 0.305994
O O11 0.039409 0.378980 0.198186
O O12 0.173719 0.500000 0.000000
O O13 0.000000 0.661842 0.500000
O O14 0.816857 0.000000 0.500000
O O15 0.000000 0.000000 0.314823
#
# Coordination Sequence:
#
# PCOD9310403 Si02
#       6
#     4   4   4   4   4   4
#     4  12  25  42  72 101 141 183 241 292 360 432
#     4  12  25  43  74 102 140 189 239 299 360 438
#     4  11  25  47  72  99 139 190 239 296 365 436
#     4  11  23  45  70 104 142 183 237 290 364 431
#     4  11  25  43  72 105 141 190 235 293 358 436
#     4  11  25  41  63 103 147 183 226 291 361 436
#
# _framework density 21.129308000000002
#
# number of rings (size 3 to 8) (size 9 to 14) (size 15 to 20)
#    0.000    0.667    3.333    5.000    7.000    3.333 
#    3.000    0.833    0.000    1.000    0.000    0.000 
#    0.000    0.000    0.000    0.000    0.000    0.000 
#
# Total GULP energy -134295.160967 kJ/mol
# GULP energy per Si atom -5595.631707 kJ/mol
# Density = 2.108122 g / cm^3
# Si number density = 21.129308 Si / 1000 Ang^3
#
#
#
# Elastic Constant Matrix: (Units=GPa)
#
#
# Indices 1 2 3 4 5 6 
#
# 1 76.0624 31.9893 29.2316 0.0000 0.0000 0.0000
# 2 31.9893 120.4932 38.7161 0.0000 0.0000 0.0000
# 3 29.2316 38.7161 102.2758 0.0000 0.0000 0.0000
# 4 0.0000 0.0000 0.0000 26.8626 0.0000 0.0000
# 5 0.0000 0.0000 0.0000 0.0000 24.4654 0.0000
# 6 0.0000 0.0000 0.0000 0.0000 0.0000 41.8743
#
#
#
# Elastic Compliance Matrix: (Units=1/GPa)
#
#
# Indices 1 2 3 4 5 6 
#
# 1 0.015730 -0.003110 -0.003319 0.000000 0.000000 0.000000
# 2 -0.003110 0.010063 -0.002921 0.000000 0.000000 0.000000
# 3 -0.003319 -0.002921 0.011832 0.000000 0.000000 0.000000
# 4 0.000000 0.000000 0.000000 0.037227 0.000000 0.000000
# 5 0.000000 0.000000 0.000000 0.000000 0.040874 0.000000
# 6 0.000000 0.000000 0.000000 0.000000 0.000000 0.023881
#
#
# Mechanical properties :
#
#
# Convention : Reuss Voigt Hill
#
# Bulk Modulus (GPa) = 52.83465 55.41171 54.12318
# Shear Modulus (GPa) = 30.37407 31.90008 31.13708
#
# Velocity S-wave (km/s) = 3.79559 3.88977 3.84297
# Velocity P-wave (km/s) = 6.65345 6.81585 6.73514
#
# Compressibility (1/GPa) = 0.01892697
#
# Stress axis : x y z
#
# Youngs Moduli (GPa) = 63.57114 99.37126 84.51960
#
# Poissons Ratio (x) = 0.30903 0.28049
# Poissons Ratio (y) = 0.19770 0.24685
# Poissons Ratio (z) = 0.21097 0.29022
#
# Static dielectric constant tensor:
#      x y z
#    x 1.768370 0.000000 0.000000 
#    y 0.000000 1.796830 0.000000 
#    z 0.000000 0.000000 1.767550 
# 
# From -- ./inp_files/4719.got.cif
#   From: 2010.05.17/outbox.cif.g08.bks.cpg/sg16_3_cif.got.tgz:4719.got - 2010.06.03 22:28:35.
