data_PCOD9310302
_publ_section_title
;
Structure prediction by ZEFSAII (Michael W. Deem and Ramdas Pophale) SiO2 
 PCOD9310302
Probable space group: P 2 2 2
;
_chemical_formula_sum "Si O2"
_cell_formula_units_Z 18
_cell_length_a 8.008344
_cell_length_b 5.870172
_cell_length_c 17.337734
_cell_angle_alpha 90.000000
_cell_angle_beta 90.000000
_cell_angle_gamma 90.000000
_cell_volume 815.053060
_symmetry_space_group_name_H-M "P 2 2 2"
_symmetry_group_IT_number 16
_symmetry_cell_setting 'orthorhombic'
loop_
_space_group_symop_operation_xyz
x,y,z
-x,-y,z
x,-y,-z
-x,y,-z
loop_
_atom_site_type_symbol
_atom_site_label
_atom_site_fract_x
_atom_site_fract_y
_atom_site_fract_z
Si Si1 0.152348 0.661481 0.614129
Si Si2 0.154255 0.161236 0.210924
Si Si3 0.500000 0.000000 0.000000
Si Si4 0.000000 0.000000 0.500000
Si Si5 0.500000 0.000000 0.738187
Si Si6 0.500000 0.500000 0.651129
Si Si7 0.678912 0.610109 0.080952
O O1 0.130945 0.741269 0.702945
O O2 0.125197 0.867966 0.556756
O O3 0.327367 0.532897 0.606357
O O4 0.000000 0.500000 0.595520
O O5 0.326823 0.019261 0.216230
O O6 0.192179 0.362002 0.149909
O O7 0.000000 0.000000 0.189912
O O8 0.620573 0.144215 0.946850
O O9 0.511329 0.749469 0.695157
O O10 0.500000 0.500000 0.105126
O O11 0.737248 0.500000 0.000000
#
# Coordination Sequence:
#
# PCOD9310302 Si02
#       7
#     4   4   1   1   2   2   4
#     4  11  25  48  75 107 149 202 249 321 390 463
#     4  11  22  42  75 108 143 193 256 308 380 465
#     4   8  16  40  66  90 146 184 230 296 408 422
#     4  12  26  52  74 106 164 196 262 328 404 452
#     4  10  23  42  74 116 149 190 250 330 371 454
#     4  10  24  44  79 110 149 190 262 304 385 464
#     4   9  20  39  67 103 141 196 243 313 383 452
#
# _framework density 22.084448999999999
#
# number of rings (size 3 to 8) (size 9 to 14) (size 15 to 20)
#    0.000    2.000    1.111    2.333    9.333    0.000 
#    8.000    3.889    0.000    1.333    0.000    0.000 
#    0.000    0.000    0.000    0.000    0.000    0.000 
#
# Total GULP energy -100395.546693 kJ/mol
# GULP energy per Si atom -5577.530372 kJ/mol
# Density = 2.203418 g / cm^3
# Si number density = 22.084449 Si / 1000 Ang^3
#
#
#
# Elastic Constant Matrix: (Units=GPa)
#
#
# Indices 1 2 3 4 5 6 
#
# 1 173.0434 50.0101 43.9907 0.0000 0.0000 0.0000
# 2 50.0101 108.7989 59.5728 0.0000 0.0000 0.0000
# 3 43.9907 59.5728 154.7505 0.0000 0.0000 0.0000
# 4 0.0000 0.0000 0.0000 44.2118 0.0000 0.0000
# 5 0.0000 0.0000 0.0000 0.0000 11.8148 0.0000
# 6 0.0000 0.0000 0.0000 0.0000 0.0000 28.2501
#
#
#
# Elastic Compliance Matrix: (Units=1/GPa)
#
#
# Indices 1 2 3 4 5 6 
#
# 1 0.006766 -0.002606 -0.000920 0.000000 0.000000 0.000000
# 2 -0.002606 0.012650 -0.004129 0.000000 0.000000 0.000000
# 3 -0.000920 -0.004129 0.008313 0.000000 0.000000 0.000000
# 4 0.000000 0.000000 0.000000 0.022618 0.000000 0.000000
# 5 0.000000 0.000000 0.000000 0.000000 0.084640 0.000000
# 6 0.000000 0.000000 0.000000 0.000000 0.000000 0.035398
#
#
# Mechanical properties :
#
#
# Convention : Reuss Voigt Hill
#
# Bulk Modulus (GPa) = 80.52405 82.63777 81.58091
# Shear Modulus (GPa) = 26.33862 35.72330 31.03096
#
# Velocity S-wave (km/s) = 3.45720 4.02627 3.75254
# Velocity P-wave (km/s) = 7.24412 7.68861 7.46967
#
# Compressibility (1/GPa) = 0.01241865
#
# Stress axis : x y z
#
# Youngs Moduli (GPa) = 147.79765 79.05128 120.29338
#
# Poissons Ratio (x) = 0.20603 0.11068
# Poissons Ratio (y) = 0.38520 0.49668
# Poissons Ratio (z) = 0.13598 0.32639
#
# Static dielectric constant tensor:
#      x y z
#    x 1.800420 0.000000 0.000000 
#    y 0.000000 1.901440 0.000000 
#    z 0.000000 0.000000 1.906120 
# 
# From -- ./inp_files/8828.got.cif
#   From: 2010.05.17/outbox.cif.g08.bks.cpg/sg16_5_cif.got.tgz:8828.got - 2010.06.03 22:28:35.
