data_PCOD9310648
_publ_section_title
;
Structure prediction by ZEFSAII (Michael W. Deem and Ramdas Pophale) SiO2 
 PCOD9310648
Probable space group: P 2 2 21
;
_chemical_formula_sum "Si O2"
_cell_formula_units_Z 32
_cell_length_a 12.460971
_cell_length_b 11.907753
_cell_length_c 12.127626
_cell_angle_alpha 90.000000
_cell_angle_beta 90.000000
_cell_angle_gamma 90.000000
_cell_volume 1799.523400
_symmetry_space_group_name_H-M "P 2 2 21"
_symmetry_group_IT_number 17
_symmetry_cell_setting 'orthorhombic'
loop_
_space_group_symop_operation_xyz
x,y,z
-x,-y,1/2+z
x,-y,-z
-x,y,1/2-z
loop_
_atom_site_type_symbol
_atom_site_label
_atom_site_fract_x
_atom_site_fract_y
_atom_site_fract_z
Si Si1 0.351448 0.369080 0.967879
Si Si2 0.588670 0.635965 0.993273
Si Si3 0.073627 0.256038 0.445568
Si Si4 0.883601 0.183038 0.806621
Si Si5 0.700489 0.353346 0.779097
Si Si6 0.178027 0.748148 0.889560
Si Si7 0.872306 0.929576 0.771429
Si Si8 0.769286 0.606048 0.826855
O O1 0.363434 0.363402 0.835459
O O2 0.329577 0.500000 0.000000
O O3 0.464799 0.332537 0.020803
O O4 0.257361 0.289140 0.013482
O O5 0.667491 0.659784 0.891217
O O6 0.588091 0.500000 0.000000
O O7 0.635394 0.679350 0.110072
O O8 0.097347 0.223142 0.569295
O O9 0.129919 0.159738 0.370672
O O10 0.130413 0.370176 0.406888
O O11 0.946798 0.262094 0.423063
O O12 0.796655 0.267244 0.757587
O O13 0.000000 0.188086 0.750000
O O14 0.839836 0.055652 0.799564
O O15 0.747695 0.475987 0.806390
O O16 0.184642 0.872135 0.833955
O O17 0.205514 0.664089 0.789184
O O18 0.000000 0.936615 0.750000
#
# Coordination Sequence:
#
# PCOD9310648 Si02
#       8
#     4   4   4   4   4   4   4   4
#     4  11  21  37  55  83 114 150 194 238 289 343
#     4   9  20  35  57  79 111 151 192 237 281 342
#     4  10  19  35  56  81 116 152 185 227 287 347
#     4  11  21  33  53  85 115 149 192 232 279 339
#     4  11  21  36  52  85 115 148 194 235 291 345
#     4  10  20  36  56  86 117 147 190 234 290 340
#     4   8  18  35  56  79 109 149 189 228 274 334
#     4  10  19  36  55  83 115 151 187 227 291 352
#
# _framework density 17.782485000000001
#
# number of rings (size 3 to 8) (size 9 to 14) (size 15 to 20)
#    0.000    2.000    2.500    2.625    0.000    1.500 
#    2.250    1.875    0.000    0.000   19.500    0.000 
#    0.000    0.000    0.000    0.000    0.000    0.000 
#
# Total GULP energy -178337.281728 kJ/mol
# GULP energy per Si atom -5573.040054 kJ/mol
# Density = 1.774201 g / cm^3
# Si number density = 17.782485 Si / 1000 Ang^3
#
#
#
# Elastic Constant Matrix: (Units=GPa)
#
#
# Indices 1 2 3 4 5 6 
#
# 1 71.0795 12.2540 -0.1201 0.0000 0.0000 0.0000
# 2 12.2540 31.4227 -1.9264 0.0000 0.0000 0.0000
# 3 -0.1201 -1.9264 51.0296 0.0000 0.0000 0.0000
# 4 0.0000 0.0000 0.0000 13.0488 0.0000 0.0000
# 5 0.0000 0.0000 0.0000 0.0000 20.6380 0.0000
# 6 0.0000 0.0000 0.0000 0.0000 0.0000 10.3774
#
#
#
# Elastic Compliance Matrix: (Units=1/GPa)
#
#
# Indices 1 2 3 4 5 6 
#
# 1 0.015085 -0.005894 -0.000187 0.000000 0.000000 0.000000
# 2 -0.005894 0.034201 0.001277 0.000000 0.000000 0.000000
# 3 -0.000187 0.001277 0.019644 0.000000 0.000000 0.000000
# 4 0.000000 0.000000 0.000000 0.076635 0.000000 0.000000
# 5 0.000000 0.000000 0.000000 0.000000 0.048454 0.000000
# 6 0.000000 0.000000 0.000000 0.000000 0.000000 0.096364
#
#
# Mechanical properties :
#
#
# Convention : Reuss Voigt Hill
#
# Bulk Modulus (GPa) = 16.85712 19.32742 18.09227
# Shear Modulus (GPa) = 15.63651 18.36779 17.00215
#
# Velocity S-wave (km/s) = 2.96855 3.21739 3.09547
# Velocity P-wave (km/s) = 4.60976 4.96935 4.79293
#
# Compressibility (1/GPa) = 0.05932212
#
# Stress axis : x y z
#
# Youngs Moduli (GPa) = 66.29295 29.23896 50.90551
#
# Poissons Ratio (x) = 0.17234 0.00952
# Poissons Ratio (y) = 0.39073 -0.06502
# Poissons Ratio (z) = 0.01240 -0.03734
#
# Static dielectric constant tensor:
#      x y z
#    x 1.614970 0.000000 0.000000 
#    y 0.000000 1.612950 0.000000 
#    z 0.000000 0.000000 1.637450 
# 
# From -- ./inp_files/7092.got.cif
#   From: 2010.05.17/outbox.cif.g08.bks.cpg/sg17_4_cif.got.tgz:7092.got - 2010.06.03 22:34:06.
