data_PCOD9310840
_publ_section_title
;
Structure prediction by ZEFSAII (Michael W. Deem and Ramdas Pophale) SiO2 
 PCOD9310840
Probable space group: P 2 2 21
;
_chemical_formula_sum "Si O2"
_cell_formula_units_Z 18
_cell_length_a 12.897357
_cell_length_b 14.001950
_cell_length_c 5.124135
_cell_angle_alpha 90.000000
_cell_angle_beta 90.000000
_cell_angle_gamma 90.000000
_cell_volume 925.358049
_symmetry_space_group_name_H-M "P 2 2 21"
_symmetry_group_IT_number 17
_symmetry_cell_setting 'orthorhombic'
loop_
_space_group_symop_operation_xyz
x,y,z
-x,-y,1/2+z
x,-y,-z
-x,y,1/2-z
loop_
_atom_site_type_symbol
_atom_site_label
_atom_site_fract_x
_atom_site_fract_y
_atom_site_fract_z
Si Si1 0.619657 0.292167 0.666608
Si Si2 0.124013 0.437065 0.249107
Si Si3 0.747430 0.247546 0.179238
Si Si4 0.930304 0.885571 0.996369
Si Si5 0.570193 0.500000 0.500000
O O1 0.500000 0.272829 0.750000
O O2 0.672592 0.231441 0.431096
O O3 0.626798 0.402261 0.572218
O O4 0.680436 0.280238 0.933870
O O5 0.153464 0.500000 0.500000
O O6 0.177889 0.335155 0.245678
O O7 0.000000 0.423035 0.250000
O O8 0.150409 0.500000 0.000000
O O9 0.820842 0.164281 0.063761
O O10 0.000000 0.860156 0.750000
O O11 0.000000 0.858336 0.250000
O O12 0.916077 0.000000 0.000000
O O13 0.500000 0.475976 0.250000
#
# Coordination Sequence:
#
# PCOD9310840 Si02
#       5
#     4   4   4   4   2
#     4  11  24  39  57  86 122 163 213 264 302 354
#     4  10  22  37  52  79 119 157 194 237 291 368
#     4  12  23  37  64  87 120 165 206 253 307 382
#     4  10  22  42  68  98 126 153 200 264 321 379
#     4  10  20  38  56  76 112 158 210 260 300 334
#
# _framework density 19.451929
#
# number of rings (size 3 to 8) (size 9 to 14) (size 15 to 20)
#    0.000    1.333    0.000    6.667    4.667    2.667 
#    0.000    0.000    0.000    2.667    0.000    1.556 
#    0.000    0.000    0.000    0.000    0.000    0.000 
#
# Total GULP energy -100526.528093 kJ/mol
# GULP energy per Si atom -5584.807116 kJ/mol
# Density = 1.940766 g / cm^3
# Si number density = 19.451929 Si / 1000 Ang^3
#
#
#
# Elastic Constant Matrix: (Units=GPa)
#
#
# Indices 1 2 3 4 5 6 
#
# 1 111.6585 43.0405 55.0114 0.0000 0.0000 0.0000
# 2 43.0405 42.0937 28.5155 0.0000 0.0000 0.0000
# 3 55.0114 28.5155 171.1527 0.0000 0.0000 0.0000
# 4 0.0000 0.0000 0.0000 -13.6417 0.0000 0.0000
# 5 0.0000 0.0000 0.0000 0.0000 -125.3270 0.0000
# 6 0.0000 0.0000 0.0000 0.0000 0.0000 55.5778
#
#
#
# Elastic Compliance Matrix: (Units=1/GPa)
#
#
# Indices 1 2 3 4 5 6 
#
# 1 0.015811 -0.014343 -0.002692 0.000000 0.000000 0.000000
# 2 -0.014343 0.039790 -0.002019 0.000000 0.000000 0.000000
# 3 -0.002692 -0.002019 0.007045 0.000000 0.000000 0.000000
# 4 0.000000 0.000000 0.000000 -0.073304 0.000000 0.000000
# 5 0.000000 0.000000 0.000000 0.000000 -0.007979 0.000000
# 6 0.000000 0.000000 0.000000 0.000000 0.000000 0.017993
#
#
# Mechanical properties :
#
#
# Convention : Reuss Voigt Hill
#
# Bulk Modulus (GPa) = 40.75545 64.22663 52.49104
# Shear Modulus (GPa) = 109.54841 -3.45568 53.04636
#
# Velocity S-wave (km/s) = 7.51264 -1.33431 5.22778
# Velocity P-wave (km/s) = 9.81073 5.54220 7.96763
#
# Compressibility (1/GPa) = 0.02453660
#
# Stress axis : x y z
#
# Youngs Moduli (GPa) = 63.24746 25.13208 141.95438
#
# Poissons Ratio (x) = 0.36046 0.38218
# Poissons Ratio (y) = 0.90714 0.28665
# Poissons Ratio (z) = 0.17028 0.05075
#
# Static dielectric constant tensor:
#      x y z
#    x 1.805950 0.000000 0.000000 
#    y 0.000000 1.671280 0.000000 
#    z 0.000000 0.000000 1.654650 
# 
# From -- ./inp_files/1324.got.cif
#   From: 2010.05.17/outbox.cif.g08.bks.cpg/sg17_1_cif.got.tgz:1324.got - 2010.06.03 22:34:06.
