data_PCOD9310544
_publ_section_title
;
Structure prediction by ZEFSAII (Michael W. Deem and Ramdas Pophale) SiO2 
 PCOD9310544
Probable space group: P 2 2 21
;
_chemical_formula_sum "Si O2"
_cell_formula_units_Z 20
_cell_length_a 5.614758
_cell_length_b 11.535886
_cell_length_c 14.589500
_cell_angle_alpha 90.000000
_cell_angle_beta 90.000000
_cell_angle_gamma 90.000000
_cell_volume 944.979542
_symmetry_space_group_name_H-M "P 2 2 21"
_symmetry_group_IT_number 17
_symmetry_cell_setting 'orthorhombic'
loop_
_space_group_symop_operation_xyz
x,y,z
-x,-y,1/2+z
x,-y,-z
-x,y,1/2-z
loop_
_atom_site_type_symbol
_atom_site_label
_atom_site_fract_x
_atom_site_fract_y
_atom_site_fract_z
Si Si1 0.672212 0.145227 0.114168
Si Si2 0.286355 0.320383 0.080127
Si Si3 0.371586 0.500000 0.500000
Si Si4 0.754585 0.094846 0.802915
Si Si5 0.000000 0.719796 0.750000
Si Si6 0.904337 0.720237 0.055805
O O1 0.409984 0.198803 0.105802
O O2 0.797237 0.202280 0.202685
O O3 0.694510 0.008744 0.126081
O O4 0.803722 0.197925 0.025947
O O5 0.472283 0.423611 0.069338
O O6 0.106956 0.348159 0.162971
O O7 0.170912 0.302467 0.979867
O O8 0.216673 0.404796 0.552022
O O9 0.500000 0.110400 0.750000
O O10 0.839522 0.211477 0.853361
O O11 0.000000 0.058482 0.750000
#
# Coordination Sequence:
#
# PCOD9310544 Si02
#       6
#     4   4   2   4   2   4
#     4  10  21  41  68  99 137 171 227 276 351 417
#     4  10  21  39  72  92 137 173 235 289 349 407
#     4  10  22  44  66  90 130 184 234 290 336 412
#     4  12  27  45  70 104 149 183 224 287 353 429
#     4  10  18  36  62 106 124 168 218 288 342 410
#     4  10  24  44  68  98 130 187 235 284 347 416
#
# _framework density 21.164480000000001
#
# number of rings (size 3 to 8) (size 9 to 14) (size 15 to 20)
#    0.000    1.600    1.000    3.000    8.400    0.000 
#    0.000    8.000    8.800    0.000    0.000    0.000 
#    0.000    0.000    0.000    0.000    0.000    0.000 
#
# Total GULP energy -111532.227409 kJ/mol
# GULP energy per Si atom -5576.611370 kJ/mol
# Density = 2.111631 g / cm^3
# Si number density = 21.164480 Si / 1000 Ang^3
#
#
#
# Elastic Constant Matrix: (Units=GPa)
#
#
# Indices 1 2 3 4 5 6 
#
# 1 101.7782 40.8196 20.5770 0.0000 0.0000 0.0000
# 2 40.8196 140.7111 23.0509 0.0000 0.0000 0.0000
# 3 20.5770 23.0509 32.8176 0.0000 0.0000 0.0000
# 4 0.0000 0.0000 0.0000 14.6258 0.0000 0.0000
# 5 0.0000 0.0000 0.0000 0.0000 25.5467 0.0000
# 6 0.0000 0.0000 0.0000 0.0000 0.0000 17.9522
#
#
#
# Elastic Compliance Matrix: (Units=1/GPa)
#
#
# Indices 1 2 3 4 5 6 
#
# 1 0.012006 -0.002542 -0.005742 0.000000 0.000000 0.000000
# 2 -0.002542 0.008569 -0.004425 0.000000 0.000000 0.000000
# 3 -0.005742 -0.004425 0.037180 0.000000 0.000000 0.000000
# 4 0.000000 0.000000 0.000000 0.068372 0.000000 0.000000
# 5 0.000000 0.000000 0.000000 0.000000 0.039144 0.000000
# 6 0.000000 0.000000 0.000000 0.000000 0.000000 0.055704
#
#
# Mechanical properties :
#
#
# Convention : Reuss Voigt Hill
#
# Bulk Modulus (GPa) = 30.92503 49.35577 40.14040
# Shear Modulus (GPa) = 19.44225 24.34889 21.89557
#
# Velocity S-wave (km/s) = 3.03417 3.39552 3.21992
# Velocity P-wave (km/s) = 5.18830 6.22443 5.72983
#
# Compressibility (1/GPa) = 0.03233626
#
# Stress axis : x y z
#
# Youngs Moduli (GPa) = 83.29322 116.69828 26.89627
#
# Poissons Ratio (x) = 0.29666 0.15444
# Poissons Ratio (y) = 0.21174 0.11901
# Poissons Ratio (z) = 0.47828 0.51638
#
# Static dielectric constant tensor:
#      x y z
#    x 1.860040 0.000000 0.000000 
#    y 0.000000 1.728560 0.000000 
#    z 0.000000 0.000000 1.774460 
# 
# From -- ./inp_files/7661.got.cif
#   From: 2010.05.17/outbox.cif.g08.bks.cpg/sg17_4_cif.got.tgz:7661.got - 2010.06.03 22:34:06.
