data_PCOD9310223
_publ_section_title
;
Structure prediction by ZEFSAII (Michael W. Deem and Ramdas Pophale) SiO2 
 PCOD9310223
Probable space group: P 2 2 2
;
_chemical_formula_sum "Si O2"
_cell_formula_units_Z 30
_cell_length_a 17.676586
_cell_length_b 11.784401
_cell_length_c 7.582592
_cell_angle_alpha 90.000000
_cell_angle_beta 90.000000
_cell_angle_gamma 90.000000
_cell_volume 1579.514406
_symmetry_space_group_name_H-M "P 2 2 2"
_symmetry_group_IT_number 16
_symmetry_cell_setting 'orthorhombic'
loop_
_space_group_symop_operation_xyz
x,y,z
-x,-y,z
x,-y,-z
-x,y,-z
loop_
_atom_site_type_symbol
_atom_site_label
_atom_site_fract_x
_atom_site_fract_y
_atom_site_fract_z
Si Si1 0.654820 0.745243 0.290216
Si Si2 0.500000 0.127033 0.792173
Si Si3 0.809490 0.864750 0.289636
Si Si4 0.292490 0.500000 0.285362
Si Si5 0.190510 0.864750 0.289637
Si Si6 0.345180 0.254757 0.709784
Si Si7 0.910350 0.253624 0.000001
Si Si8 0.161455 0.500000 0.000000
O O1 0.575838 0.804497 0.250782
O O2 0.728090 0.815555 0.228544
O O3 0.663163 0.614558 0.234128
O O4 0.660958 0.743930 0.500000
O O5 0.424162 0.195503 0.749219
O O6 0.500000 0.000000 0.712262
O O7 0.500000 0.114412 0.000000
O O8 0.818794 0.841823 0.499999
O O9 0.810785 0.000000 0.265403
O O10 0.872596 0.805149 0.171005
O O11 0.280204 0.500000 0.500000
O O12 0.336837 0.614558 0.234128
O O13 0.215379 0.500000 0.173223
O O14 0.271910 0.815555 0.228544
O O15 0.127403 0.805148 0.171007
O O16 0.887148 0.385657 0.000000
O O17 0.000000 0.239701 0.000000
#
# Coordination Sequence:
#
# PCOD9310223 Si02
#       8
#     4   4   4   4   4   4   4   2
#     4  10  21  40  63  87 121 164 211 259 308 366
#     4  11  25  38  55  90 132 164 203 259 311 368
#     4  10  22  41  66  93 125 169 215 259 314 378
#     4  10  22  40  66  94 119 161 216 263 310 370
#     4  10  22  41  66  93 125 169 215 259 314 378
#     4  10  21  40  63  87 121 164 211 259 308 366
#     4  12  26  42  65  97 128 162 208 259 318 385
#     4  12  23  42  70  89 126 168 202 259 320 378
#
# _framework density 18.993179999999999
#
# number of rings (size 3 to 8) (size 9 to 14) (size 15 to 20)
#    0.000    1.467    2.667    1.800    3.733    4.267 
#    0.000    4.000    0.000    2.400    0.000    0.000 
#    0.000    0.000    0.000    0.000    0.000    0.000 
#
# Total GULP energy -167533.767108 kJ/mol
# GULP energy per Si atom -5584.458904 kJ/mol
# Density = 1.894995 g / cm^3
# Si number density = 18.993180 Si / 1000 Ang^3
#
#
#
# Elastic Constant Matrix: (Units=GPa)
#
#
# Indices 1 2 3 4 5 6 
#
# 1 203.9801 115.0985 49.9028 0.0000 0.0000 0.0000
# 2 115.0985 186.4850 62.1697 0.0000 0.0000 0.0000
# 3 49.9028 62.1697 70.5529 0.0000 0.0000 0.0000
# 4 0.0000 0.0000 0.0000 15.6772 0.0000 0.0000
# 5 0.0000 0.0000 0.0000 0.0000 132.0009 0.0000
# 6 0.0000 0.0000 0.0000 0.0000 0.0000 9.5171
#
#
#
# Elastic Compliance Matrix: (Units=1/GPa)
#
#
# Indices 1 2 3 4 5 6 
#
# 1 0.007676 -0.004146 -0.001777 0.000000 0.000000 0.000000
# 2 -0.004146 0.009832 -0.005731 0.000000 0.000000 0.000000
# 3 -0.001777 -0.005731 0.020481 0.000000 0.000000 0.000000
# 4 0.000000 0.000000 0.000000 0.063787 0.000000 0.000000
# 5 0.000000 0.000000 0.000000 0.000000 0.007576 0.000000
# 6 0.000000 0.000000 0.000000 0.000000 0.000000 0.105074
#
#
# Mechanical properties :
#
#
# Convention : Reuss Voigt Hill
#
# Bulk Modulus (GPa) = 68.11139 101.70666 84.90903
# Shear Modulus (GPa) = 20.60790 47.02885 33.81837
#
# Velocity S-wave (km/s) = 3.29753 4.98143 4.22424
# Velocity P-wave (km/s) = 7.10191 9.31405 8.28217
#
# Compressibility (1/GPa) = 0.01468183
#
# Stress axis : x y z
#
# Youngs Moduli (GPa) = 130.27248 101.71252 48.82670
#
# Poissons Ratio (x) = 0.42165 0.08674
# Poissons Ratio (y) = 0.54005 0.27984
# Poissons Ratio (z) = 0.23143 0.58294
#
# Static dielectric constant tensor:
#      x y z
#    x 1.810170 0.000000 0.000000 
#    y 0.000000 1.688810 0.000000 
#    z 0.000000 0.000000 1.681810 
# 
# From -- ./inp_files/5200.got.cif
#   From: 2010.05.17/outbox.cif.g08.bks.cpg/sg16_3_cif.got.tgz:5200.got - 2010.06.03 22:28:35.
