data_PCOD9310992
_publ_section_title
;
Structure prediction by ZEFSAII (Michael W. Deem and Ramdas Pophale) SiO2 
 PCOD9310992
Probable space group: P 2 2 21
;
_chemical_formula_sum "Si O2"
_cell_formula_units_Z 20
_cell_length_a 5.406581
_cell_length_b 20.647367
_cell_length_c 9.056676
_cell_angle_alpha 90.000000
_cell_angle_beta 90.000000
_cell_angle_gamma 90.000000
_cell_volume 1011.011795
_symmetry_space_group_name_H-M "P 2 2 21"
_symmetry_group_IT_number 17
_symmetry_cell_setting 'orthorhombic'
loop_
_space_group_symop_operation_xyz
x,y,z
-x,-y,1/2+z
x,-y,-z
-x,y,1/2-z
loop_
_atom_site_type_symbol
_atom_site_label
_atom_site_fract_x
_atom_site_fract_y
_atom_site_fract_z
Si Si1 0.251566 0.539109 0.346615
Si Si2 0.249848 0.691337 0.344052
Si Si3 0.835458 0.932335 0.515813
Si Si4 0.787636 0.820166 0.010749
Si Si5 0.500000 0.105719 0.750000
Si Si6 0.500000 0.886411 0.750000
O O1 0.246702 0.500000 0.500000
O O2 0.500000 0.524547 0.250000
O O3 0.262013 0.615771 0.385204
O O4 0.000000 0.528157 0.250000
O O5 0.500000 0.704946 0.250000
O O6 0.216555 0.743275 0.474480
O O7 0.000000 0.699934 0.250000
O O8 0.640202 0.931993 0.380525
O O9 0.704251 0.930405 0.673402
O O10 0.968322 0.862949 0.510575
O O11 0.984575 0.000000 0.500000
O O12 0.689888 0.848171 0.165407
O O13 0.612787 0.842840 0.878540
#
# Coordination Sequence:
#
# PCOD9310992 Si02
#       6
#     4   4   4   4   2   2
#     4  10  21  40  66 100 139 178 220 271 322 384
#     4  10  21  39  67  95 126 169 217 260 307 376
#     4  11  23  39  58  81 112 152 200 258 322 384
#     4  11  22  39  59  84 115 154 203 253 315 370
#     4  10  21  36  60  80 103 146 202 252 299 382
#     4  10  25  40  54  82 121 150 190 268 327 374
#
# _framework density 19.782162
#
# number of rings (size 3 to 8) (size 9 to 14) (size 15 to 20)
#    0.000    1.600    1.000    3.600    2.800    6.400 
#    1.800    2.000    0.000    0.000    0.000    0.000 
#    0.000    0.000    0.000    0.000    0.000    0.000 
#
# Total GULP energy -111530.347540 kJ/mol
# GULP energy per Si atom -5576.517377 kJ/mol
# Density = 1.973714 g / cm^3
# Si number density = 19.782162 Si / 1000 Ang^3
#
#
#
# Elastic Constant Matrix: (Units=GPa)
#
#
# Indices 1 2 3 4 5 6 
#
# 1 108.6380 48.2336 31.6410 0.0000 0.0000 0.0000
# 2 48.2336 130.5148 59.4317 0.0000 0.0000 0.0000
# 3 31.6410 59.4317 89.8924 0.0000 0.0000 0.0000
# 4 0.0000 0.0000 0.0000 0.0854 0.0000 0.0000
# 5 0.0000 0.0000 0.0000 0.0000 30.5297 0.0000
# 6 0.0000 0.0000 0.0000 0.0000 0.0000 7.7701
#
#
#
# Elastic Compliance Matrix: (Units=1/GPa)
#
#
# Indices 1 2 3 4 5 6 
#
# 1 0.011195 -0.003352 -0.001724 0.000000 0.000000 0.000000
# 2 -0.003352 0.011966 -0.006731 0.000000 0.000000 0.000000
# 3 -0.001724 -0.006731 0.016182 0.000000 0.000000 0.000000
# 4 0.000000 0.000000 0.000000 11.714354 0.000000 0.000000
# 5 0.000000 0.000000 0.000000 0.000000 0.032755 0.000000
# 6 0.000000 0.000000 0.000000 0.000000 0.000000 0.128698
#
#
# Mechanical properties :
#
#
# Convention : Reuss Voigt Hill
#
# Bulk Modulus (GPa) = 63.58330 67.51756 65.55043
# Shear Modulus (GPa) = 0.41862 20.32629 10.37246
#
# Velocity S-wave (km/s) = 0.46052 3.20895 2.29232
# Velocity P-wave (km/s) = 5.70038 6.92347 6.34148
#
# Compressibility (1/GPa) = 0.01572740
#
# Stress axis : x y z
#
# Youngs Moduli (GPa) = 89.32210 83.56995 61.79808
#
# Poissons Ratio (x) = 0.28015 0.10656
# Poissons Ratio (y) = 0.29943 0.41598
# Poissons Ratio (z) = 0.15402 0.56254
#
# Static dielectric constant tensor:
#      x y z
#    x 1.807450 0.000000 0.000000 
#    y 0.000000 1.725850 0.000000 
#    z 0.000000 0.000000 1.669020 
# 
# From -- ./inp_files/3489.got.cif
#   From: 2010.05.17/outbox.cif.g08.bks.cpg/sg17_2_cif.got.tgz:3489.got - 2010.06.03 22:34:06.
