data_PCOD9310213
_publ_section_title
;
Structure prediction by ZEFSAII (Michael W. Deem and Ramdas Pophale) SiO2 
 PCOD9310213
Probable space group: P 2 2 2
;
_chemical_formula_sum "Si O2"
_cell_formula_units_Z 32
_cell_length_a 15.870273
_cell_length_b 12.209704
_cell_length_c 8.681203
_cell_angle_alpha 90.000000
_cell_angle_beta 90.000000
_cell_angle_gamma 90.000000
_cell_volume 1682.168301
_symmetry_space_group_name_H-M "P 2 2 2"
_symmetry_group_IT_number 16
_symmetry_cell_setting 'orthorhombic'
loop_
_space_group_symop_operation_xyz
x,y,z
-x,-y,z
x,-y,-z
-x,y,-z
loop_
_atom_site_type_symbol
_atom_site_label
_atom_site_fract_x
_atom_site_fract_y
_atom_site_fract_z
Si Si1 0.654068 0.266783 0.315153
Si Si2 1.000000 0.126738 0.815523
Si Si3 0.654068 0.733217 0.315153
Si Si4 0.500000 0.127391 0.815329
Si Si5 0.600774 0.500000 0.183585
Si Si6 0.156667 0.738269 0.313791
Si Si7 0.902334 0.500000 0.687185
Si Si8 0.156667 0.738269 0.686210
O O1 0.648407 0.267051 0.500000
O O2 0.582089 0.189422 0.247412
O O3 0.638652 0.390094 0.256054
O O4 0.748336 0.229794 0.270755
O O5 0.916967 0.187380 0.753545
O O6 0.083033 0.187380 0.753544
O O7 0.000000 0.000000 0.766708
O O8 0.000000 0.131522 0.000000
O O9 0.582089 0.810578 0.247412
O O10 0.638652 0.609906 0.256054
O O11 0.748336 0.770206 0.270755
O O12 0.500000 0.000000 0.769632
O O13 0.500000 0.134404 0.000000
O O14 0.500000 0.500000 0.211864
O O15 0.613902 0.500000 0.000000
O O16 0.140924 0.612495 0.263367
O O17 0.150231 0.741289 0.500000
O O18 0.901123 0.500000 0.500000
O O19 0.859076 0.387505 0.736633
O O20 0.000000 0.500000 0.735280
#
# Coordination Sequence:
#
# PCOD9310213 Si02
#       8
#     4   4   4   4   4   4   4   4
#     4  11  23  39  64  94 123 156 201 255 305 356
#     4  11  25  42  59  84 120 161 204 249 296 351
#     4  11  23  39  64  94 123 156 201 255 305 356
#     4  11  25  44  63  84 117 161 205 251 306 367
#     4  11  22  37  61  92 128 166 200 237 298 371
#     4  10  21  39  63  91 120 154 196 244 299 356
#     4   9  15  30  60  89 116 148 183 229 287 348
#     4  10  21  39  63  91 120 154 196 244 299 356
#
# _framework density 19.023067000000001
#
# number of rings (size 3 to 8) (size 9 to 14) (size 15 to 20)
#    0.000    1.500    2.500    2.625    0.000    7.500 
#    0.000    6.250    0.000    0.000    0.000    0.000 
#    0.000    0.000    0.000    0.000    0.000    0.000 
#
# Total GULP energy -178857.625749 kJ/mol
# GULP energy per Si atom -5589.300805 kJ/mol
# Density = 1.897977 g / cm^3
# Si number density = 19.023067 Si / 1000 Ang^3
#
#
#
# Elastic Constant Matrix: (Units=GPa)
#
#
# Indices 1 2 3 4 5 6 
#
# 1 201.7304 104.2619 53.3029 0.0000 0.0000 0.0000
# 2 104.2619 165.5010 41.7575 0.0000 0.0000 0.0000
# 3 53.3029 41.7575 39.1144 0.0000 0.0000 0.0000
# 4 0.0000 0.0000 0.0000 22.6306 0.0000 0.0000
# 5 0.0000 0.0000 0.0000 0.0000 1.4300 0.0000
# 6 0.0000 0.0000 0.0000 0.0000 0.0000 -5.7883
#
#
#
# Elastic Compliance Matrix: (Units=1/GPa)
#
#
# Indices 1 2 3 4 5 6 
#
# 1 0.009046 -0.003543 -0.008545 0.000000 0.000000 0.000000
# 2 -0.003543 0.009657 -0.005482 0.000000 0.000000 0.000000
# 3 -0.008545 -0.005482 0.043063 0.000000 0.000000 0.000000
# 4 0.000000 0.000000 0.000000 0.044188 0.000000 0.000000
# 5 0.000000 0.000000 0.000000 0.000000 0.699290 0.000000
# 6 0.000000 0.000000 0.000000 0.000000 0.000000 -0.172761
#
#
# Mechanical properties :
#
#
# Convention : Reuss Voigt Hill
#
# Bulk Modulus (GPa) = 37.55625 89.44338 63.49981
# Shear Modulus (GPa) = 7.39099 17.45602 12.42350
#
# Velocity S-wave (km/s) = 1.97325 3.03252 2.55831
# Velocity P-wave (km/s) = 4.99769 7.70597 6.49457
#
# Compressibility (1/GPa) = 0.02662672
#
# Stress axis : x y z
#
# Youngs Moduli (GPa) = 110.54570 103.54897 23.22154
#
# Poissons Ratio (x) = 0.36685 0.19843
# Poissons Ratio (y) = 0.39163 0.12730
# Poissons Ratio (z) = 0.94464 0.56766
#
# Static dielectric constant tensor:
#      x y z
#    x 1.650730 0.000000 0.000000 
#    y 0.000000 1.634130 0.000000 
#    z 0.000000 0.000000 1.641890 
# 
# From -- ./inp_files/5212.got.cif
#   From: 2010.05.17/outbox.cif.g08.bks.cpg/sg16_3_cif.got.tgz:5212.got - 2010.06.03 22:28:35.
