data_PCOD9310144
_publ_section_title
;
Structure prediction by ZEFSAII (Michael W. Deem and Ramdas Pophale) SiO2 
 PCOD9310144
Probable space group: P 2 2 2
;
_chemical_formula_sum "Si O2"
_cell_formula_units_Z 16
_cell_length_a 4.972046
_cell_length_b 5.639063
_cell_length_c 23.632422
_cell_angle_alpha 90.000000
_cell_angle_beta 90.000000
_cell_angle_gamma 90.000000
_cell_volume 662.598301
_symmetry_space_group_name_H-M "P 2 2 2"
_symmetry_group_IT_number 16
_symmetry_cell_setting 'orthorhombic'
loop_
_space_group_symop_operation_xyz
x,y,z
-x,-y,z
x,-y,-z
-x,y,-z
loop_
_atom_site_type_symbol
_atom_site_label
_atom_site_fract_x
_atom_site_fract_y
_atom_site_fract_z
Si Si1 0.251681 0.827291 0.665319
Si Si2 0.000000 0.500000 0.000000
Si Si3 0.000000 0.500000 0.500000
Si Si4 0.749256 0.175751 0.907913
Si Si5 0.500000 0.500000 0.428518
Si Si6 0.249964 0.178269 0.213830
O O1 0.329194 0.670630 0.611913
O O2 0.500000 0.000000 0.672808
O O3 0.236397 0.689835 0.725755
O O4 0.000000 0.000000 0.656425
O O5 0.190795 0.651831 0.959211
O O6 0.757393 0.375803 0.462198
O O7 0.500000 0.000000 0.916150
O O8 0.740634 0.307167 0.846662
O O9 0.000000 0.000000 0.905063
O O10 0.500000 0.000000 0.211530
O O11 0.000000 0.000000 0.215588
#
# Coordination Sequence:
#
# PCOD9310144 Si02
#       6
#     4   1   1   4   2   4
#     4  10  20  37  65  96 124 163 215 266 325 388
#     4  12  26  42  70  96 124 182 238 260 316 412
#     4  10  24  42  60  90 136 180 212 252 318 374
#     4  10  23  43  64  91 131 170 213 277 333 384
#     4  11  22  42  64  90 132 173 214 268 312 373
#     4   8  16  35  60  88 125 161 201 267 336 384
#
# _framework density 24.147358000000001
#
# number of rings (size 3 to 8) (size 9 to 14) (size 15 to 20)
#    0.000    2.250    0.000    1.875    0.000    4.000 
#    0.000   25.625    0.000    3.000    0.000    0.000 
#    0.000    0.000    0.000    0.000    0.000    0.000 
#
# Total GULP energy -89144.319570 kJ/mol
# GULP energy per Si atom -5571.519973 kJ/mol
# Density = 2.409240 g / cm^3
# Si number density = 24.147358 Si / 1000 Ang^3
#
#
#
# Elastic Constant Matrix: (Units=GPa)
#
#
# Indices 1 2 3 4 5 6 
#
# 1 231.7422 35.5638 52.1560 0.0000 0.0000 0.0000
# 2 35.5638 36.1794 39.5973 0.0000 0.0000 0.0000
# 3 52.1560 39.5973 165.8808 0.0000 0.0000 0.0000
# 4 0.0000 0.0000 0.0000 9.8410 0.0000 0.0000
# 5 0.0000 0.0000 0.0000 0.0000 31.8849 0.0000
# 6 0.0000 0.0000 0.0000 0.0000 0.0000 43.7824
#
#
#
# Elastic Compliance Matrix: (Units=1/GPa)
#
#
# Indices 1 2 3 4 5 6 
#
# 1 0.005119 -0.004427 -0.000553 0.000000 0.000000 0.000000
# 2 -0.004427 0.041244 -0.008453 0.000000 0.000000 0.000000
# 3 -0.000553 -0.008453 0.008220 0.000000 0.000000 0.000000
# 4 0.000000 0.000000 0.000000 0.101616 0.000000 0.000000
# 5 0.000000 0.000000 0.000000 0.000000 0.031363 0.000000
# 6 0.000000 0.000000 0.000000 0.000000 0.000000 0.022840
#
#
# Mechanical properties :
#
#
# Convention : Reuss Voigt Hill
#
# Bulk Modulus (GPa) = 36.07935 76.49296 56.28616
# Shear Modulus (GPa) = 20.28345 37.53400 28.90872
#
# Velocity S-wave (km/s) = 2.90140 3.94683 3.46378
# Velocity P-wave (km/s) = 5.11839 7.24681 6.27352
#
# Compressibility (1/GPa) = 0.02771669
#
# Stress axis : x y z
#
# Youngs Moduli (GPa) = 195.35457 24.24622 121.65286
#
# Poissons Ratio (x) = 0.10733 0.06724
# Poissons Ratio (y) = 0.86480 1.02837
# Poissons Ratio (z) = 0.10798 0.20496
#
# Static dielectric constant tensor:
#      x y z
#    x 1.877950 0.000000 0.000000 
#    y 0.000000 1.880800 0.000000 
#    z 0.000000 0.000000 2.211150 
# 
# From -- ./inp_files/9416.got.cif
#   From: 2010.05.17/outbox.cif.g08.bks.cpg/sg16_5_cif.got.tgz:9416.got - 2010.06.03 22:28:35.
