data_PCOD9310843
_publ_section_title
;
Structure prediction by ZEFSAII (Michael W. Deem and Ramdas Pophale) SiO2 
 PCOD9310843
Probable space group: P 2 2 21
;
_chemical_formula_sum "Si O2"
_cell_formula_units_Z 30
_cell_length_a 5.086335
_cell_length_b 9.037356
_cell_length_c 30.414046
_cell_angle_alpha 90.000000
_cell_angle_beta 90.000000
_cell_angle_gamma 90.000000
_cell_volume 1398.043065
_symmetry_space_group_name_H-M "P 2 2 21"
_symmetry_group_IT_number 17
_symmetry_cell_setting 'orthorhombic'
loop_
_space_group_symop_operation_xyz
x,y,z
-x,-y,1/2+z
x,-y,-z
-x,y,1/2-z
loop_
_atom_site_type_symbol
_atom_site_label
_atom_site_fract_x
_atom_site_fract_y
_atom_site_fract_z
Si Si1 0.462093 0.703239 0.923336
Si Si2 0.043703 0.495526 0.801655
Si Si3 0.701873 0.500000 0.500000
Si Si4 0.451028 0.017716 0.546023
Si Si5 0.019228 0.750939 0.636981
Si Si6 0.453439 0.341136 0.655660
Si Si7 0.121035 0.912509 0.370033
Si Si8 0.757147 0.707373 0.425851
O O1 0.470522 0.600900 0.966711
O O2 0.407312 0.866872 0.942394
O O3 0.713148 0.714971 0.890568
O O4 0.208106 0.679722 0.893234
O O5 0.304397 0.405186 0.816077
O O6 0.000000 0.480856 0.750000
O O7 0.030390 0.665488 0.817464
O O8 0.798331 0.428985 0.828027
O O9 0.860508 0.597423 0.463623
O O10 0.310838 0.000000 0.500000
O O11 0.250165 0.044354 0.584245
O O12 0.643083 0.155809 0.546880
O O13 0.006303 0.929410 0.645308
O O14 0.350382 0.169422 0.658096
O O15 0.526593 0.365738 0.604106
O O16 0.923362 0.784245 0.386654
#
# Coordination Sequence:
#
# PCOD9310843 Si02
#       8
#     4   4   2   4   4   4   4   4
#     4  11  24  40  62  95 134 184 225 285 332 395
#     4  12  25  46  76 103 136 171 219 282 358 430
#     4  12  24  36  60  98 140 178 240 284 328 388
#     4  10  20  38  57  89 131 183 239 283 324 378
#     4  11  24  45  69  97 131 179 233 278 346 414
#     4  11  24  46  71 102 140 179 223 277 354 424
#     4  10  23  41  72  93 137 190 232 280 344 416
#     4  11  21  41  62  96 136 185 232 281 335 397
#
# _framework density 21.458563999999999
#
# number of rings (size 3 to 8) (size 9 to 14) (size 15 to 20)
#    0.000    1.067    4.000    2.800    0.000    3.200 
#    0.000    0.667    0.000    0.000    0.000    0.000 
#    0.000    0.000    0.000    0.000    0.000    0.000 
#
# Total GULP energy -167125.921044 kJ/mol
# GULP energy per Si atom -5570.864035 kJ/mol
# Density = 2.140972 g / cm^3
# Si number density = 21.458564 Si / 1000 Ang^3
#
#
#
# Elastic Constant Matrix: (Units=GPa)
#
#
# Indices 1 2 3 4 5 6 
#
# 1 93.4703 30.6881 7.6744 0.0000 0.0000 0.0000
# 2 30.6881 119.7311 56.4982 0.0000 0.0000 0.0000
# 3 7.6744 56.4982 51.4338 0.0000 0.0000 0.0000
# 4 0.0000 0.0000 0.0000 16.8614 0.0000 0.0000
# 5 0.0000 0.0000 0.0000 0.0000 68.6841 0.0000
# 6 0.0000 0.0000 0.0000 0.0000 0.0000 18.9321
#
#
#
# Elastic Compliance Matrix: (Units=1/GPa)
#
#
# Indices 1 2 3 4 5 6 
#
# 1 0.011942 -0.004609 0.003281 0.000000 0.000000 0.000000
# 2 -0.004609 0.019119 -0.020314 0.000000 0.000000 0.000000
# 3 0.003281 -0.020314 0.041267 0.000000 0.000000 0.000000
# 4 0.000000 0.000000 0.000000 0.059307 0.000000 0.000000
# 5 0.000000 0.000000 0.000000 0.000000 0.014559 0.000000
# 6 0.000000 0.000000 0.000000 0.000000 0.000000 0.052820
#
#
# Mechanical properties :
#
#
# Convention : Reuss Voigt Hill
#
# Bulk Modulus (GPa) = 34.42977 50.48405 42.45691
# Shear Modulus (GPa) = 19.84279 32.21383 26.02831
#
# Velocity S-wave (km/s) = 3.04419 3.87875 3.48653
# Velocity P-wave (km/s) = 5.33252 6.60583 6.00303
#
# Compressibility (1/GPa) = 0.02904463
#
# Stress axis : x y z
#
# Youngs Moduli (GPa) = 83.73456 52.30385 24.23248
#
# Poissons Ratio (x) = 0.24108 -0.07951
# Poissons Ratio (y) = 0.38596 0.49225
# Poissons Ratio (z) = -0.27475 1.06249
#
# Static dielectric constant tensor:
#      x y z
#    x 1.876370 0.000000 0.000000 
#    y 0.000000 1.866830 0.000000 
#    z 0.000000 0.000000 1.749870 
# 
# From -- ./inp_files/11159.got.cif
#   From: 2010.05.17/outbox.cif.g08.bks.cpg/sg17_6_cif.got.tgz:11159.got - 2010.06.03 22:34:06.
