data_PCOD9310878
_publ_section_title
;
Structure prediction by ZEFSAII (Michael W. Deem and Ramdas Pophale) SiO2 
 PCOD9310878
Probable space group: P 2 2 21
;
_chemical_formula_sum "Si O2"
_cell_formula_units_Z 16
_cell_length_a 7.607480
_cell_length_b 9.839679
_cell_length_c 8.587064
_cell_angle_alpha 90.000000
_cell_angle_beta 90.000000
_cell_angle_gamma 90.000000
_cell_volume 642.786060
_symmetry_space_group_name_H-M "P 2 2 21"
_symmetry_group_IT_number 17
_symmetry_cell_setting 'orthorhombic'
loop_
_space_group_symop_operation_xyz
x,y,z
-x,-y,1/2+z
x,-y,-z
-x,y,1/2-z
loop_
_atom_site_type_symbol
_atom_site_label
_atom_site_fract_x
_atom_site_fract_y
_atom_site_fract_z
Si Si1 0.808102 0.359469 0.944794
Si Si2 0.836827 0.917623 0.352151
Si Si3 0.212810 0.635781 0.075859
Si Si4 0.377256 0.112504 0.381002
O O1 0.014265 0.355103 0.992856
O O2 0.717171 0.227799 0.017759
O O3 0.726172 0.500000 0.000000
O O4 0.795228 0.379949 0.760560
O O5 0.723462 0.792881 0.425487
O O6 0.000000 0.861289 0.250000
O O7 0.905921 0.000000 0.500000
O O8 0.743742 0.018502 0.231707
O O9 0.293535 0.500000 0.000000
O O10 0.500000 0.179586 0.250000
O O11 0.455603 0.000000 0.500000
#
# Coordination Sequence:
#
# PCOD9310878 Si02
#       4
#     4   4   4   4
#     4  10  21  41  68 101 141 180 234 295 359 433
#     4  12  23  40  68 105 140 185 241 302 359 425
#     4  10  20  38  66 106 142 176 225 302 364 416
#     4  12  25  47  70 100 143 195 243 297 360 435
#
# _framework density 24.891642000000001
#
# number of rings (size 3 to 8) (size 9 to 14) (size 15 to 20)
#    0.000    1.000    5.000    3.000    3.500    0.000 
#    0.000    1.250    0.000    0.000    0.000    0.000 
#    0.000    0.000    0.000    0.000    0.000    0.000 
#
# Total GULP energy -89316.234261 kJ/mol
# GULP energy per Si atom -5582.264641 kJ/mol
# Density = 2.483499 g / cm^3
# Si number density = 24.891642 Si / 1000 Ang^3
#
#
#
# Elastic Constant Matrix: (Units=GPa)
#
#
# Indices 1 2 3 4 5 6 
#
# 1 46.9359 32.0963 24.8279 0.0000 0.0000 0.0000
# 2 32.0963 218.3417 68.9083 0.0000 0.0000 0.0000
# 3 24.8279 68.9083 130.8229 0.0000 0.0000 0.0000
# 4 0.0000 0.0000 0.0000 69.4069 0.0000 0.0000
# 5 0.0000 0.0000 0.0000 0.0000 15.1994 0.0000
# 6 0.0000 0.0000 0.0000 0.0000 0.0000 7.7219
#
#
#
# Elastic Compliance Matrix: (Units=1/GPa)
#
#
# Indices 1 2 3 4 5 6 
#
# 1 0.024853 -0.002596 -0.003349 0.000000 0.000000 0.000000
# 2 -0.002596 0.005764 -0.002544 0.000000 0.000000 0.000000
# 3 -0.003349 -0.002544 0.009619 0.000000 0.000000 0.000000
# 4 0.000000 0.000000 0.000000 0.014408 0.000000 0.000000
# 5 0.000000 0.000000 0.000000 0.000000 0.065792 0.000000
# 6 0.000000 0.000000 0.000000 0.000000 0.000000 0.129502
#
#
# Mechanical properties :
#
#
# Convention : Reuss Voigt Hill
#
# Bulk Modulus (GPa) = 42.99509 71.97394 57.48452
# Shear Modulus (GPa) = 18.20375 36.48349 27.34362
#
# Velocity S-wave (km/s) = 2.70723 3.83259 3.31797
# Velocity P-wave (km/s) = 5.20408 6.96869 6.15001
#
# Compressibility (1/GPa) = 0.02325847
#
# Stress axis : x y z
#
# Youngs Moduli (GPa) = 40.23705 173.47920 103.95813
#
# Poissons Ratio (x) = 0.45042 0.34816
# Poissons Ratio (y) = 0.10447 0.26442
# Poissons Ratio (z) = 0.13475 0.44125
#
# Static dielectric constant tensor:
#      x y z
#    x 2.084380 0.000000 0.000000 
#    y 0.000000 2.072970 0.000000 
#    z 0.000000 0.000000 2.103540 
# 
# From -- ./inp_files/1201.got.cif
#   From: 2010.05.17/outbox.cif.g08.bks.cpg/sg17_1_cif.got.tgz:1201.got - 2010.06.03 22:34:06.
