data_PCOD9310662
_publ_section_title
;
Structure prediction by ZEFSAII (Michael W. Deem and Ramdas Pophale) SiO2 
 PCOD9310662
Probable space group: P 2 2 21
;
_chemical_formula_sum "Si O2"
_cell_formula_units_Z 30
_cell_length_a 8.680011
_cell_length_b 5.231490
_cell_length_c 30.624280
_cell_angle_alpha 90.000000
_cell_angle_beta 90.000000
_cell_angle_gamma 90.000000
_cell_volume 1390.629897
_symmetry_space_group_name_H-M "P 2 2 21"
_symmetry_group_IT_number 17
_symmetry_cell_setting 'orthorhombic'
loop_
_space_group_symop_operation_xyz
x,y,z
-x,-y,1/2+z
x,-y,-z
-x,y,1/2-z
loop_
_atom_site_type_symbol
_atom_site_label
_atom_site_fract_x
_atom_site_fract_y
_atom_site_fract_z
Si Si1 0.354165 0.022680 0.345032
Si Si2 0.081229 0.000000 0.500000
Si Si3 0.509777 0.494458 0.801855
Si Si4 0.065524 0.255238 0.618773
Si Si5 0.437203 0.871519 0.081110
Si Si6 0.725893 0.628607 0.047008
Si Si7 0.850716 0.117191 0.436643
Si Si8 0.774714 0.517082 0.360376
O O1 0.428598 0.778319 0.319839
O O2 0.450453 0.049936 0.390343
O O3 0.182771 0.936567 0.357876
O O4 0.377001 0.281305 0.318451
O O5 0.960029 0.804777 0.522940
O O6 0.199372 0.096307 0.536358
O O7 0.500000 0.486644 0.750000
O O8 0.340878 0.564543 0.822068
O O9 0.950910 0.108954 0.585484
O O10 0.944553 0.383137 0.651984
O O11 0.172512 0.447242 0.589409
O O12 0.549181 0.666648 0.059014
O O13 0.318107 0.016802 0.050321
O O14 0.328158 0.731041 0.115725
O O15 0.743625 0.500000 0.000000
O O16 0.814493 0.314935 0.398326
#
# Coordination Sequence:
#
# PCOD9310662 Si02
#       8
#     4   2   4   4   4   4   4   4
#     4  10  21  41  63  95 122 164 211 253 314 382
#     4  10  22  32  50  80 112 154 200 258 314 360
#     4  11  23  41  68  93 129 163 208 263 320 383
#     4   9  21  37  61  85 121 162 211 255 319 383
#     4   9  20  35  54  83 110 157 205 254 302 384
#     4  10  20  36  51  80 117 155 209 262 318 359
#     4  10  19  36  56  82 117 156 202 257 314 375
#     4  10  20  37  62  83 114 162 205 249 320 384
#
# _framework density 21.572956000000001
#
# number of rings (size 3 to 8) (size 9 to 14) (size 15 to 20)
#    0.000    2.133    1.333    1.200    1.867    2.667 
#    7.200    2.000    0.000    0.000    0.000    0.000 
#    0.000    0.000    0.000    0.000    0.000    0.000 
#
# Total GULP energy -167136.162055 kJ/mol
# GULP energy per Si atom -5571.205402 kJ/mol
# Density = 2.152386 g / cm^3
# Si number density = 21.572956 Si / 1000 Ang^3
#
#
#
# Elastic Constant Matrix: (Units=GPa)
#
#
# Indices 1 2 3 4 5 6 
#
# 1 155.4263 12.4866 36.8675 0.0000 0.0000 0.0000
# 2 12.4866 39.7617 4.5386 0.0000 0.0000 0.0000
# 3 36.8675 4.5386 78.9767 0.0000 0.0000 0.0000
# 4 0.0000 0.0000 0.0000 23.0648 0.0000 0.0000
# 5 0.0000 0.0000 0.0000 0.0000 22.2971 0.0000
# 6 0.0000 0.0000 0.0000 0.0000 0.0000 16.4466
#
#
#
# Elastic Compliance Matrix: (Units=1/GPa)
#
#
# Indices 1 2 3 4 5 6 
#
# 1 0.007380 -0.001937 -0.003334 0.000000 0.000000 0.000000
# 2 -0.001937 0.025824 -0.000580 0.000000 0.000000 0.000000
# 3 -0.003334 -0.000580 0.014252 0.000000 0.000000 0.000000
# 4 0.000000 0.000000 0.000000 0.043356 0.000000 0.000000
# 5 0.000000 0.000000 0.000000 0.000000 0.044849 0.000000
# 6 0.000000 0.000000 0.000000 0.000000 0.000000 0.060803
#
#
# Mechanical properties :
#
#
# Convention : Reuss Voigt Hill
#
# Bulk Modulus (GPa) = 27.96845 42.43891 35.20368
# Shear Modulus (GPa) = 22.71861 27.04652 24.88256
#
# Velocity S-wave (km/s) = 3.24868 3.54464 3.39988
# Velocity P-wave (km/s) = 5.20237 6.03884 5.63614
#
# Compressibility (1/GPa) = 0.03575458
#
# Stress axis : x y z
#
# Youngs Moduli (GPa) = 135.49479 38.72318 70.16754
#
# Poissons Ratio (x) = 0.07501 0.23393
# Poissons Ratio (y) = 0.26247 0.04068
# Poissons Ratio (z) = 0.45173 0.02245
#
# Static dielectric constant tensor:
#      x y z
#    x 1.819160 0.000000 0.000000 
#    y 0.000000 1.894430 0.000000 
#    z 0.000000 0.000000 1.851930 
# 
# From -- ./inp_files/11164.got.cif
#   From: 2010.05.17/outbox.cif.g08.bks.cpg/sg17_6_cif.got.tgz:11164.got - 2010.06.03 22:34:06.
