data_PCOD9310663
_publ_section_title
;
Structure prediction by ZEFSAII (Michael W. Deem and Ramdas Pophale) SiO2 
 PCOD9310663
Probable space group: P 2 2 21
;
_chemical_formula_sum "Si O2"
_cell_formula_units_Z 32
_cell_length_a 5.466560
_cell_length_b 17.353152
_cell_length_c 13.944743
_cell_angle_alpha 90.000000
_cell_angle_beta 90.000000
_cell_angle_gamma 90.000000
_cell_volume 1322.826860
_symmetry_space_group_name_H-M "P 2 2 21"
_symmetry_group_IT_number 17
_symmetry_cell_setting 'orthorhombic'
loop_
_space_group_symop_operation_xyz
x,y,z
-x,-y,1/2+z
x,-y,-z
-x,y,1/2-z
loop_
_atom_site_type_symbol
_atom_site_label
_atom_site_fract_x
_atom_site_fract_y
_atom_site_fract_z
Si Si1 0.685698 0.296312 0.519331
Si Si2 0.017859 0.050071 0.596597
Si Si3 0.881632 0.515325 0.885020
Si Si4 0.625635 0.333235 0.150616
Si Si5 0.683220 0.083147 0.339557
Si Si6 0.629771 0.454230 0.602998
Si Si7 0.010878 0.233445 0.355879
Si Si8 0.521012 0.870935 0.451318
O O1 0.556920 0.344446 0.435241
O O2 0.707072 0.364160 0.595976
O O3 0.525903 0.222180 0.549775
O O4 0.916216 0.264221 0.458431
O O5 0.285460 0.091598 0.603980
O O6 0.795563 0.110649 0.586535
O O7 0.042577 0.000000 0.500000
O O8 0.873480 0.987814 0.662026
O O9 0.834234 0.605071 0.867619
O O10 0.639805 0.468061 0.855259
O O11 0.143871 0.493715 0.843750
O O12 0.900511 0.500000 0.000000
O O13 0.500000 0.346049 0.250000
O O14 0.699176 0.242943 0.138003
O O15 0.500000 0.079862 0.250000
O O16 0.534851 0.090964 0.440859
O O17 0.858646 0.157402 0.339569
O O18 0.614943 0.500000 0.500000
O O19 0.000000 0.274832 0.250000
#
# Coordination Sequence:
#
# PCOD9310663 Si02
#       8
#     4   4   4   4   4   4   4   4
#     4  11  23  36  59  86 125 174 222 267 333 399
#     4  10  21  43  59  87 125 176 222 281 322 391
#     4  10  20  36  58  77 118 168 221 263 306 365
#     4  12  24  38  54  89 135 183 216 266 337 411
#     4  10  24  41  65  93 130 184 235 279 345 420
#     4  10  19  36  56  83 112 162 216 271 300 366
#     4  11  24  35  53  85 132 176 210 260 321 424
#     4  10  24  38  63  88 130 174 219 275 338 408
#
# _framework density 24.190619000000002
#
# number of rings (size 3 to 8) (size 9 to 14) (size 15 to 20)
#    0.000    1.500    3.750    2.625    8.750    1.000 
#    0.000    0.000    0.000    0.000    0.000    0.875 
#    0.000   12.000    0.000    2.750    0.000    0.000 
#
# Total GULP energy -178268.733658 kJ/mol
# GULP energy per Si atom -5570.897927 kJ/mol
# Density = 2.413556 g / cm^3
# Si number density = 24.190619 Si / 1000 Ang^3
#
#
#
# Elastic Constant Matrix: (Units=GPa)
#
#
# Indices 1 2 3 4 5 6 
#
# 1 124.5018 44.1819 26.6656 0.0000 0.0000 0.0000
# 2 44.1819 119.4063 26.5699 0.0000 0.0000 0.0000
# 3 26.6656 26.5699 33.6385 0.0000 0.0000 0.0000
# 4 0.0000 0.0000 0.0000 26.1907 0.0000 0.0000
# 5 0.0000 0.0000 0.0000 0.0000 31.4138 0.0000
# 6 0.0000 0.0000 0.0000 0.0000 0.0000 -82.1259
#
#
#
# Elastic Compliance Matrix: (Units=1/GPa)
#
#
# Indices 1 2 3 4 5 6 
#
# 1 0.010211 -0.002399 -0.006200 0.000000 0.000000 0.000000
# 2 -0.002399 0.010724 -0.006569 0.000000 0.000000 0.000000
# 3 -0.006200 -0.006569 0.039831 0.000000 0.000000 0.000000
# 4 0.000000 0.000000 0.000000 0.038182 0.000000 0.000000
# 5 0.000000 0.000000 0.000000 0.000000 0.031833 0.000000
# 6 0.000000 0.000000 0.000000 0.000000 0.000000 -0.012176
#
#
# Mechanical properties :
#
#
# Convention : Reuss Voigt Hill
#
# Bulk Modulus (GPa) = 32.86105 52.48681 42.67393
# Shear Modulus (GPa) = 31.43005 7.10433 19.26719
#
# Velocity S-wave (km/s) = 3.60844 1.71557 2.82525
# Velocity P-wave (km/s) = 5.56551 5.06641 5.32181
#
# Compressibility (1/GPa) = 0.03043117
#
# Stress axis : x y z
#
# Youngs Moduli (GPa) = 97.93274 93.24848 25.10597
#
# Poissons Ratio (x) = 0.22367 0.15565
# Poissons Ratio (y) = 0.23491 0.16492
# Poissons Ratio (z) = 0.60716 0.61256
#
# Static dielectric constant tensor:
#      x y z
#    x 2.057170 0.000000 0.000000 
#    y 0.000000 2.066400 0.000000 
#    z 0.000000 0.000000 2.023770 
# 
# From -- ./inp_files/7829.got.cif
#   From: 2010.05.17/outbox.cif.g08.bks.cpg/sg17_4_cif.got.tgz:7829.got - 2010.06.03 22:34:06.
