data_PCOD9310829
_publ_section_title
;
Structure prediction by ZEFSAII (Michael W. Deem and Ramdas Pophale) SiO2 
 PCOD9310829
Probable space group: P 2 2 21
;
_chemical_formula_sum "Si O2"
_cell_formula_units_Z 30
_cell_length_a 8.886269
_cell_length_b 14.815691
_cell_length_c 10.495168
_cell_angle_alpha 90.000000
_cell_angle_beta 90.000000
_cell_angle_gamma 90.000000
_cell_volume 1381.754101
_symmetry_space_group_name_H-M "P 2 2 21"
_symmetry_group_IT_number 17
_symmetry_cell_setting 'orthorhombic'
loop_
_space_group_symop_operation_xyz
x,y,z
-x,-y,1/2+z
x,-y,-z
-x,y,1/2-z
loop_
_atom_site_type_symbol
_atom_site_label
_atom_site_fract_x
_atom_site_fract_y
_atom_site_fract_z
Si Si1 0.672588 0.022712 0.797498
Si Si2 0.207747 0.636151 0.083596
Si Si3 0.105602 0.918479 0.078338
Si Si4 0.151325 0.454039 0.181265
Si Si5 0.000000 0.767312 0.250000
Si Si6 0.828046 0.725800 0.799176
Si Si7 0.654518 0.207117 0.438619
Si Si8 0.684381 0.148003 0.027022
O O1 0.500000 0.011597 0.750000
O O2 0.794310 0.035147 0.687736
O O3 0.716975 0.937727 0.883406
O O4 0.677865 0.112477 0.883493
O O5 0.249630 0.541345 0.148807
O O6 0.120189 0.698174 0.186312
O O7 0.121736 0.600453 0.953081
O O8 0.330950 0.701814 0.022620
O O9 0.996289 0.842527 0.135754
O O10 0.230262 0.865373 0.996550
O O11 0.032214 0.000000 0.000000
O O12 0.209954 0.379347 0.279781
O O13 0.000000 0.488113 0.250000
O O14 0.716524 0.774290 0.701207
O O15 0.794051 0.770338 0.934127
O O16 0.000000 0.737939 0.750000
O O17 0.485772 0.175437 0.441054
#
# Coordination Sequence:
#
# PCOD9310829 Si02
#       8
#     4   4   4   4   2   4   4   4
#     4  11  22  38  59  85 118 163 221 261 299 379
#     4   9  18  34  59  92 120 164 205 252 319 383
#     4  11  22  39  57  84 122 166 205 260 312 373
#     4   9  17  32  58  92 124 159 201 259 309 390
#     4  10  22  38  60  88 126 162 204 256 322 384
#     4  10  21  36  60  95 128 159 205 263 323 379
#     4  10  20  37  61  87 119 163 208 258 308 379
#     4  11  22  38  63  89 120 167 215 260 319 377
#
# _framework density 21.711531999999998
#
# number of rings (size 3 to 8) (size 9 to 14) (size 15 to 20)
#    0.000    1.867    2.000    2.800    0.000    4.267 
#    7.200    0.000    1.467    0.000   52.000    0.000 
#    0.000    0.000    0.000    0.000    0.000    0.000 
#
# Total GULP energy -167317.545774 kJ/mol
# GULP energy per Si atom -5577.251526 kJ/mol
# Density = 2.166212 g / cm^3
# Si number density = 21.711532 Si / 1000 Ang^3
#
#
#
# Elastic Constant Matrix: (Units=GPa)
#
#
# Indices 1 2 3 4 5 6 
#
# 1 63.7445 31.1539 15.2642 0.0000 0.0000 0.0000
# 2 31.1539 140.9890 54.2623 0.0000 0.0000 0.0000
# 3 15.2642 54.2623 71.2581 0.0000 0.0000 0.0000
# 4 0.0000 0.0000 0.0000 49.3956 0.0000 0.0000
# 5 0.0000 0.0000 0.0000 0.0000 30.8311 0.0000
# 6 0.0000 0.0000 0.0000 0.0000 0.0000 15.2366
#
#
#
# Elastic Compliance Matrix: (Units=1/GPa)
#
#
# Indices 1 2 3 4 5 6 
#
# 1 0.017653 -0.003459 -0.001147 0.000000 0.000000 0.000000
# 2 -0.003459 0.010711 -0.007415 0.000000 0.000000 0.000000
# 3 -0.001147 -0.007415 0.019926 0.000000 0.000000 0.000000
# 4 0.000000 0.000000 0.000000 0.020245 0.000000 0.000000
# 5 0.000000 0.000000 0.000000 0.000000 0.032435 0.000000
# 6 0.000000 0.000000 0.000000 0.000000 0.000000 0.065631
#
#
# Mechanical properties :
#
#
# Convention : Reuss Voigt Hill
#
# Bulk Modulus (GPa) = 41.24343 53.03916 47.14129
# Shear Modulus (GPa) = 25.16018 30.78008 27.97013
#
# Velocity S-wave (km/s) = 3.40787 3.76930 3.59313
# Velocity P-wave (km/s) = 5.87555 6.58981 6.24290
#
# Compressibility (1/GPa) = 0.02424629
#
# Stress axis : x y z
#
# Youngs Moduli (GPa) = 56.64768 93.36156 50.18575
#
# Poissons Ratio (x) = 0.32295 0.05758
# Poissons Ratio (y) = 0.19595 0.37215
# Poissons Ratio (z) = 0.06500 0.69231
#
# Static dielectric constant tensor:
#      x y z
#    x 1.759930 0.000000 0.000000 
#    y 0.000000 1.818260 0.000000 
#    z 0.000000 0.000000 1.863180 
# 
# From -- ./inp_files/6690.got.cif
#   From: 2010.05.17/outbox.cif.g08.bks.cpg/sg17_4_cif.got.tgz:6690.got - 2010.06.03 22:34:06.
