data_PCOD9310614
_publ_section_title
;
Structure prediction by ZEFSAII (Michael W. Deem and Ramdas Pophale) SiO2 
 PCOD9310614
Probable space group: P 2 2 21
;
_chemical_formula_sum "Si O2"
_cell_formula_units_Z 32
_cell_length_a 21.925137
_cell_length_b 14.867446
_cell_length_c 5.298704
_cell_angle_alpha 90.000000
_cell_angle_beta 90.000000
_cell_angle_gamma 90.000000
_cell_volume 1727.222731
_symmetry_space_group_name_H-M "P 2 2 21"
_symmetry_group_IT_number 17
_symmetry_cell_setting 'orthorhombic'
loop_
_space_group_symop_operation_xyz
x,y,z
-x,-y,1/2+z
x,-y,-z
-x,y,1/2-z
loop_
_atom_site_type_symbol
_atom_site_label
_atom_site_fract_x
_atom_site_fract_y
_atom_site_fract_z
Si Si1 0.649352 0.227781 0.367966
Si Si2 0.569263 0.059402 0.250625
Si Si3 0.250007 0.556261 0.245579
Si Si4 0.939505 0.396565 0.090932
Si Si5 0.332412 0.726132 0.368826
Si Si6 0.128736 0.346227 0.906342
Si Si7 0.791387 0.175730 0.437729
Si Si8 0.755603 0.899611 0.064868
O O1 0.618901 0.135907 0.281609
O O2 0.623163 0.255318 0.637457
O O3 0.722727 0.218124 0.411516
O O4 0.639554 0.295259 0.139109
O O5 0.500000 0.096198 0.250000
O O6 0.574690 0.000000 0.500000
O O7 0.577698 0.000000 0.000000
O O8 0.252746 0.500000 0.500000
O O9 0.289312 0.645270 0.289092
O O10 0.181544 0.589810 0.198863
O O11 0.269526 0.500000 0.000000
O O12 0.891685 0.385241 0.321043
O O13 0.000000 0.368267 0.250000
O O14 0.947035 0.500000 0.000000
O O15 0.919800 0.345644 0.829242
O O16 0.294924 0.820143 0.411211
O O17 0.160422 0.250780 0.974969
O O18 0.786759 0.103392 0.661693
O O19 0.799844 0.132370 0.162299
O O20 0.732995 0.000000 0.000000
#
# Coordination Sequence:
#
# PCOD9310614 Si02
#       8
#     4   4   4   4   4   4   4   4
#     4  10  19  33  53  70 113 154 183 241 298 321
#     4  10  21  36  54  83 119 160 213 251 284 358
#     4  12  23  34  55  80 112 156 191 225 298 359
#     4  12  25  40  57  83 115 155 204 244 279 355
#     4  10  21  35  49  80 114 147 193 247 273 362
#     4  12  22  39  57  80 116 158 194 239 290 344
#     4  10  21  34  52  79 114 147 192 246 279 355
#     4  10  19  33  51  73 111 152 181 226 289 347
#
# _framework density 18.526852999999999
#
# number of rings (size 3 to 8) (size 9 to 14) (size 15 to 20)
#    0.000    1.250    2.500    6.000    3.500    6.000 
#    0.000    0.000    0.000    0.000    0.000    0.000 
#    0.000   38.000    0.000    0.000    0.000    0.000 
#
# Total GULP energy -178281.261274 kJ/mol
# GULP energy per Si atom -5571.289415 kJ/mol
# Density = 1.848468 g / cm^3
# Si number density = 18.526853 Si / 1000 Ang^3
#
#
#
# Elastic Constant Matrix: (Units=GPa)
#
#
# Indices 1 2 3 4 5 6 
#
# 1 40.6325 21.5371 22.6295 0.0000 0.0000 0.0000
# 2 21.5371 75.7866 33.8842 0.0000 0.0000 0.0000
# 3 22.6295 33.8842 190.1164 0.0000 0.0000 0.0000
# 4 0.0000 0.0000 0.0000 29.0887 0.0000 0.0000
# 5 0.0000 0.0000 0.0000 0.0000 -696.3639 0.0000
# 6 0.0000 0.0000 0.0000 0.0000 0.0000 29.9588
#
#
#
# Elastic Compliance Matrix: (Units=1/GPa)
#
#
# Indices 1 2 3 4 5 6 
#
# 1 0.029810 -0.007481 -0.002215 0.000000 0.000000 0.000000
# 2 -0.007481 0.016215 -0.001999 0.000000 0.000000 0.000000
# 3 -0.002215 -0.001999 0.005880 0.000000 0.000000 0.000000
# 4 0.000000 0.000000 0.000000 0.034378 0.000000 0.000000
# 5 0.000000 0.000000 0.000000 0.000000 -0.001436 0.000000
# 6 0.000000 0.000000 0.000000 0.000000 0.000000 0.033379
#
#
# Mechanical properties :
#
#
# Convention : Reuss Voigt Hill
#
# Bulk Modulus (GPa) = 35.07093 51.40412 43.23753
# Shear Modulus (GPa) = 33.08615 -112.23095 -39.57240
#
# Velocity S-wave (km/s) = 4.23051 -7.79160 -4.62665
# Velocity P-wave (km/s) = 6.54476 7.28967 2.26996
#
# Compressibility (1/GPa) = 0.02851364
#
# Stress axis : x y z
#
# Youngs Moduli (GPa) = 33.54614 61.67175 170.06972
#
# Poissons Ratio (x) = 0.46137 0.37669
# Poissons Ratio (y) = 0.25096 0.34005
# Poissons Ratio (z) = 0.07430 0.12331
#
# Static dielectric constant tensor:
#      x y z
#    x 1.688790 0.000000 0.000000 
#    y 0.000000 3.331290 0.000000 
#    z 0.000000 0.000000 1.754690 
# 
# From -- ./inp_files/2724.got.cif
#   From: 2010.05.17/outbox.cif.g08.bks.cpg/sg17_2_cif.got.tgz:2724.got - 2010.06.03 22:34:06.
