data_PCOD9310464
_publ_section_title
;
Structure prediction by ZEFSAII (Michael W. Deem and Ramdas Pophale) SiO2 
 PCOD9310464
Probable space group: P 2 2 21
;
_chemical_formula_sum "Si O2"
_cell_formula_units_Z 22
_cell_length_a 11.418674
_cell_length_b 9.149332
_cell_length_c 9.473282
_cell_angle_alpha 90.000000
_cell_angle_beta 90.000000
_cell_angle_gamma 90.000000
_cell_volume 989.704459
_symmetry_space_group_name_H-M "P 2 2 21"
_symmetry_group_IT_number 17
_symmetry_cell_setting 'orthorhombic'
loop_
_space_group_symop_operation_xyz
x,y,z
-x,-y,1/2+z
x,-y,-z
-x,y,1/2-z
loop_
_atom_site_type_symbol
_atom_site_label
_atom_site_fract_x
_atom_site_fract_y
_atom_site_fract_z
Si Si1 0.683168 0.500000 0.500000
Si Si2 0.066959 0.169182 0.029383
Si Si3 0.795472 0.723947 0.300975
Si Si4 0.296366 0.741831 0.798204
Si Si5 0.797919 0.176125 0.018728
Si Si6 0.406245 0.050529 0.853401
O O1 0.754392 0.573608 0.370913
O O2 0.631591 0.367082 0.403494
O O3 0.082669 0.243725 0.877143
O O4 0.932534 0.177960 0.073968
O O5 0.167506 0.237228 0.128848
O O6 0.092860 0.000000 0.000000
O O7 0.792861 0.750521 0.135325
O O8 0.702757 0.841663 0.364568
O O9 0.274168 0.725856 0.630840
O O10 0.357789 0.898883 0.796054
O O11 0.768518 0.000000 0.000000
O O12 0.500000 0.119727 0.750000
O O13 0.461423 0.000000 0.000000
#
# Coordination Sequence:
#
# PCOD9310464 Si02
#       6
#     2   4   4   4   4   4
#     4  10  24  42  68  78 136 194 190 244 332 382
#     4  10  17  35  61  92 129 173 206 264 313 364
#     4  11  21  42  61  95 129 168 208 257 319 373
#     4  11  21  42  61  95 129 168 208 257 319 373
#     4  11  21  32  65 103 126 158 223 268 306 356
#     4  12  24  42  71  93 120 156 217 273 315 370
#
# _framework density 22.228857000000001
#
# number of rings (size 3 to 8) (size 9 to 14) (size 15 to 20)
#    0.000    1.091    7.273    1.091    2.545    3.636 
#    0.000   15.455    0.000    0.000    0.000    0.000 
#    0.000    0.000    0.000    0.000    0.000    0.000 
#
# Total GULP energy -122470.835985 kJ/mol
# GULP energy per Si atom -5566.856181 kJ/mol
# Density = 2.217826 g / cm^3
# Si number density = 22.228857 Si / 1000 Ang^3
#
#
#
# Elastic Constant Matrix: (Units=GPa)
#
#
# Indices 1 2 3 4 5 6 
#
# 1 31.5416 -5.9253 -1.8178 0.0000 0.0000 0.0000
# 2 -5.9253 45.2920 -1.4112 0.0000 0.0000 0.0000
# 3 -1.8178 -1.4112 152.1263 0.0000 0.0000 0.0000
# 4 0.0000 0.0000 0.0000 34.2496 0.0000 0.0000
# 5 0.0000 0.0000 0.0000 0.0000 19.1547 0.0000
# 6 0.0000 0.0000 0.0000 0.0000 0.0000 -2.8644
#
#
#
# Elastic Compliance Matrix: (Units=1/GPa)
#
#
# Indices 1 2 3 4 5 6 
#
# 1 0.032531 0.004269 0.000428 0.000000 0.000000 0.000000
# 2 0.004269 0.022646 0.000261 0.000000 0.000000 0.000000
# 3 0.000428 0.000261 0.006581 0.000000 0.000000 0.000000
# 4 0.000000 0.000000 0.000000 0.029197 0.000000 0.000000
# 5 0.000000 0.000000 0.000000 0.000000 0.052206 0.000000
# 6 0.000000 0.000000 0.000000 0.000000 0.000000 -0.349115
#
#
# Mechanical properties :
#
#
# Convention : Reuss Voigt Hill
#
# Bulk Modulus (GPa) = 13.95195 23.40572 18.67884
# Shear Modulus (GPa) = -26.04443 25.98226 -0.03108
#
# Velocity S-wave (km/s) = -3.42665 3.42256 -0.11838
# Velocity P-wave (km/s) = 3.06036 5.11574 2.89871
#
# Compressibility (1/GPa) = 0.07167457
#
# Stress axis : x y z
#
# Youngs Moduli (GPa) = 30.74003 44.15874 151.95205
#
# Poissons Ratio (x) = -0.18852 -0.06508
# Poissons Ratio (y) = -0.13123 -0.03967
# Poissons Ratio (z) = -0.01317 -0.01153
#
# Static dielectric constant tensor:
#      x y z
#    x 1.822710 0.000000 0.000000 
#    y 0.000000 1.922120 0.000000 
#    z 0.000000 0.000000 1.901490 
# 
# From -- ./inp_files/5107.got.cif
#   From: 2010.05.17/outbox.cif.g08.bks.cpg/sg17_3_cif.got.tgz:5107.got - 2010.06.03 22:34:06.
