data_PCOD9310068
_publ_section_title
;
Structure prediction by ZEFSAII (Michael W. Deem and Ramdas Pophale) SiO2 
 PCOD9310068
Probable space group: P 2 2 2
;
_chemical_formula_sum "Si O2"
_cell_formula_units_Z 24
_cell_length_a 8.854986
_cell_length_b 10.718723
_cell_length_c 12.590098
_cell_angle_alpha 90.000000
_cell_angle_beta 90.000000
_cell_angle_gamma 90.000000
_cell_volume 1194.978351
_symmetry_space_group_name_H-M "P 2 2 2"
_symmetry_group_IT_number 16
_symmetry_cell_setting 'orthorhombic'
loop_
_space_group_symop_operation_xyz
x,y,z
-x,-y,z
x,-y,-z
-x,y,-z
loop_
_atom_site_type_symbol
_atom_site_label
_atom_site_fract_x
_atom_site_fract_y
_atom_site_fract_z
Si Si1 0.991769 0.354782 0.372322
Si Si2 0.236023 0.166873 0.373601
Si Si3 0.673150 0.335247 0.290657
Si Si4 0.000000 0.000000 0.500000
Si Si5 0.324522 0.537002 0.886278
Si Si6 0.500000 0.000000 0.000000
Si Si7 0.407733 0.810843 0.825347
Si Si8 0.500000 0.297244 0.500000
O O1 0.140007 0.285320 0.334137
O O2 0.000000 0.500000 0.345224
O O3 0.000000 0.346805 0.500000
O O4 0.836705 0.292319 0.332627
O O5 0.324344 0.119983 0.271156
O O6 0.363572 0.213554 0.455101
O O7 0.113073 0.079449 0.427218
O O8 0.715137 0.451677 0.214895
O O9 0.569102 0.239683 0.222456
O O10 0.573080 0.366013 0.396826
O O11 0.500000 0.500000 0.896195
O O12 0.324977 0.683967 0.863457
O O13 0.251777 0.500000 0.000000
O O14 0.584940 0.094392 0.921915
#
# Coordination Sequence:
#
# PCOD9310068 Si02
#       8
#     4   4   4   1   4   1   4   2
#     4  11  21  37  58  91 135 173 198 245 317 396
#     4  11  23  41  61  90 123 173 209 255 311 385
#     4  10  19  36  62  94 130 166 204 258 320 395
#     4  12  24  42  62  86 132 174 208 254 308 376
#     4   9  17  35  60  90 121 158 205 263 322 380
#     4  12  24  44  66  92 116 156 220 304 324 350
#     4  10  23  39  63  90 118 160 216 268 323 372
#     4  10  20  37  59  96 134 159 213 252 316 396
#
# _framework density 20.084047000000002
#
# number of rings (size 3 to 8) (size 9 to 14) (size 15 to 20)
#    0.000    1.667    2.500    3.000    0.000    5.667 
#    0.000    1.667    0.000   15.000    0.000    0.000 
#    0.000    0.000    0.000    0.000    0.000    0.000 
#
# Total GULP energy -133767.101845 kJ/mol
# GULP energy per Si atom -5573.629244 kJ/mol
# Density = 2.003833 g / cm^3
# Si number density = 20.084047 Si / 1000 Ang^3
#
#
#
# Elastic Constant Matrix: (Units=GPa)
#
#
# Indices 1 2 3 4 5 6 
#
# 1 114.5507 38.0787 53.9494 0.0000 0.0000 0.0000
# 2 38.0787 92.7462 61.7982 0.0000 0.0000 0.0000
# 3 53.9494 61.7982 156.0434 0.0000 0.0000 0.0000
# 4 0.0000 0.0000 0.0000 4.1855 0.0000 0.0000
# 5 0.0000 0.0000 0.0000 0.0000 9.8081 0.0000
# 6 0.0000 0.0000 0.0000 0.0000 0.0000 7.6005
#
#
#
# Elastic Compliance Matrix: (Units=1/GPa)
#
#
# Indices 1 2 3 4 5 6 
#
# 1 0.010892 -0.002666 -0.002710 0.000000 0.000000 0.000000
# 2 -0.002666 0.015300 -0.005137 0.000000 0.000000 0.000000
# 3 -0.002710 -0.005137 0.009380 0.000000 0.000000 0.000000
# 4 0.000000 0.000000 0.000000 0.238920 0.000000 0.000000
# 5 0.000000 0.000000 0.000000 0.000000 0.101956 0.000000
# 6 0.000000 0.000000 0.000000 0.000000 0.000000 0.131571
#
#
# Mechanical properties :
#
#
# Convention : Reuss Voigt Hill
#
# Bulk Modulus (GPa) = 68.75267 74.55478 71.65372
# Shear Modulus (GPa) = 9.36514 18.28641 13.82577
#
# Velocity S-wave (km/s) = 2.16173 3.02071 2.62658
# Velocity P-wave (km/s) = 6.36691 7.02626 6.70469
#
# Compressibility (1/GPa) = 0.01454489
#
# Stress axis : x y z
#
# Youngs Moduli (GPa) = 91.80726 65.35938 106.61035
#
# Poissons Ratio (x) = 0.17428 0.28890
# Poissons Ratio (y) = 0.24480 0.54770
# Poissons Ratio (z) = 0.24879 0.33578
#
# Static dielectric constant tensor:
#      x y z
#    x 1.759070 0.000000 0.000000 
#    y 0.000000 1.793090 0.000000 
#    z 0.000000 0.000000 1.829670 
# 
# From -- ./inp_files/4755.got.cif
#   From: 2010.05.17/outbox.cif.g08.bks.cpg/sg16_3_cif.got.tgz:4755.got - 2010.06.03 22:28:35.
