data_PCOD9310292
_publ_section_title
;
Structure prediction by ZEFSAII (Michael W. Deem and Ramdas Pophale) SiO2 
 PCOD9310292
Probable space group: P 2 2 2
;
_chemical_formula_sum "Si O2"
_cell_formula_units_Z 20
_cell_length_a 11.731972
_cell_length_b 15.630186
_cell_length_c 5.659194
_cell_angle_alpha 90.000000
_cell_angle_beta 90.000000
_cell_angle_gamma 90.000000
_cell_volume 1037.742841
_symmetry_space_group_name_H-M "P 2 2 2"
_symmetry_group_IT_number 16
_symmetry_cell_setting 'orthorhombic'
loop_
_space_group_symop_operation_xyz
x,y,z
-x,-y,z
x,-y,-z
-x,y,-z
loop_
_atom_site_type_symbol
_atom_site_label
_atom_site_fract_x
_atom_site_fract_y
_atom_site_fract_z
Si Si1 0.500000 0.500000 0.000000
Si Si2 0.000000 0.639117 0.500000
Si Si3 0.874505 0.912315 0.112251
Si Si4 0.000000 0.000000 0.500000
Si Si5 0.799565 0.424465 0.197974
Si Si6 0.190247 0.724785 0.829210
Si Si7 0.380356 0.618865 0.602427
O O1 0.422219 0.440565 0.174251
O O2 0.914467 0.580562 0.650301
O O3 0.920491 0.696812 0.326443
O O4 0.912004 0.937446 0.372470
O O5 0.810247 0.823708 0.103629
O O6 0.000000 0.899443 0.000000
O O7 0.825403 0.000000 0.000000
O O8 0.695444 0.422211 0.387611
O O9 0.801007 0.500000 0.000000
O O10 0.803791 0.335628 0.056901
O O11 0.301305 0.695420 0.687288
O O12 0.500000 0.647943 0.500000
#
# Coordination Sequence:
#
# PCOD9310292 Si02
#       7
#     1   2   4   1   4   4   4
#     4  12  26  48  70  88 120 158 232 286 324 390
#     4  10  23  41  59  87 138 178 211 257 319 391
#     4   9  18  33  59  90 127 170 208 261 316 380
#     4   8  16  32  58  90 126 170 212 256 314 372
#     4  11  26  43  62  94 126 175 216 262 326 386
#     4  11  23  39  62  94 131 171 216 266 324 391
#     4  11  27  42  69  90 120 168 222 285 327 373
#
# _framework density 19.272599
#
# number of rings (size 3 to 8) (size 9 to 14) (size 15 to 20)
#    0.000    1.800    0.000    3.900    8.400    9.600 
#    5.400    0.000    0.000    0.000    0.000   19.600 
#    0.000    0.000    0.000    0.000    0.000    0.000 
#
# Total GULP energy -111526.135247 kJ/mol
# GULP energy per Si atom -5576.306762 kJ/mol
# Density = 1.922873 g / cm^3
# Si number density = 19.272599 Si / 1000 Ang^3
#
#
#
# Elastic Constant Matrix: (Units=GPa)
#
#
# Indices 1 2 3 4 5 6 
#
# 1 140.9605 60.4985 48.5909 0.0000 0.0000 0.0000
# 2 60.4985 193.7079 69.4341 0.0000 0.0000 0.0000
# 3 48.5909 69.4341 101.5817 0.0000 0.0000 0.0000
# 4 0.0000 0.0000 0.0000 48.7142 0.0000 0.0000
# 5 0.0000 0.0000 0.0000 0.0000 30.3453 0.0000
# 6 0.0000 0.0000 0.0000 0.0000 0.0000 15.7654
#
#
#
# Elastic Compliance Matrix: (Units=1/GPa)
#
#
# Indices 1 2 3 4 5 6 
#
# 1 0.008879 -0.001657 -0.003115 0.000000 0.000000 0.000000
# 2 -0.001657 0.007147 -0.004093 0.000000 0.000000 0.000000
# 3 -0.003115 -0.004093 0.014132 0.000000 0.000000 0.000000
# 4 0.000000 0.000000 0.000000 0.020528 0.000000 0.000000
# 5 0.000000 0.000000 0.000000 0.000000 0.032954 0.000000
# 6 0.000000 0.000000 0.000000 0.000000 0.000000 0.063430
#
#
# Mechanical properties :
#
#
# Convention : Reuss Voigt Hill
#
# Bulk Modulus (GPa) = 80.45509 88.14412 84.29961
# Shear Modulus (GPa) = 29.59622 36.14676 32.87149
#
# Velocity S-wave (km/s) = 3.92301 4.33546 4.13438
# Velocity P-wave (km/s) = 7.89661 8.42000 8.16250
#
# Compressibility (1/GPa) = 0.01242929
#
# Stress axis : x y z
#
# Youngs Moduli (GPa) = 112.62690 139.92332 70.76283
#
# Poissons Ratio (x) = 0.23179 0.22042
# Poissons Ratio (y) = 0.18657 0.28961
# Poissons Ratio (z) = 0.35082 0.57266
#
# Static dielectric constant tensor:
#      x y z
#    x 1.686750 0.000000 0.000000 
#    y 0.000000 1.663180 0.000000 
#    z 0.000000 0.000000 1.862680 
# 
# From -- ./inp_files/1407.got.cif
#   From: 2010.05.17/outbox.cif.g08.bks.cpg/sg16_1_cif.got.tgz:1407.got - 2010.06.03 22:28:35.
