data_PCOD9310688
_publ_section_title
;
Structure prediction by ZEFSAII (Michael W. Deem and Ramdas Pophale) SiO2 
 PCOD9310688
Probable space group: P 2 2 21
;
_chemical_formula_sum "Si O2"
_cell_formula_units_Z 30
_cell_length_a 14.324157
_cell_length_b 9.166980
_cell_length_c 11.142590
_cell_angle_alpha 90.000000
_cell_angle_beta 90.000000
_cell_angle_gamma 90.000000
_cell_volume 1463.125256
_symmetry_space_group_name_H-M "P 2 2 21"
_symmetry_group_IT_number 17
_symmetry_cell_setting 'orthorhombic'
loop_
_space_group_symop_operation_xyz
x,y,z
-x,-y,1/2+z
x,-y,-z
-x,y,1/2-z
loop_
_atom_site_type_symbol
_atom_site_label
_atom_site_fract_x
_atom_site_fract_y
_atom_site_fract_z
Si Si1 0.380801 0.168707 0.124487
Si Si2 0.455563 0.000000 0.500000
Si Si3 0.799195 0.175901 0.505090
Si Si4 0.891084 0.831831 0.741960
Si Si5 0.712257 0.319643 0.149854
Si Si6 0.609249 0.882845 0.237096
Si Si7 0.267791 0.662708 0.374488
Si Si8 0.891181 0.816450 0.245363
O O1 0.305453 0.223610 0.029086
O O2 0.362509 0.263016 0.247605
O O3 0.357507 0.003535 0.169297
O O4 0.477624 0.130656 0.054364
O O5 0.389643 0.960402 0.390972
O O6 0.861653 0.216101 0.391412
O O7 0.842813 0.225847 0.628912
O O8 0.801179 0.000000 0.500000
O O9 0.810507 0.760431 0.823212
O O10 0.000000 0.793225 0.750000
O O11 0.883575 0.007112 0.763004
O O12 0.729861 0.492776 0.155740
O O13 0.691237 0.303461 0.007447
O O14 0.500000 0.850723 0.250000
O O15 0.669595 0.741831 0.225162
O O16 0.166021 0.735120 0.358625
O O17 0.000000 0.779676 0.250000
#
# Coordination Sequence:
#
# PCOD9310688 Si02
#       8
#     4   2   4   4   4   4   4   4
#     4  10  19  37  63  91 121 154 198 252 307 365
#     4  10  20  34  66  98 118 144 206 264 308 368
#     4   9  16  31  55  83 118 147 183 244 304 347
#     4   9  19  34  57  86 114 147 200 254 301 361
#     4  10  23  39  59  83 116 172 199 241 311 369
#     4  10  21  36  61  93 116 154 197 250 307 360
#     4  11  23  41  58  81 128 161 204 248 298 377
#     4  10  22  36  61  92 118 156 202 258 312 360
#
# _framework density 20.504052999999999
#
# number of rings (size 3 to 8) (size 9 to 14) (size 15 to 20)
#    0.000    2.133    0.667    3.200    3.733    2.133 
#    0.000    7.333    0.000    0.000    0.000    0.000 
#    0.000    0.000    0.000    0.000    0.000    0.000 
#
# Total GULP energy -167115.632817 kJ/mol
# GULP energy per Si atom -5570.521094 kJ/mol
# Density = 2.045738 g / cm^3
# Si number density = 20.504053 Si / 1000 Ang^3
#
#
#
# Elastic Constant Matrix: (Units=GPa)
#
#
# Indices 1 2 3 4 5 6 
#
# 1 54.9136 20.7930 9.3807 0.0000 0.0000 0.0000
# 2 20.7930 48.1266 23.5210 0.0000 0.0000 0.0000
# 3 9.3807 23.5210 90.2831 0.0000 0.0000 0.0000
# 4 0.0000 0.0000 0.0000 27.2485 0.0000 0.0000
# 5 0.0000 0.0000 0.0000 0.0000 31.0918 0.0000
# 6 0.0000 0.0000 0.0000 0.0000 0.0000 12.1256
#
#
#
# Elastic Compliance Matrix: (Units=1/GPa)
#
#
# Indices 1 2 3 4 5 6 
#
# 1 0.021776 -0.009514 0.000216 0.000000 0.000000 0.000000
# 2 -0.009514 0.027967 -0.006298 0.000000 0.000000 0.000000
# 3 0.000216 -0.006298 0.012694 0.000000 0.000000 0.000000
# 4 0.000000 0.000000 0.000000 0.036699 0.000000 0.000000
# 5 0.000000 0.000000 0.000000 0.000000 0.032163 0.000000
# 6 0.000000 0.000000 0.000000 0.000000 0.000000 0.082470
#
#
# Mechanical properties :
#
#
# Convention : Reuss Voigt Hill
#
# Bulk Modulus (GPa) = 32.00358 33.41252 32.70805
# Shear Modulus (GPa) = 19.57898 23.40173 21.49035
#
# Velocity S-wave (km/s) = 3.09347 3.38201 3.24095
# Velocity P-wave (km/s) = 5.32933 5.61975 5.47646
#
# Compressibility (1/GPa) = 0.03124650
#
# Stress axis : x y z
#
# Youngs Moduli (GPa) = 45.92226 35.75673 78.77430
#
# Poissons Ratio (x) = 0.34018 -0.01702
# Poissons Ratio (y) = 0.43690 0.49608
# Poissons Ratio (z) = -0.00992 0.22518
#
# Static dielectric constant tensor:
#      x y z
#    x 1.766020 0.000000 0.000000 
#    y 0.000000 1.722660 0.000000 
#    z 0.000000 0.000000 1.797650 
# 
# From -- ./inp_files/7280.got.cif
#   From: 2010.05.17/outbox.cif.g08.bks.cpg/sg17_4_cif.got.tgz:7280.got - 2010.06.03 22:34:06.
