data_PCOD9310317
_publ_section_title
;
Structure prediction by ZEFSAII (Michael W. Deem and Ramdas Pophale) SiO2 
 PCOD9310317
Probable space group: P 2 2 2
;
_chemical_formula_sum "Si O2"
_cell_formula_units_Z 15
_cell_length_a 11.321585
_cell_length_b 4.860954
_cell_length_c 11.648968
_cell_angle_alpha 90.000000
_cell_angle_beta 90.000000
_cell_angle_gamma 90.000000
_cell_volume 641.085856
_symmetry_space_group_name_H-M "P 2 2 2"
_symmetry_group_IT_number 16
_symmetry_cell_setting 'orthorhombic'
loop_
_space_group_symop_operation_xyz
x,y,z
-x,-y,z
x,-y,-z
-x,y,-z
loop_
_atom_site_type_symbol
_atom_site_label
_atom_site_fract_x
_atom_site_fract_y
_atom_site_fract_z
Si Si1 0.582489 0.242440 0.222809
Si Si2 0.167771 0.730596 0.309599
Si Si3 0.105381 0.782022 0.834922
Si Si4 0.289479 0.000000 0.000000
Si Si5 0.000000 0.500000 0.500000
O O1 0.500000 0.500000 0.201162
O O2 0.692545 0.319455 0.304510
O O3 0.635706 0.138344 0.101171
O O4 0.500000 0.000000 0.270274
O O5 0.111881 0.532610 0.210038
O O6 0.088476 0.671727 0.419412
O O7 0.153687 0.048206 0.274856
O O8 0.201324 0.793474 0.935260
O O9 0.000000 0.000000 0.868605
#
# Coordination Sequence:
#
# PCOD9310317 Si02
#       5
#     4   4   4   2   1
#     4  11  24  44  65  97 140 181 229 274 324 406
#     4  11  25  41  70  98 129 174 225 284 338 399
#     4  11  21  41  58 102 140 171 215 271 336 404
#     4  10  24  36  68  94 134 187 217 258 330 404
#     4  12  24  50  74 100 128 170 232 284 372 408
#
# _framework density 23.3978
#
# number of rings (size 3 to 8) (size 9 to 14) (size 15 to 20)
#    0.000    1.067    2.667    4.000    0.000   14.933 
#    0.000    6.000    0.000    4.800    0.000    0.000 
#    0.000    0.000    0.000    0.000    0.000    0.000 
#
# Total GULP energy -83724.220427 kJ/mol
# GULP energy per Si atom -5581.614695 kJ/mol
# Density = 2.334455 g / cm^3
# Si number density = 23.397800 Si / 1000 Ang^3
#
#
#
# Elastic Constant Matrix: (Units=GPa)
#
#
# Indices 1 2 3 4 5 6 
#
# 1 176.3165 28.1106 41.3957 0.0000 0.0000 0.0000
# 2 28.1106 130.5300 20.6850 0.0000 0.0000 0.0000
# 3 41.3957 20.6850 93.9377 0.0000 0.0000 0.0000
# 4 0.0000 0.0000 0.0000 9.2200 0.0000 0.0000
# 5 0.0000 0.0000 0.0000 0.0000 -48.7745 0.0000
# 6 0.0000 0.0000 0.0000 0.0000 0.0000 15.0677
#
#
#
# Elastic Compliance Matrix: (Units=1/GPa)
#
#
# Indices 1 2 3 4 5 6 
#
# 1 0.006443 -0.000971 -0.002625 0.000000 0.000000 0.000000
# 2 -0.000971 0.008085 -0.001352 0.000000 0.000000 0.000000
# 3 -0.002625 -0.001352 0.012100 0.000000 0.000000 0.000000
# 4 0.000000 0.000000 0.000000 0.108460 0.000000 0.000000
# 5 0.000000 0.000000 0.000000 0.000000 -0.020503 0.000000
# 6 0.000000 0.000000 0.000000 0.000000 0.000000 0.066367
#
#
# Mechanical properties :
#
#
# Convention : Reuss Voigt Hill
#
# Bulk Modulus (GPa) = 59.77408 64.57410 62.17409
# Shear Modulus (GPa) = 25.45483 15.80882 20.63183
#
# Velocity S-wave (km/s) = 3.30193 2.60216 2.97271
# Velocity P-wave (km/s) = 6.33556 6.05694 6.19782
#
# Compressibility (1/GPa) = 0.01672966
#
# Stress axis : x y z
#
# Youngs Moduli (GPa) = 155.21029 123.69258 82.64482
#
# Poissons Ratio (x) = 0.12017 0.21697
# Poissons Ratio (y) = 0.15079 0.11174
# Poissons Ratio (z) = 0.40747 0.16725
#
# Static dielectric constant tensor:
#      x y z
#    x 2.019150 0.000000 0.000000 
#    y 0.000000 1.907610 0.000000 
#    z 0.000000 0.000000 1.876610 
# 
# From -- ./inp_files/1183.got.cif
#   From: 2010.05.17/outbox.cif.g08.bks.cpg/sg16_1_cif.got.tgz:1183.got - 2010.06.03 22:28:35.
