data_PCOD9310207
_publ_section_title
;
Structure prediction by ZEFSAII (Michael W. Deem and Ramdas Pophale) SiO2 
 PCOD9310207
Probable space group: P 2 2 2
;
_chemical_formula_sum "Si O2"
_cell_formula_units_Z 30
_cell_length_a 13.679962
_cell_length_b 6.242494
_cell_length_c 19.395724
_cell_angle_alpha 90.000000
_cell_angle_beta 90.000000
_cell_angle_gamma 90.000000
_cell_volume 1656.338208
_symmetry_space_group_name_H-M "P 2 2 2"
_symmetry_group_IT_number 16
_symmetry_cell_setting 'orthorhombic'
loop_
_space_group_symop_operation_xyz
x,y,z
-x,-y,z
x,-y,-z
-x,y,-z
loop_
_atom_site_type_symbol
_atom_site_label
_atom_site_fract_x
_atom_site_fract_y
_atom_site_fract_z
Si Si1 0.103105 0.608907 0.174874
Si Si2 0.892732 0.925442 0.698503
Si Si3 0.582745 0.167105 0.606002
Si Si4 0.770567 0.781888 0.200093
Si Si5 0.545616 0.750575 0.234481
Si Si6 0.117216 0.968486 0.080216
Si Si7 0.650481 0.500000 0.500000
Si Si8 0.232270 0.880746 0.431435
O O1 0.086194 0.768577 0.237888
O O2 0.186501 0.453847 0.200655
O O3 0.136981 0.729974 0.106573
O O4 0.000000 0.500000 0.159955
O O5 0.841286 0.836369 0.630602
O O6 0.819325 0.095892 0.734776
O O7 0.000000 0.000000 0.677206
O O8 0.559397 0.244732 0.682942
O O9 0.590232 0.361105 0.553754
O O10 0.500000 0.000000 0.584919
O O11 0.684271 0.038101 0.599032
O O12 0.653920 0.770883 0.202030
O O13 0.818254 0.886039 0.131143
O O14 0.500000 0.500000 0.218879
O O15 0.500000 0.000000 0.219834
O O16 0.000000 0.000000 0.092016
O O17 0.137026 0.000000 0.000000
O O18 0.716950 0.335070 0.457184
O O19 0.191496 0.000000 0.500000
#
# Coordination Sequence:
#
# PCOD9310207 Si02
#       8
#     4   4   4   4   4   4   2   4
#     4  11  20  35  61  99 127 166 213 253 325 396
#     4  11  22  38  63  86 121 163 213 270 326 395
#     4  10  23  39  58  86 117 156 207 264 339 400
#     4  11  22  40  65  93 131 169 210 267 328 389
#     4  11  27  44  66  99 129 169 226 283 334 391
#     4  10  21  38  61  99 141 171 206 256 319 394
#     4  10  24  39  56  83 118 160 206 269 335 410
#     4  10  23  40  56  81 116 163 211 269 333 392
#
# _framework density 18.112244
#
# number of rings (size 3 to 8) (size 9 to 14) (size 15 to 20)
#    0.000    1.467    4.000    0.800    9.333    3.733 
#    0.000    0.000    0.000    0.400    0.000    0.000 
#    0.000    0.000    0.000    0.000    0.000    0.000 
#
# Total GULP energy -167092.604791 kJ/mol
# GULP energy per Si atom -5569.753493 kJ/mol
# Density = 1.807102 g / cm^3
# Si number density = 18.112244 Si / 1000 Ang^3
#
#
#
# Elastic Constant Matrix: (Units=GPa)
#
#
# Indices 1 2 3 4 5 6 
#
# 1 82.2927 16.1732 25.1210 0.0000 0.0000 0.0000
# 2 16.1732 67.2888 15.3177 0.0000 0.0000 0.0000
# 3 25.1210 15.3177 89.0779 0.0000 0.0000 0.0000
# 4 0.0000 0.0000 0.0000 -17.6462 0.0000 0.0000
# 5 0.0000 0.0000 0.0000 0.0000 26.6743 0.0000
# 6 0.0000 0.0000 0.0000 0.0000 0.0000 23.5759
#
#
#
# Elastic Compliance Matrix: (Units=1/GPa)
#
#
# Indices 1 2 3 4 5 6 
#
# 1 0.013692 -0.002510 -0.003430 0.000000 0.000000 0.000000
# 2 -0.002510 0.015927 -0.002031 0.000000 0.000000 0.000000
# 3 -0.003430 -0.002031 0.012543 0.000000 0.000000 0.000000
# 4 0.000000 0.000000 0.000000 -0.056669 0.000000 0.000000
# 5 0.000000 0.000000 0.000000 0.000000 0.037489 0.000000
# 6 0.000000 0.000000 0.000000 0.000000 0.000000 0.042416
#
#
# Mechanical properties :
#
#
# Convention : Reuss Voigt Hill
#
# Bulk Modulus (GPa) = 38.13873 39.09815 38.61844
# Shear Modulus (GPa) = 55.50673 18.65729 37.08201
#
# Velocity S-wave (km/s) = 5.54189 3.21299 4.52967
# Velocity P-wave (km/s) = 7.87735 5.94961 6.98034
#
# Compressibility (1/GPa) = 0.02622007
#
# Stress axis : x y z
#
# Youngs Moduli (GPa) = 73.03512 62.78660 79.72858
#
# Poissons Ratio (x) = 0.15761 0.27344
# Poissons Ratio (y) = 0.18333 0.16192
# Poissons Ratio (z) = 0.25049 0.12751
#
# Static dielectric constant tensor:
#      x y z
#    x 1.674180 0.000000 0.000000 
#    y 0.000000 1.662230 0.000000 
#    z 0.000000 0.000000 1.600920 
# 
# From -- ./inp_files/9361.got.cif
#   From: 2010.05.17/outbox.cif.g08.bks.cpg/sg16_5_cif.got.tgz:9361.got - 2010.06.03 22:28:35.
