data_PCOD9310340
_publ_section_title
;
Structure prediction by ZEFSAII (Michael W. Deem and Ramdas Pophale) SiO2 
 PCOD9310340
Probable space group: P 2 2 2
;
_chemical_formula_sum "Si O2"
_cell_formula_units_Z 21
_cell_length_a 14.503771
_cell_length_b 4.855446
_cell_length_c 11.710840
_cell_angle_alpha 90.000000
_cell_angle_beta 90.000000
_cell_angle_gamma 90.000000
_cell_volume 824.704017
_symmetry_space_group_name_H-M "P 2 2 2"
_symmetry_group_IT_number 16
_symmetry_cell_setting 'orthorhombic'
loop_
_space_group_symop_operation_xyz
x,y,z
-x,-y,z
x,-y,-z
-x,y,-z
loop_
_atom_site_type_symbol
_atom_site_label
_atom_site_fract_x
_atom_site_fract_y
_atom_site_fract_z
Si Si1 0.361661 0.208636 0.662485
Si Si2 0.500000 0.000000 0.000000
Si Si3 0.363152 0.303913 0.177050
Si Si4 0.000000 0.500000 0.000000
Si Si5 0.933005 0.231687 0.663355
Si Si6 0.161140 0.822597 0.887674
Si Si7 0.500000 0.500000 0.500000
Si Si8 0.213350 0.500000 0.500000
O O1 0.380970 0.393878 0.774911
O O2 0.442200 0.295922 0.578613
O O3 0.274218 0.315278 0.588298
O O4 0.360410 0.901283 0.712429
O O5 0.566885 0.184098 0.917687
O O6 0.258415 0.320918 0.131676
O O7 0.929860 0.340111 0.921910
O O8 0.875609 0.076963 0.765965
O O9 0.853890 0.322227 0.577911
O O10 0.000000 0.500000 0.687213
O O11 0.000000 0.000000 0.619315
O O12 0.177413 0.000000 0.000000
#
# Coordination Sequence:
#
# PCOD9310340 Si02
#       8
#     4   1   4   1   4   4   1   2
#     4  11  27  49  78 113 154 204 254 327 386 485
#     4  12  28  54  84 122 152 214 256 350 406 488
#     4  12  28  49  80 114 162 197 265 323 411 470
#     4  12  26  48  80 110 156 216 270 320 410 468
#     4  12  28  49  74 112 158 208 267 332 396 474
#     4  12  27  49  76 113 157 215 264 338 399 490
#     4  10  24  50  82 112 146 198 262 310 396 462
#     4  11  27  49  77 110 160 210 265 323 399 465
#
# _framework density 25.463681000000001
#
# number of rings (size 3 to 8) (size 9 to 14) (size 15 to 20)
#    0.000    0.381    3.810    2.857    5.333    8.381 
#    0.000    0.000    0.000    0.000    0.000    0.000 
#    0.000    0.000    0.000    0.000    0.000    0.000 
#
# Total GULP energy -117558.182179 kJ/mol
# GULP energy per Si atom -5598.008675 kJ/mol
# Density = 2.540572 g / cm^3
# Si number density = 25.463681 Si / 1000 Ang^3
#
#
#
# Elastic Constant Matrix: (Units=GPa)
#
#
# Indices 1 2 3 4 5 6 
#
# 1 155.5079 4.7814 48.5036 0.0000 0.0000 0.0000
# 2 4.7814 67.4978 8.0215 0.0000 0.0000 0.0000
# 3 48.5036 8.0215 133.8644 0.0000 0.0000 0.0000
# 4 0.0000 0.0000 0.0000 15.3208 0.0000 0.0000
# 5 0.0000 0.0000 0.0000 0.0000 48.7827 0.0000
# 6 0.0000 0.0000 0.0000 0.0000 0.0000 43.8617
#
#
#
# Elastic Compliance Matrix: (Units=1/GPa)
#
#
# Indices 1 2 3 4 5 6 
#
# 1 0.007253 -0.000203 -0.002616 0.000000 0.000000 0.000000
# 2 -0.000203 0.014927 -0.000821 0.000000 0.000000 0.000000
# 3 -0.002616 -0.000821 0.008467 0.000000 0.000000 0.000000
# 4 0.000000 0.000000 0.000000 0.065271 0.000000 0.000000
# 5 0.000000 0.000000 0.000000 0.000000 0.020499 0.000000
# 6 0.000000 0.000000 0.000000 0.000000 0.000000 0.022799
#
#
# Mechanical properties :
#
#
# Convention : Reuss Voigt Hill
#
# Bulk Modulus (GPa) = 42.79374 53.27590 48.03482
# Shear Modulus (GPa) = 32.40771 41.29729 36.85250
#
# Velocity S-wave (km/s) = 3.57137 4.03154 3.80841
# Velocity P-wave (km/s) = 5.81795 6.52984 6.18415
#
# Compressibility (1/GPa) = 0.02336790
#
# Stress axis : x y z
#
# Youngs Moduli (GPa) = 137.88089 66.99168 118.10274
#
# Poissons Ratio (x) = 0.01359 0.30892
# Poissons Ratio (y) = 0.02798 0.09696
# Poissons Ratio (z) = 0.36066 0.05500
#
# Static dielectric constant tensor:
#      x y z
#    x 1.978690 0.000000 0.000000 
#    y 0.000000 2.008300 0.000000 
#    z 0.000000 0.000000 2.247510 
# 
# From -- ./inp_files/7088.got.cif
#   From: 2010.05.17/outbox.cif.g08.bks.cpg/sg16_4_cif.got.tgz:7088.got - 2010.06.03 22:28:35.
