data_PCOD9310480
_publ_section_title
;
Structure prediction by ZEFSAII (Michael W. Deem and Ramdas Pophale) SiO2 
 PCOD9310480
Probable space group: P 2 2 21
;
_chemical_formula_sum "Si O2"
_cell_formula_units_Z 32
_cell_length_a 14.871991
_cell_length_b 5.353593
_cell_length_c 16.636337
_cell_angle_alpha 90.000000
_cell_angle_beta 90.000000
_cell_angle_gamma 90.000000
_cell_volume 1324.561643
_symmetry_space_group_name_H-M "P 2 2 21"
_symmetry_group_IT_number 17
_symmetry_cell_setting 'orthorhombic'
loop_
_space_group_symop_operation_xyz
x,y,z
-x,-y,1/2+z
x,-y,-z
-x,y,1/2-z
loop_
_atom_site_type_symbol
_atom_site_label
_atom_site_fract_x
_atom_site_fract_y
_atom_site_fract_z
Si Si1 0.419813 0.535426 0.313592
Si Si2 0.980994 0.954962 0.345267
Si Si3 0.260102 0.543538 0.184828
Si Si4 0.469345 0.961267 0.594400
Si Si5 0.815384 0.928697 0.091419
Si Si6 0.025627 0.454032 0.094266
Si Si7 0.686974 0.954306 0.594303
Si Si8 0.823775 0.573054 0.835695
O O1 0.500000 0.513710 0.250000
O O2 0.334026 0.523493 0.256278
O O3 0.430217 0.800468 0.358268
O O4 0.430020 0.300259 0.373393
O O5 0.077220 0.923493 0.390824
O O6 0.932203 0.701689 0.369439
O O7 0.000000 0.976653 0.250000
O O8 0.931042 0.191120 0.382908
O O9 0.272531 0.813103 0.144362
O O10 0.175683 0.493807 0.242912
O O11 0.278205 0.315576 0.124053
O O12 0.578072 0.957678 0.605936
O O13 0.451455 0.000000 0.500000
O O14 0.781659 0.654701 0.113532
O O15 0.782437 0.156205 0.146560
O O16 0.799482 0.000000 0.000000
O O17 0.926993 0.418795 0.134061
O O18 0.017116 0.500000 0.000000
O O19 0.704666 0.000000 0.500000
#
# Coordination Sequence:
#
# PCOD9310480 Si02
#       8
#     4   4   4   4   4   4   4   4
#     4  12  21  37  56  80 108 142 168 224 284 330
#     4  10  18  29  51  85 111 136 181 228 263 295
#     4  12  23  36  57  85 105 133 183 226 273 321
#     4  11  22  38  55  76 105 140 173 207 271 347
#     4  10  19  36  57  79 110 153 185 216 259 311
#     4  10  19  35  55  78 111 154 186 218 261 313
#     4  11  22  38  58  79  99 129 174 227 273 324
#     4  10  20  34  52  81 107 140 183 226 260 313
#
# _framework density 24.158937000000002
#
# number of rings (size 3 to 8) (size 9 to 14) (size 15 to 20)
#    0.000    1.250    2.500    6.750    0.000    2.000 
#    0.000    5.000    0.000    0.000    0.000   91.000 
#    0.000    0.000    0.000    0.000    0.000    0.000 
#
# Total GULP energy -179101.297496 kJ/mol
# GULP energy per Si atom -5596.915547 kJ/mol
# Density = 2.410395 g / cm^3
# Si number density = 24.158937 Si / 1000 Ang^3
#
#
#
# Elastic Constant Matrix: (Units=GPa)
#
#
# Indices 1 2 3 4 5 6 
#
# 1 22.7508 -27.8521 11.5463 0.0000 0.0000 0.0000
# 2 -27.8521 167.6736 22.4880 0.0000 0.0000 0.0000
# 3 11.5463 22.4880 114.1197 0.0000 0.0000 0.0000
# 4 0.0000 0.0000 0.0000 59.0271 0.0000 0.0000
# 5 0.0000 0.0000 0.0000 0.0000 6.9257 0.0000
# 6 0.0000 0.0000 0.0000 0.0000 0.0000 7.5435
#
#
#
# Elastic Compliance Matrix: (Units=1/GPa)
#
#
# Indices 1 2 3 4 5 6 
#
# 1 0.062413 0.011519 -0.008585 0.000000 0.000000 0.000000
# 2 0.011519 0.008252 -0.002791 0.000000 0.000000 0.000000
# 3 -0.008585 -0.002791 0.010181 0.000000 0.000000 0.000000
# 4 0.000000 0.000000 0.000000 0.016941 0.000000 0.000000
# 5 0.000000 0.000000 0.000000 0.000000 0.144389 0.000000
# 6 0.000000 0.000000 0.000000 0.000000 0.000000 0.132564
#
#
# Mechanical properties :
#
#
# Convention : Reuss Voigt Hill
#
# Bulk Modulus (GPa) = 12.32574 35.21206 23.76890
# Shear Modulus (GPa) = 12.45334 34.59005 23.52170
#
# Velocity S-wave (km/s) = 2.27287 3.78798 3.12368
# Velocity P-wave (km/s) = 3.46424 5.80849 4.78223
#
# Compressibility (1/GPa) = 0.08113105
#
# Stress axis : x y z
#
# Youngs Moduli (GPa) = 16.02236 121.18706 98.21859
#
# Poissons Ratio (x) = -1.39591 0.84317
# Poissons Ratio (y) = -0.18456 0.27417
# Poissons Ratio (z) = 0.13755 0.33829
#
# Static dielectric constant tensor:
#      x y z
#    x 2.017970 0.000000 0.000000 
#    y 0.000000 2.340740 0.000000 
#    z 0.000000 0.000000 1.835490 
# 
# From -- ./inp_files/8686.got.cif
#   From: 2010.05.17/outbox.cif.g08.bks.cpg/sg17_5_cif.got.tgz:8686.got - 2010.06.03 22:34:06.
