data_PCOD9310872
_publ_section_title
;
Structure prediction by ZEFSAII (Michael W. Deem and Ramdas Pophale) SiO2 
 PCOD9310872
Probable space group: P 2 2 21
;
_chemical_formula_sum "Si O2"
_cell_formula_units_Z 18
_cell_length_a 5.371763
_cell_length_b 7.489811
_cell_length_c 24.128599
_cell_angle_alpha 90.000000
_cell_angle_beta 90.000000
_cell_angle_gamma 90.000000
_cell_volume 970.777737
_symmetry_space_group_name_H-M "P 2 2 21"
_symmetry_group_IT_number 17
_symmetry_cell_setting 'orthorhombic'
loop_
_space_group_symop_operation_xyz
x,y,z
-x,-y,1/2+z
x,-y,-z
-x,y,1/2-z
loop_
_atom_site_type_symbol
_atom_site_label
_atom_site_fract_x
_atom_site_fract_y
_atom_site_fract_z
Si Si1 0.500000 0.229846 0.250000
Si Si2 0.124999 0.481561 0.191063
Si Si3 0.636910 0.932393 0.062375
Si Si4 0.129511 0.179943 0.885786
Si Si5 0.848795 0.141095 0.157993
O O1 0.362458 0.362075 0.207240
O O2 0.698332 0.116968 0.215131
O O3 0.000000 0.531067 0.250000
O O4 0.946242 0.341773 0.159871
O O5 0.169495 0.653261 0.154139
O O6 0.371230 0.847744 0.076559
O O7 0.675921 0.095670 0.105673
O O8 0.874057 0.807902 0.078305
O O9 0.651611 0.000000 0.000000
O O10 0.071785 0.001610 0.849419
#
# Coordination Sequence:
#
# PCOD9310872 Si02
#       5
#     2   4   4   4   4
#     4  10  20  38  64  90 134 160 204 252 320 372
#     4  10  22  38  60  94 129 162 200 255 308 380
#     4  10  22  43  68  87 122 166 214 259 306 365
#     4  10  23  40  66  90 123 162 207 253 313 362
#     4   9  22  39  63  89 127 165 201 258 308 373
#
# _framework density 18.541834000000001
#
# number of rings (size 3 to 8) (size 9 to 14) (size 15 to 20)
#    1.333    0.889    0.000    2.000    6.222    4.444 
#    0.000    2.222    0.000    0.000    0.000    0.000 
#    0.000    0.000    0.000    0.000    0.000    0.000 
#
# Total GULP energy -100245.766052 kJ/mol
# GULP energy per Si atom -5569.209225 kJ/mol
# Density = 1.849963 g / cm^3
# Si number density = 18.541834 Si / 1000 Ang^3
#
#
#
# Elastic Constant Matrix: (Units=GPa)
#
#
# Indices 1 2 3 4 5 6 
#
# 1 104.4430 4.3337 26.8047 0.0000 0.0000 0.0000
# 2 4.3337 39.8757 40.1908 0.0000 0.0000 0.0000
# 3 26.8047 40.1908 73.3256 0.0000 0.0000 0.0000
# 4 0.0000 0.0000 0.0000 -4.4896 0.0000 0.0000
# 5 0.0000 0.0000 0.0000 0.0000 26.5668 0.0000
# 6 0.0000 0.0000 0.0000 0.0000 0.0000 1.7181
#
#
#
# Elastic Compliance Matrix: (Units=1/GPa)
#
#
# Indices 1 2 3 4 5 6 
#
# 1 0.011283 0.006549 -0.007714 0.000000 0.000000 0.000000
# 2 0.006549 0.059834 -0.035190 0.000000 0.000000 0.000000
# 3 -0.007714 -0.035190 0.035746 0.000000 0.000000 0.000000
# 4 0.000000 0.000000 0.000000 -0.222735 0.000000 0.000000
# 5 0.000000 0.000000 0.000000 0.000000 0.037641 0.000000
# 6 0.000000 0.000000 0.000000 0.000000 0.000000 0.582039
#
#
# Mechanical properties :
#
#
# Convention : Reuss Voigt Hill
#
# Bulk Modulus (GPa) = 29.28062 40.03364 34.65713
# Shear Modulus (GPa) = 8.50482 14.51339 11.50910
#
# Velocity S-wave (km/s) = 2.14401 2.80078 2.49411
# Velocity P-wave (km/s) = 4.68561 5.66542 5.19865
#
# Compressibility (1/GPa) = 0.03415228
#
# Stress axis : x y z
#
# Youngs Moduli (GPa) = 88.63215 16.71285 27.97535
#
# Poissons Ratio (x) = -0.10945 0.21580
# Poissons Ratio (y) = -0.58041 0.98445
# Poissons Ratio (z) = 0.68369 0.58812
#
# Static dielectric constant tensor:
#      x y z
#    x 1.713640 0.000000 0.000000 
#    y 0.000000 1.598060 0.000000 
#    z 0.000000 0.000000 1.616540 
# 
# From -- ./inp_files/9990.got.cif
#   From: 2010.05.17/outbox.cif.g08.bks.cpg/sg17_5_cif.got.tgz:9990.got - 2010.06.03 22:34:06.
