data_PCOD9310137
_publ_section_title
;
Structure prediction by ZEFSAII (Michael W. Deem and Ramdas Pophale) SiO2 
 PCOD9310137
Probable space group: P 2 2 2
;
_chemical_formula_sum "Si O2"
_cell_formula_units_Z 21
_cell_length_a 7.247519
_cell_length_b 9.637303
_cell_length_c 14.147733
_cell_angle_alpha 90.000000
_cell_angle_beta 90.000000
_cell_angle_gamma 90.000000
_cell_volume 988.170151
_symmetry_space_group_name_H-M "P 2 2 2"
_symmetry_group_IT_number 16
_symmetry_cell_setting 'orthorhombic'
loop_
_space_group_symop_operation_xyz
x,y,z
-x,-y,z
x,-y,-z
-x,y,-z
loop_
_atom_site_type_symbol
_atom_site_label
_atom_site_fract_x
_atom_site_fract_y
_atom_site_fract_z
Si Si1 0.223907 0.977435 0.608585
Si Si2 0.000000 0.500000 0.000000
Si Si3 0.692403 0.543290 0.850733
Si Si4 0.219663 0.199700 0.749718
Si Si5 0.806503 0.265557 0.750520
Si Si6 0.719561 0.029051 0.892315
O O1 0.265828 0.833595 0.664235
O O2 0.274651 0.000000 0.500000
O O3 0.301938 0.108284 0.666205
O O4 0.000000 0.000000 0.615236
O O5 0.144183 0.571164 0.073380
O O6 0.500000 0.500000 0.896796
O O7 0.653943 0.682570 0.792491
O O8 0.746878 0.420703 0.777735
O O9 0.024840 0.270588 0.728367
O O10 0.181308 0.085610 0.829316
O O11 0.765847 0.176616 0.846048
O O12 0.500000 0.000000 0.882917
O O13 0.768806 0.000000 0.000000
#
# Coordination Sequence:
#
# PCOD9310137 Si02
#       6
#     4   1   4   4   4   4
#     4   8  16  34  64  93 118 157 207 254 312 372
#     4  12  26  44  60  88 122 168 218 246 296 374
#     4  12  25  41  62  87 126 166 206 256 306 358
#     4  10  20  37  57  84 120 158 202 256 305 363
#     4  10  20  37  57  84 120 158 202 256 305 363
#     4  10  21  33  50  77 110 151 201 245 299 362
#
# _framework density 21.251401999999999
#
# number of rings (size 3 to 8) (size 9 to 14) (size 15 to 20)
#    0.000    1.905    1.905    3.143    2.667    1.524 
#    0.000    0.952    0.000   26.286    0.000    0.000 
#    0.000    0.000    0.000    0.000    0.000    0.000 
#
# Total GULP energy -117130.699930 kJ/mol
# GULP energy per Si atom -5577.652378 kJ/mol
# Density = 2.120303 g / cm^3
# Si number density = 21.251402 Si / 1000 Ang^3
#
#
#
# Elastic Constant Matrix: (Units=GPa)
#
#
# Indices 1 2 3 4 5 6 
#
# 1 80.6931 -6.9830 -0.7027 0.0000 0.0000 0.0000
# 2 -6.9830 120.7178 49.1550 0.0000 0.0000 0.0000
# 3 -0.7027 49.1550 158.1011 0.0000 0.0000 0.0000
# 4 0.0000 0.0000 0.0000 -1.7144 0.0000 0.0000
# 5 0.0000 0.0000 0.0000 0.0000 3.2387 0.0000
# 6 0.0000 0.0000 0.0000 0.0000 0.0000 23.7171
#
#
#
# Elastic Compliance Matrix: (Units=1/GPa)
#
#
# Indices 1 2 3 4 5 6 
#
# 1 0.012460 0.000799 -0.000193 0.000000 0.000000 0.000000
# 2 0.000799 0.009536 -0.002961 0.000000 0.000000 0.000000
# 3 -0.000193 -0.002961 0.007245 0.000000 0.000000 0.000000
# 4 0.000000 0.000000 0.000000 -0.583282 0.000000 0.000000
# 5 0.000000 0.000000 0.000000 0.000000 0.308762 0.000000
# 6 0.000000 0.000000 0.000000 0.000000 0.000000 0.042164
#
#
# Mechanical properties :
#
#
# Convention : Reuss Voigt Hill
#
# Bulk Modulus (GPa) = 40.76493 49.16118 44.96306
# Shear Modulus (GPa) = -26.28403 26.25113 -0.01645
#
# Velocity S-wave (km/s) = -3.52065 3.51845 -0.08808
# Velocity P-wave (km/s) = 1.64232 6.29995 4.60362
#
# Compressibility (1/GPa) = 0.02453089
#
# Stress axis : x y z
#
# Youngs Moduli (GPa) = 80.25598 104.86799 138.02861
#
# Poissons Ratio (x) = -0.08383 0.02666
# Poissons Ratio (y) = -0.06416 0.40873
# Poissons Ratio (z) = 0.01550 0.31054
#
# Static dielectric constant tensor:
#      x y z
#    x 1.868410 0.000000 0.000000 
#    y 0.000000 1.750540 0.000000 
#    z 0.000000 0.000000 1.824080 
# 
# From -- ./inp_files/4002.got.cif
#   From: 2010.05.17/outbox.cif.g08.bks.cpg/sg16_3_cif.got.tgz:4002.got - 2010.06.03 22:28:35.
