data_PCOD9310754
_publ_section_title
;
Structure prediction by ZEFSAII (Michael W. Deem and Ramdas Pophale) SiO2 
 PCOD9310754
Probable space group: P 2 2 21
;
_chemical_formula_sum "Si O2"
_cell_formula_units_Z 26
_cell_length_a 12.577987
_cell_length_b 8.084389
_cell_length_c 12.813373
_cell_angle_alpha 90.000000
_cell_angle_beta 90.000000
_cell_angle_gamma 90.000000
_cell_volume 1302.932187
_symmetry_space_group_name_H-M "P 2 2 21"
_symmetry_group_IT_number 17
_symmetry_cell_setting 'orthorhombic'
loop_
_space_group_symop_operation_xyz
x,y,z
-x,-y,1/2+z
x,-y,-z
-x,y,1/2-z
loop_
_atom_site_type_symbol
_atom_site_label
_atom_site_fract_x
_atom_site_fract_y
_atom_site_fract_z
Si Si1 0.913199 0.000000 0.500000
Si Si2 0.001181 0.702612 0.125750
Si Si3 0.738025 0.799602 0.625870
Si Si4 0.725652 0.916709 0.857855
Si Si5 0.775595 0.267343 0.930674
Si Si6 0.176660 0.500000 0.000000
Si Si7 0.598366 0.500000 0.000000
Si Si8 0.499455 0.792877 0.871814
O O1 0.983896 0.120635 0.569725
O O2 0.833363 0.096698 0.423903
O O3 0.097945 0.596773 0.078936
O O4 0.000000 0.713193 0.250000
O O5 0.885085 0.640973 0.092260
O O6 0.746722 0.820198 0.750560
O O7 0.753835 0.621255 0.572225
O O8 0.617640 0.857735 0.601275
O O9 0.598557 0.917896 0.880721
O O10 0.763827 0.106377 0.856309
O O11 0.774556 0.814216 0.953835
O O12 0.677360 0.393357 0.926304
O O13 0.529133 0.632888 0.938704
O O14 0.500000 0.744228 0.750000
#
# Coordination Sequence:
#
# PCOD9310754 Si02
#       8
#     2   4   4   4   4   2   2   4
#     4  10  22  36  56  82 108 146 190 228 282 334
#     4  11  23  39  57  82 112 145 188 235 280 335
#     4  10  20  38  56  80 116 150 186 234 277 332
#     4   9  19  36  59  81 108 147 187 228 281 339
#     4  10  20  36  57  83 111 141 185 237 284 335
#     4  10  24  38  56  82 112 154 192 224 286 340
#     4  10  20  34  56  84 112 142 180 230 282 336
#     4   9  19  35  55  79 109 145 183 223 277 335
#
# _framework density 19.954989999999999
#
# number of rings (size 3 to 8) (size 9 to 14) (size 15 to 20)
#    0.000    2.154    0.000    2.769    0.000    7.385 
#    0.000    6.923    0.000    0.000    0.000    0.000 
#    0.000    0.000    0.000    0.000    0.000    0.000 
#
# Total GULP energy -145056.565803 kJ/mol
# GULP energy per Si atom -5579.098685 kJ/mol
# Density = 1.990957 g / cm^3
# Si number density = 19.954990 Si / 1000 Ang^3
#
#
#
# Elastic Constant Matrix: (Units=GPa)
#
#
# Indices 1 2 3 4 5 6 
#
# 1 78.1832 -9.2142 31.7585 0.0000 0.0000 0.0000
# 2 -9.2142 35.9713 17.4431 0.0000 0.0000 0.0000
# 3 31.7585 17.4431 109.8527 0.0000 0.0000 0.0000
# 4 0.0000 0.0000 0.0000 24.2948 0.0000 0.0000
# 5 0.0000 0.0000 0.0000 0.0000 35.6193 0.0000
# 6 0.0000 0.0000 0.0000 0.0000 0.0000 24.7989
#
#
#
# Elastic Compliance Matrix: (Units=1/GPa)
#
#
# Indices 1 2 3 4 5 6 
#
# 1 0.015903 0.006829 -0.005682 0.000000 0.000000 0.000000
# 2 0.006829 0.033052 -0.007222 0.000000 0.000000 0.000000
# 3 -0.005682 -0.007222 0.011893 0.000000 0.000000 0.000000
# 4 0.000000 0.000000 0.000000 0.041161 0.000000 0.000000
# 5 0.000000 0.000000 0.000000 0.000000 0.028075 0.000000
# 6 0.000000 0.000000 0.000000 0.000000 0.000000 0.040324
#
#
# Mechanical properties :
#
#
# Convention : Reuss Voigt Hill
#
# Bulk Modulus (GPa) = 20.53530 33.77580 27.15555
# Shear Modulus (GPa) = 25.15210 29.21059 27.18135
#
# Velocity S-wave (km/s) = 3.55412 3.83015 3.69471
# Velocity P-wave (km/s) = 5.21110 6.04341 5.64262
#
# Compressibility (1/GPa) = 0.04869664
#
# Stress axis : x y z
#
# Youngs Moduli (GPa) = 62.87975 30.25580 84.08590
#
# Poissons Ratio (x) = -0.20662 0.47778
# Poissons Ratio (y) = -0.42941 0.60730
# Poissons Ratio (z) = 0.35728 0.21852
#
# Static dielectric constant tensor:
#      x y z
#    x 1.699140 0.000000 0.000000 
#    y 0.000000 1.710220 0.000000 
#    z 0.000000 0.000000 1.648350 
# 
# From -- ./inp_files/6992.got.cif
#   From: 2010.05.17/outbox.cif.g08.bks.cpg/sg17_4_cif.got.tgz:6992.got - 2010.06.03 22:34:06.
