data_PCOD9310583
_publ_section_title
;
Structure prediction by ZEFSAII (Michael W. Deem and Ramdas Pophale) SiO2 
 PCOD9310583
Probable space group: P 2 2 21
;
_chemical_formula_sum "Si O2"
_cell_formula_units_Z 32
_cell_length_a 5.304721
_cell_length_b 19.186915
_cell_length_c 18.672180
_cell_angle_alpha 90.000000
_cell_angle_beta 90.000000
_cell_angle_gamma 90.000000
_cell_volume 1900.477464
_symmetry_space_group_name_H-M "P 2 2 21"
_symmetry_group_IT_number 17
_symmetry_cell_setting 'orthorhombic'
loop_
_space_group_symop_operation_xyz
x,y,z
-x,-y,1/2+z
x,-y,-z
-x,y,1/2-z
loop_
_atom_site_type_symbol
_atom_site_label
_atom_site_fract_x
_atom_site_fract_y
_atom_site_fract_z
Si Si1 0.420906 0.870546 0.321787
Si Si2 0.057877 0.834660 0.988716
Si Si3 0.488256 0.401511 0.434273
Si Si4 0.508231 0.557851 0.103938
Si Si5 0.988708 0.320895 0.452781
Si Si6 0.556918 0.081801 0.985638
Si Si7 0.006437 0.362776 0.877294
Si Si8 0.918069 0.209361 0.654699
O O1 0.500000 0.912309 0.250000
O O2 0.440797 0.907200 0.399042
O O3 0.634967 0.810560 0.324132
O O4 0.143861 0.837929 0.315034
O O5 0.314268 0.878787 0.981082
O O6 0.067216 0.807839 0.070456
O O7 0.810789 0.882822 0.983640
O O8 0.034293 0.762535 0.945192
O O9 0.488242 0.422291 0.518960
O O10 0.478373 0.474498 0.392622
O O11 0.245555 0.353188 0.422196
O O12 0.744623 0.359426 0.421560
O O13 0.250233 0.589385 0.134019
O O14 0.751342 0.595341 0.136721
O O15 0.993398 0.340825 0.537955
O O16 0.548063 0.000000 0.000000
O O17 0.025657 0.290372 0.835469
#
# Coordination Sequence:
#
# PCOD9310583 Si02
#       8
#     4   4   4   4   4   4   4   4
#     4  10  19  31  46  64  85 109 141 177 214 256
#     4   9  17  28  42  59  79 106 141 178 211 249
#     4   9  15  21  30  46  69  98 133 170 202 236
#     4   9  15  21  30  46  69  98 133 170 204 236
#     4   9  15  23  34  48  69  98 133 170 204 237
#     4  10  19  31  46  64  85 109 141 179 217 264
#     4   9  15  23  34  48  69  98 133 170 202 232
#     4   9  17  28  42  59  79 106 141 178 210 244
#
# _framework density 16.837873999999999
#
# number of rings (size 3 to 8) (size 9 to 14) (size 15 to 20)
#    0.000    2.750    0.000    3.000    0.000    9.000 
#    0.000    0.000    0.000    0.000    0.000    0.000 
#    0.000    0.000    0.000    0.000    0.000   87.500 
#
# Total GULP energy -178232.367248 kJ/mol
# GULP energy per Si atom -5569.761477 kJ/mol
# Density = 1.679955 g / cm^3
# Si number density = 16.837874 Si / 1000 Ang^3
#
#
#
# Elastic Constant Matrix: (Units=GPa)
#
#
# Indices 1 2 3 4 5 6 
#
# 1 124.5423 46.8831 4.8751 0.0000 0.0000 0.0000
# 2 46.8831 118.5605 9.4918 0.0000 0.0000 0.0000
# 3 4.8751 9.4918 16.4066 0.0000 0.0000 0.0000
# 4 0.0000 0.0000 0.0000 -5.2060 0.0000 0.0000
# 5 0.0000 0.0000 0.0000 0.0000 6.1684 0.0000
# 6 0.0000 0.0000 0.0000 0.0000 0.0000 24.8780
#
#
#
# Elastic Compliance Matrix: (Units=1/GPa)
#
#
# Indices 1 2 3 4 5 6 
#
# 1 0.009441 -0.003679 -0.000677 0.000000 0.000000 0.000000
# 2 -0.003679 0.010278 -0.004853 0.000000 0.000000 0.000000
# 3 -0.000677 -0.004853 0.063960 0.000000 0.000000 0.000000
# 4 0.000000 0.000000 0.000000 -0.192084 0.000000 0.000000
# 5 0.000000 0.000000 0.000000 0.000000 0.162117 0.000000
# 6 0.000000 0.000000 0.000000 0.000000 0.000000 0.040196
#
#
# Mechanical properties :
#
#
# Convention : Reuss Voigt Hill
#
# Bulk Modulus (GPa) = 15.32311 42.44549 28.88430
# Shear Modulus (GPa) = 37.29170 18.38537 27.83853
#
# Velocity S-wave (km/s) = 4.71122 3.30798 4.07053
# Velocity P-wave (km/s) = 6.22208 6.31296 6.26768
#
# Compressibility (1/GPa) = 0.06526090
#
# Stress axis : x y z
#
# Youngs Moduli (GPa) = 105.92268 97.29653 15.63485
#
# Poissons Ratio (x) = 0.35796 0.01058
# Poissons Ratio (y) = 0.38970 0.07587
# Poissons Ratio (z) = 0.07169 0.47217
#
# Static dielectric constant tensor:
#      x y z
#    x 1.567730 0.000000 0.000000 
#    y 0.000000 1.548860 0.000000 
#    z 0.000000 0.000000 1.603710 
# 
# From -- ./inp_files/10520.got.cif
#   From: 2010.05.17/outbox.cif.g08.bks.cpg/sg17_6_cif.got.tgz:10520.got - 2010.06.03 22:34:06.
