data_PCOD9310499
_publ_section_title
;
Structure prediction by ZEFSAII (Michael W. Deem and Ramdas Pophale) SiO2 
 PCOD9310499
Probable space group: P 2 2 21
;
_chemical_formula_sum "Si O2"
_cell_formula_units_Z 24
_cell_length_a 9.406607
_cell_length_b 9.245866
_cell_length_c 16.404803
_cell_angle_alpha 90.000000
_cell_angle_beta 90.000000
_cell_angle_gamma 90.000000
_cell_volume 1426.762264
_symmetry_space_group_name_H-M "P 2 2 21"
_symmetry_group_IT_number 17
_symmetry_cell_setting 'orthorhombic'
loop_
_space_group_symop_operation_xyz
x,y,z
-x,-y,1/2+z
x,-y,-z
-x,y,1/2-z
loop_
_atom_site_type_symbol
_atom_site_label
_atom_site_fract_x
_atom_site_fract_y
_atom_site_fract_z
Si Si1 0.166984 0.981969 0.094758
Si Si2 0.661822 0.145748 0.268319
Si Si3 0.079855 0.831742 0.664126
Si Si4 0.664102 0.489773 0.247527
Si Si5 0.092733 0.321741 0.830135
Si Si6 0.854452 0.523307 0.906828
O O1 0.278972 0.065833 0.152160
O O2 0.015891 0.056223 0.115721
O O3 0.150468 0.816909 0.122634
O O4 0.200108 0.000000 0.000000
O O5 0.500000 0.107031 0.250000
O O6 0.768279 0.108684 0.193820
O O7 0.670723 0.320950 0.274604
O O8 0.096872 0.686615 0.612559
O O9 0.000000 0.796046 0.750000
O O10 0.500000 0.536108 0.250000
O O11 0.774261 0.581669 0.301015
O O12 0.725445 0.501584 0.155964
O O13 0.000000 0.277643 0.750000
O O14 0.984315 0.417708 0.883190
O O15 0.814648 0.500000 0.000000
#
# Coordination Sequence:
#
# PCOD9310499 Si02
#       6
#     4   4   4   4   4   4
#     4  11  21  33  50  77 104 130 168 214 250 288
#     4   9  18  35  55  71  96 137 174 199 243 313
#     4   9  17  33  53  70  96 135 169 197 247 310
#     4   9  19  36  55  74 100 136 171 201 248 309
#     4  10  19  32  51  74 102 133 166 204 252 301
#     4  10  18  31  52  78 100 125 166 217 254 289
#
# _framework density 16.821301999999999
#
# number of rings (size 3 to 8) (size 9 to 14) (size 15 to 20)
#    0.000    2.333    0.000    6.000    0.000    0.667 
#    0.000    6.667    0.000    0.000    0.000    0.000 
#    0.000    0.000    0.000    0.000    0.000    0.000 
#
# Total GULP energy -133856.892728 kJ/mol
# GULP energy per Si atom -5577.370530 kJ/mol
# Density = 1.678302 g / cm^3
# Si number density = 16.821302 Si / 1000 Ang^3
#
#
#
# Elastic Constant Matrix: (Units=GPa)
#
#
# Indices 1 2 3 4 5 6 
#
# 1 144.6652 53.3384 60.0894 0.0000 0.0000 0.0000
# 2 53.3384 65.5119 65.7688 0.0000 0.0000 0.0000
# 3 60.0894 65.7688 117.9116 0.0000 0.0000 0.0000
# 4 0.0000 0.0000 0.0000 11.2634 0.0000 0.0000
# 5 0.0000 0.0000 0.0000 0.0000 6.3544 0.0000
# 6 0.0000 0.0000 0.0000 0.0000 0.0000 12.2561
#
#
#
# Elastic Compliance Matrix: (Units=1/GPa)
#
#
# Indices 1 2 3 4 5 6 
#
# 1 0.009959 -0.006848 -0.001256 0.000000 0.000000 0.000000
# 2 -0.006848 0.039398 -0.018486 0.000000 0.000000 0.000000
# 3 -0.001256 -0.018486 0.019432 0.000000 0.000000 0.000000
# 4 0.000000 0.000000 0.000000 0.088783 0.000000 0.000000
# 5 0.000000 0.000000 0.000000 0.000000 0.157370 0.000000
# 6 0.000000 0.000000 0.000000 0.000000 0.000000 0.081592
#
#
# Mechanical properties :
#
#
# Convention : Reuss Voigt Hill
#
# Bulk Modulus (GPa) = 64.05983 76.27578 70.16780
# Shear Modulus (GPa) = 10.99104 15.90091 13.44597
#
# Velocity S-wave (km/s) = 2.55894 3.07788 2.83033
# Velocity P-wave (km/s) = 6.84808 7.62065 7.24467
#
# Compressibility (1/GPa) = 0.01561041
#
# Stress axis : x y z
#
# Youngs Moduli (GPa) = 100.41336 25.38210 51.46211
#
# Poissons Ratio (x) = 0.17381 0.06462
# Poissons Ratio (y) = 0.68760 0.95131
# Poissons Ratio (z) = 0.12608 0.46921
#
# Static dielectric constant tensor:
#      x y z
#    x 1.565300 0.000000 0.000000 
#    y 0.000000 1.565530 0.000000 
#    z 0.000000 0.000000 1.547330 
# 
# From -- ./inp_files/8087.got.cif
#   From: 2010.05.17/outbox.cif.g08.bks.cpg/sg17_5_cif.got.tgz:8087.got - 2010.06.03 22:34:06.
