data_PCOD9310454
_publ_section_title
;
Structure prediction by ZEFSAII (Michael W. Deem and Ramdas Pophale) SiO2 
 PCOD9310454
Probable space group: P 2 2 21
;
_chemical_formula_sum "Si O2"
_cell_formula_units_Z 28
_cell_length_a 5.328503
_cell_length_b 11.776157
_cell_length_c 19.123635
_cell_angle_alpha 90.000000
_cell_angle_beta 90.000000
_cell_angle_gamma 90.000000
_cell_volume 1199.994478
_symmetry_space_group_name_H-M "P 2 2 21"
_symmetry_group_IT_number 17
_symmetry_cell_setting 'orthorhombic'
loop_
_space_group_symop_operation_xyz
x,y,z
-x,-y,1/2+z
x,-y,-z
-x,y,1/2-z
loop_
_atom_site_type_symbol
_atom_site_label
_atom_site_fract_x
_atom_site_fract_y
_atom_site_fract_z
Si Si1 0.246360 0.684975 0.798531
Si Si2 0.632288 0.835657 0.567804
Si Si3 0.903206 0.013582 0.179501
Si Si4 0.597726 0.077145 0.636677
Si Si5 0.490029 0.676173 0.336452
Si Si6 0.016791 0.453594 0.834161
Si Si7 0.126547 0.124930 0.466865
O O1 0.500000 0.660062 0.750000
O O2 0.130508 0.579992 0.843839
O O3 0.000000 0.708955 0.750000
O O4 0.338728 0.775847 0.856739
O O5 0.613137 0.973741 0.580457
O O6 0.377159 0.804637 0.529048
O O7 0.866552 0.815926 0.516805
O O8 0.622452 0.971849 0.185823
O O9 0.901032 0.100172 0.115957
O O10 0.000000 0.065645 0.250000
O O11 0.115846 0.918445 0.163684
O O12 0.484607 0.201200 0.627053
O O13 0.500000 0.690761 0.250000
O O14 0.757097 0.625504 0.357641
O O15 0.256752 0.593696 0.355790
O O16 0.000000 0.446416 0.750000
O O17 0.141214 0.000000 0.500000
#
# Coordination Sequence:
#
# PCOD9310454 Si02
#       7
#     4   4   4   4   4   4   4
#     4  11  21  35  52  75 112 152 192 236 284 339
#     4  10  22  35  53  78 106 143 189 229 280 344
#     4  10  19  31  48  73 107 140 173 218 271 332
#     4  10  20  31  46  74 109 141 175 219 277 336
#     4  10  17  27  44  65  96 139 180 218 265 326
#     4   9  18  30  44  64  95 142 187 220 263 322
#     4  10  21  37  54  75 109 150 191 230 276 338
#
# _framework density 23.33344
#
# number of rings (size 3 to 8) (size 9 to 14) (size 15 to 20)
#    0.000    2.000    0.000    5.571    0.000    8.571 
#    0.000    0.000    0.000    0.000    0.000    0.000 
#    0.000   68.571    0.000    1.429    0.000    0.000 
#
# Total GULP energy -155889.355881 kJ/mol
# GULP energy per Si atom -5567.476996 kJ/mol
# Density = 2.328033 g / cm^3
# Si number density = 23.333440 Si / 1000 Ang^3
#
#
#
# Elastic Constant Matrix: (Units=GPa)
#
#
# Indices 1 2 3 4 5 6 
#
# 1 212.9991 25.5568 16.0497 0.0000 0.0000 0.0000
# 2 25.5568 97.0889 17.2021 0.0000 0.0000 0.0000
# 3 16.0497 17.2021 58.5624 0.0000 0.0000 0.0000
# 4 0.0000 0.0000 0.0000 1.3759 0.0000 0.0000
# 5 0.0000 0.0000 0.0000 0.0000 18.6722 0.0000
# 6 0.0000 0.0000 0.0000 0.0000 0.0000 -2.0589
#
#
#
# Elastic Compliance Matrix: (Units=1/GPa)
#
#
# Indices 1 2 3 4 5 6 
#
# 1 0.004905 -0.001111 -0.001018 0.000000 0.000000 0.000000
# 2 -0.001111 0.011117 -0.002961 0.000000 0.000000 0.000000
# 3 -0.001018 -0.002961 0.018225 0.000000 0.000000 0.000000
# 4 0.000000 0.000000 0.000000 0.726812 0.000000 0.000000
# 5 0.000000 0.000000 0.000000 0.000000 0.053555 0.000000
# 6 0.000000 0.000000 0.000000 0.000000 0.000000 -0.485688
#
#
# Mechanical properties :
#
#
# Convention : Reuss Voigt Hill
#
# Bulk Modulus (GPa) = 41.55109 54.02972 47.79041
# Shear Modulus (GPa) = 14.40392 24.25395 19.32894
#
# Velocity S-wave (km/s) = 2.48726 3.22755 2.88128
# Velocity P-wave (km/s) = 5.10831 6.09058 5.62094
#
# Compressibility (1/GPa) = 0.02406676
#
# Stress axis : x y z
#
# Youngs Moduli (GPa) = 203.88051 89.95351 54.87105
#
# Poissons Ratio (x) = 0.09992 0.05586
# Poissons Ratio (y) = 0.22646 0.16248
# Poissons Ratio (z) = 0.20754 0.26636
#
# Static dielectric constant tensor:
#      x y z
#    x 2.083670 0.000000 0.000000 
#    y 0.000000 1.957170 0.000000 
#    z 0.000000 0.000000 2.060070 
# 
# From -- ./inp_files/9909.got.cif
#   From: 2010.05.17/outbox.cif.g08.bks.cpg/sg17_5_cif.got.tgz:9909.got - 2010.06.03 22:34:06.
