data_PCOD9310729
_publ_section_title
;
Structure prediction by ZEFSAII (Michael W. Deem and Ramdas Pophale) SiO2 
 PCOD9310729
Probable space group: P 2 2 21
;
_chemical_formula_sum "Si O2"
_cell_formula_units_Z 30
_cell_length_a 8.282813
_cell_length_b 21.177599
_cell_length_c 8.670607
_cell_angle_alpha 90.000000
_cell_angle_beta 90.000000
_cell_angle_gamma 90.000000
_cell_volume 1520.911974
_symmetry_space_group_name_H-M "P 2 2 21"
_symmetry_group_IT_number 17
_symmetry_cell_setting 'orthorhombic'
loop_
_space_group_symop_operation_xyz
x,y,z
-x,-y,1/2+z
x,-y,-z
-x,y,1/2-z
loop_
_atom_site_type_symbol
_atom_site_label
_atom_site_fract_x
_atom_site_fract_y
_atom_site_fract_z
Si Si1 0.597167 0.075155 0.986839
Si Si2 0.963308 0.217799 0.574596
Si Si3 0.259432 0.900947 0.149183
Si Si4 0.337385 0.429050 0.061653
Si Si5 0.130653 0.124959 0.377191
Si Si6 0.296933 0.571327 0.568535
Si Si7 0.022384 0.359505 0.935666
Si Si8 0.960889 0.000000 0.500000
O O1 0.686263 0.097061 0.827473
O O2 0.413136 0.091463 0.959092
O O3 0.681179 0.109329 0.131999
O O4 0.608407 0.000000 0.000000
O O5 0.829040 0.162387 0.589922
O O6 0.944142 0.287416 0.506836
O O7 0.000000 0.231383 0.750000
O O8 0.110597 0.181937 0.495477
O O9 0.148978 0.962723 0.122672
O O10 0.520589 0.404113 0.027019
O O11 0.302990 0.429991 0.245194
O O12 0.340699 0.500000 0.000000
O O13 0.185797 0.395733 0.981474
O O14 0.000000 0.143287 0.250000
O O15 0.064230 0.056933 0.432580
O O16 0.280748 0.500000 0.500000
O O17 0.142282 0.611535 0.509969
O O18 0.000000 0.363518 0.750000
#
# Coordination Sequence:
#
# PCOD9310729 Si02
#       8
#     4   4   4   4   4   4   4   2
#     4  11  20  35  58  88 116 149 193 255 323 377
#     4  10  22  43  59  80 116 164 210 250 300 381
#     4  10  21  37  57  83 120 153 196 254 315 383
#     4  10  21  39  65  98 137 169 211 271 324 373
#     4  11  22  35  58  83 109 149 195 246 305 366
#     4  10  21  39  65  98 135 172 211 264 324 371
#     4  11  23  39  63  92 124 174 223 262 311 379
#     4  10  20  32  52  80 110 146 188 240 306 372
#
# _framework density 19.725007999999999
#
# number of rings (size 3 to 8) (size 9 to 14) (size 15 to 20)
#    0.000    1.600    2.667    2.400    0.000    2.667 
#    2.400    0.000    0.000    0.000    0.000    0.000 
#    0.000    0.000    0.000    0.000    0.000    0.000 
#
# Total GULP energy -167084.550821 kJ/mol
# GULP energy per Si atom -5569.485027 kJ/mol
# Density = 1.968011 g / cm^3
# Si number density = 19.725008 Si / 1000 Ang^3
#
#
#
# Elastic Constant Matrix: (Units=GPa)
#
#
# Indices 1 2 3 4 5 6 
#
# 1 135.8511 59.9494 30.7105 0.0000 0.0000 0.0000
# 2 59.9494 107.8467 15.6363 0.0000 0.0000 0.0000
# 3 30.7105 15.6363 50.9702 0.0000 0.0000 0.0000
# 4 0.0000 0.0000 0.0000 7.4245 0.0000 0.0000
# 5 0.0000 0.0000 0.0000 0.0000 25.9453 0.0000
# 6 0.0000 0.0000 0.0000 0.0000 0.0000 25.4118
#
#
#
# Elastic Compliance Matrix: (Units=1/GPa)
#
#
# Indices 1 2 3 4 5 6 
#
# 1 0.010802 -0.005297 -0.004884 0.000000 0.000000 0.000000
# 2 -0.005297 0.012301 -0.000582 0.000000 0.000000 0.000000
# 3 -0.004884 -0.000582 0.022741 0.000000 0.000000 0.000000
# 4 0.000000 0.000000 0.000000 0.134690 0.000000 0.000000
# 5 0.000000 0.000000 0.000000 0.000000 0.038543 0.000000
# 6 0.000000 0.000000 0.000000 0.000000 0.000000 0.039352
#
#
# Mechanical properties :
#
#
# Convention : Reuss Voigt Hill
#
# Bulk Modulus (GPa) = 41.12092 56.36228 48.74160
# Shear Modulus (GPa) = 17.35747 24.31442 20.83595
#
# Velocity S-wave (km/s) = 2.96965 3.51475 3.25364
# Velocity P-wave (km/s) = 5.71409 6.71620 6.23531
#
# Compressibility (1/GPa) = 0.02431852
#
# Stress axis : x y z
#
# Youngs Moduli (GPa) = 92.57207 81.29318 43.97438
#
# Poissons Ratio (x) = 0.43059 0.21476
# Poissons Ratio (y) = 0.49033 0.02561
# Poissons Ratio (z) = 0.45210 0.04734
#
# Static dielectric constant tensor:
#      x y z
#    x 1.754460 0.000000 0.000000 
#    y 0.000000 1.684270 0.000000 
#    z 0.000000 0.000000 1.774080 
# 
# From -- ./inp_files/4430.got.cif
#   From: 2010.05.17/outbox.cif.g08.bks.cpg/sg17_3_cif.got.tgz:4430.got - 2010.06.03 22:34:06.
