data_PCOD9310362
_publ_section_title
;
Structure prediction by ZEFSAII (Michael W. Deem and Ramdas Pophale) SiO2 
 PCOD9310362
Probable space group: P 2 2 2
;
_chemical_formula_sum "Si O2"
_cell_formula_units_Z 26
_cell_length_a 16.419489
_cell_length_b 8.926868
_cell_length_c 8.819693
_cell_angle_alpha 90.000000
_cell_angle_beta 90.000000
_cell_angle_gamma 90.000000
_cell_volume 1292.743070
_symmetry_space_group_name_H-M "P 2 2 2"
_symmetry_group_IT_number 16
_symmetry_cell_setting 'orthorhombic'
loop_
_space_group_symop_operation_xyz
x,y,z
-x,-y,z
x,-y,-z
-x,y,-z
loop_
_atom_site_type_symbol
_atom_site_label
_atom_site_fract_x
_atom_site_fract_y
_atom_site_fract_z
Si Si1 0.359527 0.161542 0.665453
Si Si2 0.858045 0.631812 0.698466
Si Si3 0.777703 0.147494 0.093338
Si Si4 0.000000 0.500000 0.500000
Si Si5 0.751368 0.350514 0.814619
Si Si6 0.219413 0.162371 0.455035
Si Si7 0.500000 0.000000 0.500000
Si Si8 0.404831 0.492486 0.683537
O O1 0.294602 0.099994 0.788521
O O2 0.312989 0.156149 0.504905
O O3 0.444975 0.093493 0.617342
O O4 0.373700 0.328100 0.722733
O O5 0.850558 0.772117 0.813492
O O6 0.811420 0.491145 0.776465
O O7 0.809458 0.697419 0.554911
O O8 0.942583 0.589785 0.618301
O O9 0.748243 0.281253 0.981722
O O10 0.800435 0.000000 0.000000
O O11 0.787635 0.214275 0.715015
O O12 0.660842 0.395543 0.757502
O O13 0.183317 0.000000 0.500000
O O14 0.500000 0.500000 0.727786
O O15 0.401209 0.500000 0.500000
#
# Coordination Sequence:
#
# PCOD9310362 Si02
#       8
#     4   4   4   1   4   4   1   4
#     4  11  23  38  60  94 128 184 246 289 349 406
#     4  11  23  44  74 107 135 178 231 281 347 422
#     4  11  26  43  69 102 141 188 232 280 352 442
#     4  12  24  48  80 120 130 164 240 300 344 412
#     4  12  20  41  68  96 135 187 231 285 347 426
#     4  11  20  37  67  98 132 180 233 283 328 413
#     4  12  24  40  64  92 140 190 236 316 368 380
#     4  11  21  34  60  94 130 175 246 304 340 385
#
# _framework density 20.112271
#
# number of rings (size 3 to 8) (size 9 to 14) (size 15 to 20)
#    0.000    0.769    6.923    3.231    0.000    0.000 
#    0.000    5.385    0.000    0.923    0.000    0.000 
#    0.000    0.000    0.000    0.000    0.000    0.000 
#
# Total GULP energy -144804.480744 kJ/mol
# GULP energy per Si atom -5569.403106 kJ/mol
# Density = 2.006649 g / cm^3
# Si number density = 20.112271 Si / 1000 Ang^3
#
#
#
# Elastic Constant Matrix: (Units=GPa)
#
#
# Indices 1 2 3 4 5 6 
#
# 1 93.2504 44.2915 28.1198 0.0000 0.0000 0.0000
# 2 44.2915 113.2443 45.4831 0.0000 0.0000 0.0000
# 3 28.1198 45.4831 94.6729 0.0000 0.0000 0.0000
# 4 0.0000 0.0000 0.0000 40.9419 0.0000 0.0000
# 5 0.0000 0.0000 0.0000 0.0000 16.1344 0.0000
# 6 0.0000 0.0000 0.0000 0.0000 0.0000 5.0066
#
#
#
# Elastic Compliance Matrix: (Units=1/GPa)
#
#
# Indices 1 2 3 4 5 6 
#
# 1 0.013417 -0.004519 -0.001814 0.000000 0.000000 0.000000
# 2 -0.004519 0.012464 -0.004646 0.000000 0.000000 0.000000
# 3 -0.001814 -0.004646 0.013333 0.000000 0.000000 0.000000
# 4 0.000000 0.000000 0.000000 0.024425 0.000000 0.000000
# 5 0.000000 0.000000 0.000000 0.000000 0.061979 0.000000
# 6 0.000000 0.000000 0.000000 0.000000 0.000000 0.199736
#
#
# Mechanical properties :
#
#
# Convention : Reuss Voigt Hill
#
# Bulk Modulus (GPa) = 57.94824 59.66181 58.80503
# Shear Modulus (GPa) = 14.16172 24.63480 19.39826
#
# Velocity S-wave (km/s) = 2.65643 3.50360 3.10901
# Velocity P-wave (km/s) = 6.18739 6.78939 6.49536
#
# Compressibility (1/GPa) = 0.01725678
#
# Stress axis : x y z
#
# Youngs Moduli (GPa) = 74.53051 80.23231 74.99967
#
# Poissons Ratio (x) = 0.36258 0.13606
# Poissons Ratio (y) = 0.33681 0.34842
# Poissons Ratio (z) = 0.13521 0.37273
#
# Static dielectric constant tensor:
#      x y z
#    x 1.769810 0.000000 0.000000 
#    y 0.000000 1.870550 0.000000 
#    z 0.000000 0.000000 1.766220 
# 
# From -- ./inp_files/5533.got.cif
#   From: 2010.05.17/outbox.cif.g08.bks.cpg/sg16_3_cif.got.tgz:5533.got - 2010.06.03 22:28:35.
