data_PCOD9310111
_publ_section_title
;
Structure prediction by ZEFSAII (Michael W. Deem and Ramdas Pophale) SiO2 
 PCOD9310111
Probable space group: P 2 2 2
;
_chemical_formula_sum "Si O2"
_cell_formula_units_Z 19
_cell_length_a 24.295067
_cell_length_b 5.167550
_cell_length_c 7.201509
_cell_angle_alpha 90.000000
_cell_angle_beta 90.000000
_cell_angle_gamma 90.000000
_cell_volume 904.120458
_symmetry_space_group_name_H-M "P 2 2 2"
_symmetry_group_IT_number 16
_symmetry_cell_setting 'orthorhombic'
loop_
_space_group_symop_operation_xyz
x,y,z
-x,-y,z
x,-y,-z
-x,y,-z
loop_
_atom_site_type_symbol
_atom_site_label
_atom_site_fract_x
_atom_site_fract_y
_atom_site_fract_z
Si Si1 0.130952 0.996112 0.773713
Si Si2 0.324902 0.503671 0.223278
Si Si3 0.578005 0.500000 0.500000
Si Si4 0.743380 0.005486 0.775088
Si Si5 0.936746 0.506283 0.773916
Si Si6 0.500000 0.000000 0.500000
O O1 0.193917 0.024389 0.711946
O O2 0.093243 0.233390 0.715587
O O3 0.100883 0.733841 0.716910
O O4 0.132335 0.000000 0.000000
O O5 0.381966 0.450121 0.325845
O O6 0.297742 0.775981 0.279704
O O7 0.281914 0.280444 0.275645
O O8 0.332203 0.500000 0.000000
O O9 0.544633 0.234048 0.448688
O O10 0.745013 0.000000 0.000000
O O11 0.000000 0.500000 0.713401
O O12 0.937894 0.500000 0.000000
#
# Coordination Sequence:
#
# PCOD9310111 Si02
#       6
#     4   4   2   4   4   1
#     4   9  15  23  35  53  83 122 164 212 262 310
#     4  10  20  35  57  83 110 143 181 216 262 317
#     4  11  22  42  62  84 116 148 177 220 256 298
#     4   9  17  29  47  73 102 135 176 219 268 325
#     4   9  15  21  30  47  76 121 172 213 257 314
#     4  10  24  42  62  86 116 148 184 214 256 302
#
# _framework density 21.014900999999998
#
# number of rings (size 3 to 8) (size 9 to 14) (size 15 to 20)
#    0.000    2.526    0.000    3.158    0.000    7.579 
#    0.000    3.158    0.000    0.000    0.000    0.000 
#    0.000    0.000    0.000   66.316    0.000  162.105 
#
# Total GULP energy -105911.509609 kJ/mol
# GULP energy per Si atom -5574.289979 kJ/mol
# Density = 2.096707 g / cm^3
# Si number density = 21.014901 Si / 1000 Ang^3
#
#
#
# Elastic Constant Matrix: (Units=GPa)
#
#
# Indices 1 2 3 4 5 6 
#
# 1 110.9714 7.7145 1.9939 0.0000 0.0000 0.0000
# 2 7.7145 101.5960 -15.9128 0.0000 0.0000 0.0000
# 3 1.9939 -15.9128 90.4782 0.0000 0.0000 0.0000
# 4 0.0000 0.0000 0.0000 -9.3534 0.0000 0.0000
# 5 0.0000 0.0000 0.0000 0.0000 -43.9682 0.0000
# 6 0.0000 0.0000 0.0000 0.0000 0.0000 45.3655
#
#
#
# Elastic Compliance Matrix: (Units=1/GPa)
#
#
# Indices 1 2 3 4 5 6 
#
# 1 0.009069 -0.000740 -0.000330 0.000000 0.000000 0.000000
# 2 -0.000740 0.010182 0.001807 0.000000 0.000000 0.000000
# 3 -0.000330 0.001807 0.011377 0.000000 0.000000 0.000000
# 4 0.000000 0.000000 0.000000 -0.106913 0.000000 0.000000
# 5 0.000000 0.000000 0.000000 0.000000 -0.022744 0.000000
# 6 0.000000 0.000000 0.000000 0.000000 0.000000 0.022043
#
#
# Mechanical properties :
#
#
# Convention : Reuss Voigt Hill
#
# Bulk Modulus (GPa) = 31.15085 32.29297 31.72191
# Shear Modulus (GPa) = -73.79219 19.02546 -27.38337
#
# Velocity S-wave (km/s) = -5.93215 3.01214 -3.61369
# Velocity P-wave (km/s) = 5.66261 5.24379 1.51127
#
# Compressibility (1/GPa) = 0.03210185
#
# Stress axis : x y z
#
# Youngs Moduli (GPa) = 110.26911 98.21100 87.89288
#
# Poissons Ratio (x) = 0.07271 0.02901
# Poissons Ratio (y) = 0.08163 -0.15883
# Poissons Ratio (z) = 0.03639 -0.17748
#
# Static dielectric constant tensor:
#      x y z
#    x 1.710990 0.000000 0.000000 
#    y 0.000000 2.402190 0.000000 
#    z 0.000000 0.000000 1.877600 
# 
# From -- ./inp_files/5401.got.cif
#   From: 2010.05.17/outbox.cif.g08.bks.cpg/sg16_3_cif.got.tgz:5401.got - 2010.06.03 22:28:35.
