data_PCOD9310812
_publ_section_title
;
Structure prediction by ZEFSAII (Michael W. Deem and Ramdas Pophale) SiO2 
 PCOD9310812
Probable space group: P 2 2 21
;
_chemical_formula_sum "Si O2"
_cell_formula_units_Z 32
_cell_length_a 15.408014
_cell_length_b 10.205397
_cell_length_c 10.307298
_cell_angle_alpha 90.000000
_cell_angle_beta 90.000000
_cell_angle_gamma 90.000000
_cell_volume 1620.770042
_symmetry_space_group_name_H-M "P 2 2 21"
_symmetry_group_IT_number 17
_symmetry_cell_setting 'orthorhombic'
loop_
_space_group_symop_operation_xyz
x,y,z
-x,-y,1/2+z
x,-y,-z
-x,y,1/2-z
loop_
_atom_site_type_symbol
_atom_site_label
_atom_site_fract_x
_atom_site_fract_y
_atom_site_fract_z
Si Si1 0.424730 0.341279 0.647743
Si Si2 0.998112 0.307454 0.604064
Si Si3 0.832010 0.848932 0.479252
Si Si4 0.241847 0.226011 0.714209
Si Si5 0.419587 0.343866 0.344687
Si Si6 0.769400 0.744619 0.746597
Si Si7 0.862920 0.135774 0.023086
Si Si8 0.857553 0.511624 0.146892
O O1 0.500000 0.309970 0.750000
O O2 0.339757 0.266172 0.693007
O O3 0.439926 0.310774 0.495328
O O4 0.408943 0.498014 0.658056
O O5 0.069382 0.249423 0.506289
O O6 0.040264 0.451583 0.630183
O O7 0.000000 0.245907 0.750000
O O8 0.908409 0.258660 0.543620
O O9 0.776610 0.846219 0.347625
O O10 0.777383 0.796996 0.601485
O O11 0.862107 0.000000 0.500000
O O12 0.208392 0.146989 0.589797
O O13 0.185601 0.360619 0.711321
O O14 0.500000 0.310220 0.250000
O O15 0.328506 0.283252 0.295379
O O16 0.816920 0.847310 0.840948
O O17 0.826177 0.612463 0.771702
O O18 0.910524 0.000000 0.000000
O O19 0.820599 0.500000 0.000000
#
# Coordination Sequence:
#
# PCOD9310812 Si02
#       8
#     4   4   4   4   4   4   4   4
#     4  10  20  36  65  96 135 171 206 259 338 417
#     4  11  23  42  65  89 129 170 209 284 326 387
#     4  12  28  47  64  94 133 182 237 277 320 383
#     4  11  21  42  67  90 133 173 208 276 328 393
#     4  10  21  38  63 102 137 168 212 270 335 412
#     4  12  24  41  70  98 132 175 213 284 328 402
#     4  11  22  41  68  89 115 177 232 257 315 389
#     4  11  20  41  66  96 129 161 213 264 345 393
#
# _framework density 19.743701999999999
#
# number of rings (size 3 to 8) (size 9 to 14) (size 15 to 20)
#    0.000    1.000    7.500    1.125    1.750    2.000 
#    0.000    0.000    0.000    4.500    0.000    0.000 
#    0.000    0.000    0.000    0.000    0.000    0.000 
#
# Total GULP energy -178426.349025 kJ/mol
# GULP energy per Si atom -5575.823407 kJ/mol
# Density = 1.969876 g / cm^3
# Si number density = 19.743702 Si / 1000 Ang^3
#
#
#
# Elastic Constant Matrix: (Units=GPa)
#
#
# Indices 1 2 3 4 5 6 
#
# 1 99.5026 1.9490 44.4028 0.0000 0.0000 0.0000
# 2 1.9490 52.5327 -5.6959 0.0000 0.0000 0.0000
# 3 44.4028 -5.6959 122.7187 0.0000 0.0000 0.0000
# 4 0.0000 0.0000 0.0000 22.0836 0.0000 0.0000
# 5 0.0000 0.0000 0.0000 0.0000 25.4951 0.0000
# 6 0.0000 0.0000 0.0000 0.0000 0.0000 6.1251
#
#
#
# Elastic Compliance Matrix: (Units=1/GPa)
#
#
# Indices 1 2 3 4 5 6 
#
# 1 0.012030 -0.000923 -0.004395 0.000000 0.000000 0.000000
# 2 -0.000923 0.019203 0.001225 0.000000 0.000000 0.000000
# 3 -0.004395 0.001225 0.009796 0.000000 0.000000 0.000000
# 4 0.000000 0.000000 0.000000 0.045282 0.000000 0.000000
# 5 0.000000 0.000000 0.000000 0.000000 0.039223 0.000000
# 6 0.000000 0.000000 0.000000 0.000000 0.000000 0.163263
#
#
# Mechanical properties :
#
#
# Convention : Reuss Voigt Hill
#
# Bulk Modulus (GPa) = 30.44871 39.56287 35.00579
# Shear Modulus (GPa) = 16.23745 26.34730 21.29238
#
# Velocity S-wave (km/s) = 2.87088 3.65700 3.28752
# Velocity P-wave (km/s) = 5.14245 6.15737 5.67265
#
# Compressibility (1/GPa) = 0.03284212
#
# Stress axis : x y z
#
# Youngs Moduli (GPa) = 83.12893 52.07566 102.08290
#
# Poissons Ratio (x) = 0.04806 0.44870
# Poissons Ratio (y) = 0.07672 -0.12507
# Poissons Ratio (z) = 0.36539 -0.06380
#
# Static dielectric constant tensor:
#      x y z
#    x 1.694520 0.000000 0.000000 
#    y 0.000000 1.765740 0.000000 
#    z 0.000000 0.000000 1.712320 
# 
# From -- ./inp_files/5288.got.cif
#   From: 2010.05.17/outbox.cif.g08.bks.cpg/sg17_3_cif.got.tgz:5288.got - 2010.06.03 22:34:06.
