data_PCOD9310373
_publ_section_title
;
Structure prediction by ZEFSAII (Michael W. Deem and Ramdas Pophale) SiO2 
 PCOD9310373
Probable space group: P 2 2 2
;
_chemical_formula_sum "Si O2"
_cell_formula_units_Z 18
_cell_length_a 9.693766
_cell_length_b 7.180181
_cell_length_c 11.745316
_cell_angle_alpha 90.000000
_cell_angle_beta 90.000000
_cell_angle_gamma 90.000000
_cell_volume 817.509164
_symmetry_space_group_name_H-M "P 2 2 2"
_symmetry_group_IT_number 16
_symmetry_cell_setting 'orthorhombic'
loop_
_space_group_symop_operation_xyz
x,y,z
-x,-y,z
x,-y,-z
-x,y,-z
loop_
_atom_site_type_symbol
_atom_site_label
_atom_site_fract_x
_atom_site_fract_y
_atom_site_fract_z
Si Si1 0.226263 0.726029 0.739051
Si Si2 0.000000 0.000000 0.275662
Si Si3 0.219946 0.304246 0.773672
Si Si4 0.513373 0.275055 0.370235
Si Si5 0.337793 0.776933 0.989104
O O1 0.116853 0.860281 0.676780
O O2 0.188226 0.508419 0.722474
O O3 0.377046 0.783300 0.695482
O O4 0.248618 0.743698 0.875181
O O5 0.903260 0.156409 0.218163
O O6 0.346206 0.228840 0.695658
O O7 0.272901 0.322183 0.901836
O O8 0.500000 0.500000 0.369800
O O9 0.500000 0.213020 0.500000
O O10 0.500000 0.723978 0.000000
O O11 0.334943 0.000000 0.000000
#
# Coordination Sequence:
#
# PCOD9310373 Si02
#       5
#     4   2   4   4   4
#     4  11  23  41  67  94 126 170 209 255 317 372
#     4  12  26  43  59  92 140 170 207 255 302 386
#     4  11  23  41  67  94 126 170 209 255 317 372
#     4   9  20  42  71  98 121 156 215 274 315 362
#     4  11  21  37  66  96 132 160 205 267 315 366
#
# _framework density 22.018101999999999
#
# number of rings (size 3 to 8) (size 9 to 14) (size 15 to 20)
#    0.000    1.333    4.444    1.333    0.000    3.556 
#    0.000    6.667    0.000    5.333    0.000    0.000 
#    0.000    0.000    0.000    0.000    0.000    0.000 
#
# Total GULP energy -100305.845935 kJ/mol
# GULP energy per Si atom -5572.546996 kJ/mol
# Density = 2.196799 g / cm^3
# Si number density = 22.018102 Si / 1000 Ang^3
#
#
#
# Elastic Constant Matrix: (Units=GPa)
#
#
# Indices 1 2 3 4 5 6 
#
# 1 110.9772 32.7497 12.5063 0.0000 0.0000 0.0000
# 2 32.7497 137.0307 -10.6279 0.0000 0.0000 0.0000
# 3 12.5063 -10.6279 82.8362 0.0000 0.0000 0.0000
# 4 0.0000 0.0000 0.0000 -81.4711 0.0000 0.0000
# 5 0.0000 0.0000 0.0000 0.0000 -8.6030 0.0000
# 6 0.0000 0.0000 0.0000 0.0000 0.0000 33.9271
#
#
#
# Elastic Compliance Matrix: (Units=1/GPa)
#
#
# Indices 1 2 3 4 5 6 
#
# 1 0.009961 -0.002522 -0.001828 0.000000 0.000000 0.000000
# 2 -0.002522 0.008010 0.001408 0.000000 0.000000 0.000000
# 3 -0.001828 0.001408 0.012529 0.000000 0.000000 0.000000
# 4 0.000000 0.000000 0.000000 -0.012274 0.000000 0.000000
# 5 0.000000 0.000000 0.000000 0.000000 -0.116238 0.000000
# 6 0.000000 0.000000 0.000000 0.000000 0.000000 0.029475
#
#
# Mechanical properties :
#
#
# Convention : Reuss Voigt Hill
#
# Bulk Modulus (GPa) = 40.62299 44.45558 42.53929
# Shear Modulus (GPa) = -91.82872 8.51832 -41.65520
#
# Velocity S-wave (km/s) = -6.46503 1.96906 -4.35427
# Velocity P-wave (km/s) = 6.10237 5.04023 2.43259
#
# Compressibility (1/GPa) = 0.02461660
#
# Stress axis : x y z
#
# Youngs Moduli (GPa) = 100.38973 124.84832 79.81716
#
# Poissons Ratio (x) = 0.31492 0.14587
# Poissons Ratio (y) = 0.25322 -0.11242
# Poissons Ratio (z) = 0.18346 -0.17585
#
# Static dielectric constant tensor:
#      x y z
#    x 1.857360 0.000000 0.000000 
#    y 0.000000 1.876540 0.000000 
#    z 0.000000 0.000000 1.812230 
# 
# From -- ./inp_files/6383.got.cif
#   From: 2010.05.17/outbox.cif.g08.bks.cpg/sg16_4_cif.got.tgz:6383.got - 2010.06.03 22:28:35.
