data_PCOD9310134
_publ_section_title
;
Structure prediction by ZEFSAII (Michael W. Deem and Ramdas Pophale) SiO2 
 PCOD9310134
Probable space group: P 2 2 2
;
_chemical_formula_sum "Si O2"
_cell_formula_units_Z 30
_cell_length_a 11.638936
_cell_length_b 22.252540
_cell_length_c 5.704783
_cell_angle_alpha 90.000000
_cell_angle_beta 90.000000
_cell_angle_gamma 90.000000
_cell_volume 1477.515344
_symmetry_space_group_name_H-M "P 2 2 2"
_symmetry_group_IT_number 16
_symmetry_cell_setting 'orthorhombic'
loop_
_space_group_symop_operation_xyz
x,y,z
-x,-y,z
x,-y,-z
-x,y,-z
loop_
_atom_site_type_symbol
_atom_site_label
_atom_site_fract_x
_atom_site_fract_y
_atom_site_fract_z
Si Si1 0.309967 0.250665 0.321377
Si Si2 0.751725 0.927812 0.501960
Si Si3 0.368521 0.072683 0.000191
Si Si4 0.872645 0.280142 0.055962
Si Si5 0.632187 0.522874 0.749461
Si Si6 0.332870 0.663615 0.295674
Si Si7 0.500000 0.747998 0.000000
Si Si8 0.121779 0.819279 0.398215
O O1 0.359584 0.309171 0.450833
O O2 0.240268 0.206848 0.491966
O O3 0.208167 0.277049 0.165787
O O4 0.415014 0.219925 0.182997
O O5 0.696726 0.911847 0.245674
O O6 0.866364 0.889325 0.547211
O O7 0.766463 0.000000 0.500000
O O8 0.682607 0.911281 0.743219
O O9 0.500000 0.093330 0.000000
O O10 0.369091 0.000000 0.000000
O O11 0.800784 0.320408 0.239891
O O12 0.877765 0.210775 0.143769
O O13 0.000000 0.301416 0.000000
O O14 0.500000 0.500000 0.749426
O O15 0.683013 0.500000 0.500000
O O16 0.638803 0.594733 0.741027
O O17 0.681770 0.500000 0.000000
O O18 0.409658 0.705434 0.130414
O O19 0.000000 0.796960 0.500000
#
# Coordination Sequence:
#
# PCOD9310134 Si02
#       8
#     4   4   4   4   4   4   2   4
#     4  10  22  38  61  90 123 164 215 268 335 381
#     4  10  22  38  62  94 125 164 214 267 334 402
#     4   9  18  37  60  86 121 164 209 254 309 393
#     4  10  21  40  66  90 117 167 227 272 329 383
#     4  10  22  35  58  92 132 171 213 248 313 396
#     4  10  22  36  62  95 131 172 210 271 319 391
#     4  10  20  36  61  86 134 161 204 260 334 386
#     4  11  23  40  63  87 123 162 217 276 333 405
#
# _framework density 20.304358000000001
#
# number of rings (size 3 to 8) (size 9 to 14) (size 15 to 20)
#    0.000    2.000    1.333    1.600    9.333    1.867 
#    1.200    4.000    0.000    2.800    0.000    0.000 
#    0.000    0.000    0.000    0.000    0.000    0.000 
#
# Total GULP energy -167020.024591 kJ/mol
# GULP energy per Si atom -5567.334153 kJ/mol
# Density = 2.025814 g / cm^3
# Si number density = 20.304358 Si / 1000 Ang^3
#
#
#
# Elastic Constant Matrix: (Units=GPa)
#
#
# Indices 1 2 3 4 5 6 
#
# 1 115.8029 24.1353 29.9841 0.0000 0.0000 0.0000
# 2 24.1353 86.9265 26.1266 0.0000 0.0000 0.0000
# 3 29.9841 26.1266 119.0574 0.0000 0.0000 0.0000
# 4 0.0000 0.0000 0.0000 10.1208 0.0000 0.0000
# 5 0.0000 0.0000 0.0000 0.0000 19.7482 0.0000
# 6 0.0000 0.0000 0.0000 0.0000 0.0000 20.4381
#
#
#
# Elastic Compliance Matrix: (Units=1/GPa)
#
#
# Indices 1 2 3 4 5 6 
#
# 1 0.009573 -0.002070 -0.001957 0.000000 0.000000 0.000000
# 2 -0.002070 0.012764 -0.002280 0.000000 0.000000 0.000000
# 3 -0.001957 -0.002280 0.009392 0.000000 0.000000 0.000000
# 4 0.000000 0.000000 0.000000 0.098807 0.000000 0.000000
# 5 0.000000 0.000000 0.000000 0.000000 0.050638 0.000000
# 6 0.000000 0.000000 0.000000 0.000000 0.000000 0.048928
#
#
# Mechanical properties :
#
#
# Convention : Reuss Voigt Hill
#
# Bulk Modulus (GPa) = 52.30980 53.58654 52.94817
# Shear Modulus (GPa) = 20.07329 26.16412 23.11871
#
# Velocity S-wave (km/s) = 3.14764 3.59360 3.37799
# Velocity P-wave (km/s) = 6.24732 6.60814 6.43026
#
# Compressibility (1/GPa) = 0.01911688
#
# Stress axis : x y z
#
# Youngs Moduli (GPa) = 104.45568 78.34616 106.46927
#
# Poissons Ratio (x) = 0.16217 0.20834
# Poissons Ratio (y) = 0.21622 0.24271
# Poissons Ratio (z) = 0.20440 0.17860
#
# Static dielectric constant tensor:
#      x y z
#    x 1.766990 0.000000 0.000000 
#    y 0.000000 1.732650 0.000000 
#    z 0.000000 0.000000 1.820840 
# 
# From -- ./inp_files/1683.got.cif
#   From: 2010.05.17/outbox.cif.g08.bks.cpg/sg16_1_cif.got.tgz:1683.got - 2010.06.03 22:28:35.
