data_PCOD9310316
_publ_section_title
;
Structure prediction by ZEFSAII (Michael W. Deem and Ramdas Pophale) SiO2 
 PCOD9310316
Probable space group: P 2 2 2
;
_chemical_formula_sum "Si O2"
_cell_formula_units_Z 15
_cell_length_a 10.779378
_cell_length_b 12.624431
_cell_length_c 4.680382
_cell_angle_alpha 90.000000
_cell_angle_beta 90.000000
_cell_angle_gamma 90.000000
_cell_volume 636.922828
_symmetry_space_group_name_H-M "P 2 2 2"
_symmetry_group_IT_number 16
_symmetry_cell_setting 'orthorhombic'
loop_
_space_group_symop_operation_xyz
x,y,z
-x,-y,z
x,-y,-z
-x,y,-z
loop_
_atom_site_type_symbol
_atom_site_label
_atom_site_fract_x
_atom_site_fract_y
_atom_site_fract_z
Si Si1 0.000000 0.848532 0.000000
Si Si2 0.763260 0.279666 0.802308
Si Si3 0.386523 0.207188 0.691285
Si Si4 0.000000 0.000000 0.500000
Si Si5 0.500000 0.000000 0.500000
Si Si6 0.683746 0.500000 0.000000
Si Si7 0.500000 0.500000 0.500000
O O1 0.888576 0.777688 0.113554
O O2 0.055209 0.919583 0.261951
O O3 0.732403 0.248081 0.480731
O O4 0.646081 0.234772 0.986369
O O5 0.760969 0.404002 0.867768
O O6 0.500000 0.254330 0.500000
O O7 0.413708 0.081524 0.673154
O O8 0.597353 0.455861 0.260352
#
# Coordination Sequence:
#
# PCOD9310316 Si02
#       7
#     2   4   4   1   1   2   1
#     4  11  26  47  72 100 132 181 222 273 332 402
#     4  12  25  42  69  96 137 174 227 270 330 398
#     4  10  24  41  64 100 129 173 219 275 334 396
#     4  10  24  48  68 100 130 170 222 278 332 374
#     4   8  24  38  64  90 128 162 210 272 330 388
#     4  11  26  41  64  98 132 185 211 286 320 398
#     4  10  24  36  64  92 136 168 224 256 350 374
#
# _framework density 23.550733999999999
#
# number of rings (size 3 to 8) (size 9 to 14) (size 15 to 20)
#    0.800    0.533    0.000    4.000   11.200    9.067 
#    0.000    0.000    0.000    6.400    0.000    0.000 
#    0.000    0.000    0.000    0.000    0.000    0.000 
#
# Total GULP energy -83602.924770 kJ/mol
# GULP energy per Si atom -5573.528318 kJ/mol
# Density = 2.349713 g / cm^3
# Si number density = 23.550734 Si / 1000 Ang^3
#
#
#
# Elastic Constant Matrix: (Units=GPa)
#
#
# Indices 1 2 3 4 5 6 
#
# 1 77.4416 23.9464 17.4779 0.0000 0.0000 0.0000
# 2 23.9464 142.7377 24.6905 0.0000 0.0000 0.0000
# 3 17.4779 24.6905 142.4094 0.0000 0.0000 0.0000
# 4 0.0000 0.0000 0.0000 26.9652 0.0000 0.0000
# 5 0.0000 0.0000 0.0000 0.0000 33.6170 0.0000
# 6 0.0000 0.0000 0.0000 0.0000 0.0000 -78.2541
#
#
#
# Elastic Compliance Matrix: (Units=1/GPa)
#
#
# Indices 1 2 3 4 5 6 
#
# 1 0.013863 -0.002094 -0.001338 0.000000 0.000000 0.000000
# 2 -0.002094 0.007539 -0.001050 0.000000 0.000000 0.000000
# 3 -0.001338 -0.001050 0.007368 0.000000 0.000000 0.000000
# 4 0.000000 0.000000 0.000000 0.037085 0.000000 0.000000
# 5 0.000000 0.000000 0.000000 0.000000 0.029747 0.000000
# 6 0.000000 0.000000 0.000000 0.000000 0.000000 -0.012779
#
#
# Mechanical properties :
#
#
# Convention : Reuss Voigt Hill
#
# Bulk Modulus (GPa) = 50.49299 54.97980 52.73640
# Shear Modulus (GPa) = 50.81868 16.23055 33.52461
#
# Velocity S-wave (km/s) = 4.65029 2.62806 3.77703
# Velocity P-wave (km/s) = 7.09368 5.71007 6.43914
#
# Compressibility (1/GPa) = 0.01980473
#
# Stress axis : x y z
#
# Youngs Moduli (GPa) = 72.13688 132.64683 135.71639
#
# Poissons Ratio (x) = 0.27778 0.18162
# Poissons Ratio (y) = 0.15107 0.14251
# Poissons Ratio (z) = 0.09654 0.13928
#
# Static dielectric constant tensor:
#      x y z
#    x 1.896490 0.000000 0.000000 
#    y 0.000000 1.953760 0.000000 
#    z 0.000000 0.000000 1.871890 
# 
# From -- ./inp_files/1215.got.cif
#   From: 2010.05.17/outbox.cif.g08.bks.cpg/sg16_1_cif.got.tgz:1215.got - 2010.06.03 22:28:35.
