data_PCOD9310865
_publ_section_title
;
Structure prediction by ZEFSAII (Michael W. Deem and Ramdas Pophale) SiO2 
 PCOD9310865
Probable space group: P 2 2 21
;
_chemical_formula_sum "Si O2"
_cell_formula_units_Z 22
_cell_length_a 13.288058
_cell_length_b 8.830993
_cell_length_c 8.874961
_cell_angle_alpha 90.000000
_cell_angle_beta 90.000000
_cell_angle_gamma 90.000000
_cell_volume 1041.447805
_symmetry_space_group_name_H-M "P 2 2 21"
_symmetry_group_IT_number 17
_symmetry_cell_setting 'orthorhombic'
loop_
_space_group_symop_operation_xyz
x,y,z
-x,-y,1/2+z
x,-y,-z
-x,y,1/2-z
loop_
_atom_site_type_symbol
_atom_site_label
_atom_site_fract_x
_atom_site_fract_y
_atom_site_fract_z
Si Si1 0.208041 0.664988 0.997724
Si Si2 0.600456 0.000000 0.500000
Si Si3 0.406192 0.290614 0.827035
Si Si4 0.882316 0.843666 0.225904
Si Si5 0.747521 0.131992 0.241375
Si Si6 0.733712 0.321379 0.959836
O O1 0.325267 0.650016 0.051338
O O2 0.158816 0.777267 0.116719
O O3 0.161700 0.500000 0.000000
O O4 0.198903 0.734966 0.833964
O O5 0.549564 0.141487 0.586699
O O6 0.669678 0.065142 0.364245
O O7 0.500000 0.377266 0.750000
O O8 0.334315 0.273341 0.682177
O O9 0.845592 0.727537 0.095784
O O10 0.000000 0.863899 0.250000
O O11 0.824524 0.000776 0.196928
O O12 0.701539 0.214907 0.097893
O O13 0.726108 0.500000 0.000000
#
# Coordination Sequence:
#
# PCOD9310865 Si02
#       6
#     4   2   4   4   4   4
#     4  10  21  41  63  86 128 169 201 254 315 374
#     4  10  20  38  62  92 120 172 202 254 322 352
#     4  10  22  40  61  94 125 161 214 253 306 368
#     4  11  23  40  63  92 122 160 216 257 311 372
#     4  11  19  39  64  88 126 162 210 252 308 374
#     4  11  24  41  63  93 129 166 204 260 317 363
#
# _framework density 21.124438000000001
#
# number of rings (size 3 to 8) (size 9 to 14) (size 15 to 20)
#    0.000    1.455    5.455    2.727    0.000    5.818 
#    0.000    4.545    0.000    0.000    0.000    0.000 
#    0.000    0.000    0.000    0.000    0.000    0.000 
#
# Total GULP energy -122544.218626 kJ/mol
# GULP energy per Si atom -5570.191756 kJ/mol
# Density = 2.107636 g / cm^3
# Si number density = 21.124438 Si / 1000 Ang^3
#
#
#
# Elastic Constant Matrix: (Units=GPa)
#
#
# Indices 1 2 3 4 5 6 
#
# 1 69.1900 15.5135 5.8314 0.0000 0.0000 0.0000
# 2 15.5135 99.9327 34.2629 0.0000 0.0000 0.0000
# 3 5.8314 34.2629 92.6582 0.0000 0.0000 0.0000
# 4 0.0000 0.0000 0.0000 15.0187 0.0000 0.0000
# 5 0.0000 0.0000 0.0000 0.0000 8.6220 0.0000
# 6 0.0000 0.0000 0.0000 0.0000 0.0000 -13.2521
#
#
#
# Elastic Compliance Matrix: (Units=1/GPa)
#
#
# Indices 1 2 3 4 5 6 
#
# 1 0.014975 -0.002292 -0.000095 0.000000 0.000000 0.000000
# 2 -0.002292 0.011810 -0.004223 0.000000 0.000000 0.000000
# 3 -0.000095 -0.004223 0.012360 0.000000 0.000000 0.000000
# 4 0.000000 0.000000 0.000000 0.066584 0.000000 0.000000
# 5 0.000000 0.000000 0.000000 0.000000 0.115982 0.000000
# 6 0.000000 0.000000 0.000000 0.000000 0.000000 -0.075460
#
#
# Mechanical properties :
#
#
# Convention : Reuss Voigt Hill
#
# Bulk Modulus (GPa) = 38.57246 41.44405 40.00826
# Shear Modulus (GPa) = 29.74183 15.82258 22.78220
#
# Velocity S-wave (km/s) = 3.75632 2.73979 3.28758
# Velocity P-wave (km/s) = 6.09200 5.44703 5.77852
#
# Compressibility (1/GPa) = 0.02592523
#
# Stress axis : x y z
#
# Youngs Moduli (GPa) = 66.77845 84.67067 80.90690
#
# Poissons Ratio (x) = 0.19408 0.00767
# Poissons Ratio (y) = 0.15307 0.34167
# Poissons Ratio (z) = 0.00633 0.35756
#
# Static dielectric constant tensor:
#      x y z
#    x 1.808310 0.000000 0.000000 
#    y 0.000000 1.824700 0.000000 
#    z 0.000000 0.000000 1.791960 
# 
# From -- ./inp_files/5112.got.cif
#   From: 2010.05.17/outbox.cif.g08.bks.cpg/sg17_3_cif.got.tgz:5112.got - 2010.06.03 22:34:06.
