data_PCOD9310943
_publ_section_title
;
Structure prediction by ZEFSAII (Michael W. Deem and Ramdas Pophale) SiO2 
 PCOD9310943
Probable space group: P 2 2 21
;
_chemical_formula_sum "Si O2"
_cell_formula_units_Z 18
_cell_length_a 18.025853
_cell_length_b 5.527029
_cell_length_c 8.608898
_cell_angle_alpha 90.000000
_cell_angle_beta 90.000000
_cell_angle_gamma 90.000000
_cell_volume 857.699448
_symmetry_space_group_name_H-M "P 2 2 21"
_symmetry_group_IT_number 17
_symmetry_cell_setting 'orthorhombic'
loop_
_space_group_symop_operation_xyz
x,y,z
-x,-y,1/2+z
x,-y,-z
-x,y,1/2-z
loop_
_atom_site_type_symbol
_atom_site_label
_atom_site_fract_x
_atom_site_fract_y
_atom_site_fract_z
Si Si1 0.428883 0.500000 0.500000
Si Si2 0.357537 0.154239 0.746935
Si Si3 0.222421 0.137602 0.165523
Si Si4 0.056795 0.752943 0.894310
Si Si5 0.500000 0.179901 0.250000
Si Si6 0.683703 0.500000 0.500000
O O1 0.377712 0.332479 0.607435
O O2 0.483223 0.343736 0.395996
O O3 0.359110 0.295731 0.909664
O O4 0.277557 0.023017 0.729612
O O5 0.425130 0.970729 0.760644
O O6 0.136649 0.198341 0.188799
O O7 0.265081 0.385773 0.133239
O O8 0.222369 0.000000 0.000000
O O9 0.000000 0.728394 0.750000
O O10 0.058634 0.500000 0.000000
O O11 0.042624 0.000000 0.000000
#
# Coordination Sequence:
#
# PCOD9310943 Si02
#       6
#     2   4   4   4   2   2
#     4  12  28  45  62  90 133 174 228 296 359 414
#     4  11  25  42  67  97 128 174 233 290 350 424
#     4   9  20  39  68  97 133 182 233 276 346 427
#     4  11  23  45  76 112 154 197 248 302 371 444
#     4  12  28  46  64  92 130 176 230 294 354 424
#     4  10  20  41  68  96 123 174 228 280 341 418
#
# _framework density 20.986373
#
# number of rings (size 3 to 8) (size 9 to 14) (size 15 to 20)
#    0.000    1.333    1.111    3.333    0.000   16.889 
#    0.000    4.444    2.444    0.000    0.000    0.000 
#    0.000    0.000    0.000    0.000    0.000    0.000 
#
# Total GULP energy -100466.708054 kJ/mol
# GULP energy per Si atom -5581.483781 kJ/mol
# Density = 2.093861 g / cm^3
# Si number density = 20.986373 Si / 1000 Ang^3
#
#
#
# Elastic Constant Matrix: (Units=GPa)
#
#
# Indices 1 2 3 4 5 6 
#
# 1 178.7564 83.3438 89.0112 0.0000 0.0000 0.0000
# 2 83.3438 135.4885 58.7933 0.0000 0.0000 0.0000
# 3 89.0112 58.7933 88.6521 0.0000 0.0000 0.0000
# 4 0.0000 0.0000 0.0000 46.2367 0.0000 0.0000
# 5 0.0000 0.0000 0.0000 0.0000 38.7188 0.0000
# 6 0.0000 0.0000 0.0000 0.0000 0.0000 11.2862
#
#
#
# Elastic Compliance Matrix: (Units=1/GPa)
#
#
# Indices 1 2 3 4 5 6 
#
# 1 0.012011 -0.003026 -0.010052 0.000000 0.000000 0.000000
# 2 -0.003026 0.011125 -0.004340 0.000000 0.000000 0.000000
# 3 -0.010052 -0.004340 0.024251 0.000000 0.000000 0.000000
# 4 0.000000 0.000000 0.000000 0.021628 0.000000 0.000000
# 5 0.000000 0.000000 0.000000 0.000000 0.025827 0.000000
# 6 0.000000 0.000000 0.000000 0.000000 0.000000 0.088604
#
#
# Mechanical properties :
#
#
# Convention : Reuss Voigt Hill
#
# Bulk Modulus (GPa) = 79.67763 96.13263 87.90513
# Shear Modulus (GPa) = 22.47522 30.69824 26.58673
#
# Velocity S-wave (km/s) = 3.27608 3.82877 3.56315
# Velocity P-wave (km/s) = 7.23595 8.09028 7.67501
#
# Compressibility (1/GPa) = 0.01255057
#
# Stress axis : x y z
#
# Youngs Moduli (GPa) = 83.25905 89.88444 41.23460
#
# Poissons Ratio (x) = 0.27200 0.41451
# Poissons Ratio (y) = 0.25195 0.17896
# Poissons Ratio (z) = 0.83696 0.39009
#
# Static dielectric constant tensor:
#      x y z
#    x 1.766120 0.000000 0.000000 
#    y 0.000000 1.913750 0.000000 
#    z 0.000000 0.000000 1.727090 
# 
# From -- ./inp_files/5389.got.cif
#   From: 2010.05.17/outbox.cif.g08.bks.cpg/sg17_3_cif.got.tgz:5389.got - 2010.06.03 22:34:06.
