data_PCOD9310939
_publ_section_title
;
Structure prediction by ZEFSAII (Michael W. Deem and Ramdas Pophale) SiO2 
 PCOD9310939
Probable space group: P 2 2 21
;
_chemical_formula_sum "Si O2"
_cell_formula_units_Z 32
_cell_length_a 11.404596
_cell_length_b 15.248787
_cell_length_c 8.165197
_cell_angle_alpha 90.000000
_cell_angle_beta 90.000000
_cell_angle_gamma 90.000000
_cell_volume 1419.978833
_symmetry_space_group_name_H-M "P 2 2 21"
_symmetry_group_IT_number 17
_symmetry_cell_setting 'orthorhombic'
loop_
_space_group_symop_operation_xyz
x,y,z
-x,-y,1/2+z
x,-y,-z
-x,y,1/2-z
loop_
_atom_site_type_symbol
_atom_site_label
_atom_site_fract_x
_atom_site_fract_y
_atom_site_fract_z
Si Si1 0.107905 0.587325 0.423068
Si Si2 0.476282 0.902067 0.055849
Si Si3 0.335861 0.229150 0.500757
Si Si4 0.050605 0.908078 0.072755
Si Si5 0.733904 0.778664 0.389401
Si Si6 0.748170 0.583686 0.386184
Si Si7 0.917226 0.762427 0.903540
Si Si8 0.619367 0.411037 0.935826
O O1 0.052924 0.500000 0.500000
O O2 0.058139 0.681535 0.472015
O O3 0.242790 0.589159 0.495572
O O4 0.863194 0.578914 0.268712
O O5 0.500000 0.904277 0.250000
O O6 0.590124 0.858191 0.973885
O O7 0.371009 0.834044 0.033852
O O8 0.451086 0.000000 0.000000
O O9 0.287972 0.229650 0.691075
O O10 0.223409 0.235209 0.383852
O O11 0.419080 0.315818 0.502161
O O12 0.151732 0.836297 0.085621
O O13 0.000000 0.926808 0.250000
O O14 0.951284 0.858132 0.969764
O O15 0.091139 0.000000 0.000000
O O16 0.746470 0.680845 0.459979
O O17 0.744261 0.500000 0.500000
O O18 0.638050 0.583384 0.259365
O O19 0.000000 0.745026 0.750000
O O20 0.563065 0.500000 0.000000
#
# Coordination Sequence:
#
# PCOD9310939 Si02
#       8
#     4   4   4   4   4   4   4   4
#     4   8  16  34  57  80 127 158 209 263 308 383
#     4  10  22  42  66  92 121 168 221 277 338 400
#     4   9  18  39  65  87 122 170 211 269 330 395
#     4  12  24  42  61  86 126 164 212 277 336 406
#     4  10  20  41  63  87 129 168 211 269 332 397
#     4   9  16  30  57  89 121 167 208 258 317 388
#     4  11  22  40  62  95 123 171 220 263 336 400
#     4   7  13  29  54  81 117 160 200 253 312 377
#
# _framework density 22.535547000000001
#
# number of rings (size 3 to 8) (size 9 to 14) (size 15 to 20)
#    0.750    1.750    2.500    0.750    0.000    1.500 
#    6.750    3.125    0.000    0.000    0.000    0.000 
#    0.000    0.000    0.000    0.000    0.000    0.000 
#
# Total GULP energy -178577.014020 kJ/mol
# GULP energy per Si atom -5580.531688 kJ/mol
# Density = 2.248426 g / cm^3
# Si number density = 22.535547 Si / 1000 Ang^3
#
#
#
# Elastic Constant Matrix: (Units=GPa)
#
#
# Indices 1 2 3 4 5 6 
#
# 1 72.2275 42.1187 28.5636 0.0000 0.0000 0.0000
# 2 42.1187 211.5293 46.2497 0.0000 0.0000 0.0000
# 3 28.5636 46.2497 46.5012 0.0000 0.0000 0.0000
# 4 0.0000 0.0000 0.0000 15.2209 0.0000 0.0000
# 5 0.0000 0.0000 0.0000 0.0000 20.4954 0.0000
# 6 0.0000 0.0000 0.0000 0.0000 0.0000 21.5136
#
#
#
# Elastic Compliance Matrix: (Units=1/GPa)
#
#
# Indices 1 2 3 4 5 6 
#
# 1 0.018675 -0.001547 -0.009933 0.000000 0.000000 0.000000
# 2 -0.001547 0.006169 -0.005186 0.000000 0.000000 0.000000
# 3 -0.009933 -0.005186 0.032764 0.000000 0.000000 0.000000
# 4 0.000000 0.000000 0.000000 0.065699 0.000000 0.000000
# 5 0.000000 0.000000 0.000000 0.000000 0.048792 0.000000
# 6 0.000000 0.000000 0.000000 0.000000 0.000000 0.046482
#
#
# Mechanical properties :
#
#
# Convention : Reuss Voigt Hill
#
# Bulk Modulus (GPa) = 41.19055 62.68021 51.93538
# Shear Modulus (GPa) = 19.23041 25.66772 22.44906
#
# Velocity S-wave (km/s) = 2.92436 3.37855 3.15963
# Velocity P-wave (km/s) = 5.45163 6.56459 6.03382
#
# Compressibility (1/GPa) = 0.02427742
#
# Stress axis : x y z
#
# Youngs Moduli (GPa) = 53.54673 162.09252 30.52129
#
# Poissons Ratio (x) = 0.25071 0.30317
# Poissons Ratio (y) = 0.08282 0.15828
# Poissons Ratio (z) = 0.53188 0.84059
#
# Static dielectric constant tensor:
#      x y z
#    x 1.925170 0.000000 0.000000 
#    y 0.000000 1.837770 0.000000 
#    z 0.000000 0.000000 1.853790 
# 
# From -- ./inp_files/4962.got.cif
#   From: 2010.05.17/outbox.cif.g08.bks.cpg/sg17_3_cif.got.tgz:4962.got - 2010.06.03 22:34:06.
