data_PCOD9310105
_publ_section_title
;
Structure prediction by ZEFSAII (Michael W. Deem and Ramdas Pophale) SiO2 
 PCOD9310105
Probable space group: P 2 2 2
;
_chemical_formula_sum "Si O2"
_cell_formula_units_Z 32
_cell_length_a 13.160086
_cell_length_b 16.493287
_cell_length_c 7.787866
_cell_angle_alpha 90.000000
_cell_angle_beta 90.000000
_cell_angle_gamma 90.000000
_cell_volume 1690.380266
_symmetry_space_group_name_H-M "P 2 2 2"
_symmetry_group_IT_number 16
_symmetry_cell_setting 'orthorhombic'
loop_
_space_group_symop_operation_xyz
x,y,z
-x,-y,z
x,-y,-z
-x,y,-z
loop_
_atom_site_type_symbol
_atom_site_label
_atom_site_fract_x
_atom_site_fract_y
_atom_site_fract_z
Si Si1 0.751020 0.144319 0.688963
Si Si2 0.248980 0.144319 0.688962
Si Si3 0.880495 1.000000 0.800808
Si Si4 0.387743 0.146347 1.000000
Si Si5 0.000000 0.406593 0.708459
Si Si6 0.380554 0.343271 1.000000
Si Si7 0.219578 0.664696 0.295814
Si Si8 0.219578 0.664696 0.704186
O O1 0.706177 0.139221 0.500000
O O2 0.670727 0.121013 0.831470
O O3 0.783938 0.237397 0.716421
O O4 0.840796 0.080679 0.709977
O O5 0.159204 0.080679 0.709977
O O6 0.216062 0.237397 0.716420
O O7 0.329273 0.121013 0.831469
O O8 0.000000 0.000000 0.799777
O O9 0.846369 0.000000 0.000000
O O10 0.388392 0.245071 1.000000
O O11 0.500000 0.114888 0.000000
O O12 0.891769 0.367550 0.759582
O O13 0.000000 0.500000 0.762142
O O14 0.000000 0.402754 0.500000
O O15 0.108232 0.367550 0.759582
O O16 0.311006 0.363844 0.168602
O O17 0.500000 0.372275 0.000000
O O18 0.311006 0.363844 0.831397
O O19 0.236262 0.644378 0.500000
#
# Coordination Sequence:
#
# PCOD9310105 Si02
#       8
#     4   4   4   4   4   4   4   4
#     4  10  20  35  54  78 107 138 179 220 265 317
#     4  10  20  35  54  78 107 138 179 220 265 317
#     4  11  23  37  53  75 105 142 181 218 266 320
#     4   9  18  35  55  76 106 137 176 226 271 311
#     4   9  18  35  59  86 116 146 178 219 270 329
#     4   9  18  33  54  81 109 144 185 227 272 317
#     4   9  19  34  55  83 111 144 182 223 270 325
#     4   9  19  34  55  83 111 144 182 223 270 325
#
# _framework density 18.930651999999998
#
# number of rings (size 3 to 8) (size 9 to 14) (size 15 to 20)
#    0.000    2.500    1.250    0.375    1.750    2.500 
#    0.000    7.500    0.000    3.000    0.000    3.500 
#    0.000    0.000    0.000    0.000    0.000    0.000 
#
# Total GULP energy -178291.369945 kJ/mol
# GULP energy per Si atom -5571.605311 kJ/mol
# Density = 1.888756 g / cm^3
# Si number density = 18.930652 Si / 1000 Ang^3
#
#
#
# Elastic Constant Matrix: (Units=GPa)
#
#
# Indices 1 2 3 4 5 6 
#
# 1 167.8834 43.6679 82.4100 0.0000 0.0000 0.0000
# 2 43.6679 32.6654 40.0351 0.0000 0.0000 0.0000
# 3 82.4100 40.0351 119.9708 0.0000 0.0000 0.0000
# 4 0.0000 0.0000 0.0000 10.6152 0.0000 0.0000
# 5 0.0000 0.0000 0.0000 0.0000 -37.3640 0.0000
# 6 0.0000 0.0000 0.0000 0.0000 0.0000 -119.4812
#
#
#
# Elastic Compliance Matrix: (Units=1/GPa)
#
#
# Indices 1 2 3 4 5 6 
#
# 1 0.010232 -0.008568 -0.004169 0.000000 0.000000 0.000000
# 2 -0.008568 0.058974 -0.013794 0.000000 0.000000 0.000000
# 3 -0.004169 -0.013794 0.015802 0.000000 0.000000 0.000000
# 4 0.000000 0.000000 0.000000 0.094205 0.000000 0.000000
# 5 0.000000 0.000000 0.000000 0.000000 -0.026764 0.000000
# 6 0.000000 0.000000 0.000000 0.000000 0.000000 -0.008370
#
#
# Mechanical properties :
#
#
# Convention : Reuss Voigt Hill
#
# Bulk Modulus (GPa) = 31.30388 72.52731 51.91560
# Shear Modulus (GPa) = 24.06251 -18.95225 2.55513
#
# Velocity S-wave (km/s) = 3.56910 -3.16751 1.16304
# Velocity P-wave (km/s) = 5.79281 5.00177 5.41176
#
# Compressibility (1/GPa) = 0.03194492
#
# Stress axis : x y z
#
# Youngs Moduli (GPa) = 97.73555 16.95650 63.28148
#
# Poissons Ratio (x) = 0.14529 0.26382
# Poissons Ratio (y) = 0.83744 0.87293
# Poissons Ratio (z) = 0.40746 0.23391
#
# Static dielectric constant tensor:
#      x y z
#    x 1.633750 0.000000 0.000000 
#    y 0.000000 1.644190 0.000000 
#    z 0.000000 0.000000 1.690470 
# 
# From -- ./inp_files/4901.got.cif
#   From: 2010.05.17/outbox.cif.g08.bks.cpg/sg16_3_cif.got.tgz:4901.got - 2010.06.03 22:28:35.
