data_PCOD9310361
_publ_section_title
;
Structure prediction by ZEFSAII (Michael W. Deem and Ramdas Pophale) SiO2 
 PCOD9310361
Probable space group: P 2 2 2
;
_chemical_formula_sum "Si O2"
_cell_formula_units_Z 18
_cell_length_a 9.615247
_cell_length_b 11.747955
_cell_length_c 8.624057
_cell_angle_alpha 90.000000
_cell_angle_beta 90.000000
_cell_angle_gamma 90.000000
_cell_volume 974.169072
_symmetry_space_group_name_H-M "P 2 2 2"
_symmetry_group_IT_number 16
_symmetry_cell_setting 'orthorhombic'
loop_
_space_group_symop_operation_xyz
x,y,z
-x,-y,z
x,-y,-z
-x,y,-z
loop_
_atom_site_type_symbol
_atom_site_label
_atom_site_fract_x
_atom_site_fract_y
_atom_site_fract_z
Si Si1 0.977580 0.371725 0.311337
Si Si2 0.472575 0.872177 0.817661
Si Si3 0.500000 0.500000 0.500000
Si Si4 0.676768 0.299143 0.360136
Si Si5 0.000000 0.000000 0.500000
Si Si6 0.192403 0.814407 0.667211
O O1 0.822327 0.328955 0.277957
O O2 0.000000 0.500000 0.255652
O O3 0.000000 0.373608 0.500000
O O4 0.091988 0.281010 0.260491
O O5 0.573620 0.783621 0.731280
O O6 0.311707 0.848885 0.784554
O O7 0.500000 0.000000 0.759438
O O8 0.500000 0.866916 0.000000
O O9 0.597322 0.416036 0.400694
O O10 0.725188 0.238743 0.519777
O O11 0.902593 0.917481 0.396734
#
# Coordination Sequence:
#
# PCOD9310361 Si02
#       6
#     4   4   1   4   1   4
#     4   9  18  33  57  86 118 147 186 243 305 360
#     4  11  25  42  59  83 124 167 208 247 302 367
#     4  12  20  32  66 100 120 156 200 258 312 368
#     4  11  20  37  63  92 121 154 202 253 310 363
#     4  12  20  32  64  98 120 148 214 260 320 356
#     4  11  20  37  62  91 119 153 199 262 305 365
#
# _framework density 18.477285999999999
#
# number of rings (size 3 to 8) (size 9 to 14) (size 15 to 20)
#    0.000    1.333    5.556    4.000    0.000    0.889 
#    0.000    1.667    0.000    1.333    0.000    0.000 
#    0.000    0.000    0.000    0.000    0.000    0.000 
#
# Total GULP energy -100488.402559 kJ/mol
# GULP energy per Si atom -5582.689031 kJ/mol
# Density = 1.843523 g / cm^3
# Si number density = 18.477286 Si / 1000 Ang^3
#
#
#
# Elastic Constant Matrix: (Units=GPa)
#
#
# Indices 1 2 3 4 5 6 
#
# 1 185.0524 99.9250 40.1342 0.0000 0.0000 0.0000
# 2 99.9250 169.7423 34.7631 0.0000 0.0000 0.0000
# 3 40.1342 34.7631 28.4528 0.0000 0.0000 0.0000
# 4 0.0000 0.0000 0.0000 0.9567 0.0000 0.0000
# 5 0.0000 0.0000 0.0000 0.0000 9.9833 0.0000
# 6 0.0000 0.0000 0.0000 0.0000 0.0000 47.9446
#
#
#
# Elastic Compliance Matrix: (Units=1/GPa)
#
#
# Indices 1 2 3 4 5 6 
#
# 1 0.009251 -0.003699 -0.008530 0.000000 0.000000 0.000000
# 2 -0.003699 0.009337 -0.006189 0.000000 0.000000 0.000000
# 3 -0.008530 -0.006189 0.054740 0.000000 0.000000 0.000000
# 4 0.000000 0.000000 0.000000 1.045230 0.000000 0.000000
# 5 0.000000 0.000000 0.000000 0.000000 0.100168 0.000000
# 6 0.000000 0.000000 0.000000 0.000000 0.000000 0.020857
#
#
# Mechanical properties :
#
#
# Convention : Reuss Voigt Hill
#
# Bulk Modulus (GPa) = 27.40410 81.43246 54.41828
# Shear Modulus (GPa) = 3.88023 25.67194 14.77609
#
# Velocity S-wave (km/s) = 1.45071 3.73148 2.83095
# Velocity P-wave (km/s) = 4.20351 7.92039 6.34043
#
# Compressibility (1/GPa) = 0.03649089
#
# Stress axis : x y z
#
# Youngs Moduli (GPa) = 108.09229 107.10630 18.26828
#
# Poissons Ratio (x) = 0.39621 0.15583
# Poissons Ratio (y) = 0.39986 0.11307
# Poissons Ratio (z) = 0.92201 0.66291
#
# Static dielectric constant tensor:
#      x y z
#    x 1.647490 0.000000 0.000000 
#    y 0.000000 1.646060 0.000000 
#    z 0.000000 0.000000 1.612470 
# 
# From -- ./inp_files/3701.got.cif
#   From: 2010.05.17/outbox.cif.g08.bks.cpg/sg16_2_cif.got.tgz:3701.got - 2010.06.03 22:28:35.
