data_PCOD9310940
_publ_section_title
;
Structure prediction by ZEFSAII (Michael W. Deem and Ramdas Pophale) SiO2 
 PCOD9310940
Probable space group: P 2 2 21
;
_chemical_formula_sum "Si O2"
_cell_formula_units_Z 18
_cell_length_a 9.546160
_cell_length_b 10.104230
_cell_length_c 7.245938
_cell_angle_alpha 90.000000
_cell_angle_beta 90.000000
_cell_angle_gamma 90.000000
_cell_volume 698.918516
_symmetry_space_group_name_H-M "P 2 2 21"
_symmetry_group_IT_number 17
_symmetry_cell_setting 'orthorhombic'
loop_
_space_group_symop_operation_xyz
x,y,z
-x,-y,1/2+z
x,-y,-z
-x,y,1/2-z
loop_
_atom_site_type_symbol
_atom_site_label
_atom_site_fract_x
_atom_site_fract_y
_atom_site_fract_z
Si Si1 0.159183 0.778728 0.224574
Si Si2 0.849405 0.194556 0.290670
Si Si3 0.500000 0.368779 0.250000
Si Si4 0.199998 0.485197 0.213576
Si Si5 0.610970 0.141038 0.013925
O O1 0.156912 0.625357 0.292878
O O2 0.290716 0.835461 0.336781
O O3 0.000000 0.829672 0.250000
O O4 0.183610 0.795139 0.006294
O O5 0.857055 0.345975 0.215131
O O6 0.724645 0.128834 0.179377
O O7 0.000000 0.132956 0.250000
O O8 0.365689 0.460482 0.228914
O O9 0.521309 0.268734 0.075967
O O10 0.160195 0.500000 0.000000
O O11 0.534432 0.000000 0.000000
#
# Coordination Sequence:
#
# PCOD9310940 Si02
#       5
#     4   4   2   4   4
#     4  11  22  41  71 107 137 182 221 283 370 426
#     4  10  20  41  64 101 142 169 223 287 343 420
#     4  10  24  46  64  98 136 180 234 304 332 410
#     4   9  21  37  64 100 135 171 223 280 355 413
#     4  11  26  47  67  95 135 190 241 282 342 409
#
# _framework density 25.754076000000001
#
# number of rings (size 3 to 8) (size 9 to 14) (size 15 to 20)
#    0.000    1.778    2.222    0.667    3.111    4.444 
#   12.000    0.000    0.000    0.000    0.000    0.000 
#    0.000    0.000    0.000    0.000    0.000    0.000 
#
# Total GULP energy -100704.491207 kJ/mol
# GULP energy per Si atom -5594.693956 kJ/mol
# Density = 2.569546 g / cm^3
# Si number density = 25.754076 Si / 1000 Ang^3
#
#
#
# Elastic Constant Matrix: (Units=GPa)
#
#
# Indices 1 2 3 4 5 6 
#
# 1 108.9411 -0.6421 5.4211 0.0000 0.0000 0.0000
# 2 -0.6421 132.4805 11.5719 0.0000 0.0000 0.0000
# 3 5.4211 11.5719 163.2656 0.0000 0.0000 0.0000
# 4 0.0000 0.0000 0.0000 -16.6795 0.0000 0.0000
# 5 0.0000 0.0000 0.0000 0.0000 36.1985 0.0000
# 6 0.0000 0.0000 0.0000 0.0000 0.0000 73.4053
#
#
#
# Elastic Compliance Matrix: (Units=1/GPa)
#
#
# Indices 1 2 3 4 5 6 
#
# 1 0.009195 0.000072 -0.000310 0.000000 0.000000 0.000000
# 2 0.000072 0.007596 -0.000541 0.000000 0.000000 0.000000
# 3 -0.000310 -0.000541 0.006174 0.000000 0.000000 0.000000
# 4 0.000000 0.000000 0.000000 -0.059954 0.000000 0.000000
# 5 0.000000 0.000000 0.000000 0.000000 0.027625 0.000000
# 6 0.000000 0.000000 0.000000 0.000000 0.000000 0.013623
#
#
# Mechanical properties :
#
#
# Convention : Reuss Voigt Hill
#
# Bulk Modulus (GPa) = 46.71658 48.59876 47.65767
# Shear Modulus (GPa) = 386.00364 44.47397 215.23880
#
# Velocity S-wave (km/s) = 12.25585 4.16007 9.15184
# Velocity P-wave (km/s) = 14.78017 6.47968 11.41139
#
# Compressibility (1/GPa) = 0.02140568
#
# Stress axis : x y z
#
# Youngs Moduli (GPa) = 108.75314 131.65060 161.97942
#
# Poissons Ratio (x) = -0.00944 0.05028
# Poissons Ratio (y) = -0.00780 0.08759
# Poissons Ratio (z) = 0.03376 0.07119
#
# Static dielectric constant tensor:
#      x y z
#    x 2.147720 0.000000 0.000000 
#    y 0.000000 2.053410 0.000000 
#    z 0.000000 0.000000 1.986210 
# 
# From -- ./inp_files/4572.got.cif
#   From: 2010.05.17/outbox.cif.g08.bks.cpg/sg17_3_cif.got.tgz:4572.got - 2010.06.03 22:34:06.
