data_PCOD9310033
_publ_section_title
;
Structure prediction by ZEFSAII (Michael W. Deem and Ramdas Pophale) SiO2 
 PCOD9310033
Probable space group: P 2 2 2
;
_chemical_formula_sum "Si O2"
_cell_formula_units_Z 32
_cell_length_a 14.837536
_cell_length_b 12.971645
_cell_length_c 7.317988
_cell_angle_alpha 90.000000
_cell_angle_beta 90.000000
_cell_angle_gamma 90.000000
_cell_volume 1408.473023
_symmetry_space_group_name_H-M "P 2 2 2"
_symmetry_group_IT_number 16
_symmetry_cell_setting 'orthorhombic'
loop_
_space_group_symop_operation_xyz
x,y,z
-x,-y,z
x,-y,-z
-x,y,-z
loop_
_atom_site_type_symbol
_atom_site_label
_atom_site_fract_x
_atom_site_fract_y
_atom_site_fract_z
Si Si1 0.515614 0.381429 0.720297
Si Si2 0.333271 0.708802 0.238143
Si Si3 0.807234 0.117417 0.691743
Si Si4 0.972550 0.388045 0.215360
Si Si5 0.285098 0.672881 0.667243
Si Si6 0.787696 0.896340 0.733672
Si Si7 0.790975 0.535695 0.807005
Si Si8 0.003860 0.834519 0.219161
O O1 0.500000 0.500000 0.781832
O O2 0.500000 0.384826 0.500000
O O3 0.439990 0.301030 0.787270
O O4 0.616886 0.344466 0.756770
O O5 0.307755 0.690370 0.453187
O O6 0.279328 0.811264 0.181971
O O7 0.294241 0.605169 0.148690
O O8 0.770515 0.230248 0.747988
O O9 0.773985 0.108113 0.484353
O O10 0.916228 0.108579 0.703159
O O11 0.773073 0.014708 0.792483
O O12 0.866803 0.386446 0.262435
O O13 0.011616 0.282347 0.288099
O O14 0.000000 0.500000 0.285209
O O15 0.000000 0.384843 0.000000
O O16 0.231574 0.565404 0.692448
O O17 0.893633 0.868116 0.748215
O O18 0.830480 0.500000 0.000000
O O19 0.000000 0.838591 0.000000
#
# Coordination Sequence:
#
# PCOD9310033 Si02
#       8
#     4   4   4   4   4   4   4   4
#     4   9  16  32  57  82 109 143 177 220 271 327
#     4  10  20  37  58  81 109 144 185 222 270 332
#     4  10  22  37  57  79 110 145 183 232 276 314
#     4  10  19  33  48  71 108 143 177 214 265 315
#     4  10  21  36  58  82 111 143 185 222 272 333
#     4  10  21  39  56  79 110 145 184 230 276 316
#     4  12  21  33  56  81 112 145 176 224 274 319
#     4  11  22  35  56  79 108 146 190 226 266 326
#
# _framework density 22.719639999999998
#
# number of rings (size 3 to 8) (size 9 to 14) (size 15 to 20)
#    0.000    1.750    3.750    1.875    1.750    2.000 
#    0.000    1.875    0.000    3.750    0.000    0.000 
#    0.000    4.000    0.000    0.000    0.000    0.000 
#
# Total GULP energy -178566.195696 kJ/mol
# GULP energy per Si atom -5580.193615 kJ/mol
# Density = 2.266793 g / cm^3
# Si number density = 22.719640 Si / 1000 Ang^3
#
#
#
# Elastic Constant Matrix: (Units=GPa)
#
#
# Indices 1 2 3 4 5 6 
#
# 1 131.5006 57.2376 -0.6425 0.0000 0.0000 0.0000
# 2 57.2376 160.5584 -0.7944 0.0000 0.0000 0.0000
# 3 -0.6425 -0.7944 55.9182 0.0000 0.0000 0.0000
# 4 0.0000 0.0000 0.0000 1.5654 0.0000 0.0000
# 5 0.0000 0.0000 0.0000 0.0000 5.3249 0.0000
# 6 0.0000 0.0000 0.0000 0.0000 0.0000 37.9148
#
#
#
# Elastic Compliance Matrix: (Units=1/GPa)
#
#
# Indices 1 2 3 4 5 6 
#
# 1 0.009001 -0.003209 0.000058 0.000000 0.000000 0.000000
# 2 -0.003209 0.007372 0.000068 0.000000 0.000000 0.000000
# 3 0.000058 0.000068 0.017885 0.000000 0.000000 0.000000
# 4 0.000000 0.000000 0.000000 0.638801 0.000000 0.000000
# 5 0.000000 0.000000 0.000000 0.000000 0.187796 0.000000
# 6 0.000000 0.000000 0.000000 0.000000 0.000000 0.026375
#
#
# Mechanical properties :
#
#
# Convention : Reuss Voigt Hill
#
# Bulk Modulus (GPa) = 35.59615 51.06427 43.33021
# Shear Modulus (GPa) = 5.53857 28.43948 16.98902
#
# Velocity S-wave (km/s) = 1.56304 3.54186 2.73750
# Velocity P-wave (km/s) = 4.35420 6.26506 5.39490
#
# Compressibility (1/GPa) = 0.02809292
#
# Stress axis : x y z
#
# Youngs Moduli (GPa) = 111.09361 135.64015 55.91310
#
# Poissons Ratio (x) = 0.43522 -0.00323
# Poissons Ratio (y) = 0.35646 -0.00380
# Poissons Ratio (z) = -0.00643 -0.00921
#
# Static dielectric constant tensor:
#      x y z
#    x 1.922020 0.000000 0.000000 
#    y 0.000000 1.877840 0.000000 
#    z 0.000000 0.000000 1.907400 
# 
# From -- ./inp_files/5225.got.cif
#   From: 2010.05.17/outbox.cif.g08.bks.cpg/sg16_3_cif.got.tgz:5225.got - 2010.06.03 22:28:35.
