data_PCOD9310428
_publ_section_title
;
Structure prediction by ZEFSAII (Michael W. Deem and Ramdas Pophale) SiO2 
 PCOD9310428
Probable space group: P 2 2 2
;
_chemical_formula_sum "Si O2"
_cell_formula_units_Z 32
_cell_length_a 12.000000
_cell_length_b 12.000000
_cell_length_c 12.000000
_cell_angle_alpha 90.000000
_cell_angle_beta 90.000000
_cell_angle_gamma 90.000000
_cell_volume 1728.000000
_symmetry_space_group_name_H-M "P 2 2 2"
_symmetry_group_IT_number 16
_symmetry_cell_setting 'orthorhombic'
loop_
_space_group_symop_operation_xyz
x,y,z
-x,-y,z
x,-y,-z
-x,y,-z
loop_
_atom_site_type_symbol
_atom_site_label
_atom_site_fract_x
_atom_site_fract_y
_atom_site_fract_z
Si Si1 0.724739 0.164151 0.704744
Si Si2 0.873066 0.708346 0.125632
Si Si3 0.127616 0.864898 0.493142
Si Si4 0.523591 0.207403 0.372070
Si Si5 0.876247 0.741127 0.866109
Si Si6 0.380181 0.544149 0.373787
Si Si7 0.264750 0.101537 0.724443
Si Si8 0.871180 0.486494 0.270502
O O1 0.778306 0.227372 0.807890
O O2 0.798976 0.184471 0.593337
O O3 0.598817 0.204689 0.682718
O O4 0.738250 0.031984 0.725964
O O5 0.876090 0.585401 0.179421
O O6 0.992274 0.770098 0.144409
O O7 0.855758 0.706149 0.993638
O O8 0.189988 0.848146 0.376786
O O9 0.000000 0.824492 0.500000
O O10 0.124496 0.000000 0.500000
O O11 0.500000 0.171538 0.500000
O O12 0.591436 0.324143 0.375022
O O13 0.607778 0.129424 0.304566
O O14 0.791052 0.837707 0.829688
O O15 0.865308 0.633428 0.787859
O O16 0.500000 0.500000 0.321726
O O17 0.379430 0.500000 0.500000
O O18 0.254617 0.510578 0.328845
O O19 0.000000 0.500000 0.325004
#
# Coordination Sequence:
#
# PCOD9310428 Si02
#       8
#     4   4   4   4   4   4   4   4
#     4  11  23  37  59  91 122 165 214 258 305 371
#     4  10  22  39  65  91 123 160 210 259 318 377
#     4   9  18  32  52  81 118 155 196 250 306 363
#     4  12  22  39  62  88 126 169 210 248 307 374
#     4  10  21  41  64  91 121 165 206 260 318 378
#     4  11  22  37  62  95 127 165 203 253 316 378
#     4  11  22  37  60  88 123 166 213 254 309 368
#     4  10  21  40  65  92 124 163 208 258 317 385
#
# _framework density 18.518519000000001
#
# number of rings (size 3 to 8) (size 9 to 14) (size 15 to 20)
#    0.000    1.500    3.750    2.250    0.000    4.250 
#    0.000    1.875    0.000    2.250    0.000    0.000 
#    0.000    0.000    0.000    0.000    0.000    0.000 
#
# Total GULP energy -178279.704485 kJ/mol
# GULP energy per Si atom -5571.240765 kJ/mol
# Density = 1.847637 g / cm^3
# Si number density = 18.518519 Si / 1000 Ang^3
#
#
#
# Elastic Constant Matrix: (Units=GPa)
#
#
# Indices 1 2 3 4 5 6 
#
# 1 163.4548 13.0453 45.2997 0.0000 0.0000 0.0000
# 2 13.0453 59.0492 7.0468 0.0000 0.0000 0.0000
# 3 45.2997 7.0468 55.0391 0.0000 0.0000 0.0000
# 4 0.0000 0.0000 0.0000 15.5150 0.0000 0.0000
# 5 0.0000 0.0000 0.0000 0.0000 22.2870 0.0000
# 6 0.0000 0.0000 0.0000 0.0000 0.0000 27.0185
#
#
#
# Elastic Compliance Matrix: (Units=1/GPa)
#
#
# Indices 1 2 3 4 5 6 
#
# 1 0.007983 -0.000995 -0.006443 0.000000 0.000000 0.000000
# 2 -0.000995 0.017322 -0.001399 0.000000 0.000000 0.000000
# 3 -0.006443 -0.001399 0.023651 0.000000 0.000000 0.000000
# 4 0.000000 0.000000 0.000000 0.064454 0.000000 0.000000
# 5 0.000000 0.000000 0.000000 0.000000 0.044869 0.000000
# 6 0.000000 0.000000 0.000000 0.000000 0.000000 0.037012
#
#
# Mechanical properties :
#
#
# Convention : Reuss Voigt Hill
#
# Bulk Modulus (GPa) = 31.96717 45.36964 38.66840
# Shear Modulus (GPa) = 22.38230 27.10752 24.74491
#
# Velocity S-wave (km/s) = 3.48033 3.83012 3.65941
# Velocity P-wave (km/s) = 5.78360 6.64173 6.22746
#
# Compressibility (1/GPa) = 0.03128210
#
# Stress axis : x y z
#
# Youngs Moduli (GPa) = 125.26823 57.73090 42.28183
#
# Poissons Ratio (x) = 0.05743 0.27242
# Poissons Ratio (y) = 0.12461 0.05915
# Poissons Ratio (z) = 0.80709 0.08077
#
# Static dielectric constant tensor:
#      x y z
#    x 1.669120 0.000000 0.000000 
#    y 0.000000 1.679070 0.000000 
#    z 0.000000 0.000000 1.642290 
# 
# From -- ./inp_files/6943.got.cif
#   From: 2010.05.17/outbox.ucp.g08.bks.cvg/sg16_4_cif.got.tgz:6943.got - 2010.06.11 13:12:45.
