data_PCOD9310806
_publ_section_title
;
Structure prediction by ZEFSAII (Michael W. Deem and Ramdas Pophale) SiO2 
 PCOD9310806
Probable space group: P 2 2 21
;
_chemical_formula_sum "Si O2"
_cell_formula_units_Z 18
_cell_length_a 8.368319
_cell_length_b 9.220568
_cell_length_c 10.636117
_cell_angle_alpha 90.000000
_cell_angle_beta 90.000000
_cell_angle_gamma 90.000000
_cell_volume 820.689748
_symmetry_space_group_name_H-M "P 2 2 21"
_symmetry_group_IT_number 17
_symmetry_cell_setting 'orthorhombic'
loop_
_space_group_symop_operation_xyz
x,y,z
-x,-y,1/2+z
x,-y,-z
-x,y,1/2-z
loop_
_atom_site_type_symbol
_atom_site_label
_atom_site_fract_x
_atom_site_fract_y
_atom_site_fract_z
Si Si1 0.255612 0.439530 0.675783
Si Si2 0.573593 0.688071 0.421241
Si Si3 0.000000 0.753355 0.250000
Si Si4 0.679084 0.283758 0.296610
Si Si5 0.733813 0.961646 0.360683
O O1 0.603855 0.380296 0.915627
O O2 0.092135 0.353273 0.653900
O O3 0.224838 0.609063 0.704025
O O4 0.327805 0.391567 0.811982
O O5 0.664339 0.678281 0.554433
O O6 0.790743 0.000000 0.500000
O O7 0.577834 0.859258 0.383651
O O8 0.864129 0.858047 0.300962
O O9 0.500000 0.306294 0.250000
O O10 0.715156 0.112797 0.288826
#
# Coordination Sequence:
#
# PCOD9310806 Si02
#       5
#     4   4   2   4   4
#     4  10  20  36  63  85 121 159 196 245 305 359
#     4   9  19  39  61  85 118 156 201 245 302 347
#     4  10  22  40  60  82 128 164 192 230 318 374
#     4  11  21  34  64  93 115 147 210 258 287 341
#     4   9  21  40  60  85 119 164 197 247 302 353
#
# _framework density 21.932769
#
# number of rings (size 3 to 8) (size 9 to 14) (size 15 to 20)
#    0.000    2.222    2.222    0.667    6.222    0.889 
#    4.000    0.000   19.556    0.000    0.000    0.000 
#    0.000    0.000    0.000    0.000    0.000    0.000 
#
# Total GULP energy -100261.304145 kJ/mol
# GULP energy per Si atom -5570.072452 kJ/mol
# Density = 2.188285 g / cm^3
# Si number density = 21.932769 Si / 1000 Ang^3
#
#
#
# Elastic Constant Matrix: (Units=GPa)
#
#
# Indices 1 2 3 4 5 6 
#
# 1 45.0597 27.0623 4.5774 0.0000 0.0000 0.0000
# 2 27.0623 185.4056 30.1732 0.0000 0.0000 0.0000
# 3 4.5774 30.1732 46.5340 0.0000 0.0000 0.0000
# 4 0.0000 0.0000 0.0000 21.6500 0.0000 0.0000
# 5 0.0000 0.0000 0.0000 0.0000 9.5687 0.0000
# 6 0.0000 0.0000 0.0000 0.0000 0.0000 23.0844
#
#
#
# Elastic Compliance Matrix: (Units=1/GPa)
#
#
# Indices 1 2 3 4 5 6 
#
# 1 0.024326 -0.003534 -0.000101 0.000000 0.000000 0.000000
# 2 -0.003534 0.006543 -0.003895 0.000000 0.000000 0.000000
# 3 -0.000101 -0.003895 0.024025 0.000000 0.000000 0.000000
# 4 0.000000 0.000000 0.000000 0.046189 0.000000 0.000000
# 5 0.000000 0.000000 0.000000 0.000000 0.104507 0.000000
# 6 0.000000 0.000000 0.000000 0.000000 0.000000 0.043319
#
#
# Mechanical properties :
#
#
# Convention : Reuss Voigt Hill
#
# Bulk Modulus (GPa) = 25.10473 44.51391 34.80932
# Shear Modulus (GPa) = 18.03432 25.20638 21.62035
#
# Velocity S-wave (km/s) = 2.87061 3.39375 3.14308
# Velocity P-wave (km/s) = 4.73902 5.97464 5.39234
#
# Compressibility (1/GPa) = 0.03983313
#
# Stress axis : x y z
#
# Youngs Moduli (GPa) = 41.10891 152.82734 41.62289
#
# Poissons Ratio (x) = 0.54012 0.00421
# Poissons Ratio (y) = 0.14529 0.16213
# Poissons Ratio (z) = 0.00416 0.59528
#
# Static dielectric constant tensor:
#      x y z
#    x 1.828160 0.000000 0.000000 
#    y 0.000000 1.944790 0.000000 
#    z 0.000000 0.000000 1.838700 
# 
# From -- ./inp_files/7899.got.cif
#   From: 2010.05.17/outbox.cif.g08.bks.cpg/sg17_4_cif.got.tgz:7899.got - 2010.06.03 22:34:06.
