data_PCOD9310085
_publ_section_title
;
Structure prediction by ZEFSAII (Michael W. Deem and Ramdas Pophale) SiO2 
 PCOD9310085
Probable space group: P 2 2 2
;
_chemical_formula_sum "Si O2"
_cell_formula_units_Z 32
_cell_length_a 8.126360
_cell_length_b 9.466882
_cell_length_c 23.392205
_cell_angle_alpha 90.000000
_cell_angle_beta 90.000000
_cell_angle_gamma 90.000000
_cell_volume 1799.592535
_symmetry_space_group_name_H-M "P 2 2 2"
_symmetry_group_IT_number 16
_symmetry_cell_setting 'orthorhombic'
loop_
_space_group_symop_operation_xyz
x,y,z
-x,-y,z
x,-y,-z
-x,y,-z
loop_
_atom_site_type_symbol
_atom_site_label
_atom_site_fract_x
_atom_site_fract_y
_atom_site_fract_z
Si Si1 0.190256 0.172307 0.357667
Si Si2 0.695686 0.660643 0.878686
Si Si3 0.500000 0.827694 0.434035
Si Si4 0.809744 0.172307 0.357667
Si Si5 0.804353 0.662186 1.000000
Si Si6 0.802234 0.839877 0.229671
Si Si7 0.695686 0.339357 0.878686
Si Si8 0.802234 0.839877 0.770329
O O1 0.332527 0.216840 0.401530
O O2 0.240782 0.214690 0.293104
O O3 0.000000 0.216736 0.369477
O O4 0.186907 1.000000 0.357330
O O5 0.749581 0.725541 0.939583
O O6 0.763690 0.500000 0.875680
O O7 0.500000 0.653235 0.879211
O O8 0.748772 0.746395 0.823329
O O9 0.500000 0.783048 0.500000
O O10 0.332527 0.783160 0.401530
O O11 0.500000 0.000000 0.433094
O O12 0.759218 0.214690 0.293104
O O13 0.736993 0.500000 0.000000
O O14 0.749580 0.725542 0.060417
O O15 0.000000 0.656659 0.000000
O O16 0.748772 0.746395 0.176671
O O17 1.000000 0.846747 0.229646
O O18 0.737721 0.000000 0.223544
#
# Coordination Sequence:
#
# PCOD9310085 Si02
#       8
#     4   4   4   4   4   4   4   4
#     4   8  15  27  41  60  89 122 156 195 236 280
#     4  10  20  32  48  72  98 122 153 195 240 286
#     4   9  16  24  38  62  89 122 161 192 228 281
#     4   8  15  27  41  60  89 122 156 195 236 280
#     4   9  17  31  50  67  88 123 158 190 236 287
#     4   9  18  32  49  69  93 125 163 197 235 284
#     4  10  20  32  48  72  98 122 153 195 240 286
#     4   9  18  32  49  69  93 125 163 197 235 284
#
# _framework density 17.781803
#
# number of rings (size 3 to 8) (size 9 to 14) (size 15 to 20)
#    0.000    3.000    0.000    2.625    1.750    4.000 
#    0.000    3.125    0.000    3.750    0.000    0.000 
#    0.000    2.000    0.000    5.500    0.000    5.500 
#
# Total GULP energy -178170.350867 kJ/mol
# GULP energy per Si atom -5567.823465 kJ/mol
# Density = 1.774133 g / cm^3
# Si number density = 17.781803 Si / 1000 Ang^3
#
#
#
# Elastic Constant Matrix: (Units=GPa)
#
#
# Indices 1 2 3 4 5 6 
#
# 1 73.2341 14.0282 83.3522 0.0000 0.0000 0.0000
# 2 14.0282 16.5754 36.7710 0.0000 0.0000 0.0000
# 3 83.3522 36.7710 204.7431 0.0000 0.0000 0.0000
# 4 0.0000 0.0000 0.0000 -559.7124 0.0000 0.0000
# 5 0.0000 0.0000 0.0000 0.0000 39.7445 0.0000
# 6 0.0000 0.0000 0.0000 0.0000 0.0000 14.0543
#
#
#
# Elastic Compliance Matrix: (Units=1/GPa)
#
#
# Indices 1 2 3 4 5 6 
#
# 1 0.025502 0.002408 -0.010815 0.000000 0.000000 0.000000
# 2 0.002408 0.100513 -0.019032 0.000000 0.000000 0.000000
# 3 -0.010815 -0.019032 0.012705 0.000000 0.000000 0.000000
# 4 0.000000 0.000000 0.000000 -0.001787 0.000000 0.000000
# 5 0.000000 0.000000 0.000000 0.000000 0.025161 0.000000
# 6 0.000000 0.000000 0.000000 0.000000 0.000000 0.071153
#
#
# Mechanical properties :
#
#
# Convention : Reuss Voigt Hill
#
# Bulk Modulus (GPa) = 11.92705 62.53951 37.23328
# Shear Modulus (GPa) = 15.81916 -90.48931 -37.33508
#
# Velocity S-wave (km/s) = 2.98590 -7.14137 -4.58713
# Velocity P-wave (km/s) = 4.31387 5.72294 2.65919
#
# Compressibility (1/GPa) = 0.08384300
#
# Stress axis : x y z
#
# Youngs Moduli (GPa) = 39.21194 9.94895 78.70942
#
# Poissons Ratio (x) = -0.02396 0.85122
# Poissons Ratio (y) = -0.09442 1.49800
# Poissons Ratio (z) = 0.42406 0.18935
#
# Static dielectric constant tensor:
#      x y z
#    x 1.613240 0.000000 0.000000 
#    y 0.000000 1.628380 0.000000 
#    z 0.000000 0.000000 1.624910 
# 
# From -- ./inp_files/8965.got.cif
#   From: 2010.05.17/outbox.cif.g08.bks.cpg/sg16_5_cif.got.tgz:8965.got - 2010.06.03 22:28:35.
