data_PCOD9310823
_publ_section_title
;
Structure prediction by ZEFSAII (Michael W. Deem and Ramdas Pophale) SiO2 
 PCOD9310823
Probable space group: P 2 2 21
;
_chemical_formula_sum "Si O2"
_cell_formula_units_Z 20
_cell_length_a 8.626372
_cell_length_b 9.913109
_cell_length_c 11.557218
_cell_angle_alpha 90.000000
_cell_angle_beta 90.000000
_cell_angle_gamma 90.000000
_cell_volume 988.305858
_symmetry_space_group_name_H-M "P 2 2 21"
_symmetry_group_IT_number 17
_symmetry_cell_setting 'orthorhombic'
loop_
_space_group_symop_operation_xyz
x,y,z
-x,-y,1/2+z
x,-y,-z
-x,y,1/2-z
loop_
_atom_site_type_symbol
_atom_site_label
_atom_site_fract_x
_atom_site_fract_y
_atom_site_fract_z
Si Si1 0.530878 0.236200 0.116042
Si Si2 0.668603 0.000000 0.500000
Si Si3 0.105007 0.189251 0.857961
Si Si4 0.186250 0.842126 0.486400
Si Si5 0.588625 0.500000 0.000000
Si Si6 0.672860 0.674293 0.202133
O O1 0.500000 0.254029 0.250000
O O2 0.437426 0.109658 0.065047
O O3 0.713682 0.211937 0.092540
O O4 0.492251 0.372366 0.045289
O O5 0.777019 0.080202 0.590626
O O6 0.203390 0.312231 0.804422
O O7 0.000000 0.136593 0.750000
O O8 0.978507 0.223832 0.955910
O O9 0.296352 0.807086 0.376427
O O10 0.160473 0.000000 0.500000
O O11 0.686839 0.446005 0.890646
O O12 0.500000 0.671481 0.250000
#
# Coordination Sequence:
#
# PCOD9310823 Si02
#       6
#     4   2   4   4   2   4
#     4  11  25  38  67  96 129 170 219 273 329 387
#     4  12  24  36  62 106 128 164 222 270 328 410
#     4  10  22  37  62  95 134 177 204 270 340 394
#     4  10  20  37  58  94 135 167 210 263 330 397
#     4  10  22  44  62  92 128 168 226 278 320 394
#     4  10  21  38  67  91 126 177 222 271 333 392
#
# _framework density 20.236650999999998
#
# number of rings (size 3 to 8) (size 9 to 14) (size 15 to 20)
#    0.000    1.600    2.000    3.000    5.600    0.000 
#    0.000    0.000    0.000   94.800    0.000    0.000 
#    0.000    0.000    0.000    0.000    0.000    0.000 
#
# Total GULP energy -111543.469617 kJ/mol
# GULP energy per Si atom -5577.173481 kJ/mol
# Density = 2.019059 g / cm^3
# Si number density = 20.236651 Si / 1000 Ang^3
#
#
#
# Elastic Constant Matrix: (Units=GPa)
#
#
# Indices 1 2 3 4 5 6 
#
# 1 124.9829 50.6199 64.8054 0.0000 0.0000 0.0000
# 2 50.6199 87.9497 50.5064 0.0000 0.0000 0.0000
# 3 64.8054 50.5064 99.7614 0.0000 0.0000 0.0000
# 4 0.0000 0.0000 0.0000 37.3516 0.0000 0.0000
# 5 0.0000 0.0000 0.0000 0.0000 40.4004 0.0000
# 6 0.0000 0.0000 0.0000 0.0000 0.0000 4.4588
#
#
#
# Elastic Compliance Matrix: (Units=1/GPa)
#
#
# Indices 1 2 3 4 5 6 
#
# 1 0.012854 -0.003670 -0.006492 0.000000 0.000000 0.000000
# 2 -0.003670 0.017079 -0.006262 0.000000 0.000000 0.000000
# 3 -0.006492 -0.006262 0.017411 0.000000 0.000000 0.000000
# 4 0.000000 0.000000 0.000000 0.026773 0.000000 0.000000
# 5 0.000000 0.000000 0.000000 0.000000 0.024752 0.000000
# 6 0.000000 0.000000 0.000000 0.000000 0.000000 0.224274
#
#
# Mechanical properties :
#
#
# Convention : Reuss Voigt Hill
#
# Bulk Modulus (GPa) = 68.98712 71.61749 70.30231
# Shear Modulus (GPa) = 13.85723 26.22632 20.04177
#
# Velocity S-wave (km/s) = 2.61963 3.60388 3.15043
# Velocity P-wave (km/s) = 6.58135 7.26527 6.93175
#
# Compressibility (1/GPa) = 0.01449546
#
# Stress axis : x y z
#
# Youngs Moduli (GPa) = 77.79968 58.55243 57.43347
#
# Poissons Ratio (x) = 0.21489 0.37284
# Poissons Ratio (y) = 0.28552 0.35967
# Poissons Ratio (z) = 0.50505 0.36668
#
# Static dielectric constant tensor:
#      x y z
#    x 1.745990 0.000000 0.000000 
#    y 0.000000 1.722610 0.000000 
#    z 0.000000 0.000000 1.781880 
# 
# From -- ./inp_files/6421.got.cif
#   From: 2010.05.17/outbox.cif.g08.bks.cpg/sg17_4_cif.got.tgz:6421.got - 2010.06.03 22:34:06.
