data_PCOD9310631
_publ_section_title
;
Structure prediction by ZEFSAII (Michael W. Deem and Ramdas Pophale) SiO2 
 PCOD9310631
Probable space group: P 2 2 21
;
_chemical_formula_sum "Si O2"
_cell_formula_units_Z 24
_cell_length_a 9.041008
_cell_length_b 9.485187
_cell_length_c 15.539320
_cell_angle_alpha 90.000000
_cell_angle_beta 90.000000
_cell_angle_gamma 90.000000
_cell_volume 1332.584511
_symmetry_space_group_name_H-M "P 2 2 21"
_symmetry_group_IT_number 17
_symmetry_cell_setting 'orthorhombic'
loop_
_space_group_symop_operation_xyz
x,y,z
-x,-y,1/2+z
x,-y,-z
-x,y,1/2-z
loop_
_atom_site_type_symbol
_atom_site_label
_atom_site_fract_x
_atom_site_fract_y
_atom_site_fract_z
Si Si1 0.936132 0.336446 0.505043
Si Si2 0.121258 0.909967 0.412949
Si Si3 0.076149 0.845386 0.835593
Si Si4 0.422345 0.844784 0.838738
Si Si5 0.412196 0.336604 0.989699
Si Si6 0.559838 0.851695 0.154709
O O1 0.979725 0.500000 0.500000
O O2 0.941604 0.267590 0.410866
O O3 0.763359 0.327724 0.532289
O O4 0.039096 0.234500 0.561262
O O5 0.264834 0.874135 0.356640
O O6 0.162413 0.000000 0.500000
O O7 0.006461 0.011845 0.364176
O O8 0.249266 0.868383 0.821545
O O9 0.000000 0.791809 0.750000
O O10 0.500000 0.797508 0.750000
O O11 0.437567 0.740036 0.918886
O O12 0.490628 0.994883 0.864176
O O13 0.451161 0.500000 0.000000
O O14 0.503453 0.258823 0.915731
O O15 0.500000 0.813796 0.250000
#
# Coordination Sequence:
#
# PCOD9310631 Si02
#       6
#     4   4   4   4   4   4
#     4   9  20  38  56  78 108 146 184 219 274 330
#     4  10  20  35  57  81 108 143 183 227 273 326
#     4  10  19  34  56  81 108 138 178 228 273 320
#     4  10  20  35  58  83 108 142 183 225 274 328
#     4  10  21  38  57  78 113 151 181 224 276 329
#     4  11  22  36  55  83 112 142 184 229 273 325
#
# _framework density 18.010114999999999
#
# number of rings (size 3 to 8) (size 9 to 14) (size 15 to 20)
#    0.000    2.000    0.000    4.500    0.000    5.333 
#    0.000    5.833    0.000    0.000    0.000    0.000 
#    0.000    0.000    0.000    0.000    0.000    0.000 
#
# Total GULP energy -133971.156880 kJ/mol
# GULP energy per Si atom -5582.131537 kJ/mol
# Density = 1.796912 g / cm^3
# Si number density = 18.010115 Si / 1000 Ang^3
#
#
#
# Elastic Constant Matrix: (Units=GPa)
#
#
# Indices 1 2 3 4 5 6 
#
# 1 126.2132 65.0653 73.5256 0.0000 0.0000 0.0000
# 2 65.0653 122.4596 47.4083 0.0000 0.0000 0.0000
# 3 73.5256 47.4083 91.2758 0.0000 0.0000 0.0000
# 4 0.0000 0.0000 0.0000 4.2945 0.0000 0.0000
# 5 0.0000 0.0000 0.0000 0.0000 36.0441 0.0000
# 6 0.0000 0.0000 0.0000 0.0000 0.0000 1650.4052
#
#
#
# Elastic Compliance Matrix: (Units=1/GPa)
#
#
# Indices 1 2 3 4 5 6 
#
# 1 0.016778 -0.004609 -0.011121 0.000000 0.000000 0.000000
# 2 -0.004609 0.011487 -0.002254 0.000000 0.000000 0.000000
# 3 -0.011121 -0.002254 0.021085 0.000000 0.000000 0.000000
# 4 0.000000 0.000000 0.000000 0.232855 0.000000 0.000000
# 5 0.000000 0.000000 0.000000 0.000000 0.027744 0.000000
# 6 0.000000 0.000000 0.000000 0.000000 0.000000 0.000606
#
#
# Mechanical properties :
#
#
# Convention : Reuss Voigt Hill
#
# Bulk Modulus (GPa) = 74.72661 79.10522 76.91591
# Shear Modulus (GPa) = 14.24572 348.41206 181.32889
#
# Velocity S-wave (km/s) = 2.81550 13.92385 10.04491
# Velocity P-wave (km/s) = 7.22156 17.39299 13.31666
#
# Compressibility (1/GPa) = 0.01338211
#
# Stress axis : x y z
#
# Youngs Moduli (GPa) = 59.60288 87.05246 47.42749
#
# Poissons Ratio (x) = 0.40122 0.52745
# Poissons Ratio (y) = 0.27471 0.10689
# Poissons Ratio (z) = 0.66285 0.19620
#
# Static dielectric constant tensor:
#      x y z
#    x 1.633040 0.000000 0.000000 
#    y 0.000000 1.580210 0.000000 
#    z 0.000000 0.000000 1.608570 
# 
# From -- ./inp_files/8080.got.cif
#   From: 2010.05.17/outbox.cif.g08.bks.cpg/sg17_5_cif.got.tgz:8080.got - 2010.06.03 22:34:06.
