data_PCOD9310407
_publ_section_title
;
Structure prediction by ZEFSAII (Michael W. Deem and Ramdas Pophale) SiO2 
 PCOD9310407
Probable space group: P 2 2 2
;
_chemical_formula_sum "Si O2"
_cell_formula_units_Z 20
_cell_length_a 13.842801
_cell_length_b 9.826786
_cell_length_c 6.581971
_cell_angle_alpha 90.000000
_cell_angle_beta 90.000000
_cell_angle_gamma 90.000000
_cell_volume 895.347115
_symmetry_space_group_name_H-M "P 2 2 2"
_symmetry_group_IT_number 16
_symmetry_cell_setting 'orthorhombic'
loop_
_space_group_symop_operation_xyz
x,y,z
-x,-y,z
x,-y,-z
-x,y,-z
loop_
_atom_site_type_symbol
_atom_site_label
_atom_site_fract_x
_atom_site_fract_y
_atom_site_fract_z
Si Si1 0.000000 0.000000 0.500000
Si Si2 0.419935 0.781270 0.160038
Si Si3 0.747558 0.349378 0.405004
Si Si4 0.113350 0.650886 0.052450
Si Si5 0.711483 0.000000 0.000000
Si Si6 0.174289 0.857969 0.714204
Si Si7 0.500000 0.000000 0.500000
O O1 0.928114 0.903835 0.373863
O O2 0.347698 0.675353 0.268844
O O3 0.354916 0.870027 0.008455
O O4 0.453132 0.890546 0.336389
O O5 0.500000 0.726017 0.000000
O O6 0.746388 0.500000 0.500000
O O7 0.847182 0.330596 0.277909
O O8 0.757684 0.230118 0.569991
O O9 0.149847 0.500000 0.000000
O O10 0.157095 0.765515 0.910561
O O11 0.000000 0.652474 0.000000
O O12 0.774117 0.992776 0.203540
#
# Coordination Sequence:
#
# PCOD9310407 Si02
#       7
#     1   4   4   4   2   4   1
#     4  12  28  44  66 116 152 192 248 310 364 428
#     4  12  25  45  77 111 143 189 244 306 373 436
#     4  12  26  49  77 109 147 197 248 301 364 442
#     4  11  24  45  74 103 143 194 244 297 352 427
#     4  12  23  45  74 104 146 192 233 302 375 428
#     4  12  26  45  72 106 151 194 241 304 365 435
#     4  12  22  46  78 110 144 190 238 312 364 458
#
# _framework density 22.337706000000001
#
# number of rings (size 3 to 8) (size 9 to 14) (size 15 to 20)
#    0.000    0.200    6.000    3.600    2.800    0.000 
#    0.000    0.500    4.400    0.000    0.000    0.000 
#    0.000    0.000    0.000    0.000    0.000    0.000 
#
# Total GULP energy -111643.067597 kJ/mol
# GULP energy per Si atom -5582.153380 kJ/mol
# Density = 2.228686 g / cm^3
# Si number density = 22.337706 Si / 1000 Ang^3
#
#
#
# Elastic Constant Matrix: (Units=GPa)
#
#
# Indices 1 2 3 4 5 6 
#
# 1 112.7889 30.2798 54.7356 0.0000 0.0000 0.0000
# 2 30.2798 83.3997 39.7446 0.0000 0.0000 0.0000
# 3 54.7356 39.7446 102.2889 0.0000 0.0000 0.0000
# 4 0.0000 0.0000 0.0000 51.4837 0.0000 0.0000
# 5 0.0000 0.0000 0.0000 0.0000 27.1362 0.0000
# 6 0.0000 0.0000 0.0000 0.0000 0.0000 6.2246
#
#
#
# Elastic Compliance Matrix: (Units=1/GPa)
#
#
# Indices 1 2 3 4 5 6 
#
# 1 0.012150 -0.001611 -0.005875 0.000000 0.000000 0.000000
# 2 -0.001611 0.014929 -0.004938 0.000000 0.000000 0.000000
# 3 -0.005875 -0.004938 0.014839 0.000000 0.000000 0.000000
# 4 0.000000 0.000000 0.000000 0.019424 0.000000 0.000000
# 5 0.000000 0.000000 0.000000 0.000000 0.036851 0.000000
# 6 0.000000 0.000000 0.000000 0.000000 0.000000 0.160653
#
#
# Mechanical properties :
#
#
# Convention : Reuss Voigt Hill
#
# Bulk Modulus (GPa) = 58.59070 60.88861 59.73966
# Shear Modulus (GPa) = 17.27802 28.55009 22.91405
#
# Velocity S-wave (km/s) = 2.78419 3.57895 3.20629
# Velocity P-wave (km/s) = 6.05162 6.66302 6.36467
#
# Compressibility (1/GPa) = 0.01706756
#
# Stress axis : x y z
#
# Youngs Moduli (GPa) = 82.30435 66.98414 67.38952
#
# Poissons Ratio (x) = 0.10793 0.39595
# Poissons Ratio (y) = 0.13262 0.33280
# Poissons Ratio (z) = 0.48358 0.33080
#
# Static dielectric constant tensor:
#      x y z
#    x 1.923780 0.000000 0.000000 
#    y 0.000000 1.842440 0.000000 
#    z 0.000000 0.000000 1.951900 
# 
# From -- ./inp_files/1882.got.cif
#   From: 2010.05.17/outbox.cif.g08.bks.cpg/sg16_1_cif.got.tgz:1882.got - 2010.06.03 22:28:35.
