data_PCOD9310119
_publ_section_title
;
Structure prediction by ZEFSAII (Michael W. Deem and Ramdas Pophale) SiO2 
 PCOD9310119
Probable space group: P 2 2 2
;
_chemical_formula_sum "Si O2"
_cell_formula_units_Z 22
_cell_length_a 7.176952
_cell_length_b 9.372199
_cell_length_c 16.198523
_cell_angle_alpha 90.000000
_cell_angle_beta 90.000000
_cell_angle_gamma 90.000000
_cell_volume 1089.574574
_symmetry_space_group_name_H-M "P 2 2 2"
_symmetry_group_IT_number 16
_symmetry_cell_setting 'orthorhombic'
loop_
_space_group_symop_operation_xyz
x,y,z
-x,-y,z
x,-y,-z
-x,y,-z
loop_
_atom_site_type_symbol
_atom_site_label
_atom_site_fract_x
_atom_site_fract_y
_atom_site_fract_z
Si Si1 0.709361 0.344451 0.259413
Si Si2 0.000000 0.500000 0.000000
Si Si3 0.281745 0.174216 0.583929
Si Si4 0.267740 0.849029 0.600576
Si Si5 0.054617 0.750989 0.117354
Si Si6 0.734389 0.324681 0.763652
Si Si7 0.000000 0.000000 0.000000
O O1 0.759798 0.297229 0.351469
O O2 0.771323 0.506809 0.244799
O O3 0.491344 0.321170 0.237998
O O4 0.820057 0.245895 0.197231
O O5 0.899755 0.611474 0.938466
O O6 0.506879 0.160911 0.591876
O O7 0.213522 0.202506 0.491110
O O8 0.215532 0.015516 0.608283
O O9 0.208109 0.760495 0.680597
O O10 0.844716 0.733561 0.155665
O O11 0.094936 0.888226 0.061846
#
# Coordination Sequence:
#
# PCOD9310119 Si02
#       7
#     4   1   4   4   4   4   1
#     4  10  20  35  60  88 114 150 189 226 276 331
#     4  10  20  42  66  70 114 144 164 226 298 326
#     4   8  15  29  50  79 117 156 190 227 269 316
#     4   8  15  29  50  79 117 156 190 227 269 316
#     4  11  22  44  59  86 110 145 179 239 279 347
#     4  10  20  35  60  88 114 150 189 226 276 331
#     4  10  28  42  66  82 110 144 188 222 306 346
#
# _framework density 20.191365000000001
#
# number of rings (size 3 to 8) (size 9 to 14) (size 15 to 20)
#    0.000    2.545    1.818    1.091    2.545    0.727 
#    0.000   10.000    0.000    4.364    0.000    0.000 
#    0.000    0.000    0.000    0.000    0.000    0.000 
#
# Total GULP energy -122505.544199 kJ/mol
# GULP energy per Si atom -5568.433827 kJ/mol
# Density = 2.014541 g / cm^3
# Si number density = 20.191365 Si / 1000 Ang^3
#
#
#
# Elastic Constant Matrix: (Units=GPa)
#
#
# Indices 1 2 3 4 5 6 
#
# 1 73.1388 6.3131 8.6247 0.0000 0.0000 0.0000
# 2 6.3131 82.9205 40.9538 0.0000 0.0000 0.0000
# 3 8.6247 40.9538 99.2150 0.0000 0.0000 0.0000
# 4 0.0000 0.0000 0.0000 42.0187 0.0000 0.0000
# 5 0.0000 0.0000 0.0000 0.0000 3.0655 0.0000
# 6 0.0000 0.0000 0.0000 0.0000 0.0000 -9.1445
#
#
#
# Elastic Compliance Matrix: (Units=1/GPa)
#
#
# Indices 1 2 3 4 5 6 
#
# 1 0.013836 -0.000577 -0.000965 0.000000 0.000000 0.000000
# 2 -0.000577 0.015172 -0.006213 0.000000 0.000000 0.000000
# 3 -0.000965 -0.006213 0.012727 0.000000 0.000000 0.000000
# 4 0.000000 0.000000 0.000000 0.023799 0.000000 0.000000
# 5 0.000000 0.000000 0.000000 0.000000 0.326207 0.000000
# 6 0.000000 0.000000 0.000000 0.000000 0.000000 -0.109356
#
#
# Mechanical properties :
#
#
# Convention : Reuss Voigt Hill
#
# Bulk Modulus (GPa) = 38.12819 40.78417 39.45618
# Shear Modulus (GPa) = 16.30595 20.48013 18.39304
#
# Velocity S-wave (km/s) = 2.84486 3.18827 3.02145
# Velocity P-wave (km/s) = 5.45118 5.81344 5.63522
#
# Compressibility (1/GPa) = 0.02622731
#
# Stress axis : x y z
#
# Youngs Moduli (GPa) = 72.27426 65.91096 78.57084
#
# Poissons Ratio (x) = 0.03803 0.07579
# Poissons Ratio (y) = 0.04170 0.48812
# Poissons Ratio (z) = 0.06972 0.40947
#
# Static dielectric constant tensor:
#      x y z
#    x 1.779560 0.000000 0.000000 
#    y 0.000000 1.701390 0.000000 
#    z 0.000000 0.000000 1.722250 
# 
# From -- ./inp_files/7877.got.cif
#   From: 2010.05.17/outbox.cif.g08.bks.cpg/sg16_4_cif.got.tgz:7877.got - 2010.06.03 22:28:35.
