data_PCOD9310190
_publ_section_title
;
Structure prediction by ZEFSAII (Michael W. Deem and Ramdas Pophale) SiO2 
 PCOD9310190
Probable space group: P 2 2 2
;
_chemical_formula_sum "Si O2"
_cell_formula_units_Z 30
_cell_length_a 13.458265
_cell_length_b 5.109371
_cell_length_c 19.968740
_cell_angle_alpha 90.000000
_cell_angle_beta 90.000000
_cell_angle_gamma 90.000000
_cell_volume 1373.115838
_symmetry_space_group_name_H-M "P 2 2 2"
_symmetry_group_IT_number 16
_symmetry_cell_setting 'orthorhombic'
loop_
_space_group_symop_operation_xyz
x,y,z
-x,-y,z
x,-y,-z
-x,y,-z
loop_
_atom_site_type_symbol
_atom_site_label
_atom_site_fract_x
_atom_site_fract_y
_atom_site_fract_z
Si Si1 0.727362 0.174623 0.758068
Si Si2 0.596533 0.676133 0.741654
Si Si3 0.113560 0.256247 0.969127
Si Si4 0.740981 0.000000 0.500000
Si Si5 0.211905 0.329597 0.382462
Si Si6 0.927162 0.255476 0.328184
Si Si7 0.601620 0.624846 0.589290
Si Si8 0.108894 0.882037 0.179372
O O1 0.683143 0.464692 0.756453
O O2 0.788590 0.162800 0.686493
O O3 0.640071 0.956249 0.766129
O O4 0.808021 0.105884 0.814035
O O5 0.500000 0.500000 0.762165
O O6 0.581906 0.740434 0.662884
O O7 0.117636 0.271164 0.889615
O O8 0.167148 0.500000 0.000000
O O9 0.000000 0.254658 0.000000
O O10 0.160203 0.000000 0.000000
O O11 0.811259 0.162633 0.551471
O O12 0.665510 0.189279 0.458743
O O13 0.327476 0.382445 0.394227
O O14 0.161343 0.615675 0.373500
O O15 0.889726 0.258460 0.251160
O O16 0.000000 0.500000 0.333990
O O17 0.000000 0.000000 0.341059
O O18 0.500000 0.500000 0.565385
O O19 0.000000 0.000000 0.175295
#
# Coordination Sequence:
#
# PCOD9310190 Si02
#       8
#     4   4   4   2   4   4   4   4
#     4  11  22  38  63  98 128 171 233 271 331 414
#     4  10  21  41  64  90 130 173 220 290 351 393
#     4  10  21  36  56  89 140 184 210 240 307 392
#     4  12  24  41  70  89 138 176 226 283 386 419
#     4  11  24  42  63  97 127 169 222 297 345 414
#     4  11  26  42  69  95 125 170 238 285 328 391
#     4  10  23  40  62  95 128 169 216 270 356 456
#     4  11  22  39  65  98 137 187 215 265 322 392
#
# _framework density 21.848120999999999
#
# number of rings (size 3 to 8) (size 9 to 14) (size 15 to 20)
#    0.000    1.333    2.667    4.000    3.733    4.267 
#    0.000    0.000    0.000    2.400    3.467    0.000 
#    0.000    8.000    0.000    0.000    0.000    0.000 
#
# Total GULP energy -167177.170957 kJ/mol
# GULP energy per Si atom -5572.572365 kJ/mol
# Density = 2.179839 g / cm^3
# Si number density = 21.848121 Si / 1000 Ang^3
#
#
#
# Elastic Constant Matrix: (Units=GPa)
#
#
# Indices 1 2 3 4 5 6 
#
# 1 89.8114 26.0924 36.0259 0.0000 0.0000 0.0000
# 2 26.0924 135.2960 40.7796 0.0000 0.0000 0.0000
# 3 36.0259 40.7796 94.4629 0.0000 0.0000 0.0000
# 4 0.0000 0.0000 0.0000 51.6507 0.0000 0.0000
# 5 0.0000 0.0000 0.0000 0.0000 27.7145 0.0000
# 6 0.0000 0.0000 0.0000 0.0000 0.0000 134.2497
#
#
#
# Elastic Compliance Matrix: (Units=1/GPa)
#
#
# Indices 1 2 3 4 5 6 
#
# 1 0.013311 -0.001192 -0.004562 0.000000 0.000000 0.000000
# 2 -0.001192 0.008604 -0.003260 0.000000 0.000000 0.000000
# 3 -0.004562 -0.003260 0.013733 0.000000 0.000000 0.000000
# 4 0.000000 0.000000 0.000000 0.019361 0.000000 0.000000
# 5 0.000000 0.000000 0.000000 0.000000 0.036082 0.000000
# 6 0.000000 0.000000 0.000000 0.000000 0.000000 0.007449
#
#
# Mechanical properties :
#
#
# Convention : Reuss Voigt Hill
#
# Bulk Modulus (GPa) = 56.75190 58.37403 57.56296
# Shear Modulus (GPa) = 40.83662 57.16781 49.00221
#
# Velocity S-wave (km/s) = 4.32801 5.12082 4.74102
# Velocity P-wave (km/s) = 7.14196 7.85747 7.50825
#
# Compressibility (1/GPa) = 0.01762055
#
# Stress axis : x y z
#
# Youngs Moduli (GPa) = 75.12805 116.23106 72.81709
#
# Poissons Ratio (x) = 0.13855 0.33217
# Poissons Ratio (y) = 0.08956 0.23735
# Poissons Ratio (z) = 0.34271 0.37886
#
# Static dielectric constant tensor:
#      x y z
#    x 1.995260 0.000000 0.000000 
#    y 0.000000 1.892510 0.000000 
#    z 0.000000 0.000000 1.804680 
# 
# From -- ./inp_files/9368.got.cif
#   From: 2010.05.17/outbox.cif.g08.bks.cpg/sg16_5_cif.got.tgz:9368.got - 2010.06.03 22:28:35.
