data_PCOD9310433
_publ_section_title
;
Structure prediction by ZEFSAII (Michael W. Deem and Ramdas Pophale) SiO2 
 PCOD9310433
Probable space group: P 2 2 21
;
_chemical_formula_sum "Si O2"
_cell_formula_units_Z 32
_cell_length_a 7.445262
_cell_length_b 5.485209
_cell_length_c 32.250493
_cell_angle_alpha 90.000000
_cell_angle_beta 90.000000
_cell_angle_gamma 90.000000
_cell_volume 1317.072018
_symmetry_space_group_name_H-M "P 2 2 21"
_symmetry_group_IT_number 17
_symmetry_cell_setting 'orthorhombic'
loop_
_space_group_symop_operation_xyz
x,y,z
-x,-y,1/2+z
x,-y,-z
-x,y,1/2-z
loop_
_atom_site_type_symbol
_atom_site_label
_atom_site_fract_x
_atom_site_fract_y
_atom_site_fract_z
Si Si1 0.806086 0.248048 0.651567
Si Si2 0.819882 0.756339 0.876639
Si Si3 0.228939 0.748807 0.895295
Si Si4 0.609798 0.250331 0.487421
Si Si5 0.160500 0.234147 0.280113
Si Si6 0.988968 0.749817 0.020514
Si Si7 0.297419 0.256306 0.752242
Si Si8 0.817500 0.744953 0.109739
O O1 0.736920 0.500871 0.630838
O O2 0.764674 0.237041 0.700130
O O3 0.021746 0.252649 0.643623
O O4 0.736696 0.000828 0.629381
O O5 0.874917 0.765914 0.828727
O O6 0.716008 0.507828 0.885376
O O7 0.009620 0.750564 0.901441
O O8 0.714947 0.002100 0.886748
O O9 0.325596 0.746936 0.939747
O O10 0.513053 0.500000 0.500000
O O11 0.793835 0.249906 0.515338
O O12 0.513938 0.000000 0.500000
O O13 0.199263 0.514575 0.268755
O O14 0.000000 0.160642 0.250000
O O15 0.292120 0.007024 0.270414
O O16 0.923899 0.746798 0.067031
O O17 0.926289 0.500000 0.000000
O O18 0.926453 0.000000 0.000000
O O19 0.500000 0.341550 0.750000
#
# Coordination Sequence:
#
# PCOD9310433 Si02
#       8
#     4   4   4   4   4   4   4   4
#     4  10  18  32  49  67  96 139 184 220 272 344
#     4  10  18  29  46  70  98 131 175 226 271 323
#     4  10  18  29  46  73 105 143 182 227 279 337
#     4  10  16  24  38  62 100 147 176 207 268 344
#     4  12  23  40  64  89 113 149 202 249 292 353
#     4  10  16  23  36  59  96 145 176 205 264 343
#     4  12  26  43  61  86 120 157 195 251 314 363
#     4  10  17  28  44  70 104 141 178 225 280 335
#
# _framework density 24.296317999999999
#
# number of rings (size 3 to 8) (size 9 to 14) (size 15 to 20)
#    0.000    1.500    0.000   12.750    0.000    0.000 
#    0.000    0.000    0.000    0.000    0.000    0.000 
#    0.000    0.000    0.000  274.500    0.000    0.000 
#
# Total GULP energy -178941.927997 kJ/mol
# GULP energy per Si atom -5591.935250 kJ/mol
# Density = 2.424102 g / cm^3
# Si number density = 24.296318 Si / 1000 Ang^3
#
#
#
# Elastic Constant Matrix: (Units=GPa)
#
#
# Indices 1 2 3 4 5 6 
#
# 1 39.1288 -3.9475 -2.8261 0.0000 0.0000 0.0000
# 2 -3.9475 268.6229 59.0854 0.0000 0.0000 0.0000
# 3 -2.8261 59.0854 90.5381 0.0000 0.0000 0.0000
# 4 0.0000 0.0000 0.0000 51.7259 0.0000 0.0000
# 5 0.0000 0.0000 0.0000 0.0000 -9.2461 0.0000
# 6 0.0000 0.0000 0.0000 0.0000 0.0000 -1.3877
#
#
#
# Elastic Compliance Matrix: (Units=1/GPa)
#
#
# Indices 1 2 3 4 5 6 
#
# 1 0.025627 0.000234 0.000647 0.000000 0.000000 0.000000
# 2 0.000234 0.004349 -0.002831 0.000000 0.000000 0.000000
# 3 0.000647 -0.002831 0.012913 0.000000 0.000000 0.000000
# 4 0.000000 0.000000 0.000000 0.019333 0.000000 0.000000
# 5 0.000000 0.000000 0.000000 0.000000 -0.108154 0.000000
# 6 0.000000 0.000000 0.000000 0.000000 0.000000 -0.720639
#
#
# Mechanical properties :
#
#
# Convention : Reuss Voigt Hill
#
# Bulk Modulus (GPa) = 25.64789 55.87926 40.76357
# Shear Modulus (GPa) = -6.66955 31.28362 12.30704
#
# Velocity S-wave (km/s) = -1.65863 3.59219 2.25308
# Velocity P-wave (km/s) = 2.62891 6.34461 4.85619
#
# Compressibility (1/GPa) = 0.03898956
#
# Stress axis : x y z
#
# Youngs Moduli (GPa) = 39.02139 229.95027 77.44374
#
# Poissons Ratio (x) = -0.05387 -0.05011
# Poissons Ratio (y) = -0.00914 0.21922
# Poissons Ratio (z) = -0.02525 0.65092
#
# Static dielectric constant tensor:
#      x y z
#    x 1.878810 0.000000 0.000000 
#    y 0.000000 2.060360 0.000000 
#    z 0.000000 0.000000 1.861420 
# 
# From -- ./inp_files/11253.got.cif
#   From: 2010.05.17/outbox.cif.g08.bks.cpg/sg17_6_cif.got.tgz:11253.got - 2010.06.03 22:34:06.
