data_PCOD9310756
_publ_section_title
;
Structure prediction by ZEFSAII (Michael W. Deem and Ramdas Pophale) SiO2 
 PCOD9310756
Probable space group: P 2 2 21
;
_chemical_formula_sum "Si O2"
_cell_formula_units_Z 28
_cell_length_a 12.472565
_cell_length_b 20.836386
_cell_length_c 5.608331
_cell_angle_alpha 90.000000
_cell_angle_beta 90.000000
_cell_angle_gamma 90.000000
_cell_volume 1457.510888
_symmetry_space_group_name_H-M "P 2 2 21"
_symmetry_group_IT_number 17
_symmetry_cell_setting 'orthorhombic'
loop_
_space_group_symop_operation_xyz
x,y,z
-x,-y,1/2+z
x,-y,-z
-x,y,1/2-z
loop_
_atom_site_type_symbol
_atom_site_label
_atom_site_fract_x
_atom_site_fract_y
_atom_site_fract_z
Si Si1 0.891322 0.782956 0.640120
Si Si2 0.000000 0.307726 0.750000
Si Si3 0.813002 0.337688 0.066102
Si Si4 0.500000 0.807726 0.750000
Si Si5 0.313002 0.837688 0.066102
Si Si6 0.129418 0.534053 0.752517
Si Si7 0.370582 0.965948 0.252517
Si Si8 0.391322 0.282956 0.640120
O O1 0.933072 0.738280 0.424728
O O2 0.838055 0.732255 0.822990
O O3 0.801240 0.832095 0.558718
O O4 0.000000 0.811548 0.750000
O O5 0.087130 0.349351 0.611003
O O6 0.820630 0.394742 0.252635
O O7 0.698760 0.332094 0.941282
O O8 0.587130 0.849351 0.611004
O O9 0.433073 0.761720 0.575271
O O10 0.320630 0.894742 0.252635
O O11 0.338056 0.767745 0.177009
O O12 0.160698 0.500000 0.500000
O O13 0.000000 0.538766 0.750000
O O14 0.160016 0.500000 0.000000
O O15 0.500000 0.961235 0.250000
O O16 0.339984 0.000000 0.500000
O O17 0.339302 0.000000 0.000000
O O18 0.500000 0.311549 0.750000
#
# Coordination Sequence:
#
# PCOD9310756 Si02
#       8
#     4   2   4   2   4   4   4   4
#     4  10  21  35  56  90 122 160 199 253 317 369
#     4  10  20  34  56  88 120 162 194 254 306 388
#     4  11  21  36  60  87 128 159 203 255 315 377
#     4  10  20  34  56  88 120 162 194 254 306 388
#     4  11  21  36  60  87 128 159 203 255 315 377
#     4  10  23  38  58  88 127 166 207 253 309 373
#     4  10  23  38  58  88 127 166 207 253 309 373
#     4  10  21  35  56  90 122 160 199 253 317 369
#
# _framework density 19.210833999999998
#
# number of rings (size 3 to 8) (size 9 to 14) (size 15 to 20)
#    0.000    1.714    2.857    2.571   10.000    0.000 
#    0.000    0.000    0.000    0.000    3.714    0.000 
#    0.000    0.000    0.000    0.000    0.000    0.000 
#
# Total GULP energy -156349.466430 kJ/mol
# GULP energy per Si atom -5583.909515 kJ/mol
# Density = 1.916711 g / cm^3
# Si number density = 19.210834 Si / 1000 Ang^3
#
#
#
# Elastic Constant Matrix: (Units=GPa)
#
#
# Indices 1 2 3 4 5 6 
#
# 1 114.0374 42.7354 47.8936 0.0000 0.0000 0.0000
# 2 42.7354 58.5393 24.8088 0.0000 0.0000 0.0000
# 3 47.8936 24.8088 89.0593 0.0000 0.0000 0.0000
# 4 0.0000 0.0000 0.0000 30.1062 0.0000 0.0000
# 5 0.0000 0.0000 0.0000 0.0000 27.3385 0.0000
# 6 0.0000 0.0000 0.0000 0.0000 0.0000 8.1935
#
#
#
# Elastic Compliance Matrix: (Units=1/GPa)
#
#
# Indices 1 2 3 4 5 6 
#
# 1 0.013977 -0.007958 -0.005300 0.000000 0.000000 0.000000
# 2 -0.007958 0.023900 -0.002378 0.000000 0.000000 0.000000
# 3 -0.005300 -0.002378 0.014741 0.000000 0.000000 0.000000
# 4 0.000000 0.000000 0.000000 0.033216 0.000000 0.000000
# 5 0.000000 0.000000 0.000000 0.000000 0.036578 0.000000
# 6 0.000000 0.000000 0.000000 0.000000 0.000000 0.122048
#
#
# Mechanical properties :
#
#
# Convention : Reuss Voigt Hill
#
# Bulk Modulus (GPa) = 46.84596 54.72353 50.78474
# Shear Modulus (GPa) = 17.67745 22.87419 20.27582
#
# Velocity S-wave (km/s) = 3.03674 3.45438 3.25227
# Velocity P-wave (km/s) = 6.06084 6.66768 6.37149
#
# Compressibility (1/GPa) = 0.02134656
#
# Stress axis : x y z
#
# Youngs Moduli (GPa) = 71.54655 41.84157 67.83797
#
# Poissons Ratio (x) = 0.33296 0.35952
# Poissons Ratio (y) = 0.56934 0.16134
# Poissons Ratio (z) = 0.37918 0.09951
#
# Static dielectric constant tensor:
#      x y z
#    x 1.649830 0.000000 0.000000 
#    y 0.000000 1.654130 0.000000 
#    z 0.000000 0.000000 1.767110 
# 
# From -- ./inp_files/1836.got.cif
#   From: 2010.05.17/outbox.cif.g08.bks.cpg/sg17_1_cif.got.tgz:1836.got - 2010.06.03 22:34:06.
