data_PCOD9310337
_publ_section_title
;
Structure prediction by ZEFSAII (Michael W. Deem and Ramdas Pophale) SiO2 
 PCOD9310337
Probable space group: P 2 2 2
;
_chemical_formula_sum "Si O2"
_cell_formula_units_Z 12
_cell_length_a 5.485216
_cell_length_b 18.249898
_cell_length_c 4.943468
_cell_angle_alpha 90.000000
_cell_angle_beta 90.000000
_cell_angle_gamma 90.000000
_cell_volume 494.864047
_symmetry_space_group_name_H-M "P 2 2 2"
_symmetry_group_IT_number 16
_symmetry_cell_setting 'orthorhombic'
loop_
_space_group_symop_operation_xyz
x,y,z
-x,-y,z
x,-y,-z
-x,y,-z
loop_
_atom_site_type_symbol
_atom_site_label
_atom_site_fract_x
_atom_site_fract_y
_atom_site_fract_z
Si Si1 0.500000 0.898223 0.500000
Si Si2 0.244125 0.782279 0.170367
Si Si3 0.500000 0.000000 0.000000
Si Si4 0.327804 0.380671 0.742238
Si Si5 0.000000 0.500000 0.000000
O O1 0.288807 0.845660 0.388077
O O2 0.598331 0.943884 0.235869
O O3 0.222056 0.700882 0.297031
O O4 0.500000 0.782640 0.000000
O O5 0.000000 0.794940 0.000000
O O6 0.500000 0.401054 0.500000
O O7 0.500000 0.375107 0.000000
O O8 0.143407 0.444471 0.808486
#
# Coordination Sequence:
#
# PCOD9310337 Si02
#       5
#     2   4   1   4   1
#     4  11  22  48  82 118 175 208 282 331 416 504
#     4  11  24  48  82 119 157 215 277 338 405 496
#     4  10  24  46  82 122 170 220 258 346 426 478
#     4  11  26  47  73 112 154 210 276 342 414 484
#     4  12  26  50  76 108 168 212 282 354 418 482
#
# _framework density 24.249081
#
# number of rings (size 3 to 8) (size 9 to 14) (size 15 to 20)
#    0.000    1.000    5.000    0.500    0.000    6.667 
#    0.000    0.833    7.333    0.000    0.000    0.000 
#    0.000    0.000    0.000    0.000    0.000    0.000 
#
# Total GULP energy -67056.753949 kJ/mol
# GULP energy per Si atom -5588.062829 kJ/mol
# Density = 2.419389 g / cm^3
# Si number density = 24.249081 Si / 1000 Ang^3
#
#
#
# Elastic Constant Matrix: (Units=GPa)
#
#
# Indices 1 2 3 4 5 6 
#
# 1 150.6134 75.3535 79.7882 0.0000 0.0000 0.0000
# 2 75.3535 216.2477 82.5275 0.0000 0.0000 0.0000
# 3 79.7882 82.5275 183.3353 0.0000 0.0000 0.0000
# 4 0.0000 0.0000 0.0000 -85.5919 0.0000 0.0000
# 5 0.0000 0.0000 0.0000 0.0000 61.9021 0.0000
# 6 0.0000 0.0000 0.0000 0.0000 0.0000 -9.4271
#
#
#
# Elastic Compliance Matrix: (Units=1/GPa)
#
#
# Indices 1 2 3 4 5 6 
#
# 1 0.009328 -0.002054 -0.003135 0.000000 0.000000 0.000000
# 2 -0.002054 0.006036 -0.001823 0.000000 0.000000 0.000000
# 3 -0.003135 -0.001823 0.007639 0.000000 0.000000 0.000000
# 4 0.000000 0.000000 0.000000 -0.011683 0.000000 0.000000
# 5 0.000000 0.000000 0.000000 0.000000 0.016155 0.000000
# 6 0.000000 0.000000 0.000000 0.000000 0.000000 -0.106077
#
#
# Mechanical properties :
#
#
# Convention : Reuss Voigt Hill
#
# Bulk Modulus (GPa) = 111.36912 113.94832 112.65872
# Shear Modulus (GPa) = -81.18764 14.21176 -33.48794
#
# Velocity S-wave (km/s) = -5.79253 2.42352 -3.72021
# Velocity P-wave (km/s) = 1.13534 7.41108 5.30156
#
# Compressibility (1/GPa) = 0.00897915
#
# Stress axis : x y z
#
# Youngs Moduli (GPa) = 107.20526 165.67776 130.89904
#
# Poissons Ratio (x) = 0.34030 0.41036
# Poissons Ratio (y) = 0.22020 0.23864
# Poissons Ratio (z) = 0.33608 0.30205
#
# Static dielectric constant tensor:
#      x y z
#    x 1.930160 0.000000 0.000000 
#    y 0.000000 2.005050 0.000000 
#    z 0.000000 0.000000 1.943400 
# 
# From -- ./inp_files/136.got.cif
#   From: 2010.05.17/outbox.cif.g08.bks.cpg/sg16_1_cif.got.tgz:136.got - 2010.06.03 22:28:35.
