data_PCOD9310397
_publ_section_title
;
Structure prediction by ZEFSAII (Michael W. Deem and Ramdas Pophale) SiO2 
 PCOD9310397
Probable space group: P 2 2 2
;
_chemical_formula_sum "Si O2"
_cell_formula_units_Z 32
_cell_length_a 8.730692
_cell_length_b 17.037457
_cell_length_c 10.753820
_cell_angle_alpha 90.000000
_cell_angle_beta 90.000000
_cell_angle_gamma 90.000000
_cell_volume 1599.617708
_symmetry_space_group_name_H-M "P 2 2 2"
_symmetry_group_IT_number 16
_symmetry_cell_setting 'orthorhombic'
loop_
_space_group_symop_operation_xyz
x,y,z
-x,-y,z
x,-y,-z
-x,y,-z
loop_
_atom_site_type_symbol
_atom_site_label
_atom_site_fract_x
_atom_site_fract_y
_atom_site_fract_z
Si Si1 0.315074 0.409471 0.012217
Si Si2 0.175331 0.974747 0.138835
Si Si3 0.337778 0.351602 0.278191
Si Si4 0.170950 0.492482 0.645209
Si Si5 0.298352 0.663791 0.246598
Si Si6 0.877340 0.178106 0.305642
Si Si7 0.337292 0.040775 0.376023
Si Si8 0.211391 0.802134 0.595522
O O1 0.264859 0.362625 0.892957
O O2 0.258818 0.500000 0.000000
O O3 0.500000 0.414972 0.000000
O O4 0.280106 0.359346 0.135390
O O5 0.174145 0.887518 0.203989
O O6 0.253899 0.023147 0.248145
O O7 0.000000 0.000000 0.133983
O O8 0.236898 0.000000 0.000000
O O9 0.291570 0.439498 0.319721
O O10 0.518963 0.332963 0.271777
O O11 0.261301 0.285803 0.366578
O O12 0.152337 0.500000 0.500000
O O13 0.235817 0.407278 0.671861
O O14 0.000000 0.500000 0.703679
O O15 0.204724 0.742019 0.267412
O O16 0.829483 0.177048 0.452433
O O17 0.061949 0.179869 0.319543
O O18 0.344686 0.134511 0.382042
O O19 0.500000 0.000000 0.369067
O O20 0.262257 0.000000 0.500000
#
# Coordination Sequence:
#
# PCOD9310397 Si02
#       8
#     4   4   4   4   4   4   4   4
#     4   9  18  39  63  87 125 174 220 268 335 400
#     4  11  24  45  72 100 134 181 228 281 346 421
#     4  11  23  39  65  96 129 170 225 279 329 400
#     4  11  23  40  59  87 131 175 218 270 339 399
#     4  11  23  39  66  94 129 175 221 277 334 401
#     4  11  24  43  67  97 136 176 221 277 346 413
#     4  11  24  42  71 101 133 178 231 285 345 413
#     4  11  24  42  67  98 134 176 221 279 346 407
#
# _framework density 20.00478
#
# number of rings (size 3 to 8) (size 9 to 14) (size 15 to 20)
#    0.000    1.250    3.750    1.875    1.750    6.000 
#    0.000    2.500    0.000    0.000    0.000    0.000 
#    0.000    0.000    0.000    0.000    0.000    0.000 
#
# Total GULP energy -178147.959074 kJ/mol
# GULP energy per Si atom -5567.123721 kJ/mol
# Density = 1.995925 g / cm^3
# Si number density = 20.004780 Si / 1000 Ang^3
#
#
#
# Elastic Constant Matrix: (Units=GPa)
#
#
# Indices 1 2 3 4 5 6 
#
# 1 47.1051 30.3871 24.7571 0.0000 0.0000 0.0000
# 2 30.3871 154.5068 38.1885 0.0000 0.0000 0.0000
# 3 24.7571 38.1885 127.7090 0.0000 0.0000 0.0000
# 4 0.0000 0.0000 0.0000 28.9844 0.0000 0.0000
# 5 0.0000 0.0000 0.0000 0.0000 29.0971 0.0000
# 6 0.0000 0.0000 0.0000 0.0000 0.0000 58.1948
#
#
#
# Elastic Compliance Matrix: (Units=1/GPa)
#
#
# Indices 1 2 3 4 5 6 
#
# 1 0.025897 -0.004160 -0.003776 0.000000 0.000000 0.000000
# 2 -0.004160 0.007657 -0.001483 0.000000 0.000000 0.000000
# 3 -0.003776 -0.001483 0.009006 0.000000 0.000000 0.000000
# 4 0.000000 0.000000 0.000000 0.034501 0.000000 0.000000
# 5 0.000000 0.000000 0.000000 0.000000 0.034368 0.000000
# 6 0.000000 0.000000 0.000000 0.000000 0.000000 0.017184
#
#
# Mechanical properties :
#
#
# Convention : Reuss Voigt Hill
#
# Bulk Modulus (GPa) = 42.15645 57.33183 49.74414
# Shear Modulus (GPa) = 32.18349 38.98778 35.58563
#
# Velocity S-wave (km/s) = 4.01532 4.41945 4.22222
# Velocity P-wave (km/s) = 6.52810 7.40023 6.97780
#
# Compressibility (1/GPa) = 0.02372116
#
# Stress axis : x y z
#
# Youngs Moduli (GPa) = 38.61390 130.60049 111.03818
#
# Poissons Ratio (x) = 0.54328 0.41933
# Poissons Ratio (y) = 0.16063 0.16469
# Poissons Ratio (z) = 0.14582 0.19371
#
# Static dielectric constant tensor:
#      x y z
#    x 1.723590 0.000000 0.000000 
#    y 0.000000 1.707130 0.000000 
#    z 0.000000 0.000000 1.727810 
# 
# From -- ./inp_files/6653.got.cif
#   From: 2010.05.17/outbox.cif.g08.bks.cpg/sg16_4_cif.got.tgz:6653.got - 2010.06.03 22:28:35.
