data_PCOD9310027
_publ_section_title
;
Structure prediction by ZEFSAII (Michael W. Deem and Ramdas Pophale) SiO2 
 PCOD9310027
Probable space group: P 2 2 2
;
_chemical_formula_sum "Si O2"
_cell_formula_units_Z 19
_cell_length_a 5.054803
_cell_length_b 11.123375
_cell_length_c 18.325920
_cell_angle_alpha 90.000000
_cell_angle_beta 90.000000
_cell_angle_gamma 90.000000
_cell_volume 1030.401779
_symmetry_space_group_name_H-M "P 2 2 2"
_symmetry_group_IT_number 16
_symmetry_cell_setting 'orthorhombic'
loop_
_space_group_symop_operation_xyz
x,y,z
-x,-y,z
x,-y,-z
-x,y,-z
loop_
_atom_site_type_symbol
_atom_site_label
_atom_site_fract_x
_atom_site_fract_y
_atom_site_fract_z
Si Si1 0.429927 0.358524 0.081514
Si Si2 0.500000 0.000000 0.000000
Si Si3 0.978799 0.355003 0.678117
Si Si4 0.924070 0.260322 0.160905
Si Si5 0.000000 0.000000 0.896612
Si Si6 0.521025 0.645660 0.582995
O O1 0.500000 0.500000 0.081405
O O2 0.631554 0.300680 0.138395
O O3 0.133423 0.327356 0.106645
O O4 0.500000 0.311701 0.000000
O O5 0.266154 0.960656 0.942144
O O6 0.011092 0.297901 0.757154
O O7 0.207251 0.321466 0.621404
O O8 0.000000 0.500000 0.687785
O O9 0.709524 0.319493 0.638398
O O10 0.936239 0.118534 0.148503
O O11 0.500000 0.500000 0.578812
O O12 0.500000 0.690241 0.500000
#
# Coordination Sequence:
#
# PCOD9310027 Si02
#       6
#     4   1   4   4   2   4
#     4  11  24  39  57  82 112 149 185 230 287 346
#     4  10  24  42  60  78 102 138 194 250 284 332
#     4  10  19  32  52  79 111 146 176 220 280 333
#     4  12  24  38  59  82 114 147 192 238 285 337
#     4  11  26  40  62  84 105 146 196 242 299 316
#     4   9  17  30  50  79 112 143 178 216 265 332
#
# _framework density 18.439408
#
# number of rings (size 3 to 8) (size 9 to 14) (size 15 to 20)
#    0.000    1.474    0.000    5.684    8.842    5.895 
#    0.000    0.000    0.000    0.000    0.000    4.421 
#    0.000    0.000    0.000    0.000    0.000    0.000 
#
# Total GULP energy -105932.133510 kJ/mol
# GULP energy per Si atom -5575.375448 kJ/mol
# Density = 1.839744 g / cm^3
# Si number density = 18.439408 Si / 1000 Ang^3
#
#
#
# Elastic Constant Matrix: (Units=GPa)
#
#
# Indices 1 2 3 4 5 6 
#
# 1 36.9574 -2.1907 -25.6794 0.0000 0.0000 0.0000
# 2 -2.1907 60.1854 16.6912 0.0000 0.0000 0.0000
# 3 -25.6794 16.6912 102.4987 0.0000 0.0000 0.0000
# 4 0.0000 0.0000 0.0000 -3.3595 0.0000 0.0000
# 5 0.0000 0.0000 0.0000 0.0000 11.0995 0.0000
# 6 0.0000 0.0000 0.0000 0.0000 0.0000 14.7012
#
#
#
# Elastic Compliance Matrix: (Units=1/GPa)
#
#
# Indices 1 2 3 4 5 6 
#
# 1 0.032835 -0.001138 0.008412 0.000000 0.000000 0.000000
# 2 -0.001138 0.017441 -0.003125 0.000000 0.000000 0.000000
# 3 0.008412 -0.003125 0.012373 0.000000 0.000000 0.000000
# 4 0.000000 0.000000 0.000000 -0.297660 0.000000 0.000000
# 5 0.000000 0.000000 0.000000 0.000000 0.090094 0.000000
# 6 0.000000 0.000000 0.000000 0.000000 0.000000 0.068022
#
#
# Mechanical properties :
#
#
# Convention : Reuss Voigt Hill
#
# Bulk Modulus (GPa) = 14.09512 19.69818 16.89665
# Shear Modulus (GPa) = -81.24247 18.54292 -31.34978
#
# Velocity S-wave (km/s) = -6.64491 3.17458 -4.12776
# Velocity P-wave (km/s) = 7.15629 4.91357 3.67895
#
# Compressibility (1/GPa) = 0.07094654
#
# Stress axis : x y z
#
# Youngs Moduli (GPa) = 30.45485 57.33747 80.82422
#
# Poissons Ratio (x) = 0.06523 -0.67987
# Poissons Ratio (y) = 0.03465 0.25258
# Poissons Ratio (z) = -0.25618 0.17918
#
# Static dielectric constant tensor:
#      x y z
#    x 1.629340 0.000000 0.000000 
#    y 0.000000 1.688500 0.000000 
#    z 0.000000 0.000000 1.616490 
# 
# From -- ./inp_files/7481.got.cif
#   From: 2010.05.17/outbox.cif.g08.bks.cpg/sg16_4_cif.got.tgz:7481.got - 2010.06.03 22:28:35.
