data_PCOD9310897
_publ_section_title
;
Structure prediction by ZEFSAII (Michael W. Deem and Ramdas Pophale) SiO2 
 PCOD9310897
Probable space group: P 2 2 21
;
_chemical_formula_sum "Si O2"
_cell_formula_units_Z 30
_cell_length_a 12.819343
_cell_length_b 5.339831
_cell_length_c 19.944102
_cell_angle_alpha 90.000000
_cell_angle_beta 90.000000
_cell_angle_gamma 90.000000
_cell_volume 1365.236110
_symmetry_space_group_name_H-M "P 2 2 21"
_symmetry_group_IT_number 17
_symmetry_cell_setting 'orthorhombic'
loop_
_space_group_symop_operation_xyz
x,y,z
-x,-y,1/2+z
x,-y,-z
-x,y,1/2-z
loop_
_atom_site_type_symbol
_atom_site_label
_atom_site_fract_x
_atom_site_fract_y
_atom_site_fract_z
Si Si1 0.086404 0.854230 0.570370
Si Si2 0.562529 0.550487 0.681478
Si Si3 0.764694 0.500000 0.000000
Si Si4 0.478969 0.046322 0.670635
Si Si5 0.250980 0.783401 0.370585
Si Si6 0.875485 0.276324 0.744400
Si Si7 0.140641 0.247233 0.044526
Si Si8 0.786841 0.246171 0.316794
O O1 0.157350 0.622149 0.553186
O O2 0.969341 0.778617 0.585024
O O3 0.078107 0.000000 0.500000
O O4 0.157170 0.018903 0.617884
O O5 0.500000 0.506262 0.750000
O O6 0.552111 0.278030 0.647388
O O7 0.673965 0.652764 0.704297
O O8 0.507576 0.775152 0.640933
O O9 0.713822 0.687163 0.054123
O O10 0.500000 0.011641 0.750000
O O11 0.358499 0.111196 0.658811
O O12 0.191477 0.637297 0.310466
O O13 0.863187 0.521086 0.698261
O O14 0.000000 0.228068 0.750000
O O15 0.822846 0.019947 0.714672
O O16 0.224230 0.233426 0.102868
O O17 0.139562 0.500000 0.000000
O O18 0.150338 0.000000 0.000000
#
# Coordination Sequence:
#
# PCOD9310897 Si02
#       8
#     4   4   2   4   4   4   4   4
#     4   9  20  38  61  94 127 178 218 269 322 414
#     4  10  20  39  63  90 121 169 227 273 332 399
#     4  10  22  38  66  90 134 178 228 270 338 418
#     4  10  21  38  64  91 122 168 222 280 340 404
#     4  11  24  39  67  97 140 175 237 280 358 413
#     4  12  26  40  63 104 146 180 214 292 351 418
#     4  11  23  42  70  96 135 184 230 278 336 422
#     4  12  25  43  68  99 136 180 235 281 351 413
#
# _framework density 21.974221
#
# number of rings (size 3 to 8) (size 9 to 14) (size 15 to 20)
#    0.000    1.333    0.667    6.000    5.600    0.000 
#    0.000    0.000    4.400    0.000    0.000    0.000 
#    0.000    0.000    0.000    0.000    0.000    0.000 
#
# Total GULP energy -167029.397981 kJ/mol
# GULP energy per Si atom -5567.646599 kJ/mol
# Density = 2.192421 g / cm^3
# Si number density = 21.974221 Si / 1000 Ang^3
#
#
#
# Elastic Constant Matrix: (Units=GPa)
#
#
# Indices 1 2 3 4 5 6 
#
# 1 62.8232 -9.4948 18.3296 0.0000 0.0000 0.0000
# 2 -9.4948 116.4916 21.8098 0.0000 0.0000 0.0000
# 3 18.3296 21.8098 68.9788 0.0000 0.0000 0.0000
# 4 0.0000 0.0000 0.0000 29.0211 0.0000 0.0000
# 5 0.0000 0.0000 0.0000 0.0000 33.0284 0.0000
# 6 0.0000 0.0000 0.0000 0.0000 0.0000 37.1663
#
#
#
# Elastic Compliance Matrix: (Units=1/GPa)
#
#
# Indices 1 2 3 4 5 6 
#
# 1 0.017915 0.002499 -0.005551 0.000000 0.000000 0.000000
# 2 0.002499 0.009473 -0.003659 0.000000 0.000000 0.000000
# 3 -0.005551 -0.003659 0.017129 0.000000 0.000000 0.000000
# 4 0.000000 0.000000 0.000000 0.034458 0.000000 0.000000
# 5 0.000000 0.000000 0.000000 0.000000 0.030277 0.000000
# 6 0.000000 0.000000 0.000000 0.000000 0.000000 0.026906
#
#
# Mechanical properties :
#
#
# Convention : Reuss Voigt Hill
#
# Bulk Modulus (GPa) = 32.15865 34.39808 33.27837
# Shear Modulus (GPa) = 31.26078 34.35310 32.80694
#
# Velocity S-wave (km/s) = 3.77584 3.95819 3.86809
# Velocity P-wave (km/s) = 5.80309 6.04794 5.92678
#
# Compressibility (1/GPa) = 0.03109583
#
# Stress axis : x y z
#
# Youngs Moduli (GPa) = 55.81931 105.56152 58.37973
#
# Poissons Ratio (x) = -0.26384 0.32405
# Poissons Ratio (y) = -0.13952 0.21363
# Poissons Ratio (z) = 0.30984 0.38629
#
# Static dielectric constant tensor:
#      x y z
#    x 1.810770 0.000000 0.000000 
#    y 0.000000 1.984540 0.000000 
#    z 0.000000 0.000000 1.575120 
# 
# From -- ./inp_files/10239.got.cif
#   From: 2010.05.17/outbox.cif.g08.bks.cpg/sg17_6_cif.got.tgz:10239.got - 2010.06.03 22:34:06.
