data_PCOD9310864
_publ_section_title
;
Structure prediction by ZEFSAII (Michael W. Deem and Ramdas Pophale) SiO2 
 PCOD9310864
Probable space group: P 2 2 21
;
_chemical_formula_sum "Si O2"
_cell_formula_units_Z 20
_cell_length_a 13.566559
_cell_length_b 7.665888
_cell_length_c 9.041601
_cell_angle_alpha 90.000000
_cell_angle_beta 90.000000
_cell_angle_gamma 90.000000
_cell_volume 940.323989
_symmetry_space_group_name_H-M "P 2 2 21"
_symmetry_group_IT_number 17
_symmetry_cell_setting 'orthorhombic'
loop_
_space_group_symop_operation_xyz
x,y,z
-x,-y,1/2+z
x,-y,-z
-x,y,1/2-z
loop_
_atom_site_type_symbol
_atom_site_label
_atom_site_fract_x
_atom_site_fract_y
_atom_site_fract_z
Si Si1 0.860419 0.500000 0.000000
Si Si2 0.754266 0.000000 0.000000
Si Si3 0.500000 0.760066 0.750000
Si Si4 0.745887 0.707129 0.474619
Si Si5 0.104008 0.210420 0.715665
Si Si6 0.405728 0.000000 0.000000
Si Si7 0.291018 0.294968 0.298433
O O1 0.921100 0.632923 0.100492
O O2 0.785842 0.415414 0.118179
O O3 0.823286 0.092667 0.880067
O O4 0.692018 0.863310 0.909681
O O5 0.597682 0.641527 0.771414
O O6 0.532186 0.889296 0.617652
O O7 0.721338 0.500000 0.500000
O O8 0.836315 0.726657 0.361052
O O9 0.759385 0.764432 0.645541
O O10 0.662318 0.846995 0.425102
O O11 0.000000 0.121961 0.750000
#
# Coordination Sequence:
#
# PCOD9310864 Si02
#       7
#     2   2   2   4   4   2   4
#     4  10  22  40  58  90 130 164 200 268 328 378
#     4  10  23  41  64  92 130 166 208 269 331 378
#     4  10  20  38  62  92 118 168 218 258 308 384
#     4  11  22  42  66  93 129 176 211 265 334 386
#     4  11  24  40  65  94 124 169 217 269 325 395
#     4  10  23  41  64  94 134 172 214 267 327 382
#     4  10  21  41  63  89 128 165 211 258 324 383
#
# _framework density 21.269264
#
# number of rings (size 3 to 8) (size 9 to 14) (size 15 to 20)
#    0.000    1.600    2.000    3.000    1.400    4.000 
#    7.200    5.000    0.000    0.000    0.000    0.000 
#    0.000    0.000    0.000    0.000    0.000    0.000 
#
# Total GULP energy -111395.462355 kJ/mol
# GULP energy per Si atom -5569.773118 kJ/mol
# Density = 2.122085 g / cm^3
# Si number density = 21.269264 Si / 1000 Ang^3
#
#
#
# Elastic Constant Matrix: (Units=GPa)
#
#
# Indices 1 2 3 4 5 6 
#
# 1 83.5196 2.6378 36.8048 0.0000 0.0000 0.0000
# 2 2.6378 39.9231 -10.1914 0.0000 0.0000 0.0000
# 3 36.8048 -10.1914 95.5466 0.0000 0.0000 0.0000
# 4 0.0000 0.0000 0.0000 21.5773 0.0000 0.0000
# 5 0.0000 0.0000 0.0000 0.0000 12.3884 0.0000
# 6 0.0000 0.0000 0.0000 0.0000 0.0000 -47.9618
#
#
#
# Elastic Compliance Matrix: (Units=1/GPa)
#
#
# Indices 1 2 3 4 5 6 
#
# 1 0.014656 -0.002477 -0.005910 0.000000 0.000000 0.000000
# 2 -0.002477 0.026168 0.003745 0.000000 0.000000 0.000000
# 3 -0.005910 0.003745 0.013142 0.000000 0.000000 0.000000
# 4 0.000000 0.000000 0.000000 0.046345 0.000000 0.000000
# 5 0.000000 0.000000 0.000000 0.000000 0.080721 0.000000
# 6 0.000000 0.000000 0.000000 0.000000 0.000000 -0.020850
#
#
# Mechanical properties :
#
#
# Convention : Reuss Voigt Hill
#
# Bulk Modulus (GPa) = 22.37983 30.83241 26.60612
# Shear Modulus (GPa) = 27.12110 9.84997 18.48554
#
# Velocity S-wave (km/s) = 3.57477 2.15433 2.95128
# Velocity P-wave (km/s) = 5.25201 4.55147 4.91424
#
# Compressibility (1/GPa) = 0.04468308
#
# Stress axis : x y z
#
# Youngs Moduli (GPa) = 68.23299 38.21479 76.09208
#
# Poissons Ratio (x) = 0.09465 0.44967
# Poissons Ratio (y) = 0.16901 -0.28499
# Poissons Ratio (z) = 0.40323 -0.14312
#
# Static dielectric constant tensor:
#      x y z
#    x 1.731850 0.000000 0.000000 
#    y 0.000000 1.851950 0.000000 
#    z 0.000000 0.000000 1.809210 
# 
# From -- ./inp_files/4111.got.cif
#   From: 2010.05.17/outbox.cif.g08.bks.cpg/sg17_3_cif.got.tgz:4111.got - 2010.06.03 22:34:06.
