data_PCOD9310047
_publ_section_title
;
Structure prediction by ZEFSAII (Michael W. Deem and Ramdas Pophale) SiO2 
 PCOD9310047
Probable space group: P 2 2 2
;
_chemical_formula_sum "Si O2"
_cell_formula_units_Z 26
_cell_length_a 8.252604
_cell_length_b 9.261144
_cell_length_c 18.517107
_cell_angle_alpha 90.000000
_cell_angle_beta 90.000000
_cell_angle_gamma 90.000000
_cell_volume 1415.235713
_symmetry_space_group_name_H-M "P 2 2 2"
_symmetry_group_IT_number 16
_symmetry_cell_setting 'orthorhombic'
loop_
_space_group_symop_operation_xyz
x,y,z
-x,-y,z
x,-y,-z
-x,y,-z
loop_
_atom_site_type_symbol
_atom_site_label
_atom_site_fract_x
_atom_site_fract_y
_atom_site_fract_z
Si Si1 0.168103 0.829824 0.221943
Si Si2 0.500000 0.500000 0.500000
Si Si3 0.794736 0.246432 0.812924
Si Si4 0.674483 0.929768 0.313673
Si Si5 0.000000 0.500000 0.500000
Si Si6 0.692864 0.517260 0.747995
Si Si7 0.195017 0.987783 0.919380
Si Si8 0.248056 0.652967 0.601232
O O1 0.253537 0.680546 0.241394
O O2 0.232911 0.900256 0.146309
O O3 0.975948 0.799854 0.212528
O O4 0.207713 0.942983 0.285855
O O5 0.398623 0.602704 0.552725
O O6 0.668405 0.175941 0.756244
O O7 0.772473 0.416302 0.809182
O O8 0.765799 0.169790 0.888374
O O9 0.737701 0.819762 0.374827
O O10 0.500000 0.000000 0.329730
O O11 0.900444 0.394259 0.551979
O O12 0.500000 0.500000 0.749667
O O13 0.753602 0.446876 0.672905
O O14 0.000000 0.000000 0.924703
O O15 0.262988 0.000000 0.000000
#
# Coordination Sequence:
#
# PCOD9310047 Si02
#       8
#     4   1   4   4   1   4   4   4
#     4  10  19  33  57  87 115 144 194 249 277 333
#     4  10  20  42  58  78 116 146 200 210 276 358
#     4   9  19  33  53  87 113 146 196 242 280 334
#     4  10  20  35  58  85 116 147 188 231 286 331
#     4  10  24  42  64  88 112 146 188 238 292 350
#     4  11  21  35  60  84 110 151 193 238 288 337
#     4   8  15  31  53  79 114 152 185 231 292 341
#     4  10  22  39  62  83 110 152 187 231 281 349
#
# _framework density 18.371499
#
# number of rings (size 3 to 8) (size 9 to 14) (size 15 to 20)
#    0.000    2.308    0.769    3.692    4.308    0.000 
#    0.000    1.154    0.000   22.154    0.000    0.000 
#    0.000    0.000    0.000    0.000    0.000    0.000 
#
# Total GULP energy -144860.121533 kJ/mol
# GULP energy per Si atom -5571.543136 kJ/mol
# Density = 1.832968 g / cm^3
# Si number density = 18.371499 Si / 1000 Ang^3
#
#
#
# Elastic Constant Matrix: (Units=GPa)
#
#
# Indices 1 2 3 4 5 6 
#
# 1 72.6845 49.5656 42.7540 0.0000 0.0000 0.0000
# 2 49.5656 166.5311 73.3816 0.0000 0.0000 0.0000
# 3 42.7540 73.3816 118.7085 0.0000 0.0000 0.0000
# 4 0.0000 0.0000 0.0000 23.8047 0.0000 0.0000
# 5 0.0000 0.0000 0.0000 0.0000 11.0814 0.0000
# 6 0.0000 0.0000 0.0000 0.0000 0.0000 -45.5828
#
#
#
# Elastic Compliance Matrix: (Units=1/GPa)
#
#
# Indices 1 2 3 4 5 6 
#
# 1 0.018915 -0.003612 -0.004580 0.000000 0.000000 0.000000
# 2 -0.003612 0.008943 -0.004227 0.000000 0.000000 0.000000
# 3 -0.004580 -0.004227 0.012687 0.000000 0.000000 0.000000
# 4 0.000000 0.000000 0.000000 0.042009 0.000000 0.000000
# 5 0.000000 0.000000 0.000000 0.000000 0.090241 0.000000
# 6 0.000000 0.000000 0.000000 0.000000 0.000000 -0.021938
#
#
# Mechanical properties :
#
#
# Convention : Reuss Voigt Hill
#
# Bulk Modulus (GPa) = 63.66709 76.59184 70.12946
# Shear Modulus (GPa) = 27.63522 10.67551 19.15537
#
# Velocity S-wave (km/s) = 3.88267 2.41320 3.23254
# Velocity P-wave (km/s) = 7.40478 7.03888 7.22414
#
# Compressibility (1/GPa) = 0.01570670
#
# Stress axis : x y z
#
# Youngs Moduli (GPa) = 52.86845 111.82473 78.82355
#
# Poissons Ratio (x) = 0.40387 0.36099
# Poissons Ratio (y) = 0.19094 0.33320
# Poissons Ratio (z) = 0.24212 0.47271
#
# Static dielectric constant tensor:
#      x y z
#    x 1.672460 0.000000 0.000000 
#    y 0.000000 1.639730 0.000000 
#    z 0.000000 0.000000 1.657310 
# 
# From -- ./inp_files/4206.got.cif
#   From: 2010.05.17/outbox.cif.g08.bks.cpg/sg16_3_cif.got.tgz:4206.got - 2010.06.03 22:28:35.
