data_PCOD9310209
_publ_section_title
;
Structure prediction by ZEFSAII (Michael W. Deem and Ramdas Pophale) SiO2 
 PCOD9310209
Probable space group: P 2 2 2
;
_chemical_formula_sum "Si O2"
_cell_formula_units_Z 32
_cell_length_a 11.782783
_cell_length_b 8.559470
_cell_length_c 16.035717
_cell_angle_alpha 90.000000
_cell_angle_beta 90.000000
_cell_angle_gamma 90.000000
_cell_volume 1617.272257
_symmetry_space_group_name_H-M "P 2 2 2"
_symmetry_group_IT_number 16
_symmetry_cell_setting 'orthorhombic'
loop_
_space_group_symop_operation_xyz
x,y,z
-x,-y,z
x,-y,-z
-x,y,-z
loop_
_atom_site_type_symbol
_atom_site_label
_atom_site_fract_x
_atom_site_fract_y
_atom_site_fract_z
Si Si1 0.260829 0.799578 0.173072
Si Si2 0.866931 0.223603 0.470496
Si Si3 0.983525 0.813164 0.905503
Si Si4 0.383071 0.904937 0.775431
Si Si5 0.507157 0.313943 0.096426
Si Si6 0.787447 0.085430 0.631330
Si Si7 0.915698 0.708970 0.255110
Si Si8 0.164470 0.604326 0.314727
O O1 0.142894 0.776096 0.126024
O O2 0.367513 0.728034 0.127028
O O3 0.248440 0.716397 0.263348
O O4 0.290922 0.981740 0.181426
O O5 0.796590 0.205646 0.554852
O O6 0.836818 0.371990 0.413741
O O7 0.000000 0.216315 0.500000
O O8 0.827447 0.077518 0.411230
O O9 0.070946 0.730956 0.842841
O O10 0.000000 0.000000 0.899839
O O11 0.000000 0.763636 0.000000
O O12 0.417403 0.764522 0.838344
O O13 0.328761 0.890272 0.682957
O O14 0.500000 0.000000 0.767070
O O15 0.500000 0.500000 0.097532
O O16 0.500000 0.257974 0.000000
O O17 0.881095 0.133028 0.699400
O O18 0.829549 0.572456 0.281917
O O19 0.038486 0.661646 0.289286
#
# Coordination Sequence:
#
# PCOD9310209 Si02
#       8
#     4   4   4   4   4   4   4   4
#     4  10  21  40  63  88 125 169 208 270 319 384
#     4  11  22  36  61  93 129 161 212 263 306 389
#     4  10  22  38  59  96 134 168 215 257 321 407
#     4  10  22  40  66  90 120 161 216 269 328 379
#     4  10  24  44  65  95 123 161 226 285 329 380
#     4  11  21  35  60  93 117 163 204 256 322 369
#     4  10  22  35  58  86 125 173 204 247 314 386
#     4  10  21  39  55  87 129 163 205 251 312 384
#
# _framework density 19.786401999999999
#
# number of rings (size 3 to 8) (size 9 to 14) (size 15 to 20)
#    0.000    1.750    2.500    1.500    3.500    5.750 
#    2.250    5.625    0.000    0.000    0.000    0.875 
#    0.000    0.000    0.000    0.000    0.000    0.000 
#
# Total GULP energy -178413.044284 kJ/mol
# GULP energy per Si atom -5575.407634 kJ/mol
# Density = 1.974137 g / cm^3
# Si number density = 19.786402 Si / 1000 Ang^3
#
#
#
# Elastic Constant Matrix: (Units=GPa)
#
#
# Indices 1 2 3 4 5 6 
#
# 1 65.8248 27.3163 52.5357 0.0000 0.0000 0.0000
# 2 27.3163 60.1383 50.6097 0.0000 0.0000 0.0000
# 3 52.5357 50.6097 179.7949 0.0000 0.0000 0.0000
# 4 0.0000 0.0000 0.0000 25.2670 0.0000 0.0000
# 5 0.0000 0.0000 0.0000 0.0000 36.2490 0.0000
# 6 0.0000 0.0000 0.0000 0.0000 0.0000 21.5532
#
#
#
# Elastic Compliance Matrix: (Units=1/GPa)
#
#
# Indices 1 2 3 4 5 6 
#
# 1 0.021252 -0.005802 -0.004577 0.000000 0.000000 0.000000
# 2 -0.005802 0.023374 -0.004884 0.000000 0.000000 0.000000
# 3 -0.004577 -0.004884 0.008274 0.000000 0.000000 0.000000
# 4 0.000000 0.000000 0.000000 0.039577 0.000000 0.000000
# 5 0.000000 0.000000 0.000000 0.000000 0.027587 0.000000
# 6 0.000000 0.000000 0.000000 0.000000 0.000000 0.046397
#
#
# Mechanical properties :
#
#
# Convention : Reuss Voigt Hill
#
# Bulk Modulus (GPa) = 44.69290 62.96460 53.82875
# Shear Modulus (GPa) = 24.45647 28.30026 26.37837
#
# Velocity S-wave (km/s) = 3.51953 3.78602 3.65520
# Velocity P-wave (km/s) = 6.25722 7.14165 6.71401
#
# Compressibility (1/GPa) = 0.02237492
#
# Stress axis : x y z
#
# Youngs Moduli (GPa) = 47.05386 42.78279 120.85995
#
# Poissons Ratio (x) = 0.24821 0.55315
# Poissons Ratio (y) = 0.27299 0.59030
# Poissons Ratio (z) = 0.21535 0.20896
#
# Static dielectric constant tensor:
#      x y z
#    x 1.678590 0.000000 0.000000 
#    y 0.000000 1.798660 0.000000 
#    z 0.000000 0.000000 1.731520 
# 
# From -- ./inp_files/8198.got.cif
#   From: 2010.05.17/outbox.cif.g08.bks.cpg/sg16_5_cif.got.tgz:8198.got - 2010.06.03 22:28:35.
