data_PCOD9310164
_publ_section_title
;
Structure prediction by ZEFSAII (Michael W. Deem and Ramdas Pophale) SiO2 
 PCOD9310164
Probable space group: P 2 2 2
;
_chemical_formula_sum "Si O2"
_cell_formula_units_Z 25
_cell_length_a 9.829183
_cell_length_b 9.253493
_cell_length_c 15.920998
_cell_angle_alpha 90.000000
_cell_angle_beta 90.000000
_cell_angle_gamma 90.000000
_cell_volume 1448.082848
_symmetry_space_group_name_H-M "P 2 2 2"
_symmetry_group_IT_number 16
_symmetry_cell_setting 'orthorhombic'
loop_
_space_group_symop_operation_xyz
x,y,z
-x,-y,z
x,-y,-z
-x,y,-z
loop_
_atom_site_type_symbol
_atom_site_label
_atom_site_fract_x
_atom_site_fract_y
_atom_site_fract_z
Si Si1 0.204319 0.343824 0.040546
Si Si2 0.533271 0.658073 0.146262
Si Si3 0.754602 0.817620 0.878156
Si Si4 0.013346 0.670140 0.797468
Si Si5 0.110151 0.885971 0.663074
Si Si6 0.646375 0.069461 0.770537
Si Si7 0.000000 0.000000 0.500000
O O1 0.361475 0.359020 0.069442
O O2 0.110262 0.312140 0.120829
O O3 0.165745 0.500000 0.000000
O O4 0.194718 0.216313 0.972167
O O5 0.500000 0.500000 0.180562
O O6 0.390049 0.734257 0.126709
O O7 0.615145 0.765959 0.206255
O O8 0.868173 0.743511 0.819106
O O9 0.720896 0.979137 0.845578
O O10 0.076898 0.741958 0.714446
O O11 0.000000 0.500000 0.785301
O O12 0.257729 0.938044 0.690487
O O13 0.085618 0.899100 0.563631
O O14 0.000000 0.000000 0.698430
O O15 0.500000 0.000000 0.757037
#
# Coordination Sequence:
#
# PCOD9310164 Si02
#       7
#     4   4   4   4   4   4   1
#     4  12  22  34  53  77 119 166 221 249 292 341
#     4  11  21  36  54  76 111 164 212 251 291 345
#     4  11  22  34  52  77 120 160 208 255 286 340
#     4  12  22  36  57  88 118 159 202 258 296 357
#     4  10  20  42  65  86 117 147 189 244 317 375
#     4  10  22  39  58  87 121 153 204 255 302 358
#     4   8  20  40  76  88 118 144 188 240 320 408
#
# _framework density 17.264203999999999
#
# number of rings (size 3 to 8) (size 9 to 14) (size 15 to 20)
#    0.480    0.640    6.400    0.960    0.000    0.640 
#    0.000    3.200    0.000    0.000    0.000    0.000 
#    0.000    0.000    0.000    0.000    0.000    0.000 
#
# Total GULP energy -139345.641848 kJ/mol
# GULP energy per Si atom -5573.825674 kJ/mol
# Density = 1.722491 g / cm^3
# Si number density = 17.264204 Si / 1000 Ang^3
#
#
#
# Elastic Constant Matrix: (Units=GPa)
#
#
# Indices 1 2 3 4 5 6 
#
# 1 91.3738 26.3808 40.7587 0.0000 0.0000 0.0000
# 2 26.3808 94.9442 47.6866 0.0000 0.0000 0.0000
# 3 40.7587 47.6866 117.8794 0.0000 0.0000 0.0000
# 4 0.0000 0.0000 0.0000 22.4959 0.0000 0.0000
# 5 0.0000 0.0000 0.0000 0.0000 23.9542 0.0000
# 6 0.0000 0.0000 0.0000 0.0000 0.0000 23.6382
#
#
#
# Elastic Compliance Matrix: (Units=1/GPa)
#
#
# Indices 1 2 3 4 5 6 
#
# 1 0.013160 -0.001721 -0.003854 0.000000 0.000000 0.000000
# 2 -0.001721 0.013443 -0.004843 0.000000 0.000000 0.000000
# 3 -0.003854 -0.004843 0.011775 0.000000 0.000000 0.000000
# 4 0.000000 0.000000 0.000000 0.044452 0.000000 0.000000
# 5 0.000000 0.000000 0.000000 0.000000 0.041746 0.000000
# 6 0.000000 0.000000 0.000000 0.000000 0.000000 0.042304
#
#
# Mechanical properties :
#
#
# Convention : Reuss Voigt Hill
#
# Bulk Modulus (GPa) = 57.00625 59.31664 58.16144
# Shear Modulus (GPa) = 25.83103 26.64242 26.23672
#
# Velocity S-wave (km/s) = 3.87230 3.93264 3.90259
# Velocity P-wave (km/s) = 7.28591 7.41981 7.35317
#
# Compressibility (1/GPa) = 0.01754194
#
# Stress axis : x y z
#
# Youngs Moduli (GPa) = 75.98733 74.38689 84.92441
#
# Poissons Ratio (x) = 0.12801 0.32731
# Poissons Ratio (y) = 0.13076 0.41131
# Poissons Ratio (z) = 0.29287 0.36028
#
# Static dielectric constant tensor:
#      x y z
#    x 1.621530 0.000000 0.000000 
#    y 0.000000 1.615580 0.000000 
#    z 0.000000 0.000000 1.569160 
# 
# From -- ./inp_files/8877.got.cif
#   From: 2010.05.17/outbox.cif.g08.bks.cpg/sg16_5_cif.got.tgz:8877.got - 2010.06.03 22:28:35.
