data_PCOD9310881
_publ_section_title
;
Structure prediction by ZEFSAII (Michael W. Deem and Ramdas Pophale) SiO2 
 PCOD9310881
Probable space group: P 2 2 21
;
_chemical_formula_sum "Si O2"
_cell_formula_units_Z 30
_cell_length_a 8.548176
_cell_length_b 11.035732
_cell_length_c 15.242713
_cell_angle_alpha 90.000000
_cell_angle_beta 90.000000
_cell_angle_gamma 90.000000
_cell_volume 1437.927114
_symmetry_space_group_name_H-M "P 2 2 21"
_symmetry_group_IT_number 17
_symmetry_cell_setting 'orthorhombic'
loop_
_space_group_symop_operation_xyz
x,y,z
-x,-y,1/2+z
x,-y,-z
-x,y,1/2-z
loop_
_atom_site_type_symbol
_atom_site_label
_atom_site_fract_x
_atom_site_fract_y
_atom_site_fract_z
Si Si1 0.685059 0.829300 0.758618
Si Si2 0.135468 0.930838 0.185315
Si Si3 0.796761 0.397625 0.567660
Si Si4 0.155076 0.677527 0.586592
Si Si5 0.788267 0.759043 0.582025
Si Si6 0.143090 0.000000 0.000000
Si Si7 0.855567 0.388163 0.891419
Si Si8 0.674999 0.700289 0.277076
O O1 0.500000 0.856183 0.750000
O O2 0.744768 0.764422 0.848295
O O3 0.723003 0.738713 0.677967
O O4 0.787059 0.948878 0.731095
O O5 0.261145 0.823828 0.179538
O O6 0.000000 0.892053 0.250000
O O7 0.061770 0.949305 0.087613
O O8 0.849547 0.500000 0.500000
O O9 0.712338 0.315525 0.496090
O O10 0.689658 0.408255 0.651841
O O11 0.960947 0.354398 0.607551
O O12 0.206471 0.664167 0.484575
O O13 0.153990 0.535525 0.615530
O O14 0.975528 0.729801 0.585889
O O15 0.762208 0.894511 0.547333
O O16 0.772192 0.331768 0.808707
O O17 0.500000 0.719162 0.250000
#
# Coordination Sequence:
#
# PCOD9310881 Si02
#       8
#     4   4   4   4   4   2   4   4
#     4  11  24  39  62  95 136 170 206 263 340 403
#     4  11  23  45  71  97 127 173 227 277 322 397
#     4  11  21  42  68  95 122 175 230 269 319 381
#     4  10  21  42  64  95 126 166 226 277 314 381
#     4  10  20  38  66  92 122 168 219 275 315 381
#     4  10  20  38  68  96 128 156 216 270 330 378
#     4  10  22  43  68  92 126 172 228 282 314 374
#     4  12  27  43  65 101 141 173 211 273 347 409
#
# _framework density 20.863367
#
# number of rings (size 3 to 8) (size 9 to 14) (size 15 to 20)
#    0.000    1.333    4.000    3.600    3.733    2.667 
#    2.400    0.000    0.000    0.000    0.000    0.000 
#    0.000    0.000    0.000    0.000    0.000    0.000 
#
# Total GULP energy -167002.927332 kJ/mol
# GULP energy per Si atom -5566.764244 kJ/mol
# Density = 2.081588 g / cm^3
# Si number density = 20.863367 Si / 1000 Ang^3
#
#
#
# Elastic Constant Matrix: (Units=GPa)
#
#
# Indices 1 2 3 4 5 6 
#
# 1 60.9514 13.3312 34.6099 0.0000 0.0000 0.0000
# 2 13.3312 61.1094 28.6910 0.0000 0.0000 0.0000
# 3 34.6099 28.6910 146.0823 0.0000 0.0000 0.0000
# 4 0.0000 0.0000 0.0000 28.6135 0.0000 0.0000
# 5 0.0000 0.0000 0.0000 0.0000 11.7934 0.0000
# 6 0.0000 0.0000 0.0000 0.0000 0.0000 27.5349
#
#
#
# Elastic Compliance Matrix: (Units=1/GPa)
#
#
# Indices 1 2 3 4 5 6 
#
# 1 0.019237 -0.002266 -0.004113 0.000000 0.000000 0.000000
# 2 -0.002266 0.018293 -0.003056 0.000000 0.000000 0.000000
# 3 -0.004113 -0.003056 0.008420 0.000000 0.000000 0.000000
# 4 0.000000 0.000000 0.000000 0.034949 0.000000 0.000000
# 5 0.000000 0.000000 0.000000 0.000000 0.084793 0.000000
# 6 0.000000 0.000000 0.000000 0.000000 0.000000 0.036317
#
#
# Mechanical properties :
#
#
# Convention : Reuss Voigt Hill
#
# Bulk Modulus (GPa) = 36.92544 46.82303 41.87423
# Shear Modulus (GPa) = 21.74799 26.35577 24.05188
#
# Velocity S-wave (km/s) = 3.23213 3.55809 3.39902
# Velocity P-wave (km/s) = 5.62725 6.27466 5.95976
#
# Compressibility (1/GPa) = 0.02708160
#
# Stress axis : x y z
#
# Youngs Moduli (GPa) = 51.98212 54.66519 118.76404
#
# Poissons Ratio (x) = 0.12386 0.48844
# Poissons Ratio (y) = 0.11778 0.36295
# Poissons Ratio (z) = 0.21379 0.16706
#
# Static dielectric constant tensor:
#      x y z
#    x 1.724790 0.000000 0.000000 
#    y 0.000000 1.966420 0.000000 
#    z 0.000000 0.000000 1.735950 
# 
# From -- ./inp_files/8262.got.cif
#   From: 2010.05.17/outbox.cif.g08.bks.cpg/sg17_5_cif.got.tgz:8262.got - 2010.06.03 22:34:06.
