data_PCOD9310825
_publ_section_title
;
Structure prediction by ZEFSAII (Michael W. Deem and Ramdas Pophale) SiO2 
 PCOD9310825
Probable space group: P 2 2 21
;
_chemical_formula_sum "Si O2"
_cell_formula_units_Z 20
_cell_length_a 5.288882
_cell_length_b 9.028382
_cell_length_c 18.843171
_cell_angle_alpha 90.000000
_cell_angle_beta 90.000000
_cell_angle_gamma 90.000000
_cell_volume 899.762302
_symmetry_space_group_name_H-M "P 2 2 21"
_symmetry_group_IT_number 17
_symmetry_cell_setting 'orthorhombic'
loop_
_space_group_symop_operation_xyz
x,y,z
-x,-y,1/2+z
x,-y,-z
-x,y,1/2-z
loop_
_atom_site_type_symbol
_atom_site_label
_atom_site_fract_x
_atom_site_fract_y
_atom_site_fract_z
Si Si1 0.740157 0.639243 0.292210
Si Si2 0.833021 0.321336 0.995815
Si Si3 0.580051 0.978138 0.329379
Si Si4 0.915310 0.939267 0.917674
Si Si5 0.326300 0.624158 0.059537
O O1 0.500000 0.583205 0.250000
O O2 0.736958 0.552622 0.365851
O O3 0.000000 0.633394 0.250000
O O4 0.673473 0.809156 0.313940
O O5 0.837246 0.233586 0.068969
O O6 0.846587 0.500000 0.000000
O O7 0.587929 0.291226 0.948795
O O8 0.088765 0.274580 0.956897
O O9 0.500000 0.036802 0.250000
O O10 0.319772 0.991758 0.374073
O O11 0.819075 0.046515 0.374138
O O12 0.920409 0.000000 0.000000
O O13 0.343299 0.500000 0.000000
#
# Coordination Sequence:
#
# PCOD9310825 Si02
#       5
#     4   4   4   4   4
#     4  11  21  36  59  89 123 163 206 257 317 380
#     4  10  21  37  60  86 117 156 200 249 304 363
#     4  11  23  39  59  91 131 165 200 256 322 381
#     4  12  22  37  64  96 123 160 212 263 310 366
#     4  10  20  37  60  86 119 160 207 263 310 360
#
# _framework density 22.228093000000001
#
# number of rings (size 3 to 8) (size 9 to 14) (size 15 to 20)
#    0.000    1.200    0.000    8.400    0.000    0.000 
#    0.000    0.000    0.000   48.000    0.000    0.000 
#    0.000    0.000    0.000    0.000    0.000    0.000 
#
# Total GULP energy -111440.513663 kJ/mol
# GULP energy per Si atom -5572.025683 kJ/mol
# Density = 2.217750 g / cm^3
# Si number density = 22.228093 Si / 1000 Ang^3
#
#
#
# Elastic Constant Matrix: (Units=GPa)
#
#
# Indices 1 2 3 4 5 6 
#
# 1 268.4354 -0.1629 108.7614 0.0000 0.0000 0.0000
# 2 -0.1629 68.3870 31.6865 0.0000 0.0000 0.0000
# 3 108.7614 31.6865 201.4963 0.0000 0.0000 0.0000
# 4 0.0000 0.0000 0.0000 34.1359 0.0000 0.0000
# 5 0.0000 0.0000 0.0000 0.0000 72.7949 0.0000
# 6 0.0000 0.0000 0.0000 0.0000 0.0000 -20.4330
#
#
#
# Elastic Compliance Matrix: (Units=1/GPa)
#
#
# Indices 1 2 3 4 5 6 
#
# 1 0.004877 0.001328 -0.002842 0.000000 0.000000 0.000000
# 2 0.001328 0.016134 -0.003254 0.000000 0.000000 0.000000
# 3 -0.002842 -0.003254 0.007008 0.000000 0.000000 0.000000
# 4 0.000000 0.000000 0.000000 0.029295 0.000000 0.000000
# 5 0.000000 0.000000 0.000000 0.000000 0.013737 0.000000
# 6 0.000000 0.000000 0.000000 0.000000 0.000000 -0.048940
#
#
# Mechanical properties :
#
#
# Convention : Reuss Voigt Hill
#
# Bulk Modulus (GPa) = 54.09907 90.98764 72.54335
# Shear Modulus (GPa) = 132.25062 43.83514 88.04288
#
# Velocity S-wave (km/s) = 7.72180 4.44561 6.30038
# Velocity P-wave (km/s) = 10.19277 8.20815 9.25382
#
# Compressibility (1/GPa) = 0.01848461
#
# Stress axis : x y z
#
# Youngs Moduli (GPa) = 205.02735 61.98269 142.68679
#
# Poissons Ratio (x) = -0.08233 0.40545
# Poissons Ratio (y) = -0.27232 0.46431
# Poissons Ratio (z) = 0.58259 0.20169
#
# Static dielectric constant tensor:
#      x y z
#    x 1.852700 0.000000 0.000000 
#    y 0.000000 1.518700 0.000000 
#    z 0.000000 0.000000 1.872820 
# 
# From -- ./inp_files/7601.got.cif
#   From: 2010.05.17/outbox.cif.g08.bks.cpg/sg17_4_cif.got.tgz:7601.got - 2010.06.03 22:34:06.
