data_PCOD9310955
_publ_section_title
;
Structure prediction by ZEFSAII (Michael W. Deem and Ramdas Pophale) SiO2 
 PCOD9310955
Probable space group: P 2 2 21
;
_chemical_formula_sum "Si O2"
_cell_formula_units_Z 20
_cell_length_a 8.692747
_cell_length_b 12.661221
_cell_length_c 8.916604
_cell_angle_alpha 90.000000
_cell_angle_beta 90.000000
_cell_angle_gamma 90.000000
_cell_volume 981.368488
_symmetry_space_group_name_H-M "P 2 2 21"
_symmetry_group_IT_number 17
_symmetry_cell_setting 'orthorhombic'
loop_
_space_group_symop_operation_xyz
x,y,z
-x,-y,1/2+z
x,-y,-z
-x,y,1/2-z
loop_
_atom_site_type_symbol
_atom_site_label
_atom_site_fract_x
_atom_site_fract_y
_atom_site_fract_z
Si Si1 0.220819 0.735810 0.648290
Si Si2 0.854569 0.924690 0.355147
Si Si3 0.365521 0.951741 0.652714
Si Si4 0.500000 0.601857 0.750000
Si Si5 0.095374 0.704858 0.986540
Si Si6 0.712201 0.500000 0.500000
O O1 0.246310 0.859287 0.614654
O O2 0.381364 0.672590 0.651276
O O3 0.160155 0.728518 0.819334
O O4 0.088132 0.693803 0.537984
O O5 0.862936 0.804451 0.410586
O O6 0.000000 0.946421 0.250000
O O7 0.858234 0.000000 0.500000
O O8 0.709494 0.957942 0.254838
O O9 0.500000 0.900724 0.750000
O O10 0.426557 0.000000 0.500000
O O11 0.605032 0.533642 0.638574
O O12 0.178508 0.598823 0.039325
#
# Coordination Sequence:
#
# PCOD9310955 Si02
#       6
#     4   4   4   2   4   2
#     4  10  20  42  68  92 128 187 218 263 346 412
#     4  12  23  41  65  97 135 176 223 283 334 397
#     4  12  25  40  64  98 134 177 223 274 342 408
#     4  10  22  44  72  90 134 174 220 280 338 400
#     4  10  22  42  67  93 133 174 227 278 328 402
#     4  10  24  46  66 100 128 176 224 284 338 406
#
# _framework density 20.379705000000001
#
# number of rings (size 3 to 8) (size 9 to 14) (size 15 to 20)
#    0.000    1.200    3.000    3.600    0.000    0.800 
#   16.200    0.000    0.000    0.000    0.000    0.000 
#    0.000    0.000    0.000    0.000    0.000    0.000 
#
# Total GULP energy -111775.660257 kJ/mol
# GULP energy per Si atom -5588.783013 kJ/mol
# Density = 2.033332 g / cm^3
# Si number density = 20.379705 Si / 1000 Ang^3
#
#
#
# Elastic Constant Matrix: (Units=GPa)
#
#
# Indices 1 2 3 4 5 6 
#
# 1 113.1129 56.4245 31.4228 0.0000 0.0000 0.0000
# 2 56.4245 122.1884 44.7490 0.0000 0.0000 0.0000
# 3 31.4228 44.7490 81.0818 0.0000 0.0000 0.0000
# 4 0.0000 0.0000 0.0000 19.5088 0.0000 0.0000
# 5 0.0000 0.0000 0.0000 0.0000 30.6565 0.0000
# 6 0.0000 0.0000 0.0000 0.0000 0.0000 89.0331
#
#
#
# Elastic Compliance Matrix: (Units=1/GPa)
#
#
# Indices 1 2 3 4 5 6 
#
# 1 0.011728 -0.004701 -0.001950 0.000000 0.000000 0.000000
# 2 -0.004701 0.012142 -0.004879 0.000000 0.000000 0.000000
# 3 -0.001950 -0.004879 0.015782 0.000000 0.000000 0.000000
# 4 0.000000 0.000000 0.000000 0.051259 0.000000 0.000000
# 5 0.000000 0.000000 0.000000 0.000000 0.032619 0.000000
# 6 0.000000 0.000000 0.000000 0.000000 0.000000 0.011232
#
#
# Mechanical properties :
#
#
# Convention : Reuss Voigt Hill
#
# Bulk Modulus (GPa) = 60.27787 64.61953 62.44870
# Shear Modulus (GPa) = 30.60846 40.09214 35.35030
#
# Velocity S-wave (km/s) = 3.87965 4.44019 4.16935
# Velocity P-wave (km/s) = 7.05057 7.61995 7.34078
#
# Compressibility (1/GPa) = 0.01658984
#
# Stress axis : x y z
#
# Youngs Moduli (GPa) = 85.26791 82.35868 63.36386
#
# Poissons Ratio (x) = 0.38720 0.12358
# Poissons Ratio (y) = 0.40088 0.30916
# Poissons Ratio (z) = 0.16630 0.40184
#
# Static dielectric constant tensor:
#      x y z
#    x 1.774270 0.000000 0.000000 
#    y 0.000000 1.691700 0.000000 
#    z 0.000000 0.000000 1.628040 
# 
# From -- ./inp_files/4065.got.cif
#   From: 2010.05.17/outbox.cif.g08.bks.cpg/sg17_3_cif.got.tgz:4065.got - 2010.06.03 22:34:06.
