data_PCOD9310494
_publ_section_title
;
Structure prediction by ZEFSAII (Michael W. Deem and Ramdas Pophale) SiO2 
 PCOD9310494
Probable space group: P 2 2 21
;
_chemical_formula_sum "Si O2"
_cell_formula_units_Z 32
_cell_length_a 5.475294
_cell_length_b 8.529808
_cell_length_c 28.515411
_cell_angle_alpha 90.000000
_cell_angle_beta 90.000000
_cell_angle_gamma 90.000000
_cell_volume 1331.761130
_symmetry_space_group_name_H-M "P 2 2 21"
_symmetry_group_IT_number 17
_symmetry_cell_setting 'orthorhombic'
loop_
_space_group_symop_operation_xyz
x,y,z
-x,-y,1/2+z
x,-y,-z
-x,y,1/2-z
loop_
_atom_site_type_symbol
_atom_site_label
_atom_site_fract_x
_atom_site_fract_y
_atom_site_fract_z
Si Si1 0.627907 0.931700 0.344798
Si Si2 0.418932 0.202617 0.100600
Si Si3 0.164614 0.308759 0.007145
Si Si4 0.335669 0.665002 0.470816
Si Si5 0.881119 0.962044 0.799984
Si Si6 0.568630 0.609431 0.300239
Si Si7 0.116955 0.652577 0.821850
Si Si8 0.756286 0.519215 0.880547
O O1 0.548933 0.016590 0.393416
O O2 0.914862 0.973863 0.335868
O O3 0.394421 0.983995 0.310971
O O4 0.640755 0.747188 0.335363
O O5 0.239106 0.253122 0.059093
O O6 0.320931 0.241353 0.153209
O O7 0.648094 0.319726 0.097745
O O8 0.146040 0.500000 0.000000
O O9 0.400339 0.259003 0.977045
O O10 0.901116 0.248172 0.991109
O O11 0.354496 0.500000 0.500000
O O12 0.283792 0.615109 0.417862
O O13 0.914351 0.772740 0.803480
O O14 0.000000 0.008957 0.750000
O O15 0.500000 0.677987 0.250000
O O16 0.766104 0.474784 0.288415
O O17 0.362586 0.522791 0.330641
O O18 0.031142 0.550818 0.866467
#
# Coordination Sequence:
#
# PCOD9310494 Si02
#       8
#     4   4   4   4   4   4   4   4
#     4  11  25  45  64  94 130 186 225 281 342 421
#     4  10  20  38  63  97 129 168 225 278 335 401
#     4  10  18  30  57  96 126 160 204 268 329 405
#     4  10  19  31  58  93 128 162 206 269 332 410
#     4  11  23  40  67  90 127 165 233 287 341 394
#     4  11  27  43  63  93 138 187 238 285 358 427
#     4  10  23  37  63  93 127 169 219 289 338 397
#     4  11  21  39  62  97 132 171 224 282 347 406
#
# _framework density 24.028331000000001
#
# number of rings (size 3 to 8) (size 9 to 14) (size 15 to 20)
#    0.000    1.500    3.750    2.625    5.250    0.000 
#    0.000    0.000    0.000    0.750    0.000    0.000 
#    0.000    0.000    0.000    0.000    0.000    0.000 
#
# Total GULP energy -178256.845354 kJ/mol
# GULP energy per Si atom -5570.526417 kJ/mol
# Density = 2.397364 g / cm^3
# Si number density = 24.028331 Si / 1000 Ang^3
#
#
#
# Elastic Constant Matrix: (Units=GPa)
#
#
# Indices 1 2 3 4 5 6 
#
# 1 82.3608 18.7623 6.4249 0.0000 0.0000 0.0000
# 2 18.7623 66.6738 -4.6006 0.0000 0.0000 0.0000
# 3 6.4249 -4.6006 57.8861 0.0000 0.0000 0.0000
# 4 0.0000 0.0000 0.0000 21.5571 0.0000 0.0000
# 5 0.0000 0.0000 0.0000 0.0000 24.6989 0.0000
# 6 0.0000 0.0000 0.0000 0.0000 0.0000 14.6242
#
#
#
# Elastic Compliance Matrix: (Units=1/GPa)
#
#
# Indices 1 2 3 4 5 6 
#
# 1 0.013150 -0.003822 -0.001763 0.000000 0.000000 0.000000
# 2 -0.003822 0.016192 0.001711 0.000000 0.000000 0.000000
# 3 -0.001763 0.001711 0.017607 0.000000 0.000000 0.000000
# 4 0.000000 0.000000 0.000000 0.046388 0.000000 0.000000
# 5 0.000000 0.000000 0.000000 0.000000 0.040488 0.000000
# 6 0.000000 0.000000 0.000000 0.000000 0.000000 0.068380
#
#
# Mechanical properties :
#
#
# Convention : Reuss Voigt Hill
#
# Bulk Modulus (GPa) = 25.50998 27.56600 26.53799
# Shear Modulus (GPa) = 22.41948 24.59831 23.50890
#
# Velocity S-wave (km/s) = 3.05789 3.20304 3.13130
# Velocity P-wave (km/s) = 4.80700 5.01761 4.91344
#
# Compressibility (1/GPa) = 0.03920035
#
# Stress axis : x y z
#
# Youngs Moduli (GPa) = 76.04591 61.75881 56.79551
#
# Poissons Ratio (x) = 0.23605 0.10015
# Poissons Ratio (y) = 0.29066 -0.09718
# Poissons Ratio (z) = 0.13409 -0.10568
#
# Static dielectric constant tensor:
#      x y z
#    x 1.961180 0.000000 0.000000 
#    y 0.000000 2.036870 0.000000 
#    z 0.000000 0.000000 1.981150 
# 
# From -- ./inp_files/11172.got.cif
#   From: 2010.05.17/outbox.cif.g08.bks.cpg/sg17_6_cif.got.tgz:11172.got - 2010.06.03 22:34:06.
