data_PCOD9310678
_publ_section_title
;
Structure prediction by ZEFSAII (Michael W. Deem and Ramdas Pophale) SiO2 
 PCOD9310678
Probable space group: P 2 2 21
;
_chemical_formula_sum "Si O2"
_cell_formula_units_Z 32
_cell_length_a 11.999254
_cell_length_b 9.095740
_cell_length_c 16.234986
_cell_angle_alpha 90.000000
_cell_angle_beta 90.000000
_cell_angle_gamma 90.000000
_cell_volume 1771.920377
_symmetry_space_group_name_H-M "P 2 2 21"
_symmetry_group_IT_number 17
_symmetry_cell_setting 'orthorhombic'
loop_
_space_group_symop_operation_xyz
x,y,z
-x,-y,1/2+z
x,-y,-z
-x,y,1/2-z
loop_
_atom_site_type_symbol
_atom_site_label
_atom_site_fract_x
_atom_site_fract_y
_atom_site_fract_z
Si Si1 0.748050 0.956589 0.403652
Si Si2 0.133759 0.401994 0.577791
Si Si3 0.519814 0.161043 0.653526
Si Si4 0.128414 0.536095 0.752642
Si Si5 0.682090 0.241291 0.301017
Si Si6 0.623766 0.332553 0.972324
Si Si7 0.446942 0.822956 0.635268
Si Si8 0.056192 0.768876 0.167124
O O1 0.647298 0.849178 0.376097
O O2 0.861714 0.876569 0.379515
O O3 0.739849 0.000000 0.500000
O O4 0.733561 0.101576 0.347827
O O5 0.097952 0.500000 0.500000
O O6 0.158025 0.503457 0.657574
O O7 0.248028 0.323497 0.554142
O O8 0.039686 0.289761 0.606857
O O9 0.500000 0.186977 0.750000
O O10 0.453932 0.280664 0.601562
O O11 0.475053 0.995837 0.635692
O O12 0.223293 0.634794 0.794173
O O13 0.117512 0.379097 0.799155
O O14 0.000000 0.595963 0.750000
O O15 0.639726 0.204570 0.208917
O O16 0.562979 0.264774 0.346981
O O17 0.603381 0.500000 0.000000
O O18 0.600207 0.228423 0.049215
O O19 0.000000 0.834539 0.250000
#
# Coordination Sequence:
#
# PCOD9310678 Si02
#       8
#     4   4   4   4   4   4   4   4
#     4  11  23  40  60  87 122 156 205 255 295 368
#     4   9  19  38  60  85 119 152 192 247 303 352
#     4  11  22  41  63  86 124 173 195 234 320 373
#     4   9  20  37  59  84 116 162 199 241 301 365
#     4  10  19  37  59  85 119 156 202 244 298 356
#     4  11  23  38  60  95 120 150 207 262 291 355
#     4  10  20  39  59  87 123 162 197 246 306 363
#     4   9  22  40  59  81 118 159 200 243 306 366
#
# _framework density 18.059501000000001
#
# number of rings (size 3 to 8) (size 9 to 14) (size 15 to 20)
#    0.000    2.250    2.500    3.375    3.500    3.500 
#    2.250    3.125    0.000    0.000    0.000    0.000 
#    0.000    0.000    0.000    0.000    0.000    0.000 
#
# Total GULP energy -178485.286682 kJ/mol
# GULP energy per Si atom -5577.665209 kJ/mol
# Density = 1.801840 g / cm^3
# Si number density = 18.059501 Si / 1000 Ang^3
#
#
#
# Elastic Constant Matrix: (Units=GPa)
#
#
# Indices 1 2 3 4 5 6 
#
# 1 110.7804 46.6448 83.3642 0.0000 0.0000 0.0000
# 2 46.6448 40.4059 49.7000 0.0000 0.0000 0.0000
# 3 83.3642 49.7000 151.5665 0.0000 0.0000 0.0000
# 4 0.0000 0.0000 0.0000 16.2520 0.0000 0.0000
# 5 0.0000 0.0000 0.0000 0.0000 26.2414 0.0000
# 6 0.0000 0.0000 0.0000 0.0000 0.0000 27.1450
#
#
#
# Elastic Compliance Matrix: (Units=1/GPa)
#
#
# Indices 1 2 3 4 5 6 
#
# 1 0.020217 -0.016192 -0.005810 0.000000 0.000000 0.000000
# 2 -0.016192 0.054447 -0.008948 0.000000 0.000000 0.000000
# 3 -0.005810 -0.008948 0.012728 0.000000 0.000000 0.000000
# 4 0.000000 0.000000 0.000000 0.061531 0.000000 0.000000
# 5 0.000000 0.000000 0.000000 0.000000 0.038108 0.000000
# 6 0.000000 0.000000 0.000000 0.000000 0.000000 0.036839
#
#
# Mechanical properties :
#
#
# Convention : Reuss Voigt Hill
#
# Bulk Modulus (GPa) = 39.22870 73.57453 56.40161
# Shear Modulus (GPa) = 16.99147 22.13060 19.56104
#
# Velocity S-wave (km/s) = 3.07067 3.50441 3.29469
# Velocity P-wave (km/s) = 5.86013 7.56327 6.76551
#
# Compressibility (1/GPa) = 0.02549154
#
# Stress axis : x y z
#
# Youngs Moduli (GPa) = 49.46398 18.36660 78.56991
#
# Poissons Ratio (x) = 0.29739 0.45650
# Poissons Ratio (y) = 0.80091 0.70303
# Poissons Ratio (z) = 0.28739 0.16434
#
# Static dielectric constant tensor:
#      x y z
#    x 1.631600 0.000000 0.000000 
#    y 0.000000 1.604100 0.000000 
#    z 0.000000 0.000000 1.609050 
# 
# From -- ./inp_files/8577.got.cif
#   From: 2010.05.17/outbox.cif.g08.bks.cpg/sg17_5_cif.got.tgz:8577.got - 2010.06.03 22:34:06.
