data_PCOD9310707
_publ_section_title
;
Structure prediction by ZEFSAII (Michael W. Deem and Ramdas Pophale) SiO2 
 PCOD9310707
Probable space group: P 2 2 21
;
_chemical_formula_sum "Si O2"
_cell_formula_units_Z 30
_cell_length_a 8.488097
_cell_length_b 8.251913
_cell_length_c 23.134001
_cell_angle_alpha 90.000000
_cell_angle_beta 90.000000
_cell_angle_gamma 90.000000
_cell_volume 1620.375711
_symmetry_space_group_name_H-M "P 2 2 21"
_symmetry_group_IT_number 17
_symmetry_cell_setting 'orthorhombic'
loop_
_space_group_symop_operation_xyz
x,y,z
-x,-y,1/2+z
x,-y,-z
-x,y,1/2-z
loop_
_atom_site_type_symbol
_atom_site_label
_atom_site_fract_x
_atom_site_fract_y
_atom_site_fract_z
Si Si1 0.103203 0.676490 0.018478
Si Si2 0.623121 0.161609 0.838613
Si Si3 0.695502 0.212114 0.617988
Si Si4 0.828304 0.717539 0.720029
Si Si5 0.180974 0.331965 0.761684
Si Si6 0.158521 0.868069 0.906405
Si Si7 0.500000 0.100528 0.250000
Si Si8 0.853278 0.063070 0.939995
O O1 0.186176 0.764353 0.964088
O O2 0.051001 0.500000 0.000000
O O3 0.224012 0.673174 0.071324
O O4 0.956654 0.781770 0.041222
O O5 0.485658 0.252786 0.872559
O O6 0.711725 0.269459 0.790926
O O7 0.740325 0.098294 0.887186
O O8 0.535850 0.016709 0.804281
O O9 0.773054 0.239001 0.680247
O O10 0.730982 0.027172 0.598249
O O11 0.807056 0.524930 0.728965
O O12 0.837324 0.767383 0.652660
O O13 0.665213 0.801843 0.742155
O O14 0.000000 0.761695 0.750000
O O15 0.000000 0.292530 0.750000
O O16 0.982776 0.936192 0.917083
O O17 0.778129 0.000000 0.000000
#
# Coordination Sequence:
#
# PCOD9310707 Si02
#       8
#     4   4   4   4   4   4   2   4
#     4  10  21  39  62  87 119 160 211 261 321 385
#     4  12  22  40  60  92 126 166 213 265 329 381
#     4  11  21  37  59  88 119 162 203 251 317 381
#     4  11  24  40  63  96 129 170 210 262 334 390
#     4  11  23  39  63  89 125 167 213 262 325 391
#     4  10  19  39  61  86 118 159 211 259 307 386
#     4  12  24  40  64  94 132 168 210 276 310 396
#     4   9  21  38  65  89 119 162 217 271 314 388
#
# _framework density 18.514225
#
# number of rings (size 3 to 8) (size 9 to 14) (size 15 to 20)
#    0.000    1.333    2.667    4.400    1.867    3.200 
#    0.000    0.667    0.000    0.000    0.000    0.000 
#    0.000    0.000    0.000    0.000    0.000    0.000 
#
# Total GULP energy -167383.389027 kJ/mol
# GULP energy per Si atom -5579.446301 kJ/mol
# Density = 1.847209 g / cm^3
# Si number density = 18.514225 Si / 1000 Ang^3
#
#
#
# Elastic Constant Matrix: (Units=GPa)
#
#
# Indices 1 2 3 4 5 6 
#
# 1 90.5202 26.2980 41.6315 0.0000 0.0000 0.0000
# 2 26.2980 56.2282 25.4682 0.0000 0.0000 0.0000
# 3 41.6315 25.4682 120.1797 0.0000 0.0000 0.0000
# 4 0.0000 0.0000 0.0000 30.1295 0.0000 0.0000
# 5 0.0000 0.0000 0.0000 0.0000 21.7032 0.0000
# 6 0.0000 0.0000 0.0000 0.0000 0.0000 4.7446
#
#
#
# Elastic Compliance Matrix: (Units=1/GPa)
#
#
# Indices 1 2 3 4 5 6 
#
# 1 0.014267 -0.004905 -0.003903 0.000000 0.000000 0.000000
# 2 -0.004905 0.021359 -0.002827 0.000000 0.000000 0.000000
# 3 -0.003903 -0.002827 0.010272 0.000000 0.000000 0.000000
# 4 0.000000 0.000000 0.000000 0.033190 0.000000 0.000000
# 5 0.000000 0.000000 0.000000 0.000000 0.046076 0.000000
# 6 0.000000 0.000000 0.000000 0.000000 0.000000 0.210766
#
#
# Mechanical properties :
#
#
# Convention : Reuss Voigt Hill
#
# Bulk Modulus (GPa) = 44.19248 50.41372 47.30310
# Shear Modulus (GPa) = 13.63350 22.88415 18.25882
#
# Velocity S-wave (km/s) = 2.71658 3.51954 3.14380
# Velocity P-wave (km/s) = 5.81042 6.61854 6.22760
#
# Compressibility (1/GPa) = 0.02262828
#
# Stress axis : x y z
#
# Youngs Moduli (GPa) = 70.09062 46.81792 97.35185
#
# Poissons Ratio (x) = 0.22964 0.37995
# Poissons Ratio (y) = 0.34380 0.27524
# Poissons Ratio (z) = 0.27355 0.13237
#
# Static dielectric constant tensor:
#      x y z
#    x 1.681160 0.000000 0.000000 
#    y 0.000000 1.648830 0.000000 
#    z 0.000000 0.000000 1.648570 
# 
# From -- ./inp_files/10116.got.cif
#   From: 2010.05.17/outbox.cif.g08.bks.cpg/sg17_6_cif.got.tgz:10116.got - 2010.06.03 22:34:06.
