data_PCOD9310266
_publ_section_title
;
Structure prediction by ZEFSAII (Michael W. Deem and Ramdas Pophale) SiO2 
 PCOD9310266
Probable space group: P 2 2 2
;
_chemical_formula_sum "Si O2"
_cell_formula_units_Z 27
_cell_length_a 18.851470
_cell_length_b 8.377961
_cell_length_c 8.545822
_cell_angle_alpha 90.000000
_cell_angle_beta 90.000000
_cell_angle_gamma 90.000000
_cell_volume 1349.700468
_symmetry_space_group_name_H-M "P 2 2 2"
_symmetry_group_IT_number 16
_symmetry_cell_setting 'orthorhombic'
loop_
_space_group_symop_operation_xyz
x,y,z
-x,-y,z
x,-y,-z
-x,y,-z
loop_
_atom_site_type_symbol
_atom_site_label
_atom_site_fract_x
_atom_site_fract_y
_atom_site_fract_z
Si Si1 0.500000 0.500000 0.000000
Si Si2 0.185437 0.165392 0.650457
Si Si3 0.610234 0.253192 0.048892
Si Si4 0.073665 0.684011 0.571106
Si Si5 0.316291 0.000000 0.500000
Si Si6 0.421385 0.948331 0.749958
Si Si7 0.224145 0.322142 0.961930
Si Si8 0.884435 0.108807 0.853269
O O1 0.555484 0.391346 0.096435
O O2 0.141875 0.237589 0.508604
O O3 0.197978 0.290167 0.787357
O O4 0.262234 0.106519 0.597839
O O5 0.140975 0.021565 0.727485
O O6 0.579324 0.182927 0.886089
O O7 0.609463 0.107716 0.169241
O O8 0.691086 0.305335 0.025649
O O9 0.075888 0.500000 0.500000
O O10 0.075853 0.749233 0.753099
O O11 0.000000 0.748374 0.500000
O O12 0.368836 0.097826 0.388318
O O13 0.500000 0.000000 0.700290
O O14 0.202363 0.500000 0.000000
O O15 0.184386 0.194810 0.071553
O O16 0.915322 0.000000 0.000000
#
# Coordination Sequence:
#
# PCOD9310266 Si02
#       8
#     1   4   4   4   2   4   4   4
#     4  12  20  38  56  82 116 154 214 258 320 394
#     4  11  22  40  62  94 126 164 216 263 317 394
#     4  11  21  35  60  83 114 157 212 261 319 390
#     4  11  24  44  69  97 135 177 214 264 341 417
#     4  12  21  36  63  88 122 156 212 264 311 382
#     4  11  22  38  57  85 118 161 210 262 323 379
#     4  11  22  37  61  94 127 164 210 277 330 382
#     4  10  22  40  66  96 131 166 220 273 315 388
#
# _framework density 20.004439999999999
#
# number of rings (size 3 to 8) (size 9 to 14) (size 15 to 20)
#    0.000    1.037    5.185    2.444    4.148    1.185 
#    0.000    5.185    0.000    8.889    0.000    0.000 
#    0.000    0.000    0.000    0.000    0.000    0.000 
#
# Total GULP energy -150440.412702 kJ/mol
# GULP energy per Si atom -5571.867137 kJ/mol
# Density = 1.995891 g / cm^3
# Si number density = 20.004440 Si / 1000 Ang^3
#
#
#
# Elastic Constant Matrix: (Units=GPa)
#
#
# Indices 1 2 3 4 5 6 
#
# 1 80.7647 0.5130 16.3437 0.0000 0.0000 0.0000
# 2 0.5130 81.7616 24.3661 0.0000 0.0000 0.0000
# 3 16.3437 24.3661 76.9174 0.0000 0.0000 0.0000
# 4 0.0000 0.0000 0.0000 31.9514 0.0000 0.0000
# 5 0.0000 0.0000 0.0000 0.0000 10.2711 0.0000
# 6 0.0000 0.0000 0.0000 0.0000 0.0000 24.7019
#
#
#
# Elastic Compliance Matrix: (Units=1/GPa)
#
#
# Indices 1 2 3 4 5 6 
#
# 1 0.012987 0.000818 -0.003019 0.000000 0.000000 0.000000
# 2 0.000818 0.013557 -0.004469 0.000000 0.000000 0.000000
# 3 -0.003019 -0.004469 0.015058 0.000000 0.000000 0.000000
# 4 0.000000 0.000000 0.000000 0.031297 0.000000 0.000000
# 5 0.000000 0.000000 0.000000 0.000000 0.097361 0.000000
# 6 0.000000 0.000000 0.000000 0.000000 0.000000 0.040483
#
#
# Mechanical properties :
#
#
# Convention : Reuss Voigt Hill
#
# Bulk Modulus (GPa) = 35.38048 35.76551 35.57300
# Shear Modulus (GPa) = 21.41300 26.59962 24.00631
#
# Velocity S-wave (km/s) = 3.27527 3.65044 3.46793
# Velocity P-wave (km/s) = 5.65932 5.97371 5.81864
#
# Compressibility (1/GPa) = 0.02826417
#
# Stress axis : x y z
#
# Youngs Moduli (GPa) = 76.99812 73.76137 66.41009
#
# Poissons Ratio (x) = -0.06035 0.20048
# Poissons Ratio (y) = -0.06300 0.29676
# Poissons Ratio (z) = 0.23244 0.32961
#
# Static dielectric constant tensor:
#      x y z
#    x 1.693880 0.000000 0.000000 
#    y 0.000000 1.754440 0.000000 
#    z 0.000000 0.000000 1.689880 
# 
# From -- ./inp_files/5526.got.cif
#   From: 2010.05.17/outbox.cif.g08.bks.cpg/sg16_3_cif.got.tgz:5526.got - 2010.06.03 22:28:35.
