data_PCOD9310420
_publ_section_title
;
Structure prediction by ZEFSAII (Michael W. Deem and Ramdas Pophale) SiO2 
 PCOD9310420
Probable space group: P 2 2 2
;
_chemical_formula_sum "Si O2"
_cell_formula_units_Z 13
_cell_length_a 6.581315
_cell_length_b 11.289966
_cell_length_c 7.556526
_cell_angle_alpha 90.000000
_cell_angle_beta 90.000000
_cell_angle_gamma 90.000000
_cell_volume 561.471211
_symmetry_space_group_name_H-M "P 2 2 2"
_symmetry_group_IT_number 16
_symmetry_cell_setting 'orthorhombic'
loop_
_space_group_symop_operation_xyz
x,y,z
-x,-y,z
x,-y,-z
-x,y,-z
loop_
_atom_site_type_symbol
_atom_site_label
_atom_site_fract_x
_atom_site_fract_y
_atom_site_fract_z
Si Si1 0.500000 0.696353 0.500000
Si Si2 0.000000 0.792071 0.000000
Si Si3 0.669385 0.896164 0.238353
Si Si4 0.000000 0.000000 0.500000
Si Si5 0.894262 0.626588 0.672516
O O1 0.575340 0.783268 0.341128
O O2 0.665852 0.618979 0.603237
O O3 0.201643 0.862599 0.936927
O O4 0.928838 0.709871 0.838341
O O5 0.500000 0.000000 0.221080
O O6 0.846723 0.935217 0.370215
O O7 0.000000 0.500000 0.704401
O O8 0.000000 0.682069 0.500000
#
# Coordination Sequence:
#
# PCOD9310420 Si02
#       5
#     2   2   4   1   4
#     4  12  23  53  84 110 156 218 262 328 412 482
#     4  12  27  53  82 118 164 208 270 336 404 476
#     4  12  26  48  80 119 165 215 270 322 401 491
#     4  12  22  50  76 114 168 212 266 326 376 478
#     4  11  26  51  84 114 156 203 269 336 407 468
#
# _framework density 23.153458000000001
#
# number of rings (size 3 to 8) (size 9 to 14) (size 15 to 20)
#    0.000    0.308    6.154    2.308    0.000    4.308 
#    5.538    0.000   13.538    0.000    0.000    0.000 
#    0.000    0.000    0.000    0.000    0.000    0.000 
#
# Total GULP energy -72720.155460 kJ/mol
# GULP energy per Si atom -5593.858112 kJ/mol
# Density = 2.310076 g / cm^3
# Si number density = 23.153458 Si / 1000 Ang^3
#
#
#
# Elastic Constant Matrix: (Units=GPa)
#
#
# Indices 1 2 3 4 5 6 
#
# 1 184.4778 107.9602 64.4955 0.0000 0.0000 0.0000
# 2 107.9602 150.8651 78.6454 0.0000 0.0000 0.0000
# 3 64.4955 78.6454 167.6691 0.0000 0.0000 0.0000
# 4 0.0000 0.0000 0.0000 58.2461 0.0000 0.0000
# 5 0.0000 0.0000 0.0000 0.0000 59.5369 0.0000
# 6 0.0000 0.0000 0.0000 0.0000 0.0000 56.4121
#
#
#
# Elastic Compliance Matrix: (Units=1/GPa)
#
#
# Indices 1 2 3 4 5 6 
#
# 1 0.009373 -0.006391 -0.000608 0.000000 0.000000 0.000000
# 2 -0.006391 0.013131 -0.003701 0.000000 0.000000 0.000000
# 3 -0.000608 -0.003701 0.007934 0.000000 0.000000 0.000000
# 4 0.000000 0.000000 0.000000 0.017169 0.000000 0.000000
# 5 0.000000 0.000000 0.000000 0.000000 0.016796 0.000000
# 6 0.000000 0.000000 0.000000 0.000000 0.000000 0.017727
#
#
# Mechanical properties :
#
#
# Convention : Reuss Voigt Hill
#
# Bulk Modulus (GPa) = 110.63053 111.69047 111.16050
# Shear Modulus (GPa) = 46.93025 51.63309 49.28167
#
# Velocity S-wave (km/s) = 4.50702 4.72745 4.61855
# Velocity P-wave (km/s) = 8.65849 8.83982 8.74962
#
# Compressibility (1/GPa) = 0.00903910
#
# Stress axis : x y z
#
# Youngs Moduli (GPa) = 106.68774 76.15681 126.04197
#
# Poissons Ratio (x) = 0.48669 0.07663
# Poissons Ratio (y) = 0.68180 0.46646
# Poissons Ratio (z) = 0.06486 0.28184
#
# Static dielectric constant tensor:
#      x y z
#    x 2.026230 0.000000 0.000000 
#    y 0.000000 1.908110 0.000000 
#    z 0.000000 0.000000 0.630430 
# 
# From -- ./inp_files/2965.got.cif
#   From: 2010.05.17/outbox.cif.g08.bks.cpg/sg16_2_cif.got.tgz:2965.got - 2010.06.03 22:28:35.
