data_PCOD9310369
_publ_section_title
;
Structure prediction by ZEFSAII (Michael W. Deem and Ramdas Pophale) SiO2 
 PCOD9310369
Probable space group: P 2 2 2
;
_chemical_formula_sum "Si O2"
_cell_formula_units_Z 20
_cell_length_a 8.114553
_cell_length_b 10.467395
_cell_length_c 11.275782
_cell_angle_alpha 90.000000
_cell_angle_beta 90.000000
_cell_angle_gamma 90.000000
_cell_volume 957.744982
_symmetry_space_group_name_H-M "P 2 2 2"
_symmetry_group_IT_number 16
_symmetry_cell_setting 'orthorhombic'
loop_
_space_group_symop_operation_xyz
x,y,z
-x,-y,z
x,-y,-z
-x,y,-z
loop_
_atom_site_type_symbol
_atom_site_label
_atom_site_fract_x
_atom_site_fract_y
_atom_site_fract_z
Si Si1 0.000000 0.285384 0.000000
Si Si2 0.060206 0.861846 0.207428
Si Si3 0.250415 0.500000 0.000000
Si Si4 0.564443 0.138826 0.135018
Si Si5 0.604756 0.383563 0.757090
Si Si6 0.951925 0.638531 0.362455
O O1 0.940765 0.195350 0.894515
O O2 0.138978 0.382374 0.955193
O O3 0.238567 0.868400 0.146785
O O4 0.052460 0.755499 0.307486
O O5 0.000000 0.000000 0.246252
O O6 0.339439 0.441580 0.114501
O O7 0.498393 0.256857 0.212588
O O8 0.500000 0.000000 0.174984
O O9 0.500000 0.157521 0.000000
O O10 0.500000 0.500000 0.701618
O O11 0.760969 0.348712 0.675294
O O12 0.000000 0.500000 0.310464
O O13 0.000000 0.635888 0.500000
#
# Coordination Sequence:
#
# PCOD9310369 Si02
#       6
#     2   4   2   4   4   4
#     4  11  21  34  62 100 132 176 218 274 328 398
#     4  12  25  42  68  98 137 181 230 279 338 414
#     4  11  21  34  64 102 142 176 220 276 336 408
#     4  11  25  40  60  97 144 180 218 275 349 415
#     4  12  22  40  66 101 137 178 219 283 345 403
#     4  11  25  47  70  97 132 180 236 286 329 401
#
# _framework density 20.882386
#
# number of rings (size 3 to 8) (size 9 to 14) (size 15 to 20)
#    0.000    0.600    2.000    7.800    5.600    0.400 
#    0.000    7.000    0.000    1.200    0.000    0.000 
#    0.000    0.000    0.000    0.000    0.000    0.000 
#
# Total GULP energy -111783.979087 kJ/mol
# GULP energy per Si atom -5589.198954 kJ/mol
# Density = 2.083486 g / cm^3
# Si number density = 20.882386 Si / 1000 Ang^3
#
#
#
# Elastic Constant Matrix: (Units=GPa)
#
#
# Indices 1 2 3 4 5 6 
#
# 1 107.4570 44.7095 28.4962 0.0000 0.0000 0.0000
# 2 44.7095 184.8457 32.5256 0.0000 0.0000 0.0000
# 3 28.4962 32.5256 77.2406 0.0000 0.0000 0.0000
# 4 0.0000 0.0000 0.0000 10.3624 0.0000 0.0000
# 5 0.0000 0.0000 0.0000 0.0000 11.8096 0.0000
# 6 0.0000 0.0000 0.0000 0.0000 0.0000 34.1183
#
#
#
# Elastic Compliance Matrix: (Units=1/GPa)
#
#
# Indices 1 2 3 4 5 6 
#
# 1 0.011026 -0.002107 -0.003181 0.000000 0.000000 0.000000
# 2 -0.002107 0.006246 -0.001853 0.000000 0.000000 0.000000
# 3 -0.003181 -0.001853 0.014900 0.000000 0.000000 0.000000
# 4 0.000000 0.000000 0.000000 0.096503 0.000000 0.000000
# 5 0.000000 0.000000 0.000000 0.000000 0.084677 0.000000
# 6 0.000000 0.000000 0.000000 0.000000 0.000000 0.029310
#
#
# Mechanical properties :
#
#
# Convention : Reuss Voigt Hill
#
# Bulk Modulus (GPa) = 55.89358 64.55622 60.22490
# Shear Modulus (GPa) = 19.01822 28.84554 23.93188
#
# Velocity S-wave (km/s) = 3.02110 3.72066 3.38898
# Velocity P-wave (km/s) = 6.24447 7.03129 6.64953
#
# Compressibility (1/GPa) = 0.01789114
#
# Stress axis : x y z
#
# Youngs Moduli (GPa) = 90.69252 160.11270 67.11395
#
# Poissons Ratio (x) = 0.33741 0.21346
# Poissons Ratio (y) = 0.19112 0.12433
# Poissons Ratio (z) = 0.28845 0.29662
#
# Static dielectric constant tensor:
#      x y z
#    x 1.859130 0.000000 0.000000 
#    y 0.000000 1.767870 0.000000 
#    z 0.000000 0.000000 1.746600 
# 
# From -- ./inp_files/6398.got.cif
#   From: 2010.05.17/outbox.cif.g08.bks.cpg/sg16_4_cif.got.tgz:6398.got - 2010.06.03 22:28:35.
