data_PCOD9310326
_publ_section_title
;
Structure prediction by ZEFSAII (Michael W. Deem and Ramdas Pophale) SiO2 
 PCOD9310326
Probable space group: P 2 2 2
;
_chemical_formula_sum "Si O2"
_cell_formula_units_Z 12
_cell_length_a 5.519710
_cell_length_b 18.193776
_cell_length_c 4.940558
_cell_angle_alpha 90.000000
_cell_angle_beta 90.000000
_cell_angle_gamma 90.000000
_cell_volume 496.152411
_symmetry_space_group_name_H-M "P 2 2 2"
_symmetry_group_IT_number 16
_symmetry_cell_setting 'orthorhombic'
loop_
_space_group_symop_operation_xyz
x,y,z
-x,-y,z
x,-y,-z
-x,y,-z
loop_
_atom_site_type_symbol
_atom_site_label
_atom_site_fract_x
_atom_site_fract_y
_atom_site_fract_z
Si Si1 0.500000 0.906361 0.500000
Si Si2 0.830862 0.784438 0.755415
Si Si3 0.500000 0.000000 0.000000
Si Si4 0.253314 0.376749 0.665371
Si Si5 0.000000 0.500000 0.000000
O O1 0.662257 0.851310 0.674362
O O2 0.627345 0.951043 0.244068
O O3 0.716640 0.703722 0.802945
O O4 0.000000 0.774641 0.500000
O O5 0.000000 0.804625 0.000000
O O6 0.500000 0.389475 0.500000
O O7 0.000000 0.372766 0.500000
O O8 0.185507 0.445009 0.851618
#
# Coordination Sequence:
#
# PCOD9310326 Si02
#       5
#     2   4   1   4   1
#     4  11  22  46  72 108 165 194 268 323 404 498
#     4  11  23  44  74 111 147 206 268 327 400 491
#     4  10  24  42  74 114 152 214 240 338 418 474
#     4  11  26  47  73 111 154 211 276 342 414 484
#     4  12  26  50  76 108 168 212 282 354 418 482
#
# _framework density 24.186115999999998
#
# number of rings (size 3 to 8) (size 9 to 14) (size 15 to 20)
#    0.000    1.000    3.333    2.500    0.000    5.333 
#    0.000   12.500    0.000    0.000    0.000    0.000 
#    0.000    0.000    0.000    0.000    0.000    0.000 
#
# Total GULP energy -66820.426647 kJ/mol
# GULP energy per Si atom -5568.368887 kJ/mol
# Density = 2.413107 g / cm^3
# Si number density = 24.186116 Si / 1000 Ang^3
#
#
#
# Elastic Constant Matrix: (Units=GPa)
#
#
# Indices 1 2 3 4 5 6 
#
# 1 139.1385 46.1616 71.1157 0.0000 0.0000 0.0000
# 2 46.1616 144.2461 74.7508 0.0000 0.0000 0.0000
# 3 71.1157 74.7508 175.5978 0.0000 0.0000 0.0000
# 4 0.0000 0.0000 0.0000 12.2807 0.0000 0.0000
# 5 0.0000 0.0000 0.0000 0.0000 64.7309 0.0000
# 6 0.0000 0.0000 0.0000 0.0000 0.0000 15.7447
#
#
#
# Elastic Compliance Matrix: (Units=1/GPa)
#
#
# Indices 1 2 3 4 5 6 
#
# 1 0.009251 -0.001307 -0.003190 0.000000 0.000000 0.000000
# 2 -0.001307 0.009080 -0.003336 0.000000 0.000000 0.000000
# 3 -0.003190 -0.003336 0.008407 0.000000 0.000000 0.000000
# 4 0.000000 0.000000 0.000000 0.081429 0.000000 0.000000
# 5 0.000000 0.000000 0.000000 0.000000 0.015449 0.000000
# 6 0.000000 0.000000 0.000000 0.000000 0.000000 0.063513
#
#
# Mechanical properties :
#
#
# Convention : Reuss Voigt Hill
#
# Bulk Modulus (GPa) = 90.32360 93.67097 91.99728
# Shear Modulus (GPa) = 24.21481 36.34821 30.28151
#
# Velocity S-wave (km/s) = 3.16759 3.88087 3.54223
# Velocity P-wave (km/s) = 7.12772 7.67430 7.40605
#
# Compressibility (1/GPa) = 0.01107130
#
# Stress axis : x y z
#
# Youngs Moduli (GPa) = 108.09191 110.13738 118.95159
#
# Poissons Ratio (x) = 0.14400 0.37948
# Poissons Ratio (y) = 0.14132 0.39678
# Poissons Ratio (z) = 0.34483 0.36738
#
# Static dielectric constant tensor:
#      x y z
#    x 1.987800 0.000000 0.000000 
#    y 0.000000 2.177580 0.000000 
#    z 0.000000 0.000000 1.553010 
# 
# From -- ./inp_files/125.got.cif
#   From: 2010.05.17/outbox.cif.g08.bks.cpg/sg16_1_cif.got.tgz:125.got - 2010.06.03 22:28:35.
