data_PCOD9310485
_publ_section_title
;
Structure prediction by ZEFSAII (Michael W. Deem and Ramdas Pophale) SiO2 
 PCOD9310485
Probable space group: P 2 2 21
;
_chemical_formula_sum "Si O2"
_cell_formula_units_Z 20
_cell_length_a 9.274845
_cell_length_b 16.139956
_cell_length_c 5.520457
_cell_angle_alpha 90.000000
_cell_angle_beta 90.000000
_cell_angle_gamma 90.000000
_cell_volume 826.388069
_symmetry_space_group_name_H-M "P 2 2 21"
_symmetry_group_IT_number 17
_symmetry_cell_setting 'orthorhombic'
loop_
_space_group_symop_operation_xyz
x,y,z
-x,-y,1/2+z
x,-y,-z
-x,y,1/2-z
loop_
_atom_site_type_symbol
_atom_site_label
_atom_site_fract_x
_atom_site_fract_y
_atom_site_fract_z
Si Si1 0.174228 0.453833 0.748904
Si Si2 0.719174 0.727042 0.118338
Si Si3 0.334676 0.030311 0.248346
Si Si4 0.006033 0.155628 0.499233
Si Si5 0.302951 0.780708 0.879284
O O1 0.216170 0.500000 0.500000
O O2 0.235403 0.361792 0.720966
O O3 0.000000 0.448785 0.750000
O O4 0.216610 0.500000 0.000000
O O5 0.638361 0.766905 0.350024
O O6 0.656696 0.721057 0.844313
O O7 0.856715 0.785637 0.051479
O O8 0.500000 0.996601 0.250000
O O9 0.340351 0.128702 0.222990
O O10 0.269372 0.000000 0.500000
O O11 0.265320 0.000000 0.000000
O O12 0.868787 0.215626 0.444974
O O13 0.000000 0.105403 0.250000
O O14 0.000000 0.107546 0.750000
#
# Coordination Sequence:
#
# PCOD9310485 Si02
#       5
#     4   4   4   4   4
#     4  10  19  28  41  65 100 137 168 200 240 282
#     4  10  18  30  47  70  99 132 168 202 236 281
#     4  10  21  37  55  76 102 126 153 203 268 318
#     4   8  15  25  42  64  89 120 158 190 222 267
#     4  10  18  30  51  71  92 127 166 197 240 296
#
# _framework density 24.201703999999999
#
# number of rings (size 3 to 8) (size 9 to 14) (size 15 to 20)
#    0.000    2.400    0.000    4.200    0.000    5.600 
#    0.000    0.000    0.000   21.600    0.000    0.000 
#    0.000   16.000    0.000    0.000    0.000    0.000 
#
# Total GULP energy -111452.885490 kJ/mol
# GULP energy per Si atom -5572.644274 kJ/mol
# Density = 2.414662 g / cm^3
# Si number density = 24.201704 Si / 1000 Ang^3
#
#
#
# Elastic Constant Matrix: (Units=GPa)
#
#
# Indices 1 2 3 4 5 6 
#
# 1 56.8971 13.0616 44.4758 0.0000 0.0000 0.0000
# 2 13.0616 106.9243 77.7241 0.0000 0.0000 0.0000
# 3 44.4758 77.7241 354.7851 0.0000 0.0000 0.0000
# 4 0.0000 0.0000 0.0000 46.3947 0.0000 0.0000
# 5 0.0000 0.0000 0.0000 0.0000 14.8847 0.0000
# 6 0.0000 0.0000 0.0000 0.0000 0.0000 82.3890
#
#
#
# Elastic Compliance Matrix: (Units=1/GPa)
#
#
# Indices 1 2 3 4 5 6 
#
# 1 0.019532 -0.000721 -0.002291 0.000000 0.000000 0.000000
# 2 -0.000721 0.011150 -0.002352 0.000000 0.000000 0.000000
# 3 -0.002291 -0.002352 0.003621 0.000000 0.000000 0.000000
# 4 0.000000 0.000000 0.000000 0.021554 0.000000 0.000000
# 5 0.000000 0.000000 0.000000 0.000000 0.067183 0.000000
# 6 0.000000 0.000000 0.000000 0.000000 0.000000 0.012138
#
#
# Mechanical properties :
#
#
# Convention : Reuss Voigt Hill
#
# Bulk Modulus (GPa) = 42.41711 87.68107 65.04909
# Shear Modulus (GPa) = 32.51730 54.29000 43.40365
#
# Velocity S-wave (km/s) = 3.66949 4.74141 4.23947
# Velocity P-wave (km/s) = 5.95970 8.14141 7.13445
#
# Compressibility (1/GPa) = 0.02357539
#
# Stress axis : x y z
#
# Youngs Moduli (GPa) = 51.19920 89.68246 276.15944
#
# Poissons Ratio (x) = 0.06465 0.63255
# Poissons Ratio (y) = 0.03691 0.64964
# Poissons Ratio (z) = 0.11727 0.21097
#
# Static dielectric constant tensor:
#      x y z
#    x 2.709490 0.000000 0.000000 
#    y 0.000000 1.875570 0.000000 
#    z 0.000000 0.000000 2.096740 
# 
# From -- ./inp_files/1530.got.cif
#   From: 2010.05.17/outbox.cif.g08.bks.cpg/sg17_1_cif.got.tgz:1530.got - 2010.06.03 22:34:06.
