data_PCOD9310372
_publ_section_title
;
Structure prediction by ZEFSAII (Michael W. Deem and Ramdas Pophale) SiO2 
 PCOD9310372
Probable space group: P 2 2 2
;
_chemical_formula_sum "Si O2"
_cell_formula_units_Z 20
_cell_length_a 4.846233
_cell_length_b 12.662953
_cell_length_c 15.982655
_cell_angle_alpha 90.000000
_cell_angle_beta 90.000000
_cell_angle_gamma 90.000000
_cell_volume 980.817510
_symmetry_space_group_name_H-M "P 2 2 2"
_symmetry_group_IT_number 16
_symmetry_cell_setting 'orthorhombic'
loop_
_space_group_symop_operation_xyz
x,y,z
-x,-y,z
x,-y,-z
-x,y,-z
loop_
_atom_site_type_symbol
_atom_site_label
_atom_site_fract_x
_atom_site_fract_y
_atom_site_fract_z
Si Si1 0.591989 0.618161 0.809958
Si Si2 0.554213 0.811915 0.696409
Si Si3 0.107129 0.300199 0.092014
Si Si4 0.733733 0.070401 0.850446
Si Si5 0.059694 0.125005 0.406258
O O1 0.500000 0.500000 0.790362
O O2 0.522599 0.694901 0.732664
O O3 0.404910 0.652849 0.888441
O O4 0.900480 0.646727 0.840251
O O5 0.439861 0.885443 0.771197
O O6 0.368663 0.845023 0.618068
O O7 0.865580 0.828176 0.666416
O O8 0.144045 0.174176 0.104654
O O9 0.000000 0.323124 0.000000
O O10 0.500000 0.000000 0.896806
O O11 0.000000 0.000000 0.828484
O O12 0.000000 0.163243 0.500000
O O13 0.000000 0.000000 0.404906
#
# Coordination Sequence:
#
# PCOD9310372 Si02
#       5
#     4   4   4   4   4
#     4  11  24  41  63  86 110 152 202 249 301 346
#     4  11  21  37  58  81 115 149 190 238 277 341
#     4  11  24  40  58  87 120 150 195 249 298 352
#     4  11  21  36  58  84 116 158 197 231 283 350
#     4  11  22  35  57  89 120 150 182 224 284 346
#
# _framework density 20.391155000000001
#
# number of rings (size 3 to 8) (size 9 to 14) (size 15 to 20)
#    0.000    1.000    0.000   10.200    0.000    4.400 
#    0.000    3.000    0.000    3.600    0.000    0.000 
#    0.000    0.000    0.000    0.000    0.000    0.000 
#
# Total GULP energy -111762.522666 kJ/mol
# GULP energy per Si atom -5588.126133 kJ/mol
# Density = 2.034474 g / cm^3
# Si number density = 20.391155 Si / 1000 Ang^3
#
#
#
# Elastic Constant Matrix: (Units=GPa)
#
#
# Indices 1 2 3 4 5 6 
#
# 1 77.9525 9.3258 -16.9262 0.0000 0.0000 0.0000
# 2 9.3258 132.2189 11.0379 0.0000 0.0000 0.0000
# 3 -16.9262 11.0379 54.2107 0.0000 0.0000 0.0000
# 4 0.0000 0.0000 0.0000 -7.8224 0.0000 0.0000
# 5 0.0000 0.0000 0.0000 0.0000 5.1500 0.0000
# 6 0.0000 0.0000 0.0000 0.0000 0.0000 29.0952
#
#
#
# Elastic Compliance Matrix: (Units=1/GPa)
#
#
# Indices 1 2 3 4 5 6 
#
# 1 0.014003 -0.001376 0.004652 0.000000 0.000000 0.000000
# 2 -0.001376 0.007829 -0.002024 0.000000 0.000000 0.000000
# 3 0.004652 -0.002024 0.020311 0.000000 0.000000 0.000000
# 4 0.000000 0.000000 0.000000 -0.127837 0.000000 0.000000
# 5 0.000000 0.000000 0.000000 0.000000 0.194176 0.000000
# 6 0.000000 0.000000 0.000000 0.000000 0.000000 0.034370
#
#
# Mechanical properties :
#
#
# Convention : Reuss Voigt Hill
#
# Bulk Modulus (GPa) = 22.39708 30.13968 26.26838
# Shear Modulus (GPa) = 32.21030 22.68085 27.44557
#
# Velocity S-wave (km/s) = 3.97876 3.33872 3.67271
# Velocity P-wave (km/s) = 5.66700 5.44753 5.55835
#
# Compressibility (1/GPa) = 0.04464869
#
# Stress axis : x y z
#
# Youngs Moduli (GPa) = 71.41251 127.72665 49.23386
#
# Poissons Ratio (x) = 0.17576 -0.22906
# Poissons Ratio (y) = 0.09827 0.09964
# Poissons Ratio (z) = -0.33224 0.25849
#
# Static dielectric constant tensor:
#      x y z
#    x 1.719770 0.000000 0.000000 
#    y 0.000000 1.764430 0.000000 
#    z 0.000000 0.000000 1.726840 
# 
# From -- ./inp_files/7472.got.cif
#   From: 2010.05.17/outbox.cif.g08.bks.cpg/sg16_4_cif.got.tgz:7472.got - 2010.06.03 22:28:35.
