data_PCOD9310629
_publ_section_title
;
Structure prediction by ZEFSAII (Michael W. Deem and Ramdas Pophale) SiO2 
 PCOD9310629
Probable space group: P 2 2 21
;
_chemical_formula_sum "Si O2"
_cell_formula_units_Z 28
_cell_length_a 9.311661
_cell_length_b 19.253941
_cell_length_c 8.635017
_cell_angle_alpha 90.000000
_cell_angle_beta 90.000000
_cell_angle_gamma 90.000000
_cell_volume 1548.139139
_symmetry_space_group_name_H-M "P 2 2 21"
_symmetry_group_IT_number 17
_symmetry_cell_setting 'orthorhombic'
loop_
_space_group_symop_operation_xyz
x,y,z
-x,-y,1/2+z
x,-y,-z
-x,y,1/2-z
loop_
_atom_site_type_symbol
_atom_site_label
_atom_site_fract_x
_atom_site_fract_y
_atom_site_fract_z
Si Si1 0.662451 0.348375 0.186573
Si Si2 0.836811 0.075808 0.185708
Si Si3 0.836811 0.924192 0.185707
Si Si4 0.161817 0.780871 0.184442
Si Si5 0.662103 0.500000 0.186221
Si Si6 0.662451 0.651625 0.186573
Si Si7 0.161817 0.780871 0.815558
O O1 0.500000 0.344932 0.250000
O O2 0.724194 0.424881 0.232154
O O3 0.751268 0.285106 0.255519
O O4 0.660782 0.343717 1.000000
O O5 0.772367 0.146037 0.255714
O O6 0.000000 0.074227 0.250000
O O7 0.772327 1.000000 0.225467
O O8 0.841504 0.081716 0.000000
O O9 0.772367 0.853963 0.255714
O O10 0.000000 0.925773 0.250000
O O11 0.248732 0.714893 0.244481
O O12 0.000000 0.776447 0.250000
O O13 0.156668 0.781958 1.000000
O O14 0.500000 0.499999 0.250000
O O15 0.724193 0.575119 0.232155
O O16 0.656093 0.500000 0.000000
O O17 0.500000 0.655069 0.250000
O O18 0.000000 0.776448 0.750000
#
# Coordination Sequence:
#
# PCOD9310629 Si02
#       7
#     4   4   4   4   4   4   4
#     4  10  19  34  54  77 102 130 166 205 247 296
#     4   9  16  27  45  69  96 127 163 203 245 290
#     4   9  16  27  45  69  96 127 163 203 245 290
#     4  11  21  33  50  74 103 135 168 206 251 295
#     4   8  16  30  51  74  97 126 162 204 244 288
#     4  10  19  34  54  77 102 130 166 205 247 296
#     4  11  21  33  50  74 103 135 168 206 251 295
#
# _framework density 18.086228999999999
#
# number of rings (size 3 to 8) (size 9 to 14) (size 15 to 20)
#    0.000    2.286    0.000    6.000    0.000    2.857 
#    0.000    0.714    0.000    0.857    0.000    0.000 
#    0.000    0.000    0.000    0.000    0.000    0.000 
#
# Total GULP energy -155988.209689 kJ/mol
# GULP energy per Si atom -5571.007489 kJ/mol
# Density = 1.804506 g / cm^3
# Si number density = 18.086229 Si / 1000 Ang^3
#
#
#
# Elastic Constant Matrix: (Units=GPa)
#
#
# Indices 1 2 3 4 5 6 
#
# 1 25.3245 49.2752 19.2549 0.0000 0.0000 0.0000
# 2 49.2752 248.1448 77.3188 0.0000 0.0000 0.0000
# 3 19.2549 77.3188 107.1220 0.0000 0.0000 0.0000
# 4 0.0000 0.0000 0.0000 44.9449 0.0000 0.0000
# 5 0.0000 0.0000 0.0000 0.0000 21.5791 0.0000
# 6 0.0000 0.0000 0.0000 0.0000 0.0000 45.3106
#
#
#
# Elastic Compliance Matrix: (Units=1/GPa)
#
#
# Indices 1 2 3 4 5 6 
#
# 1 0.065120 -0.011978 -0.003060 0.000000 0.000000 0.000000
# 2 -0.011978 0.007402 -0.003190 0.000000 0.000000 0.000000
# 3 -0.003060 -0.003190 0.012188 0.000000 0.000000 0.000000
# 4 0.000000 0.000000 0.000000 0.022249 0.000000 0.000000
# 5 0.000000 0.000000 0.000000 0.000000 0.046341 0.000000
# 6 0.000000 0.000000 0.000000 0.000000 0.000000 0.022070
#
#
# Mechanical properties :
#
#
# Convention : Reuss Voigt Hill
#
# Bulk Modulus (GPa) = 20.72334 74.69877 47.71106
# Shear Modulus (GPa) = 21.93852 38.01643 29.97748
#
# Velocity S-wave (km/s) = 3.48659 4.58968 4.07563
# Velocity P-wave (km/s) = 5.26226 8.33535 6.97027
#
# Compressibility (1/GPa) = 0.04825478
#
# Stress axis : x y z
#
# Youngs Moduli (GPa) = 15.35634 135.09300 82.05098
#
# Poissons Ratio (x) = 1.61811 0.25106
# Poissons Ratio (y) = 0.18393 0.26173
# Poissons Ratio (z) = 0.04699 0.43093
#
# Static dielectric constant tensor:
#      x y z
#    x 1.586350 0.000000 0.000000 
#    y 0.000000 1.704800 0.000000 
#    z 0.000000 0.000000 1.598130 
# 
# From -- ./inp_files/4984.got.cif
#   From: 2010.05.17/outbox.cif.g08.bks.cpg/sg17_3_cif.got.tgz:4984.got - 2010.06.03 22:34:06.
