data_PCOD9310162
_publ_section_title
;
Structure prediction by ZEFSAII (Michael W. Deem and Ramdas Pophale) SiO2 
 PCOD9310162
Probable space group: P 2 2 2
;
_chemical_formula_sum "Si O2"
_cell_formula_units_Z 30
_cell_length_a 5.326503
_cell_length_b 21.488557
_cell_length_c 11.925756
_cell_angle_alpha 90.000000
_cell_angle_beta 90.000000
_cell_angle_gamma 90.000000
_cell_volume 1365.008476
_symmetry_space_group_name_H-M "P 2 2 2"
_symmetry_group_IT_number 16
_symmetry_cell_setting 'orthorhombic'
loop_
_space_group_symop_operation_xyz
x,y,z
-x,-y,z
x,-y,-z
-x,y,-z
loop_
_atom_site_type_symbol
_atom_site_label
_atom_site_fract_x
_atom_site_fract_y
_atom_site_fract_z
Si Si1 0.777061 0.813432 0.181196
Si Si2 0.745441 0.959576 0.786580
Si Si3 0.858642 0.748355 0.700901
Si Si4 0.500000 0.106510 0.000000
Si Si5 0.462278 0.427581 0.743264
Si Si6 0.952659 0.380804 0.628443
Si Si7 0.596317 0.143422 0.378645
Si Si8 0.534365 0.311064 0.870087
O O1 0.687214 0.851536 0.074973
O O2 0.622179 0.838694 0.287944
O O3 0.743855 0.739379 0.160044
O O4 0.059980 0.807092 0.219834
O O5 0.752821 0.910774 0.683753
O O6 0.500000 0.000000 0.759660
O O7 0.668010 0.930593 0.908699
O O8 0.000000 0.000000 0.795423
O O9 0.731994 0.789540 0.603971
O O10 0.677212 0.711198 0.783742
O O11 0.028477 0.693833 0.648725
O O12 0.500000 0.500000 0.764809
O O13 0.675300 0.405309 0.655857
O O14 0.545634 0.384140 0.847382
O O15 0.178985 0.412569 0.700750
O O16 0.000000 0.394645 0.500000
O O17 0.500000 0.122476 0.500000
O O18 0.500000 0.300899 0.000000
#
# Coordination Sequence:
#
# PCOD9310162 Si02
#       8
#     4   4   4   2   4   4   4   4
#     4  10  20  42  64 102 136 171 225 284 360 414
#     4  11  27  52  71 105 145 186 240 288 342 411
#     4  10  23  40  66 102 136 168 222 290 353 423
#     4  10  23  44  72 104 137 184 228 288 352 414
#     4  11  24  43  63  93 134 178 235 286 329 411
#     4  11  24  41  68  96 132 177 223 284 353 402
#     4  10  25  44  70 101 137 187 233 284 348 425
#     4  10  21  41  61  95 132 174 222 280 351 411
#
# _framework density 21.977886000000002
#
# number of rings (size 3 to 8) (size 9 to 14) (size 15 to 20)
#    0.000    1.600    2.000    1.000    5.600    3.733 
#    4.800    0.667    0.000    1.600    0.000    0.000 
#    0.000    0.000    0.000    0.000    0.000    0.000 
#
# Total GULP energy -167119.944666 kJ/mol
# GULP energy per Si atom -5570.664822 kJ/mol
# Density = 2.192786 g / cm^3
# Si number density = 21.977886 Si / 1000 Ang^3
#
#
#
# Elastic Constant Matrix: (Units=GPa)
#
#
# Indices 1 2 3 4 5 6 
#
# 1 43.7196 33.9690 -2.4188 0.0000 0.0000 0.0000
# 2 33.9690 129.2465 27.2459 0.0000 0.0000 0.0000
# 3 -2.4188 27.2459 72.1803 0.0000 0.0000 0.0000
# 4 0.0000 0.0000 0.0000 1.2563 0.0000 0.0000
# 5 0.0000 0.0000 0.0000 0.0000 7.8097 0.0000
# 6 0.0000 0.0000 0.0000 0.0000 0.0000 38.2482
#
#
#
# Elastic Compliance Matrix: (Units=1/GPa)
#
#
# Indices 1 2 3 4 5 6 
#
# 1 0.029931 -0.008776 0.004316 0.000000 0.000000 0.000000
# 2 -0.008776 0.010979 -0.004439 0.000000 0.000000 0.000000
# 3 0.004316 -0.004439 0.015674 0.000000 0.000000 0.000000
# 4 0.000000 0.000000 0.000000 0.795963 0.000000 0.000000
# 5 0.000000 0.000000 0.000000 0.000000 0.128046 0.000000
# 6 0.000000 0.000000 0.000000 0.000000 0.000000 0.026145
#
#
# Mechanical properties :
#
#
# Convention : Reuss Voigt Hill
#
# Bulk Modulus (GPa) = 25.78223 40.30429 33.04326
# Shear Modulus (GPa) = 4.81944 21.88620 13.35282
#
# Velocity S-wave (km/s) = 1.48244 3.15910 2.46754
# Velocity P-wave (km/s) = 3.83231 5.62894 4.81516
#
# Compressibility (1/GPa) = 0.03878640
#
# Stress axis : x y z
#
# Youngs Moduli (GPa) = 33.41047 91.07943 63.79895
#
# Poissons Ratio (x) = 0.79934 -0.27534
# Poissons Ratio (y) = 0.29322 0.28317
# Poissons Ratio (z) = -0.14419 0.40426
#
# Static dielectric constant tensor:
#      x y z
#    x 1.909950 0.000000 0.000000 
#    y 0.000000 1.900460 0.000000 
#    z 0.000000 0.000000 1.772810 
# 
# From -- ./inp_files/1680.got.cif
#   From: 2010.05.17/outbox.cif.g08.bks.cpg/sg16_1_cif.got.tgz:1680.got - 2010.06.03 22:28:35.
