data_PCOD9310357
_publ_section_title
;
Structure prediction by ZEFSAII (Michael W. Deem and Ramdas Pophale) SiO2 
 PCOD9310357
Probable space group: P 2 2 2
;
_chemical_formula_sum "Si O2"
_cell_formula_units_Z 30
_cell_length_a 12.704815
_cell_length_b 15.248349
_cell_length_c 7.089043
_cell_angle_alpha 90.000000
_cell_angle_beta 90.000000
_cell_angle_gamma 90.000000
_cell_volume 1373.342245
_symmetry_space_group_name_H-M "P 2 2 2"
_symmetry_group_IT_number 16
_symmetry_cell_setting 'orthorhombic'
loop_
_space_group_symop_operation_xyz
x,y,z
-x,-y,z
x,-y,-z
-x,y,-z
loop_
_atom_site_type_symbol
_atom_site_label
_atom_site_fract_x
_atom_site_fract_y
_atom_site_fract_z
Si Si1 0.259076 0.366977 0.298048
Si Si2 0.500139 0.101322 0.271873
Si Si3 0.983962 0.396309 0.784790
Si Si4 0.720478 0.500000 0.000000
Si Si5 0.730197 0.158169 0.263521
Si Si6 0.727365 0.164137 0.720513
Si Si7 0.796357 0.351633 0.285026
Si Si8 0.877379 0.005371 0.729076
O O1 0.135877 0.385174 0.269241
O O2 0.323931 0.434816 0.165464
O O3 0.267827 0.266513 0.236235
O O4 0.271335 0.372110 0.525775
O O5 0.500000 0.108345 0.500000
O O6 0.609027 0.143805 0.207325
O O7 0.387434 0.135993 0.211394
O O8 0.500000 0.000000 0.222827
O O9 0.000000 0.500000 0.773636
O O10 0.078953 0.352264 0.670460
O O11 0.000000 0.365958 0.000000
O O12 0.778992 0.427657 0.130481
O O13 0.731125 0.157765 0.492390
O O14 0.767946 0.255256 0.210436
O O15 0.806107 0.077563 0.206872
O O16 0.818290 0.096245 0.782430
O O17 0.877511 0.000000 0.500000
O O18 0.000000 0.000000 0.786846
#
# Coordination Sequence:
#
# PCOD9310357 Si02
#       8
#     4   4   4   2   4   4   4   4
#     4  11  22  35  56  86 118 154 201 247 299 358
#     4   9  14  28  54  83 118 152 200 256 293 345
#     4  11  19  35  55  82 114 159 203 249 304 351
#     4  12  22  41  58  81 116 158 198 253 303 358
#     4   9  18  30  51  84 117 158 199 243 301 352
#     4   9  18  30  51  84 117 158 199 243 301 352
#     4  11  22  35  56  86 118 154 201 247 299 358
#     4   9  16  27  43  76 124 158 191 236 288 360
#
# _framework density 21.844518000000001
#
# number of rings (size 3 to 8) (size 9 to 14) (size 15 to 20)
#    0.000    2.000    4.000    0.800    1.867    0.533 
#    0.000    0.000    0.000    3.200    0.000    7.467 
#    0.000    0.000    0.000    0.000    0.000    0.533 
#
# Total GULP energy -167284.083714 kJ/mol
# GULP energy per Si atom -5576.136124 kJ/mol
# Density = 2.179480 g / cm^3
# Si number density = 21.844518 Si / 1000 Ang^3
#
#
#
# Elastic Constant Matrix: (Units=GPa)
#
#
# Indices 1 2 3 4 5 6 
#
# 1 110.8563 65.4689 1.3064 0.0000 0.0000 0.0000
# 2 65.4689 162.0757 22.2710 0.0000 0.0000 0.0000
# 3 1.3064 22.2710 111.6283 0.0000 0.0000 0.0000
# 4 0.0000 0.0000 0.0000 -429.9679 0.0000 0.0000
# 5 0.0000 0.0000 0.0000 0.0000 -20.0101 0.0000
# 6 0.0000 0.0000 0.0000 0.0000 0.0000 40.2458
#
#
#
# Elastic Compliance Matrix: (Units=1/GPa)
#
#
# Indices 1 2 3 4 5 6 
#
# 1 0.011924 -0.004933 0.000845 0.000000 0.000000 0.000000
# 2 -0.004933 0.008384 -0.001615 0.000000 0.000000 0.000000
# 3 0.000845 -0.001615 0.009271 0.000000 0.000000 0.000000
# 4 0.000000 0.000000 0.000000 -0.002326 0.000000 0.000000
# 5 0.000000 0.000000 0.000000 0.000000 -0.049975 0.000000
# 6 0.000000 0.000000 0.000000 0.000000 0.000000 0.024847
#
#
# Mechanical properties :
#
#
# Convention : Reuss Voigt Hill
#
# Bulk Modulus (GPa) = 55.02763 62.51697 58.77230
# Shear Modulus (GPa) = 255.24231 -62.24553 96.49839
#
# Velocity S-wave (km/s) = 10.82121 -5.34384 6.65365
# Velocity P-wave (km/s) = 13.46762 3.06502 9.27315
#
# Compressibility (1/GPa) = 0.01817269
#
# Stress axis : x y z
#
# Youngs Moduli (GPa) = 83.86606 119.27006 107.86746
#
# Poissons Ratio (x) = 0.58830 -0.09110
# Poissons Ratio (y) = 0.41367 0.17421
# Poissons Ratio (z) = -0.07083 0.19263
#
# Static dielectric constant tensor:
#      x y z
#    x 1.859690 0.000000 0.000000 
#    y 0.000000 1.747180 0.000000 
#    z 0.000000 0.000000 1.919070 
# 
# From -- ./inp_files/4806.got.cif
#   From: 2010.05.17/outbox.cif.g08.bks.cpg/sg16_3_cif.got.tgz:4806.got - 2010.06.03 22:28:35.
