data_PCOD9310363
_publ_section_title
;
Structure prediction by ZEFSAII (Michael W. Deem and Ramdas Pophale) SiO2 
 PCOD9310363
Probable space group: P 2 2 2
;
_chemical_formula_sum "Si O2"
_cell_formula_units_Z 30
_cell_length_a 9.329581
_cell_length_b 12.680127
_cell_length_c 13.428262
_cell_angle_alpha 90.000000
_cell_angle_beta 90.000000
_cell_angle_gamma 90.000000
_cell_volume 1588.567046
_symmetry_space_group_name_H-M "P 2 2 2"
_symmetry_group_IT_number 16
_symmetry_cell_setting 'orthorhombic'
loop_
_space_group_symop_operation_xyz
x,y,z
-x,-y,z
x,-y,-z
-x,y,-z
loop_
_atom_site_type_symbol
_atom_site_label
_atom_site_fract_x
_atom_site_fract_y
_atom_site_fract_z
Si Si1 0.854917 0.434005 0.391906
Si Si2 0.193137 0.272465 0.188901
Si Si3 0.384638 0.581595 0.666244
Si Si4 0.190725 0.206396 0.539443
Si Si5 0.949777 0.119212 0.662094
Si Si6 0.500000 0.261585 0.500000
Si Si7 0.091104 0.393030 0.837430
Si Si8 0.669874 0.628652 0.996891
O O1 0.718110 0.508004 0.398098
O O2 0.842112 0.331833 0.461193
O O3 0.855772 0.405319 0.275047
O O4 0.000000 0.500000 0.403528
O O5 0.280879 0.353243 0.260398
O O6 0.156300 0.167609 0.253822
O O7 0.033367 0.308701 0.164679
O O8 0.272581 0.294677 0.084682
O O9 0.500000 0.500000 0.714502
O O10 0.460093 0.664654 0.593670
O O11 0.130366 0.144784 0.443099
O O12 0.361179 0.196321 0.534031
O O13 0.104043 0.173437 0.638169
O O14 0.000000 0.000000 0.678548
O O15 0.223805 0.355706 0.903689
O O16 0.000000 0.500000 0.867364
O O17 0.683329 0.500000 0.000000
O O18 0.500000 0.647950 0.000000
#
# Coordination Sequence:
#
# PCOD9310363 Si02
#       8
#     4   4   4   4   4   2   4   4
#     4  11  21  35  58  88 129 175 218 251 317 401
#     4  12  23  40  65  92 128 176 225 266 325 395
#     4  12  23  35  53  89 141 181 206 249 316 418
#     4  11  22  40  61  89 122 170 217 270 330 386
#     4  11  25  47  68  88 114 162 232 297 327 363
#     4  12  25  36  53  86 136 172 211 254 327 394
#     4  11  20  38  59  92 128 179 213 255 306 391
#     4  11  24  36  61  98 141 178 204 247 319 406
#
# _framework density 18.884944999999998
#
# number of rings (size 3 to 8) (size 9 to 14) (size 15 to 20)
#    0.000    0.667    8.000    1.400    5.600    0.000 
#    0.000    2.000    0.000    1.600    0.000    0.933 
#    0.000    0.000    0.000    0.000    0.000    0.000 
#
# Total GULP energy -167036.383039 kJ/mol
# GULP energy per Si atom -5567.879435 kJ/mol
# Density = 1.884196 g / cm^3
# Si number density = 18.884945 Si / 1000 Ang^3
#
#
#
# Elastic Constant Matrix: (Units=GPa)
#
#
# Indices 1 2 3 4 5 6 
#
# 1 139.9335 31.5021 48.4867 0.0000 0.0000 0.0000
# 2 31.5021 85.1409 25.8191 0.0000 0.0000 0.0000
# 3 48.4867 25.8191 102.5061 0.0000 0.0000 0.0000
# 4 0.0000 0.0000 0.0000 4.3881 0.0000 0.0000
# 5 0.0000 0.0000 0.0000 0.0000 1.1720 0.0000
# 6 0.0000 0.0000 0.0000 0.0000 0.0000 23.0163
#
#
#
# Elastic Compliance Matrix: (Units=1/GPa)
#
#
# Indices 1 2 3 4 5 6 
#
# 1 0.008907 -0.002185 -0.003663 0.000000 0.000000 0.000000
# 2 -0.002185 0.013253 -0.002305 0.000000 0.000000 0.000000
# 3 -0.003663 -0.002305 0.012069 0.000000 0.000000 0.000000
# 4 0.000000 0.000000 0.000000 0.227888 0.000000 0.000000
# 5 0.000000 0.000000 0.000000 0.000000 0.853269 0.000000
# 6 0.000000 0.000000 0.000000 0.000000 0.000000 0.043447
#
#
# Mechanical properties :
#
#
# Convention : Reuss Voigt Hill
#
# Bulk Modulus (GPa) = 55.79222 59.91070 57.85146
# Shear Modulus (GPa) = 4.23330 20.50012 12.36671
#
# Velocity S-wave (km/s) = 1.49883 3.29831 2.56177
# Velocity P-wave (km/s) = 5.70988 6.80427 6.28095
#
# Compressibility (1/GPa) = 0.01792365
#
# Stress axis : x y z
#
# Youngs Moduli (GPa) = 112.26715 75.45742 82.85964
#
# Poissons Ratio (x) = 0.16487 0.30351
# Poissons Ratio (y) = 0.24529 0.19095
# Poissons Ratio (z) = 0.41123 0.17389
#
# Static dielectric constant tensor:
#      x y z
#    x 1.803760 0.000000 0.000000 
#    y 0.000000 1.662950 0.000000 
#    z 0.000000 0.000000 1.720130 
# 
# From -- ./inp_files/7960.got.cif
#   From: 2010.05.17/outbox.cif.g08.bks.cpg/sg16_4_cif.got.tgz:7960.got - 2010.06.03 22:28:35.
