data_PCOD9310300
_publ_section_title
;
Structure prediction by ZEFSAII (Michael W. Deem and Ramdas Pophale) SiO2 
 PCOD9310300
Probable space group: P 2 2 2
;
_chemical_formula_sum "Si O2"
_cell_formula_units_Z 16
_cell_length_a 5.558706
_cell_length_b 16.101819
_cell_length_c 9.154843
_cell_angle_alpha 90.000000
_cell_angle_beta 90.000000
_cell_angle_gamma 90.000000
_cell_volume 819.406767
_symmetry_space_group_name_H-M "P 2 2 2"
_symmetry_group_IT_number 16
_symmetry_cell_setting 'orthorhombic'
loop_
_space_group_symop_operation_xyz
x,y,z
-x,-y,z
x,-y,-z
-x,y,-z
loop_
_atom_site_type_symbol
_atom_site_label
_atom_site_fract_x
_atom_site_fract_y
_atom_site_fract_z
Si Si1 0.257237 0.839937 0.583351
Si Si2 0.122614 0.726789 0.845969
Si Si3 0.500000 0.500000 0.500000
Si Si4 0.180814 0.576111 0.259229
Si Si5 0.500000 0.389243 0.000000
Si Si6 0.500000 0.000000 0.500000
O O1 0.500000 0.804759 0.500000
O O2 0.216719 0.797896 0.739617
O O3 0.331585 0.937210 0.590962
O O4 0.000000 0.831334 0.500000
O O5 0.341088 0.668434 0.895032
O O6 0.944344 0.665519 0.756210
O O7 0.000000 0.753535 0.000000
O O8 0.348646 0.561148 0.397176
O O9 0.000000 0.500000 0.268875
O O10 0.322848 0.564839 0.108718
#
# Coordination Sequence:
#
# PCOD9310300 Si02
#       6
#     4   4   1   4   2   1
#     4  10  23  42  71 106 135 181 227 283 348 423
#     4  10  24  42  66  95 133 176 231 282 347 414
#     4  12  26  42  58  86 128 172 234 296 336 394
#     4  11  25  42  59  88 125 174 227 282 343 400
#     4  10  24  43  64  85 124 174 216 283 340 414
#     4   8  22  40  76  98 146 170 226 278 360 412
#
# _framework density 19.526319999999998
#
# number of rings (size 3 to 8) (size 9 to 14) (size 15 to 20)
#    0.750    1.000    0.000    2.250    7.000   16.000 
#    2.250    0.000    0.000   11.250    0.000    0.000 
#    0.000    0.000    0.000    0.000    0.000    0.000 
#
# Total GULP energy -89249.212736 kJ/mol
# GULP energy per Si atom -5578.075796 kJ/mol
# Density = 1.948188 g / cm^3
# Si number density = 19.526320 Si / 1000 Ang^3
#
#
#
# Elastic Constant Matrix: (Units=GPa)
#
#
# Indices 1 2 3 4 5 6 
#
# 1 122.3194 43.6180 72.8368 0.0000 0.0000 0.0000
# 2 43.6180 98.8412 85.4477 0.0000 0.0000 0.0000
# 3 72.8368 85.4477 151.7805 0.0000 0.0000 0.0000
# 4 0.0000 0.0000 0.0000 136.2743 0.0000 0.0000
# 5 0.0000 0.0000 0.0000 0.0000 36.1120 0.0000
# 6 0.0000 0.0000 0.0000 0.0000 0.0000 41.9297
#
#
#
# Elastic Compliance Matrix: (Units=1/GPa)
#
#
# Indices 1 2 3 4 5 6 
#
# 1 0.011464 -0.000590 -0.005169 0.000000 0.000000 0.000000
# 2 -0.000590 0.019740 -0.010830 0.000000 0.000000 0.000000
# 3 -0.005169 -0.010830 0.015166 0.000000 0.000000 0.000000
# 4 0.000000 0.000000 0.000000 0.007338 0.000000 0.000000
# 5 0.000000 0.000000 0.000000 0.000000 0.027692 0.000000
# 6 0.000000 0.000000 0.000000 0.000000 0.000000 0.023849
#
#
# Mechanical properties :
#
#
# Convention : Reuss Voigt Hill
#
# Bulk Modulus (GPa) = 75.80642 86.30513 81.05577
# Shear Modulus (GPa) = 35.00822 54.26576 44.63699
#
# Velocity S-wave (km/s) = 4.23883 5.27744 4.78639
# Velocity P-wave (km/s) = 7.92867 9.02389 8.49395
#
# Compressibility (1/GPa) = 0.01319150
#
# Stress axis : x y z
#
# Youngs Moduli (GPa) = 87.23170 50.65864 65.93849
#
# Poissons Ratio (x) = 0.02991 0.34083
# Poissons Ratio (y) = 0.05150 0.71409
# Poissons Ratio (z) = 0.45089 0.54862
#
# Static dielectric constant tensor:
#      x y z
#    x 1.389070 0.000000 0.000000 
#    y 0.000000 1.695440 0.000000 
#    z 0.000000 0.000000 1.632400 
# 
# From -- ./inp_files/3067.got.cif
#   From: 2010.05.17/outbox.cif.g08.bks.cpg/sg16_2_cif.got.tgz:3067.got - 2010.06.03 22:28:35.
