data_PCOD9310957
_publ_section_title
;
Structure prediction by ZEFSAII (Michael W. Deem and Ramdas Pophale) SiO2 
 PCOD9310957
Probable space group: P 2 2 21
;
_chemical_formula_sum "Si O2"
_cell_formula_units_Z 32
_cell_length_a 11.355871
_cell_length_b 5.256469
_cell_length_c 20.651321
_cell_angle_alpha 90.000000
_cell_angle_beta 90.000000
_cell_angle_gamma 90.000000
_cell_volume 1232.714190
_symmetry_space_group_name_H-M "P 2 2 21"
_symmetry_group_IT_number 17
_symmetry_cell_setting 'orthorhombic'
loop_
_space_group_symop_operation_xyz
x,y,z
-x,-y,1/2+z
x,-y,-z
-x,y,1/2-z
loop_
_atom_site_type_symbol
_atom_site_label
_atom_site_fract_x
_atom_site_fract_y
_atom_site_fract_z
Si Si1 0.317804 0.125755 0.096210
Si Si2 0.411513 0.195213 0.442090
Si Si3 0.134564 0.263183 0.765670
Si Si4 0.826148 0.653585 0.415512
Si Si5 0.338624 0.369013 0.226735
Si Si6 0.544527 0.440593 0.846351
Si Si7 0.249923 0.061769 0.650558
Si Si8 0.909707 0.263817 0.960470
O O1 0.239715 0.379977 0.079198
O O2 0.321852 0.145573 0.175144
O O3 0.455466 0.114976 0.078199
O O4 0.260643 0.878738 0.064357
O O5 0.296161 0.156603 0.396760
O O6 0.384895 0.000000 0.500000
O O7 0.436631 0.493320 0.422441
O O8 0.145820 0.255079 0.842370
O O9 0.218279 0.501948 0.751234
O O10 0.181988 0.040301 0.718320
O O11 0.000000 0.308572 0.750000
O O12 0.954235 0.666175 0.447129
O O13 0.409736 0.346348 0.293882
O O14 0.411610 0.570677 0.179883
O O15 0.627713 0.205213 0.833924
O O16 0.161881 0.225192 0.605705
O O17 0.856088 0.500000 0.000000
O O18 0.907654 0.000000 0.000000
#
# Coordination Sequence:
#
# PCOD9310957 Si02
#       8
#     4   4   4   4   4   4   4   4
#     4  10  24  44  75 104 142 183 241 302 367 433
#     4  11  26  42  64 101 143 192 245 299 362 441
#     4  10  20  42  70 108 142 182 242 308 370 436
#     4  11  24  49  75 110 141 190 243 310 365 434
#     4   8  18  39  66 100 139 182 231 297 372 440
#     4   9  20  41  63  97 138 190 236 293 366 439
#     4  11  25  42  69 102 145 196 239 307 367 444
#     4  12  28  49  75 105 147 200 249 301 367 441
#
# _framework density 25.95898
#
# number of rings (size 3 to 8) (size 9 to 14) (size 15 to 20)
#    0.000    1.750    1.250    1.125   10.500    1.500 
#    0.000    2.500    0.000    0.000    0.000    0.000 
#    0.000    0.000    0.000    0.000    0.000    0.000 
#
# Total GULP energy -178434.552031 kJ/mol
# GULP energy per Si atom -5576.079751 kJ/mol
# Density = 2.589990 g / cm^3
# Si number density = 25.958980 Si / 1000 Ang^3
#
#
#
# Elastic Constant Matrix: (Units=GPa)
#
#
# Indices 1 2 3 4 5 6 
#
# 1 140.9944 22.3841 12.0208 0.0000 0.0000 0.0000
# 2 22.3841 99.5969 29.7379 0.0000 0.0000 0.0000
# 3 12.0208 29.7379 96.2020 0.0000 0.0000 0.0000
# 4 0.0000 0.0000 0.0000 30.8095 0.0000 0.0000
# 5 0.0000 0.0000 0.0000 0.0000 28.1959 0.0000
# 6 0.0000 0.0000 0.0000 0.0000 0.0000 17.9092
#
#
#
# Elastic Compliance Matrix: (Units=1/GPa)
#
#
# Indices 1 2 3 4 5 6 
#
# 1 0.007373 -0.001522 -0.000451 0.000000 0.000000 0.000000
# 2 -0.001522 0.011376 -0.003326 0.000000 0.000000 0.000000
# 3 -0.000451 -0.003326 0.011479 0.000000 0.000000 0.000000
# 4 0.000000 0.000000 0.000000 0.032458 0.000000 0.000000
# 5 0.000000 0.000000 0.000000 0.000000 0.035466 0.000000
# 6 0.000000 0.000000 0.000000 0.000000 0.000000 0.055837
#
#
# Mechanical properties :
#
#
# Convention : Reuss Voigt Hill
#
# Bulk Modulus (GPa) = 50.94471 51.67542 51.31006
# Shear Modulus (GPa) = 29.21752 33.55961 31.38856
#
# Velocity S-wave (km/s) = 3.35853 3.59944 3.48107
# Velocity P-wave (km/s) = 5.89129 6.10118 5.99715
#
# Compressibility (1/GPa) = 0.01962912
#
# Stress axis : x y z
#
# Youngs Moduli (GPa) = 135.63745 87.90594 87.11324
#
# Poissons Ratio (x) = 0.13383 0.03926
# Poissons Ratio (y) = 0.20650 0.28976
# Poissons Ratio (z) = 0.06112 0.29240
#
# Static dielectric constant tensor:
#      x y z
#    x 2.027730 0.000000 0.000000 
#    y 0.000000 2.127210 0.000000 
#    z 0.000000 0.000000 2.194440 
# 
# From -- ./inp_files/10677.got.cif
#   From: 2010.05.17/outbox.cif.g08.bks.cpg/sg17_6_cif.got.tgz:10677.got - 2010.06.03 22:34:06.
