data_PCOD9310813
_publ_section_title
;
Structure prediction by ZEFSAII (Michael W. Deem and Ramdas Pophale) SiO2 
 PCOD9310813
Probable space group: P 2 2 21
;
_chemical_formula_sum "Si O2"
_cell_formula_units_Z 32
_cell_length_a 9.454578
_cell_length_b 5.031784
_cell_length_c 30.106219
_cell_angle_alpha 90.000000
_cell_angle_beta 90.000000
_cell_angle_gamma 90.000000
_cell_volume 1432.255028
_symmetry_space_group_name_H-M "P 2 2 21"
_symmetry_group_IT_number 17
_symmetry_cell_setting 'orthorhombic'
loop_
_space_group_symop_operation_xyz
x,y,z
-x,-y,1/2+z
x,-y,-z
-x,y,1/2-z
loop_
_atom_site_type_symbol
_atom_site_label
_atom_site_fract_x
_atom_site_fract_y
_atom_site_fract_z
Si Si1 0.876532 0.529133 0.219012
Si Si2 0.726183 0.828848 0.132886
Si Si3 0.578257 0.799751 0.328507
Si Si4 0.874906 0.236776 0.528103
Si Si5 0.208542 0.242133 0.531292
Si Si6 0.023335 0.840673 0.647050
Si Si7 0.846027 0.350542 0.622677
Si Si8 0.620276 0.691350 0.721871
O O1 0.800210 0.682623 0.176742
O O2 0.958701 0.286849 0.195266
O O3 0.754715 0.411786 0.250772
O O4 0.000000 0.663870 0.250000
O O5 0.562604 0.868444 0.144627
O O6 0.736205 0.719005 0.082047
O O7 0.818579 0.098947 0.130155
O O8 0.703936 0.628789 0.350419
O O9 0.535986 0.568484 0.294502
O O10 0.651756 0.072942 0.312823
O O11 0.867947 0.500000 0.500000
O O12 0.799833 0.264576 0.574294
O O13 0.040660 0.184987 0.538390
O O14 0.814622 0.000000 0.500000
O O15 0.222023 0.500000 0.500000
O O16 0.263880 0.000000 0.500000
O O17 0.938341 0.617105 0.619995
O O18 0.940956 0.116715 0.643312
O O19 0.500000 0.843675 0.750000
#
# Coordination Sequence:
#
# PCOD9310813 Si02
#       8
#     4   4   4   4   4   4   4   4
#     4  12  26  45  72 105 141 189 242 304 357 426
#     4  12  27  47  76 106 152 193 251 305 381 440
#     4  12  28  47  71 101 147 198 235 297 364 448
#     4  10  20  36  65  98 136 173 226 292 359 424
#     4  10  23  40  69 105 137 181 240 307 371 434
#     4  12  25  44  71 103 141 181 245 306 355 422
#     4  12  24  45  68 104 140 186 238 294 365 435
#     4  12  26  47  68 101 139 190 246 284 359 442
#
# _framework density 22.342392
#
# number of rings (size 3 to 8) (size 9 to 14) (size 15 to 20)
#    0.000    0.500    3.750    4.125    7.000    0.500 
#    0.000    1.250    0.000    0.000    0.000    0.000 
#    0.000    0.000    0.000    0.000    0.000    0.000 
#
# Total GULP energy -178515.865715 kJ/mol
# GULP energy per Si atom -5578.620804 kJ/mol
# Density = 2.229154 g / cm^3
# Si number density = 22.342392 Si / 1000 Ang^3
#
#
#
# Elastic Constant Matrix: (Units=GPa)
#
#
# Indices 1 2 3 4 5 6 
#
# 1 -121.8546 -6.9159 -33.4583 0.0000 0.0000 0.0000
# 2 -6.9159 71.8440 28.9774 0.0000 0.0000 0.0000
# 3 -33.4583 28.9774 79.8321 0.0000 0.0000 0.0000
# 4 0.0000 0.0000 0.0000 24.3415 0.0000 0.0000
# 5 0.0000 0.0000 0.0000 0.0000 -8.5501 0.0000
# 6 0.0000 0.0000 0.0000 0.0000 0.0000 21.3011
#
#
#
# Elastic Compliance Matrix: (Units=1/GPa)
#
#
# Indices 1 2 3 4 5 6 
#
# 1 -0.007336 0.000625 -0.003301 0.000000 0.000000 0.000000
# 2 0.000625 0.016253 -0.005637 0.000000 0.000000 0.000000
# 3 -0.003301 -0.005637 0.013189 0.000000 0.000000 0.000000
# 4 0.000000 0.000000 0.000000 0.041082 0.000000 0.000000
# 5 0.000000 0.000000 0.000000 0.000000 -0.116957 0.000000
# 6 0.000000 0.000000 0.000000 0.000000 0.000000 0.046946
#
#
# Mechanical properties :
#
#
# Convention : Reuss Voigt Hill
#
# Bulk Modulus (GPa) = 182.49033 0.78087 91.63560
# Shear Modulus (GPa) = 429.90738 10.16639 220.03689
#
# Velocity S-wave (km/s) = 13.88652 2.13545 9.93468
# Velocity P-wave (km/s) = 18.41115 2.53583 13.14155
#
# Compressibility (1/GPa) = 0.00547974
#
# Stress axis : x y z
#
# Youngs Moduli (GPa) = -136.32311 61.52697 75.82132
#
# Poissons Ratio (x) = -0.03848 0.25032
# Poissons Ratio (y) = 0.08526 0.42743
# Poissons Ratio (z) = -0.45006 0.34685
#
# Static dielectric constant tensor:
#      x y z
#    x 0.017370 0.000000 0.000000 
#    y 0.000000 1.864500 0.000000 
#    z 0.000000 0.000000 1.610770 
# 
# From -- ./inp_files/11260.got.cif
#   From: 2010.05.17/outbox.cif.g08.bks.cpg/sg17_6_cif.got.tgz:11260.got - 2010.06.03 22:34:06.
