data_PCOD9310786
_publ_section_title
;
Structure prediction by ZEFSAII (Michael W. Deem and Ramdas Pophale) SiO2 
 PCOD9310786
Probable space group: P 2 2 21
;
_chemical_formula_sum "Si O2"
_cell_formula_units_Z 32
_cell_length_a 9.933048
_cell_length_b 14.650308
_cell_length_c 9.659647
_cell_angle_alpha 90.000000
_cell_angle_beta 90.000000
_cell_angle_gamma 90.000000
_cell_volume 1405.693204
_symmetry_space_group_name_H-M "P 2 2 21"
_symmetry_group_IT_number 17
_symmetry_cell_setting 'orthorhombic'
loop_
_space_group_symop_operation_xyz
x,y,z
-x,-y,1/2+z
x,-y,-z
-x,y,1/2-z
loop_
_atom_site_type_symbol
_atom_site_label
_atom_site_fract_x
_atom_site_fract_y
_atom_site_fract_z
Si Si1 0.295662 0.323005 0.256420
Si Si2 0.803051 0.911397 0.920608
Si Si3 0.422461 0.507137 0.628843
Si Si4 0.804394 0.391706 0.520104
Si Si5 0.712342 0.335829 0.826145
Si Si6 0.629871 0.878535 0.677386
Si Si7 0.927973 0.276326 0.035188
Si Si8 0.539321 0.837888 0.093018
O O1 0.387760 0.390795 0.341147
O O2 0.350453 0.222279 0.241786
O O3 0.154546 0.320884 0.337097
O O4 0.289562 0.366012 0.106968
O O5 0.755417 0.926109 0.759345
O O6 0.913623 0.830842 0.929812
O O7 0.669360 0.881768 0.013071
O O8 0.854040 0.000000 0.000000
O O9 0.518204 0.500000 0.500000
O O10 0.500000 0.460313 0.750000
O O11 0.302270 0.436792 0.607197
O O12 0.837398 0.500000 0.500000
O O13 0.742389 0.357645 0.665508
O O14 0.933071 0.326850 0.489234
O O15 0.592191 0.266925 0.875805
O O16 0.842458 0.291158 0.895841
O O17 0.500000 0.921789 0.750000
O O18 0.584824 0.860383 0.515989
O O19 0.500000 0.869185 0.250000
#
# Coordination Sequence:
#
# PCOD9310786 Si02
#       8
#     4   4   4   4   4   4   4   4
#     4  11  22  39  56  84 121 162 219 267 315 376
#     4   9  20  40  65  93 123 156 206 266 329 411
#     4  12  26  36  56  82 123 168 210 257 313 379
#     4  12  25  37  61  87 120 167 234 280 318 375
#     4  11  23  40  53  84 126 167 217 262 321 377
#     4   9  19  36  61  89 123 170 205 245 317 395
#     4  10  23  41  62  83 116 165 209 278 347 379
#     4  10  20  35  60  90 132 168 200 252 321 395
#
# _framework density 22.764569999999999
#
# number of rings (size 3 to 8) (size 9 to 14) (size 15 to 20)
#    0.000    1.500    2.500    3.000    5.250    2.500 
#    0.000    0.000    0.000   12.000    0.000    0.000 
#    0.000    0.000    0.000    0.000    0.000    0.000 
#
# Total GULP energy -178146.066492 kJ/mol
# GULP energy per Si atom -5567.064578 kJ/mol
# Density = 2.271276 g / cm^3
# Si number density = 22.764570 Si / 1000 Ang^3
#
#
#
# Elastic Constant Matrix: (Units=GPa)
#
#
# Indices 1 2 3 4 5 6 
#
# 1 45.4586 20.5073 24.7841 0.0000 0.0000 0.0000
# 2 20.5073 96.3645 28.1276 0.0000 0.0000 0.0000
# 3 24.7841 28.1276 199.5891 0.0000 0.0000 0.0000
# 4 0.0000 0.0000 0.0000 18.5586 0.0000 0.0000
# 5 0.0000 0.0000 0.0000 0.0000 -5.0716 0.0000
# 6 0.0000 0.0000 0.0000 0.0000 0.0000 13.0505
#
#
#
# Elastic Compliance Matrix: (Units=1/GPa)
#
#
# Indices 1 2 3 4 5 6 
#
# 1 0.025479 -0.004692 -0.002503 0.000000 0.000000 0.000000
# 2 -0.004692 0.011686 -0.001064 0.000000 0.000000 0.000000
# 3 -0.002503 -0.001064 0.005471 0.000000 0.000000 0.000000
# 4 0.000000 0.000000 0.000000 0.053883 0.000000 0.000000
# 5 0.000000 0.000000 0.000000 0.000000 -0.197176 0.000000
# 6 0.000000 0.000000 0.000000 0.000000 0.000000 0.076625
#
#
# Mechanical properties :
#
#
# Convention : Reuss Voigt Hill
#
# Bulk Modulus (GPa) = 38.28626 54.25003 46.26814
# Shear Modulus (GPa) = 4192.08228 23.17371 2107.62799
#
# Velocity S-wave (km/s) = 42.95919 3.19403 30.46058
# Velocity P-wave (km/s) = 49.77460 6.12251 35.46122
#
# Compressibility (1/GPa) = 0.02611903
#
# Stress axis : x y z
#
# Youngs Moduli (GPa) = 39.24798 85.56972 182.77995
#
# Poissons Ratio (x) = 0.40147 0.45744
# Poissons Ratio (y) = 0.18414 0.19454
# Poissons Ratio (z) = 0.09823 0.09108
#
# Static dielectric constant tensor:
#      x y z
#    x 1.919060 0.000000 0.000000 
#    y 0.000000 2.015430 0.000000 
#    z 0.000000 0.000000 2.171490 
# 
# From -- ./inp_files/4942.got.cif
#   From: 2010.05.17/outbox.cif.g08.bks.cpg/sg17_3_cif.got.tgz:4942.got - 2010.06.03 22:34:06.
