data_PCOD9310862
_publ_section_title
;
Structure prediction by ZEFSAII (Michael W. Deem and Ramdas Pophale) SiO2 
 PCOD9310862
Probable space group: P 2 2 21
;
_chemical_formula_sum "Si O2"
_cell_formula_units_Z 14
_cell_length_a 18.148501
_cell_length_b 8.270686
_cell_length_c 5.023970
_cell_angle_alpha 90.000000
_cell_angle_beta 90.000000
_cell_angle_gamma 90.000000
_cell_volume 754.100676
_symmetry_space_group_name_H-M "P 2 2 21"
_symmetry_group_IT_number 17
_symmetry_cell_setting 'orthorhombic'
loop_
_space_group_symop_operation_xyz
x,y,z
-x,-y,1/2+z
x,-y,-z
-x,y,1/2-z
loop_
_atom_site_type_symbol
_atom_site_label
_atom_site_fract_x
_atom_site_fract_y
_atom_site_fract_z
Si Si1 0.761447 0.820716 0.373730
Si Si2 0.306756 0.670070 0.613387
Si Si3 0.920449 0.880308 0.251842
Si Si4 0.450805 0.500000 0.500000
O O1 0.724900 0.708839 0.598304
O O2 0.846256 0.780479 0.300351
O O3 0.760992 0.000000 0.500000
O O4 0.716477 0.803523 0.101281
O O5 0.275617 0.500000 0.500000
O O6 0.394415 0.637819 0.605574
O O7 0.000000 0.793109 0.250000
O O8 0.927352 0.000000 0.500000
O O9 0.909459 0.000000 0.000000
O O10 0.500000 0.551855 0.250000
#
# Coordination Sequence:
#
# PCOD9310862 Si02
#       4
#     4   4   4   2
#     4  11  19  34  56  84 114 141 180 235 276 313
#     4  10  22  35  57  84 107 144 182 228 266 336
#     4   9  17  29  48  77 110 147 188 226 266 316
#     4  10  20  38  62  80 102 144 192 220 254 336
#
# _framework density 18.565161
#
# number of rings (size 3 to 8) (size 9 to 14) (size 15 to 20)
#    0.857    1.143    0.000    6.857    0.000    0.000 
#    0.000    0.000    0.000   20.571    0.000    2.000 
#    0.000    0.000    0.000    0.000    0.000    0.000 
#
# Total GULP energy -77935.514288 kJ/mol
# GULP energy per Si atom -5566.822449 kJ/mol
# Density = 1.852291 g / cm^3
# Si number density = 18.565161 Si / 1000 Ang^3
#
#
#
# Elastic Constant Matrix: (Units=GPa)
#
#
# Indices 1 2 3 4 5 6 
#
# 1 162.2601 19.4541 49.1071 0.0000 0.0000 0.0000
# 2 19.4541 30.4981 3.4213 0.0000 0.0000 0.0000
# 3 49.1071 3.4213 127.1549 0.0000 0.0000 0.0000
# 4 0.0000 0.0000 0.0000 32.7748 0.0000 0.0000
# 5 0.0000 0.0000 0.0000 0.0000 34.3040 0.0000
# 6 0.0000 0.0000 0.0000 0.0000 0.0000 27.8083
#
#
#
# Elastic Compliance Matrix: (Units=1/GPa)
#
#
# Indices 1 2 3 4 5 6 
#
# 1 0.007548 -0.004501 -0.002794 0.000000 0.000000 0.000000
# 2 -0.004501 0.035573 0.000781 0.000000 0.000000 0.000000
# 3 -0.002794 0.000781 0.008922 0.000000 0.000000 0.000000
# 4 0.000000 0.000000 0.000000 0.030511 0.000000 0.000000
# 5 0.000000 0.000000 0.000000 0.000000 0.029151 0.000000
# 6 0.000000 0.000000 0.000000 0.000000 0.000000 0.035961
#
#
# Mechanical properties :
#
#
# Convention : Reuss Voigt Hill
#
# Bulk Modulus (GPa) = 25.63114 51.54202 38.58658
# Shear Modulus (GPa) = 28.78536 35.50612 32.14574
#
# Velocity S-wave (km/s) = 3.94192 4.37797 4.16565
# Velocity P-wave (km/s) = 5.87829 7.30606 6.63072
#
# Compressibility (1/GPa) = 0.03901504
#
# Stress axis : x y z
#
# Youngs Moduli (GPa) = 132.48139 28.11151 112.07692
#
# Poissons Ratio (x) = 0.12654 0.31314
# Poissons Ratio (y) = 0.59636 -0.08757
# Poissons Ratio (z) = 0.37015 -0.02196
#
# Static dielectric constant tensor:
#      x y z
#    x 1.706300 0.000000 0.000000 
#    y 0.000000 1.653630 0.000000 
#    z 0.000000 0.000000 1.633740 
# 
# From -- ./inp_files/2406.got.cif
#   From: 2010.05.17/outbox.cif.g08.bks.cpg/sg17_2_cif.got.tgz:2406.got - 2010.06.03 22:34:06.
