data_PCOD9310624
_publ_section_title
;
Structure prediction by ZEFSAII (Michael W. Deem and Ramdas Pophale) SiO2 
 PCOD9310624
Probable space group: P 2 2 21
;
_chemical_formula_sum "Si O2"
_cell_formula_units_Z 32
_cell_length_a 5.276523
_cell_length_b 18.477295
_cell_length_c 17.102123
_cell_angle_alpha 90.000000
_cell_angle_beta 90.000000
_cell_angle_gamma 90.000000
_cell_volume 1667.386396
_symmetry_space_group_name_H-M "P 2 2 21"
_symmetry_group_IT_number 17
_symmetry_cell_setting 'orthorhombic'
loop_
_space_group_symop_operation_xyz
x,y,z
-x,-y,1/2+z
x,-y,-z
-x,y,1/2-z
loop_
_atom_site_type_symbol
_atom_site_label
_atom_site_fract_x
_atom_site_fract_y
_atom_site_fract_z
Si Si1 0.248586 0.098930 0.706126
Si Si2 0.752316 0.936664 0.724623
Si Si3 0.947092 0.723881 0.935264
Si Si4 0.678050 0.073104 0.457670
Si Si5 0.433358 0.273396 0.164072
Si Si6 0.187576 0.142878 0.525736
Si Si7 0.411328 0.556069 0.832990
Si Si8 0.927731 0.553439 0.927946
O O1 0.500000 0.125251 0.750000
O O2 0.242382 0.119409 0.615160
O O3 0.000000 0.127430 0.750000
O O4 0.243925 0.011688 0.724017
O O5 0.500000 0.898963 0.750000
O O6 0.734567 0.945956 0.632310
O O7 0.000000 0.894872 0.750000
O O8 0.190819 0.753662 0.886154
O O9 0.978922 0.637927 0.950548
O O10 0.692752 0.730658 0.884203
O O11 0.894881 0.774035 0.010556
O O12 0.439303 0.125487 0.474516
O O13 0.941904 0.099100 0.495432
O O14 0.596111 0.000000 0.500000
O O15 0.500000 0.246180 0.250000
O O16 0.366491 0.358033 0.177035
O O17 0.500000 0.525422 0.750000
O O18 0.145674 0.529591 0.866995
O O19 0.647767 0.548576 0.891353
O O20 0.944819 0.500000 0.000000
#
# Coordination Sequence:
#
# PCOD9310624 Si02
#       8
#     4   4   4   4   4   4   4   4
#     4  10  20  37  59  80 101 137 183 222 268 331
#     4  10  19  35  54  77 106 137 174 218 266 323
#     4  10  21  36  55  84 117 151 191 234 284 341
#     4  12  23  38  60  84 108 140 185 236 284 336
#     4   9  17  33  56  78 110 150 189 227 274 340
#     4  12  24  40  60  85 114 146 185 237 292 339
#     4   9  17  30  52  82 110 146 192 237 279 334
#     4  10  19  33  56  84 115 153 195 237 285 338
#
# _framework density 19.191711999999999
#
# number of rings (size 3 to 8) (size 9 to 14) (size 15 to 20)
#    0.000    1.750    0.000    6.750    0.000    3.000 
#    0.000    6.250    0.000    2.250    0.000    0.000 
#    0.000    0.000    0.000    0.000    0.000    0.000 
#
# Total GULP energy -178496.506023 kJ/mol
# GULP energy per Si atom -5578.015813 kJ/mol
# Density = 1.914803 g / cm^3
# Si number density = 19.191712 Si / 1000 Ang^3
#
#
#
# Elastic Constant Matrix: (Units=GPa)
#
#
# Indices 1 2 3 4 5 6 
#
# 1 113.4226 22.1123 20.1286 0.0000 0.0000 0.0000
# 2 22.1123 66.9977 53.0544 0.0000 0.0000 0.0000
# 3 20.1286 53.0544 115.8522 0.0000 0.0000 0.0000
# 4 0.0000 0.0000 0.0000 14.0052 0.0000 0.0000
# 5 0.0000 0.0000 0.0000 0.0000 27.7325 0.0000
# 6 0.0000 0.0000 0.0000 0.0000 0.0000 0.5572
#
#
#
# Elastic Compliance Matrix: (Units=1/GPa)
#
#
# Indices 1 2 3 4 5 6 
#
# 1 0.009431 -0.002848 -0.000334 0.000000 0.000000 0.000000
# 2 -0.002848 0.024278 -0.010623 0.000000 0.000000 0.000000
# 3 -0.000334 -0.010623 0.013555 0.000000 0.000000 0.000000
# 4 0.000000 0.000000 0.000000 0.071402 0.000000 0.000000
# 5 0.000000 0.000000 0.000000 0.000000 0.036059 0.000000
# 6 0.000000 0.000000 0.000000 0.000000 0.000000 1.794572
#
#
# Mechanical properties :
#
#
# Convention : Reuss Voigt Hill
#
# Bulk Modulus (GPa) = 50.88339 54.09591 52.48965
# Shear Modulus (GPa) = 2.52085 21.85746 12.18916
#
# Velocity S-wave (km/s) = 1.14733 3.37842 2.52290
# Velocity P-wave (km/s) = 5.32221 6.59292 5.99135
#
# Compressibility (1/GPa) = 0.01965278
#
# Stress axis : x y z
#
# Youngs Moduli (GPa) = 106.03167 41.18893 73.77467
#
# Poissons Ratio (x) = 0.11730 0.02467
# Poissons Ratio (y) = 0.30197 0.78374
# Poissons Ratio (z) = 0.03546 0.43757
#
# Static dielectric constant tensor:
#      x y z
#    x 1.717630 0.000000 0.000000 
#    y 0.000000 1.688540 0.000000 
#    z 0.000000 0.000000 1.673560 
# 
# From -- ./inp_files/7821.got.cif
#   From: 2010.05.17/outbox.cif.g08.bks.cpg/sg17_4_cif.got.tgz:7821.got - 2010.06.03 22:34:06.
