data_PCOD9310370
_publ_section_title
;
Structure prediction by ZEFSAII (Michael W. Deem and Ramdas Pophale) SiO2 
 PCOD9310370
Probable space group: P 2 2 2
;
_chemical_formula_sum "Si O2"
_cell_formula_units_Z 24
_cell_length_a 8.136543
_cell_length_b 20.955964
_cell_length_c 6.487368
_cell_angle_alpha 90.000000
_cell_angle_beta 90.000000
_cell_angle_gamma 90.000000
_cell_volume 1106.155293
_symmetry_space_group_name_H-M "P 2 2 2"
_symmetry_group_IT_number 16
_symmetry_cell_setting 'orthorhombic'
loop_
_space_group_symop_operation_xyz
x,y,z
-x,-y,z
x,-y,-z
-x,y,-z
loop_
_atom_site_type_symbol
_atom_site_label
_atom_site_fract_x
_atom_site_fract_y
_atom_site_fract_z
Si Si1 0.000000 0.609483 0.500000
Si Si2 0.500000 0.000000 0.000000
Si Si3 0.353492 0.282851 0.139803
Si Si4 0.674805 0.059422 0.384221
Si Si5 0.888528 0.288935 0.179868
Si Si6 0.353758 0.584895 0.652099
Si Si7 0.700587 0.199325 0.501344
Si Si8 0.500000 0.500000 0.000000
O O1 0.021845 0.656473 0.305143
O O2 0.173968 0.576073 0.548748
O O3 0.619000 0.958559 0.848693
O O4 0.383886 0.339707 0.299036
O O5 0.266993 0.226490 0.269731
O O6 0.500000 0.254666 0.000000
O O7 0.251630 0.318413 0.962546
O O8 0.500000 0.064702 0.500000
O O9 0.750532 0.127906 0.435033
O O10 0.761003 0.000000 0.500000
O O11 0.798192 0.243435 0.341365
O O12 0.000000 0.258149 0.000000
O O13 0.500000 0.567493 0.500000
O O14 0.385171 0.544067 0.856606
O O15 0.500000 0.204975 0.500000
#
# Coordination Sequence:
#
# PCOD9310370 Si02
#       8
#     2   1   4   4   4   4   4   1
#     4  12  26  46  77 104 145 182 232 294 360 418
#     4   8  14  32  52  76 126 192 226 282 358 398
#     4  12  22  39  71 101 135 179 229 290 360 420
#     4   8  17  31  49  80 128 180 233 291 345 410
#     4  12  23  39  63 104 138 180 219 285 360 420
#     4  12  26  50  77 105 145 186 231 293 349 423
#     4  11  21  35  58 100 139 175 239 295 348 421
#     4  12  30  52  78 108 144 194 246 282 358 446
#
# _framework density 21.696773
#
# number of rings (size 3 to 8) (size 9 to 14) (size 15 to 20)
#    0.000    1.167    5.833    1.750    0.000    4.000 
#    1.500    2.500    0.000    0.000    0.000   16.333 
#    0.000    0.000    0.000    0.000    0.000    0.000 
#
# Total GULP energy -133698.281500 kJ/mol
# GULP energy per Si atom -5570.761729 kJ/mol
# Density = 2.164739 g / cm^3
# Si number density = 21.696773 Si / 1000 Ang^3
#
#
#
# Elastic Constant Matrix: (Units=GPa)
#
#
# Indices 1 2 3 4 5 6 
#
# 1 106.8880 31.4319 60.1843 0.0000 0.0000 0.0000
# 2 31.4319 123.6291 55.5658 0.0000 0.0000 0.0000
# 3 60.1843 55.5658 156.3580 0.0000 0.0000 0.0000
# 4 0.0000 0.0000 0.0000 4.6591 0.0000 0.0000
# 5 0.0000 0.0000 0.0000 0.0000 52.4804 0.0000
# 6 0.0000 0.0000 0.0000 0.0000 0.0000 36.8682
#
#
#
# Elastic Compliance Matrix: (Units=1/GPa)
#
#
# Indices 1 2 3 4 5 6 
#
# 1 0.012084 -0.001168 -0.004236 0.000000 0.000000 0.000000
# 2 -0.001168 0.009739 -0.003011 0.000000 0.000000 0.000000
# 3 -0.004236 -0.003011 0.009096 0.000000 0.000000 0.000000
# 4 0.000000 0.000000 0.000000 0.214632 0.000000 0.000000
# 5 0.000000 0.000000 0.000000 0.000000 0.019055 0.000000
# 6 0.000000 0.000000 0.000000 0.000000 0.000000 0.027124
#
#
# Mechanical properties :
#
#
# Convention : Reuss Voigt Hill
#
# Bulk Modulus (GPa) = 70.98231 75.69323 73.33777
# Shear Modulus (GPa) = 15.96129 34.78109 25.37119
#
# Velocity S-wave (km/s) = 2.71523 4.00816 3.42329
# Velocity P-wave (km/s) = 6.52814 7.50886 7.03561
#
# Compressibility (1/GPa) = 0.01408802
#
# Stress axis : x y z
#
# Youngs Moduli (GPa) = 82.75113 102.67743 109.93444
#
# Poissons Ratio (x) = 0.11997 0.46571
# Poissons Ratio (y) = 0.09669 0.33105
# Poissons Ratio (z) = 0.35055 0.30920
#
# Static dielectric constant tensor:
#      x y z
#    x 1.934580 0.000000 0.000000 
#    y 0.000000 1.835030 0.000000 
#    z 0.000000 0.000000 1.824810 
# 
# From -- ./inp_files/1001.got.cif
#   From: 2010.05.17/outbox.cif.g08.bks.cpg/sg16_1_cif.got.tgz:1001.got - 2010.06.03 22:28:35.
