data_PCOD9310457
_publ_section_title
;
Structure prediction by ZEFSAII (Michael W. Deem and Ramdas Pophale) SiO2 
 PCOD9310457
Probable space group: P 2 2 21
;
_chemical_formula_sum "Si O2"
_cell_formula_units_Z 30
_cell_length_a 8.270191
_cell_length_b 7.661150
_cell_length_c 22.163608
_cell_angle_alpha 90.000000
_cell_angle_beta 90.000000
_cell_angle_gamma 90.000000
_cell_volume 1404.267891
_symmetry_space_group_name_H-M "P 2 2 21"
_symmetry_group_IT_number 17
_symmetry_cell_setting 'orthorhombic'
loop_
_space_group_symop_operation_xyz
x,y,z
-x,-y,1/2+z
x,-y,-z
-x,y,1/2-z
loop_
_atom_site_type_symbol
_atom_site_label
_atom_site_fract_x
_atom_site_fract_y
_atom_site_fract_z
Si Si1 0.966846 0.848464 0.452514
Si Si2 0.617814 0.962951 0.435839
Si Si3 0.943193 0.329477 0.186013
Si Si4 0.572861 0.350330 0.184973
Si Si5 0.073170 0.908227 0.314745
Si Si6 0.565005 0.923768 0.184007
Si Si7 0.089722 0.500000 0.000000
Si Si8 0.269223 0.656704 0.891592
O O1 0.018331 0.663156 0.479228
O O2 0.002093 0.867314 0.381156
O O3 0.021546 0.000000 0.500000
O O4 0.772164 0.851068 0.454903
O O5 0.692911 0.143537 0.409949
O O6 0.527291 0.000000 0.500000
O O7 0.526057 0.881977 0.378509
O O8 0.760925 0.396900 0.172303
O O9 0.000000 0.401138 0.250000
O O10 0.104179 0.353811 0.146945
O O11 0.926479 0.119217 0.189296
O O12 0.500000 0.403005 0.250000
O O13 0.434182 0.409158 0.138733
O O14 0.569995 0.136928 0.184542
O O15 0.256692 0.848485 0.318359
O O16 0.000000 0.848229 0.250000
O O17 0.500000 0.872641 0.250000
O O18 0.211471 0.448118 0.051936
#
# Coordination Sequence:
#
# PCOD9310457 Si02
#       8
#     4   4   4   4   4   4   2   4
#     4  11  21  40  65  90 127 165 216 258 311 392
#     4  10  18  35  58  84 120 160 207 252 302 377
#     4  10  17  30  59  95 127 164 208 260 322 386
#     4   9  17  30  54  92 126 157 208 260 309 386
#     4  10  19  32  58  94 128 163 209 267 322 375
#     4   9  18  29  53  92 125 158 205 259 315 373
#     4  12  24  40  66  90 120 178 212 260 322 382
#     4  11  20  36  59  89 123 166 210 255 320 372
#
# _framework density 21.363444999999999
#
# number of rings (size 3 to 8) (size 9 to 14) (size 15 to 20)
#    0.000    1.867    5.333    0.800    3.733    0.533 
#    0.000    2.667    2.933    1.600    0.000    0.000 
#    0.000    0.000    0.000    0.000    0.000    0.000 
#
# Total GULP energy -167038.917535 kJ/mol
# GULP energy per Si atom -5567.963918 kJ/mol
# Density = 2.131482 g / cm^3
# Si number density = 21.363445 Si / 1000 Ang^3
#
#
#
# Elastic Constant Matrix: (Units=GPa)
#
#
# Indices 1 2 3 4 5 6 
#
# 1 133.3763 12.4638 75.0078 0.0000 0.0000 0.0000
# 2 12.4638 58.8593 28.1341 0.0000 0.0000 0.0000
# 3 75.0078 28.1341 183.2830 0.0000 0.0000 0.0000
# 4 0.0000 0.0000 0.0000 115.8293 0.0000 0.0000
# 5 0.0000 0.0000 0.0000 0.0000 48.4938 0.0000
# 6 0.0000 0.0000 0.0000 0.0000 0.0000 84.1785
#
#
#
# Elastic Compliance Matrix: (Units=1/GPa)
#
#
# Indices 1 2 3 4 5 6 
#
# 1 0.009741 -0.000170 -0.003960 0.000000 0.000000 0.000000
# 2 -0.000170 0.018338 -0.002745 0.000000 0.000000 0.000000
# 3 -0.003960 -0.002745 0.007498 0.000000 0.000000 0.000000
# 4 0.000000 0.000000 0.000000 0.008633 0.000000 0.000000
# 5 0.000000 0.000000 0.000000 0.000000 0.020621 0.000000
# 6 0.000000 0.000000 0.000000 0.000000 0.000000 0.011880
#
#
# Mechanical properties :
#
#
# Convention : Reuss Voigt Hill
#
# Bulk Modulus (GPa) = 45.81704 67.41444 56.61574
# Shear Modulus (GPa) = 51.15778 67.02784 59.09281
#
# Velocity S-wave (km/s) = 4.89882 5.60742 5.26505
# Velocity P-wave (km/s) = 7.31375 8.57605 7.96993
#
# Compressibility (1/GPa) = 0.02182594
#
# Stress axis : x y z
#
# Youngs Moduli (GPa) = 102.66304 54.53189 133.36550
#
# Poissons Ratio (x) = 0.00925 0.52816
# Poissons Ratio (y) = 0.01742 0.36615
# Poissons Ratio (z) = 0.40657 0.14971
#
# Static dielectric constant tensor:
#      x y z
#    x 1.631000 0.000000 0.000000 
#    y 0.000000 1.829280 0.000000 
#    z 0.000000 0.000000 1.735210 
# 
# From -- ./inp_files/10118.got.cif
#   From: 2010.05.17/outbox.cif.g08.bks.cpg/sg17_6_cif.got.tgz:10118.got - 2010.06.03 22:34:06.
