data_PCOD9310042
_publ_section_title
;
Structure prediction by ZEFSAII (Michael W. Deem and Ramdas Pophale) SiO2 
 PCOD9310042
Probable space group: P 2 2 2
;
_chemical_formula_sum "Si O2"
_cell_formula_units_Z 25
_cell_length_a 9.702985
_cell_length_b 5.161967
_cell_length_c 25.073089
_cell_angle_alpha 90.000000
_cell_angle_beta 90.000000
_cell_angle_gamma 90.000000
_cell_volume 1255.822981
_symmetry_space_group_name_H-M "P 2 2 2"
_symmetry_group_IT_number 16
_symmetry_cell_setting 'orthorhombic'
loop_
_space_group_symop_operation_xyz
x,y,z
-x,-y,z
x,-y,-z
-x,y,-z
loop_
_atom_site_type_symbol
_atom_site_label
_atom_site_fract_x
_atom_site_fract_y
_atom_site_fract_z
Si Si1 0.000000 0.000000 0.000000
Si Si2 0.220541 0.862298 0.913561
Si Si3 0.166390 0.499150 0.629140
Si Si4 0.356526 0.382975 0.940455
Si Si5 0.661096 0.025112 0.192880
Si Si6 0.832623 0.999968 0.560974
Si Si7 0.341419 0.474693 0.264757
O O1 0.900758 0.137945 0.957231
O O2 0.250905 0.557615 0.907650
O O3 0.227777 0.972918 0.853673
O O4 0.328873 0.077734 0.938568
O O5 0.206999 0.253008 0.593769
O O6 0.239112 0.493156 0.686109
O O7 0.000000 0.500000 0.635636
O O8 0.207130 0.750825 0.595191
O O9 0.500000 0.500000 0.920143
O O10 0.344823 0.500000 0.000000
O O11 0.675711 0.803158 0.237089
O O12 0.500000 0.000000 0.172568
O O13 0.677645 0.302604 0.220274
O O14 0.782573 0.000000 0.500000
O O15 0.000000 0.000000 0.558308
O O16 0.500000 0.500000 0.283365
#
# Coordination Sequence:
#
# PCOD9310042 Si02
#       7
#     1   4   4   4   4   4   4
#     4  12  28  46  58  86 128 162 180 216 290 390
#     4  12  24  42  61  86 118 151 184 226 288 357
#     4  10  19  33  55  83 114 152 196 242 287 342
#     4  11  21  37  62  87 106 134 182 235 272 319
#     4  10  21  39  62  85 107 140 191 242 282 334
#     4   9  17  30  52  83 118 156 199 243 283 329
#     4  10  21  39  60  85 115 149 193 242 296 341
#
# _framework density 19.907263
#
# number of rings (size 3 to 8) (size 9 to 14) (size 15 to 20)
#    0.000    1.600    1.600    3.840    0.000    5.760 
#    2.880    0.000    0.000    2.880    0.000    0.000 
#    0.000    0.000    0.000    0.000    0.000    0.000 
#
# Total GULP energy -139292.695870 kJ/mol
# GULP energy per Si atom -5571.707835 kJ/mol
# Density = 1.986195 g / cm^3
# Si number density = 19.907263 Si / 1000 Ang^3
#
#
#
# Elastic Constant Matrix: (Units=GPa)
#
#
# Indices 1 2 3 4 5 6 
#
# 1 47.2692 12.6930 36.4420 0.0000 0.0000 0.0000
# 2 12.6930 98.1201 17.4724 0.0000 0.0000 0.0000
# 3 36.4420 17.4724 108.8043 0.0000 0.0000 0.0000
# 4 0.0000 0.0000 0.0000 21.2796 0.0000 0.0000
# 5 0.0000 0.0000 0.0000 0.0000 -16.0869 0.0000
# 6 0.0000 0.0000 0.0000 0.0000 0.0000 -1.9531
#
#
#
# Elastic Compliance Matrix: (Units=1/GPa)
#
#
# Indices 1 2 3 4 5 6 
#
# 1 0.028925 -0.002076 -0.009354 0.000000 0.000000 0.000000
# 2 -0.002076 0.010641 -0.001013 0.000000 0.000000 0.000000
# 3 -0.009354 -0.001013 0.012487 0.000000 0.000000 0.000000
# 4 0.000000 0.000000 0.000000 0.046993 0.000000 0.000000
# 5 0.000000 0.000000 0.000000 0.000000 -0.062162 0.000000
# 6 0.000000 0.000000 0.000000 0.000000 0.000000 -0.512019
#
#
# Mechanical properties :
#
#
# Convention : Reuss Voigt Hill
#
# Bulk Modulus (GPa) = 36.81306 43.04537 39.92921
# Shear Modulus (GPa) = -11.33290 13.15368 0.91039
#
# Velocity S-wave (km/s) = -2.38856 2.57329 0.67699
# Velocity P-wave (km/s) = 3.30537 5.52259 4.55107
#
# Compressibility (1/GPa) = 0.02716427
#
# Stress axis : x y z
#
# Youngs Moduli (GPa) = 34.57261 93.97961 80.08569
#
# Poissons Ratio (x) = 0.19510 0.74915
# Poissons Ratio (y) = 0.07177 0.08116
# Poissons Ratio (z) = 0.32341 0.09524
#
# Static dielectric constant tensor:
#      x y z
#    x 1.928760 0.000000 0.000000 
#    y 0.000000 1.686790 0.000000 
#    z 0.000000 0.000000 1.698270 
# 
# From -- ./inp_files/9541.got.cif
#   From: 2010.05.17/outbox.cif.g08.bks.cpg/sg16_5_cif.got.tgz:9541.got - 2010.06.03 22:28:35.
