data_PCOD9310576
_publ_section_title
;
Structure prediction by ZEFSAII (Michael W. Deem and Ramdas Pophale) SiO2 
 PCOD9310576
Probable space group: P 2 2 21
;
_chemical_formula_sum "Si O2"
_cell_formula_units_Z 24
_cell_length_a 17.119689
_cell_length_b 17.119745
_cell_length_c 5.046184
_cell_angle_alpha 90.000000
_cell_angle_beta 90.000000
_cell_angle_gamma 90.000000
_cell_volume 1478.959375
_symmetry_space_group_name_H-M "P 2 2 21"
_symmetry_group_IT_number 17
_symmetry_cell_setting 'orthorhombic'
loop_
_space_group_symop_operation_xyz
x,y,z
-x,-y,1/2+z
x,-y,-z
-x,y,1/2-z
loop_
_atom_site_type_symbol
_atom_site_label
_atom_site_fract_x
_atom_site_fract_y
_atom_site_fract_z
Si Si1 0.909932 0.056104 0.249334
Si Si2 0.845053 0.783867 0.887363
Si Si3 0.443896 0.590067 0.500666
Si Si4 0.916429 0.288234 0.615419
Si Si5 0.211767 0.416429 0.865420
Si Si6 0.716132 0.654947 0.862638
O O1 0.850589 0.127450 0.209936
O O2 0.000000 0.087502 0.250000
O O3 0.898294 0.000000 0.500000
O O4 0.904540 0.000000 0.000000
O O5 0.904819 0.740112 0.685431
O O6 0.763290 0.736710 0.874999
O O7 0.873874 0.773838 0.188886
O O8 0.412497 0.500000 0.500000
O O9 0.500000 0.595458 0.750000
O O10 0.372552 0.649412 0.540065
O O11 0.500000 0.601706 0.250000
O O12 0.868514 0.368515 0.624999
O O13 0.000000 0.297515 0.750000
O O14 0.240113 0.404818 0.564572
O O15 0.202486 0.500000 0.000000
O O16 0.273840 0.373874 0.061115
#
# Coordination Sequence:
#
# PCOD9310576 Si02
#       6
#     4   4   4   4   4   4
#     4  10  19  30  47  71  96 122 153 193 238 282
#     4  10  20  33  49  67  92 125 158 192 235 289
#     4  10  19  30  47  71  96 122 153 193 238 282
#     4  10  19  31  46  64  87 121 161 199 237 273
#     4  10  19  31  46  64  87 121 161 199 237 273
#     4  10  20  33  49  67  92 125 158 192 235 289
#
# _framework density 16.227626000000001
#
# number of rings (size 3 to 8) (size 9 to 14) (size 15 to 20)
#    0.000    2.000    0.000    5.000    0.000    2.667 
#    0.000    5.000    0.000    0.000    0.000    0.000 
#    0.000    2.667    0.000    0.000    0.000    0.000 
#
# Total GULP energy -133726.536680 kJ/mol
# GULP energy per Si atom -5571.939028 kJ/mol
# Density = 1.619069 g / cm^3
# Si number density = 16.227626 Si / 1000 Ang^3
#
#
#
# Elastic Constant Matrix: (Units=GPa)
#
#
# Indices 1 2 3 4 5 6 
#
# 1 84.5695 44.5029 16.4494 0.0000 0.0000 0.0000
# 2 44.5029 84.5711 16.4500 0.0000 0.0000 0.0000
# 3 16.4494 16.4500 91.9586 0.0000 0.0000 0.0000
# 4 0.0000 0.0000 0.0000 7.7084 0.0000 0.0000
# 5 0.0000 0.0000 0.0000 0.0000 7.7076 0.0000
# 6 0.0000 0.0000 0.0000 0.0000 0.0000 19.6330
#
#
#
# Elastic Compliance Matrix: (Units=1/GPa)
#
#
# Indices 1 2 3 4 5 6 
#
# 1 0.016538 -0.008420 -0.001452 0.000000 0.000000 0.000000
# 2 -0.008420 0.016538 -0.001452 0.000000 0.000000 0.000000
# 3 -0.001452 -0.001452 0.011394 0.000000 0.000000 0.000000
# 4 0.000000 0.000000 0.000000 0.129728 0.000000 0.000000
# 5 0.000000 0.000000 0.000000 0.000000 0.129741 0.000000
# 6 0.000000 0.000000 0.000000 0.000000 0.000000 0.050935
#
#
# Mechanical properties :
#
#
# Convention : Reuss Voigt Hill
#
# Bulk Modulus (GPa) = 45.82761 46.21152 46.01956
# Shear Modulus (GPa) = 12.99390 19.25627 16.12508
#
# Velocity S-wave (km/s) = 2.83278 3.44849 3.15569
# Velocity P-wave (km/s) = 6.24510 6.66296 6.45741
#
# Compressibility (1/GPa) = 0.02182090
#
# Stress axis : x y z
#
# Youngs Moduli (GPa) = 60.46703 60.46801 87.76577
#
# Poissons Ratio (x) = 0.50915 0.12744
# Poissons Ratio (y) = 0.50914 0.12745
# Poissons Ratio (z) = 0.08780 0.08781
#
# Static dielectric constant tensor:
#      x y z
#    x 1.541670 0.000000 0.000000 
#    y 0.000000 1.541660 0.000000 
#    z 0.000000 0.000000 1.547790 
# 
# From -- ./inp_files/2186.got.cif
#   From: 2010.05.17/outbox.cif.g08.bks.cpg/sg17_2_cif.got.tgz:2186.got - 2010.06.03 22:34:06.
