data_PCOD9310989
_publ_section_title
;
Structure prediction by ZEFSAII (Michael W. Deem and Ramdas Pophale) SiO2 
 PCOD9310989
Probable space group: P 2 2 21
;
_chemical_formula_sum "Si O2"
_cell_formula_units_Z 24
_cell_length_a 27.517261
_cell_length_b 5.366426
_cell_length_c 7.094055
_cell_angle_alpha 90.000000
_cell_angle_beta 90.000000
_cell_angle_gamma 90.000000
_cell_volume 1047.574454
_symmetry_space_group_name_H-M "P 2 2 21"
_symmetry_group_IT_number 17
_symmetry_cell_setting 'orthorhombic'
loop_
_space_group_symop_operation_xyz
x,y,z
-x,-y,1/2+z
x,-y,-z
-x,y,1/2-z
loop_
_atom_site_type_symbol
_atom_site_label
_atom_site_fract_x
_atom_site_fract_y
_atom_site_fract_z
Si Si1 0.190998 0.250339 0.125550
Si Si2 0.094888 0.936373 0.715346
Si Si3 0.944823 0.439930 0.778630
Si Si4 0.599483 0.752089 0.795907
Si Si5 0.300405 0.748408 0.872420
Si Si6 0.557412 0.251885 0.777633
O O1 0.147848 0.191008 0.270616
O O2 0.245560 0.268682 0.206611
O O3 0.183046 0.500000 0.000000
O O4 0.191036 0.000000 0.000000
O O5 0.061540 0.719040 0.803628
O O6 0.081598 0.000000 0.500000
O O7 0.089461 0.216523 0.796469
O O8 0.000000 0.355570 0.750000
O O9 0.935481 0.500000 0.000000
O O10 0.657528 0.755370 0.784032
O O11 0.580086 0.503455 0.701153
O O12 0.579283 0.998662 0.700619
O O13 0.575726 0.750162 0.004138
O O14 0.307296 0.500000 0.000000
O O15 0.304125 0.000000 0.000000
O O16 0.500000 0.254446 0.750000
#
# Coordination Sequence:
#
# PCOD9310989 Si02
#       6
#     4   4   4   4   4   4
#     4  10  21  38  63  88 118 156 203 256 305 372
#     4  10  21  38  57  86 122 158 201 260 316 366
#     4  10  21  36  56  82 122 162 206 253 310 368
#     4  10  21  40  60  84 116 154 192 237 294 349
#     4  10  21  40  61  88 120 155 195 246 306 356
#     4  10  21  40  60  83 117 148 192 241 285 342
#
# _framework density 22.910063999999998
#
# number of rings (size 3 to 8) (size 9 to 14) (size 15 to 20)
#    0.000    2.000    0.000    3.000    0.000    2.000 
#   21.000    0.000    7.333    0.000    0.000    0.000 
#    0.000    0.000    0.000    0.000    0.000    0.000 
#
# Total GULP energy -133864.529235 kJ/mol
# GULP energy per Si atom -5577.688718 kJ/mol
# Density = 2.285792 g / cm^3
# Si number density = 22.910064 Si / 1000 Ang^3
#
#
#
# Elastic Constant Matrix: (Units=GPa)
#
#
# Indices 1 2 3 4 5 6 
#
# 1 161.7538 52.0286 4.0189 0.0000 0.0000 0.0000
# 2 52.0286 239.8137 14.7599 0.0000 0.0000 0.0000
# 3 4.0189 14.7599 77.9572 0.0000 0.0000 0.0000
# 4 0.0000 0.0000 0.0000 -16.9013 0.0000 0.0000
# 5 0.0000 0.0000 0.0000 0.0000 35.9410 0.0000
# 6 0.0000 0.0000 0.0000 0.0000 0.0000 40.0721
#
#
#
# Elastic Compliance Matrix: (Units=1/GPa)
#
#
# Indices 1 2 3 4 5 6 
#
# 1 0.006646 -0.001438 -0.000070 0.000000 0.000000 0.000000
# 2 -0.001438 0.004530 -0.000784 0.000000 0.000000 0.000000
# 3 -0.000070 -0.000784 0.012980 0.000000 0.000000 0.000000
# 4 0.000000 0.000000 0.000000 -0.059167 0.000000 0.000000
# 5 0.000000 0.000000 0.000000 0.000000 0.027823 0.000000
# 6 0.000000 0.000000 0.000000 0.000000 0.000000 0.024955
#
#
# Mechanical properties :
#
#
# Convention : Reuss Voigt Hill
#
# Bulk Modulus (GPa) = 51.09164 69.01549 60.05356
# Shear Modulus (GPa) = 173.16011 39.07016 106.11514
#
# Velocity S-wave (km/s) = 8.70325 4.13409 6.81313
# Velocity P-wave (km/s) = 11.10607 7.27857 9.38942
#
# Compressibility (1/GPa) = 0.01957267
#
# Stress axis : x y z
#
# Youngs Moduli (GPa) = 150.45728 220.74906 77.04437
#
# Poissons Ratio (x) = 0.31736 0.00543
# Poissons Ratio (y) = 0.21630 0.06037
# Poissons Ratio (z) = 0.01060 0.17297
#
# Static dielectric constant tensor:
#      x y z
#    x 1.849150 0.000000 0.000000 
#    y 0.000000 1.926630 0.000000 
#    z 0.000000 0.000000 1.830610 
# 
# From -- ./inp_files/5549.got.cif
#   From: 2010.05.17/outbox.cif.g08.bks.cpg/sg17_3_cif.got.tgz:5549.got - 2010.06.03 22:34:06.
