data_PCOD9310962
_publ_section_title
;
Structure prediction by ZEFSAII (Michael W. Deem and Ramdas Pophale) SiO2 
 PCOD9310962
Probable space group: P 2 2 21
;
_chemical_formula_sum "Si O2"
_cell_formula_units_Z 14
_cell_length_a 7.601046
_cell_length_b 5.624307
_cell_length_c 11.136235
_cell_angle_alpha 90.000000
_cell_angle_beta 90.000000
_cell_angle_gamma 90.000000
_cell_volume 476.080909
_symmetry_space_group_name_H-M "P 2 2 21"
_symmetry_group_IT_number 17
_symmetry_cell_setting 'orthorhombic'
loop_
_space_group_symop_operation_xyz
x,y,z
-x,-y,1/2+z
x,-y,-z
-x,y,1/2-z
loop_
_atom_site_type_symbol
_atom_site_label
_atom_site_fract_x
_atom_site_fract_y
_atom_site_fract_z
Si Si1 0.500000 0.952787 0.250000
Si Si2 0.735349 0.609050 0.352188
Si Si3 0.000000 0.224499 0.250000
Si Si4 0.604033 0.500000 0.000000
Si Si5 0.356459 0.000000 0.500000
Si Si6 0.069118 0.000000 0.000000
O O1 0.686054 0.819469 0.261795
O O2 0.478997 0.050747 0.383747
O O3 0.539638 0.530878 0.393306
O O4 0.827313 0.755506 0.461211
O O5 0.839790 0.403838 0.283571
O O6 0.980495 0.070115 0.128118
O O7 0.721391 0.264547 0.991180
#
# Coordination Sequence:
#
# PCOD9310962 Si02
#       6
#     2   4   2   2   2   2
#     4  10  24  46  80 110 150 202 254 324 398 468
#     4  11  23  46  77 112 149 203 259 324 393 468
#     4  12  26  46  86 106 160 210 268 324 406 472
#     4  10  20  42  78 100 148 200 246 308 388 460
#     4  10  23  42  73 112 151 198 251 306 397 464
#     4  12  25  50  81 112 155 212 267 328 397 482
#
# _framework density 29.406766000000001
#
# number of rings (size 3 to 8) (size 9 to 14) (size 15 to 20)
#    0.000    1.143    2.857    4.286    0.000    4.571 
#    0.000    8.571   25.143    1.714    0.000    0.000 
#    0.000    0.000    0.000    0.000    0.000    0.000 
#
# Total GULP energy -78113.203373 kJ/mol
# GULP energy per Si atom -5579.514527 kJ/mol
# Density = 2.933983 g / cm^3
# Si number density = 29.406766 Si / 1000 Ang^3
#
#
#
# Elastic Constant Matrix: (Units=GPa)
#
#
# Indices 1 2 3 4 5 6 
#
# 1 92.1207 28.8055 45.0468 0.0000 0.0000 0.0000
# 2 28.8055 214.4825 33.8584 0.0000 0.0000 0.0000
# 3 45.0468 33.8584 246.3026 0.0000 0.0000 0.0000
# 4 0.0000 0.0000 0.0000 50.8101 0.0000 0.0000
# 5 0.0000 0.0000 0.0000 0.0000 64.2107 0.0000
# 6 0.0000 0.0000 0.0000 0.0000 0.0000-3338.9018
#
#
#
# Elastic Compliance Matrix: (Units=1/GPa)
#
#
# Indices 1 2 3 4 5 6 
#
# 1 0.012278 -0.001323 -0.002064 0.000000 0.000000 0.000000
# 2 -0.001323 0.004908 -0.000433 0.000000 0.000000 0.000000
# 3 -0.002064 -0.000433 0.004497 0.000000 0.000000 0.000000
# 4 0.000000 0.000000 0.000000 0.019681 0.000000 0.000000
# 5 0.000000 0.000000 0.000000 0.000000 0.015574 0.000000
# 6 0.000000 0.000000 0.000000 0.000000 0.000000 -0.000299
#
#
# Mechanical properties :
#
#
# Convention : Reuss Voigt Hill
#
# Bulk Modulus (GPa) = 71.20321 85.36967 78.28644
# Shear Modulus (GPa) = 72.50612 -615.09654 -271.29521
#
# Velocity S-wave (km/s) = 4.97090 -14.47834 -9.61542
# Velocity P-wave (km/s) = 7.56387 15.82413 9.82830
#
# Compressibility (1/GPa) = 0.01404431
#
# Stress axis : x y z
#
# Youngs Moduli (GPa) = 81.44500 203.73204 222.37212
#
# Poissons Ratio (x) = 0.26958 0.45891
# Poissons Ratio (y) = 0.10777 0.09623
# Poissons Ratio (z) = 0.16808 0.08816
#
# Static dielectric constant tensor:
#      x y z
#    x 2.282060 0.000000 0.000000 
#    y 0.000000 2.514000 0.000000 
#    z 0.000000 0.000000 7.195090 
# 
# From -- ./inp_files/5700.got.cif
#   From: 2010.05.17/outbox.cif.g08.bks.cpg/sg17_3_cif.got.tgz:5700.got - 2010.06.03 22:34:06.
