data_PCOD9310595
_publ_section_title
;
Structure prediction by ZEFSAII (Michael W. Deem and Ramdas Pophale) SiO2 
 PCOD9310595
Probable space group: P 2 2 21
;
_chemical_formula_sum "Si O2"
_cell_formula_units_Z 24
_cell_length_a 27.993052
_cell_length_b 7.393815
_cell_length_c 5.258415
_cell_angle_alpha 90.000000
_cell_angle_beta 90.000000
_cell_angle_gamma 90.000000
_cell_volume 1088.362799
_symmetry_space_group_name_H-M "P 2 2 21"
_symmetry_group_IT_number 17
_symmetry_cell_setting 'orthorhombic'
loop_
_space_group_symop_operation_xyz
x,y,z
-x,-y,1/2+z
x,-y,-z
-x,y,1/2-z
loop_
_atom_site_type_symbol
_atom_site_label
_atom_site_fract_x
_atom_site_fract_y
_atom_site_fract_z
Si Si1 0.361159 0.784142 0.494976
Si Si2 0.852243 0.784987 0.031109
Si Si3 0.473592 0.716686 0.497843
Si Si4 0.692046 0.778929 0.509721
Si Si5 0.801317 0.220894 0.476727
Si Si6 0.051769 0.374805 0.746377
O O1 0.417409 0.751697 0.478538
O O2 0.330131 0.716678 0.256969
O O3 0.354355 0.000000 0.500000
O O4 0.341253 0.715333 0.761684
O O5 0.815719 0.714527 0.243201
O O6 0.903013 0.743893 0.164096
O O7 0.837249 0.718091 0.749226
O O8 0.848586 0.000000 0.000000
O O9 0.479216 0.500000 0.500000
O O10 0.500000 0.789006 0.250000
O O11 0.500000 0.785391 0.750000
O O12 0.746593 0.728210 0.568995
O O13 0.691755 0.000000 0.500000
O O14 0.803682 0.000000 0.500000
O O15 0.046640 0.500000 0.500000
O O16 0.000000 0.276528 0.750000
O O17 0.058872 0.500000 0.000000
#
# Coordination Sequence:
#
# PCOD9310595 Si02
#       6
#     4   4   4   4   4   4
#     4  10  19  31  51  76 100 128 165 207 248 293
#     4  10  19  33  55  83 107 136 180 228 268 307
#     4  10  21  36  52  70  95 130 166 201 249 304
#     4   9  17  30  49  76 105 133 164 202 252 309
#     4   9  17  30  51  78 109 138 169 212 264 317
#     4  10  21  38  57  77 107 149 187 220 273 340
#
# _framework density 22.051470999999999
#
# number of rings (size 3 to 8) (size 9 to 14) (size 15 to 20)
#    0.000    2.333    0.000    3.000    0.000    4.667 
#    0.000    5.000    0.000   10.000    0.000    0.000 
#    0.000    0.000    0.000    0.000    0.000    0.000 
#
# Total GULP energy -133900.415272 kJ/mol
# GULP energy per Si atom -5579.183970 kJ/mol
# Density = 2.200128 g / cm^3
# Si number density = 22.051471 Si / 1000 Ang^3
#
#
#
# Elastic Constant Matrix: (Units=GPa)
#
#
# Indices 1 2 3 4 5 6 
#
# 1 136.3546 -7.0391 70.4719 0.0000 0.0000 0.0000
# 2 -7.0391 56.0172 11.0426 0.0000 0.0000 0.0000
# 3 70.4719 11.0426 190.2414 0.0000 0.0000 0.0000
# 4 0.0000 0.0000 0.0000 -7.5911 0.0000 0.0000
# 5 0.0000 0.0000 0.0000 0.0000 42.6210 0.0000
# 6 0.0000 0.0000 0.0000 0.0000 0.0000 26.8282
#
#
#
# Elastic Compliance Matrix: (Units=1/GPa)
#
#
# Indices 1 2 3 4 5 6 
#
# 1 0.009258 0.001861 -0.003538 0.000000 0.000000 0.000000
# 2 0.001861 0.018432 -0.001759 0.000000 0.000000 0.000000
# 3 -0.003538 -0.001759 0.006669 0.000000 0.000000 0.000000
# 4 0.000000 0.000000 0.000000 -0.131733 0.000000 0.000000
# 5 0.000000 0.000000 0.000000 0.000000 0.023463 0.000000
# 6 0.000000 0.000000 0.000000 0.000000 0.000000 0.037274
#
#
# Mechanical properties :
#
#
# Convention : Reuss Voigt Hill
#
# Bulk Modulus (GPa) = 36.38025 59.06268 47.72147
# Shear Modulus (GPa) = -242.69294 32.91413 -104.88941
#
# Velocity S-wave (km/s) = -10.50221 3.86762 -6.90427
# Velocity P-wave (km/s) = 11.42489 6.84008 6.47076
#
# Compressibility (1/GPa) = 0.02748744
#
# Stress axis : x y z
#
# Youngs Moduli (GPa) = 108.01259 54.25274 149.94703
#
# Poissons Ratio (x) = -0.10095 0.53045
# Poissons Ratio (y) = -0.20098 0.26378
# Poissons Ratio (z) = 0.38210 0.09544
#
# Static dielectric constant tensor:
#      x y z
#    x 1.849760 0.000000 0.000000 
#    y 0.000000 1.838530 0.000000 
#    z 0.000000 0.000000 1.790600 
# 
# From -- ./inp_files/3058.got.cif
#   From: 2010.05.17/outbox.cif.g08.bks.cpg/sg17_2_cif.got.tgz:3058.got - 2010.06.03 22:34:06.
