data_PCOD9310581
_publ_section_title
;
Structure prediction by ZEFSAII (Michael W. Deem and Ramdas Pophale) SiO2 
 PCOD9310581
Probable space group: P 2 2 21
;
_chemical_formula_sum "Si O2"
_cell_formula_units_Z 32
_cell_length_a 14.292286
_cell_length_b 5.754466
_cell_length_c 13.758706
_cell_angle_alpha 90.000000
_cell_angle_beta 90.000000
_cell_angle_gamma 90.000000
_cell_volume 1131.577536
_symmetry_space_group_name_H-M "P 2 2 21"
_symmetry_group_IT_number 17
_symmetry_cell_setting 'orthorhombic'
loop_
_space_group_symop_operation_xyz
x,y,z
-x,-y,1/2+z
x,-y,-z
-x,y,1/2-z
loop_
_atom_site_type_symbol
_atom_site_label
_atom_site_fract_x
_atom_site_fract_y
_atom_site_fract_z
Si Si1 0.495660 0.074201 0.637592
Si Si2 0.235395 0.873053 0.132247
Si Si3 0.989557 0.129249 0.633513
Si Si4 0.477863 0.573349 0.604342
Si Si5 0.730630 0.613830 0.846586
Si Si6 0.775320 0.373046 0.379729
Si Si7 0.994135 0.370329 0.368816
Si Si8 0.277028 0.114539 0.635039
O O1 0.500000 0.014187 0.750000
O O2 0.534290 0.339746 0.633166
O O3 0.386976 0.105301 0.611021
O O4 0.525507 0.826403 0.591510
O O5 0.122717 0.873014 0.120313
O O6 0.264003 0.623418 0.089846
O O7 0.262864 0.878945 0.246892
O O8 0.266662 0.123450 0.093043
O O9 0.029374 0.376302 0.599218
O O10 0.000000 0.129792 0.750000
O O11 0.030125 0.882648 0.599431
O O12 0.440841 0.500000 0.500000
O O13 0.383298 0.607862 0.666923
O O14 0.772074 0.619701 0.738409
O O15 0.757292 0.369364 0.894783
O O16 0.756508 0.858657 0.895705
O O17 0.885666 0.367818 0.400725
O O18 0.000000 0.370566 0.250000
#
# Coordination Sequence:
#
# PCOD9310581 Si02
#       8
#     4   4   4   4   4   4   4   4
#     4  10  19  31  46  64  85 109 138 175 211 252
#     4   8  12  18  27  39  56  79 108 143 174 209
#     4   8  12  16  22  33  50  73 102 137 168 201
#     4  10  19  31  46  64  85 109 138 175 215 256
#     4   8  14  23  35  50  68  91 120 155 193 231
#     4   8  12  18  27  39  56  79 108 143 179 214
#     4   8  12  16  22  33  50  73 102 137 172 205
#     4   8  14  23  35  50  68  91 120 155 190 226
#
# _framework density 28.279104
#
# number of rings (size 3 to 8) (size 9 to 14) (size 15 to 20)
#    0.000    3.500    0.000    0.750    0.000    0.000 
#    0.000    0.000    0.000    0.000    0.000    0.000 
#    0.000    0.000    0.000    0.000    0.000    0.000 
#
# Total GULP energy -178643.101909 kJ/mol
# GULP energy per Si atom -5582.596935 kJ/mol
# Density = 2.821474 g / cm^3
# Si number density = 28.279104 Si / 1000 Ang^3
#
#
#
# Elastic Constant Matrix: (Units=GPa)
#
#
# Indices 1 2 3 4 5 6 
#
# 1 135.8869 23.6170 3.2604 0.0000 0.0000 0.0000
# 2 23.6170 463.5530 48.5057 0.0000 0.0000 0.0000
# 3 3.2604 48.5057 80.8939 0.0000 0.0000 0.0000
# 4 0.0000 0.0000 0.0000 59.5736 0.0000 0.0000
# 5 0.0000 0.0000 0.0000 0.0000 5.7284 0.0000
# 6 0.0000 0.0000 0.0000 0.0000 0.0000 6.4922
#
#
#
# Elastic Compliance Matrix: (Units=1/GPa)
#
#
# Indices 1 2 3 4 5 6 
#
# 1 0.007425 -0.000370 -0.000077 0.000000 0.000000 0.000000
# 2 -0.000370 0.002320 -0.001376 0.000000 0.000000 0.000000
# 3 -0.000077 -0.001376 0.013190 0.000000 0.000000 0.000000
# 4 0.000000 0.000000 0.000000 0.016786 0.000000 0.000000
# 5 0.000000 0.000000 0.000000 0.000000 0.174567 0.000000
# 6 0.000000 0.000000 0.000000 0.000000 0.000000 0.154032
#
#
# Mechanical properties :
#
#
# Convention : Reuss Voigt Hill
#
# Bulk Modulus (GPa) = 51.84556 92.34447 72.09501
# Shear Modulus (GPa) = 13.21360 54.68888 33.95124
#
# Velocity S-wave (km/s) = 2.16396 4.40238 3.46869
# Velocity P-wave (km/s) = 4.96155 7.65290 6.44918
#
# Compressibility (1/GPa) = 0.01928806
#
# Stress axis : x y z
#
# Youngs Moduli (GPa) = 134.67550 431.01142 75.81369
#
# Poissons Ratio (x) = 0.15957 0.00586
# Poissons Ratio (y) = 0.04986 0.10434
# Poissons Ratio (z) = 0.01041 0.59319
#
# Static dielectric constant tensor:
#      x y z
#    x 2.043500 0.000000 0.000000 
#    y 0.000000 2.276860 0.000000 
#    z 0.000000 0.000000 2.183740 
# 
# From -- ./inp_files/9161.got.cif
#   From: 2010.05.17/outbox.cif.g08.bks.cpg/sg17_5_cif.got.tgz:9161.got - 2010.06.03 22:34:06.
