data_PCOD9310391
_publ_section_title
;
Structure prediction by ZEFSAII (Michael W. Deem and Ramdas Pophale) SiO2 
 PCOD9310391
Probable space group: P 2 2 2
;
_chemical_formula_sum "Si O2"
_cell_formula_units_Z 19
_cell_length_a 16.555343
_cell_length_b 6.113442
_cell_length_c 9.058921
_cell_angle_alpha 90.000000
_cell_angle_beta 90.000000
_cell_angle_gamma 90.000000
_cell_volume 916.854565
_symmetry_space_group_name_H-M "P 2 2 2"
_symmetry_group_IT_number 16
_symmetry_cell_setting 'orthorhombic'
loop_
_space_group_symop_operation_xyz
x,y,z
-x,-y,z
x,-y,-z
-x,y,-z
loop_
_atom_site_type_symbol
_atom_site_label
_atom_site_fract_x
_atom_site_fract_y
_atom_site_fract_z
Si Si1 0.500000 0.000000 0.000000
Si Si2 0.626711 0.664083 0.132659
Si Si3 0.742713 0.014933 0.682077
Si Si4 0.500000 0.000000 0.500000
Si Si5 0.077781 0.111769 0.339454
Si Si6 0.625091 0.660097 0.635258
Si Si7 0.000000 0.500000 0.500000
O O1 0.561071 0.840309 0.084206
O O2 0.692657 0.800336 0.229217
O O3 0.587560 0.498865 0.247003
O O4 0.654098 0.500000 0.000000
O O5 0.835231 0.059263 0.726440
O O6 0.737097 0.000000 0.500000
O O7 0.700759 0.781987 0.712524
O O8 0.560924 0.842646 0.587804
O O9 0.055449 0.356825 0.389468
O O10 0.082888 0.000000 0.500000
O O11 0.000000 0.000000 0.263108
O O12 0.648985 0.500000 0.500000
#
# Coordination Sequence:
#
# PCOD9310391 Si02
#       7
#     1   4   4   1   4   4   1
#     4  12  30  54  66  90 132 176 240 280 338 426
#     4  12  28  46  69  95 130 184 229 282 350 410
#     4  11  22  42  64 100 139 172 232 286 337 412
#     4  12  26  42  60 100 132 156 224 276 338 402
#     4   8  17  32  55  92 133 174 214 271 337 403
#     4  12  25  43  65  95 127 176 222 284 346 397
#     4   8  14  32  56  94 134 182 210 264 346 406
#
# _framework density 20.723027999999999
#
# number of rings (size 3 to 8) (size 9 to 14) (size 15 to 20)
#    0.000    1.474    3.158    1.895    0.000   17.684 
#    1.895    0.000    0.000    0.000    0.000   20.632 
#    0.000    0.000    0.000    0.000    0.000    0.000 
#
# Total GULP energy -105847.547270 kJ/mol
# GULP energy per Si atom -5570.923541 kJ/mol
# Density = 2.067586 g / cm^3
# Si number density = 20.723028 Si / 1000 Ang^3
#
#
#
# Elastic Constant Matrix: (Units=GPa)
#
#
# Indices 1 2 3 4 5 6 
#
# 1 205.9219 89.2294 42.9820 0.0000 0.0000 0.0000
# 2 89.2294 167.7692 56.1965 0.0000 0.0000 0.0000
# 3 42.9820 56.1965 74.1568 0.0000 0.0000 0.0000
# 4 0.0000 0.0000 0.0000 49.9436 0.0000 0.0000
# 5 0.0000 0.0000 0.0000 0.0000 9.6626 0.0000
# 6 0.0000 0.0000 0.0000 0.0000 0.0000 187.4454
#
#
#
# Elastic Compliance Matrix: (Units=1/GPa)
#
#
# Indices 1 2 3 4 5 6 
#
# 1 0.006436 -0.002913 -0.001523 0.000000 0.000000 0.000000
# 2 -0.002913 0.009307 -0.005364 0.000000 0.000000 0.000000
# 3 -0.001523 -0.005364 0.018433 0.000000 0.000000 0.000000
# 4 0.000000 0.000000 0.000000 0.020023 0.000000 0.000000
# 5 0.000000 0.000000 0.000000 0.000000 0.103492 0.000000
# 6 0.000000 0.000000 0.000000 0.000000 0.000000 0.005335
#
#
# Mechanical properties :
#
#
# Convention : Reuss Voigt Hill
#
# Bulk Modulus (GPa) = 68.60992 91.62930 80.11961
# Shear Modulus (GPa) = 26.66887 66.70632 46.68759
#
# Velocity S-wave (km/s) = 3.59126 5.67973 4.75166
# Velocity P-wave (km/s) = 7.09761 9.34476 8.29761
#
# Compressibility (1/GPa) = 0.01457515
#
# Stress axis : x y z
#
# Youngs Moduli (GPa) = 155.36621 107.44890 54.25118
#
# Poissons Ratio (x) = 0.31301 0.08263
# Poissons Ratio (y) = 0.45260 0.29102
# Poissons Ratio (z) = 0.23663 0.57638
#
# Static dielectric constant tensor:
#      x y z
#    x 1.806700 0.000000 0.000000 
#    y 0.000000 1.856740 0.000000 
#    z 0.000000 0.000000 1.783990 
# 
# From -- ./inp_files/5404.got.cif
#   From: 2010.05.17/outbox.cif.g08.bks.cpg/sg16_3_cif.got.tgz:5404.got - 2010.06.03 22:28:35.
