data_PCOD9310619
_publ_section_title
;
Structure prediction by ZEFSAII (Michael W. Deem and Ramdas Pophale) SiO2 
 PCOD9310619
Probable space group: P 2 2 21
;
_chemical_formula_sum "Si O2"
_cell_formula_units_Z 18
_cell_length_a 7.816679
_cell_length_b 18.103177
_cell_length_c 5.752532
_cell_angle_alpha 90.000000
_cell_angle_beta 90.000000
_cell_angle_gamma 90.000000
_cell_volume 814.021955
_symmetry_space_group_name_H-M "P 2 2 21"
_symmetry_group_IT_number 17
_symmetry_cell_setting 'orthorhombic'
loop_
_space_group_symop_operation_xyz
x,y,z
-x,-y,1/2+z
x,-y,-z
-x,y,1/2-z
loop_
_atom_site_type_symbol
_atom_site_label
_atom_site_fract_x
_atom_site_fract_y
_atom_site_fract_z
Si Si1 0.000000 0.041389 0.250000
Si Si2 0.315346 0.854306 0.873106
Si Si3 0.178745 0.426931 0.114516
Si Si4 0.727835 0.289848 0.105469
Si Si5 0.500000 0.789326 0.250000
Si Si6 0.000000 0.674339 0.250000
O O1 0.829748 0.089534 0.299196
O O2 0.026502 0.000000 0.500000
O O3 0.500000 0.870315 0.750000
O O4 0.255477 0.772749 0.797190
O O5 0.356151 0.843271 0.145001
O O6 0.277590 0.372178 0.289575
O O7 0.000000 0.447029 0.250000
O O8 0.258086 0.500000 0.000000
O O9 0.127757 0.376650 0.896215
O O10 0.569247 0.264097 0.950272
O O11 0.890741 0.283208 0.938338
#
# Coordination Sequence:
#
# PCOD9310619 Si02
#       6
#     2   4   4   4   2   2
#     4  12  32  51  79 122 166 204 256 310 386 481
#     4  10  25  47  76 110 148 197 248 312 377 448
#     4  10  19  33  54  97 136 177 229 294 375 440
#     4  10  22  36  66 103 130 183 237 307 367 445
#     4  10  22  44  70 106 140 182 250 314 372 438
#     4  10  20  33  57  98 130 164 222 302 350 431
#
# _framework density 22.112428000000001
#
# number of rings (size 3 to 8) (size 9 to 14) (size 15 to 20)
#    0.000    1.778    1.111    1.333   14.000    0.889 
#    0.000    0.000    0.000    0.000  130.000    0.000 
#    0.000    0.000    0.000    0.000    0.000    0.000 
#
# Total GULP energy -100464.405186 kJ/mol
# GULP energy per Si atom -5581.355844 kJ/mol
# Density = 2.206210 g / cm^3
# Si number density = 22.112428 Si / 1000 Ang^3
#
#
#
# Elastic Constant Matrix: (Units=GPa)
#
#
# Indices 1 2 3 4 5 6 
#
# 1 104.3505 68.3874 45.5894 0.0000 0.0000 0.0000
# 2 68.3874 110.3719 60.4788 0.0000 0.0000 0.0000
# 3 45.5894 60.4788 123.9218 0.0000 0.0000 0.0000
# 4 0.0000 0.0000 0.0000 31.2414 0.0000 0.0000
# 5 0.0000 0.0000 0.0000 0.0000 41.5999 0.0000
# 6 0.0000 0.0000 0.0000 0.0000 0.0000 -21.2700
#
#
#
# Elastic Compliance Matrix: (Units=1/GPa)
#
#
# Indices 1 2 3 4 5 6 
#
# 1 0.016326 -0.009316 -0.001460 0.000000 0.000000 0.000000
# 2 -0.009316 0.017684 -0.005203 0.000000 0.000000 0.000000
# 3 -0.001460 -0.005203 0.011146 0.000000 0.000000 0.000000
# 4 0.000000 0.000000 0.000000 0.032009 0.000000 0.000000
# 5 0.000000 0.000000 0.000000 0.000000 0.024039 0.000000
# 6 0.000000 0.000000 0.000000 0.000000 0.000000 -0.047015
#
#
# Mechanical properties :
#
#
# Convention : Reuss Voigt Hill
#
# Bulk Modulus (GPa) = 75.76755 76.39504 76.08129
# Shear Modulus (GPa) = 55.22113 21.26018 38.24066
#
# Velocity S-wave (km/s) = 5.00271 3.10410 4.16309
# Velocity P-wave (km/s) = 8.22852 6.88990 7.58878
#
# Compressibility (1/GPa) = 0.01319826
#
# Stress axis : x y z
#
# Youngs Moduli (GPa) = 61.25146 56.54960 89.71930
#
# Poissons Ratio (x) = 0.52682 0.13096
# Poissons Ratio (y) = 0.57062 0.46681
# Poissons Ratio (z) = 0.08940 0.29423
#
# Static dielectric constant tensor:
#      x y z
#    x 1.867660 0.000000 0.000000 
#    y 0.000000 1.802550 0.000000 
#    z 0.000000 0.000000 1.874840 
# 
# From -- ./inp_files/796.got.cif
#   From: 2010.05.17/outbox.cif.g08.bks.cpg/sg17_1_cif.got.tgz:796.got - 2010.06.03 22:34:06.
