data_PCOD9310643
_publ_section_title
;
Structure prediction by ZEFSAII (Michael W. Deem and Ramdas Pophale) SiO2 
 PCOD9310643
Probable space group: P 2 2 21
;
_chemical_formula_sum "Si O2"
_cell_formula_units_Z 14
_cell_length_a 11.084664
_cell_length_b 10.661226
_cell_length_c 4.925405
_cell_angle_alpha 90.000000
_cell_angle_beta 90.000000
_cell_angle_gamma 90.000000
_cell_volume 582.065193
_symmetry_space_group_name_H-M "P 2 2 21"
_symmetry_group_IT_number 17
_symmetry_cell_setting 'orthorhombic'
loop_
_space_group_symop_operation_xyz
x,y,z
-x,-y,1/2+z
x,-y,-z
-x,y,1/2-z
loop_
_atom_site_type_symbol
_atom_site_label
_atom_site_fract_x
_atom_site_fract_y
_atom_site_fract_z
Si Si1 0.372621 0.391351 0.663995
Si Si2 0.500000 0.199072 0.250000
Si Si3 0.260322 0.807775 0.956189
Si Si4 0.896948 0.861545 0.066526
O O1 0.500000 0.451633 0.750000
O O2 0.695787 0.500000 0.000000
O O3 0.575601 0.282621 0.032645
O O4 0.299220 0.327755 0.909968
O O5 0.612079 0.131390 0.381444
O O6 0.164556 0.804328 0.705410
O O7 0.206138 0.879119 0.211517
O O8 0.000000 0.792992 0.250000
O O9 0.943692 0.000000 0.000000
#
# Coordination Sequence:
#
# PCOD9310643 Si02
#       4
#     4   2   4   4
#     4  10  19  34  65 101 145 187 229 267 331 418
#     4  10  20  40  62 102 142 178 216 276 342 426
#     4  11  23  40  67 102 140 171 226 296 349 406
#     4  12  25  46  71  94 124 180 250 301 345 406
#
# _framework density 24.052288999999998
#
# number of rings (size 3 to 8) (size 9 to 14) (size 15 to 20)
#    0.000    1.143    4.286    3.429    0.000    0.000 
#    0.000    2.857    3.143    0.000    7.429    0.000 
#    0.000    0.000    0.000    0.000    0.000    0.000 
#
# Total GULP energy -78004.001672 kJ/mol
# GULP energy per Si atom -5571.714405 kJ/mol
# Density = 2.399755 g / cm^3
# Si number density = 24.052289 Si / 1000 Ang^3
#
#
#
# Elastic Constant Matrix: (Units=GPa)
#
#
# Indices 1 2 3 4 5 6 
#
# 1 86.4152 34.1514 70.4776 0.0000 0.0000 0.0000
# 2 34.1514 57.3230 51.3883 0.0000 0.0000 0.0000
# 3 70.4776 51.3883 214.4137 0.0000 0.0000 0.0000
# 4 0.0000 0.0000 0.0000 42.4677 0.0000 0.0000
# 5 0.0000 0.0000 0.0000 0.0000 77.1567 0.0000
# 6 0.0000 0.0000 0.0000 0.0000 0.0000 40.3052
#
#
#
# Elastic Compliance Matrix: (Units=1/GPa)
#
#
# Indices 1 2 3 4 5 6 
#
# 1 0.017658 -0.006772 -0.004181 0.000000 0.000000 0.000000
# 2 -0.006772 0.024816 -0.003722 0.000000 0.000000 0.000000
# 3 -0.004181 -0.003722 0.006930 0.000000 0.000000 0.000000
# 4 0.000000 0.000000 0.000000 0.023547 0.000000 0.000000
# 5 0.000000 0.000000 0.000000 0.000000 0.012961 0.000000
# 6 0.000000 0.000000 0.000000 0.000000 0.000000 0.024811
#
#
# Mechanical properties :
#
#
# Convention : Reuss Voigt Hill
#
# Bulk Modulus (GPa) = 49.86355 74.46516 62.16435
# Shear Modulus (GPa) = 34.06965 45.46154 39.76560
#
# Velocity S-wave (km/s) = 3.76770 4.35226 4.07049
# Velocity P-wave (km/s) = 6.30109 7.50221 6.92773
#
# Compressibility (1/GPa) = 0.02005473
#
# Stress axis : x y z
#
# Youngs Moduli (GPa) = 56.63001 40.29667 144.29537
#
# Poissons Ratio (x) = 0.27289 0.60334
# Poissons Ratio (y) = 0.38350 0.53702
# Poissons Ratio (z) = 0.23679 0.14997
#
# Static dielectric constant tensor:
#      x y z
#    x 1.987760 0.000000 0.000000 
#    y 0.000000 2.008950 0.000000 
#    z 0.000000 0.000000 2.158700 
# 
# From -- ./inp_files/1211.got.cif
#   From: 2010.05.17/outbox.cif.g08.bks.cpg/sg17_1_cif.got.tgz:1211.got - 2010.06.03 22:34:06.
