data_PCOD9310847
_publ_section_title
;
Structure prediction by ZEFSAII (Michael W. Deem and Ramdas Pophale) SiO2 
 PCOD9310847
Probable space group: P 2 2 21
;
_chemical_formula_sum "Si O2"
_cell_formula_units_Z 26
_cell_length_a 11.555564
_cell_length_b 9.710103
_cell_length_c 12.429420
_cell_angle_alpha 90.000000
_cell_angle_beta 90.000000
_cell_angle_gamma 90.000000
_cell_volume 1394.651979
_symmetry_space_group_name_H-M "P 2 2 21"
_symmetry_group_IT_number 17
_symmetry_cell_setting 'orthorhombic'
loop_
_space_group_symop_operation_xyz
x,y,z
-x,-y,1/2+z
x,-y,-z
-x,y,1/2-z
loop_
_atom_site_type_symbol
_atom_site_label
_atom_site_fract_x
_atom_site_fract_y
_atom_site_fract_z
Si Si1 0.427534 0.887231 0.648157
Si Si2 0.517760 0.814479 0.420762
Si Si3 0.954216 0.869131 0.573762
Si Si4 0.171197 0.191682 0.286297
Si Si5 0.270844 0.448068 0.174064
Si Si6 0.758420 0.290681 0.542688
Si Si7 0.500000 0.576636 0.250000
O O1 0.500000 0.836614 0.750000
O O2 0.466566 0.809479 0.540439
O O3 0.292467 0.868144 0.672557
O O4 0.464229 0.046772 0.629292
O O5 0.658553 0.817496 0.424255
O O6 0.489038 0.679730 0.351494
O O7 0.875108 0.890928 0.680944
O O8 0.878210 0.770719 0.498028
O O9 0.073299 0.812602 0.622734
O O10 0.977627 0.000000 0.500000
O O11 0.191910 0.347293 0.244257
O O12 0.222486 0.595445 0.134620
O O13 0.387861 0.484032 0.235114
O O14 0.293523 0.366432 0.062904
#
# Coordination Sequence:
#
# PCOD9310847 Si02
#       7
#     4   4   4   4   4   4   2
#     4  11  22  36  61  89 128 160 194 256 317 377
#     4  10  22  35  58  94 126 155 200 253 310 376
#     4  10  22  39  66  87 120 160 212 266 304 375
#     4  10  23  39  60  91 122 161 208 252 325 363
#     4   9  19  36  62  85 122 159 205 252 298 381
#     4   9  19  37  62  88 115 167 212 246 302 368
#     4  10  20  38  58  92 130 158 202 252 310 374
#
# _framework density 18.642644000000001
#
# number of rings (size 3 to 8) (size 9 to 14) (size 15 to 20)
#    0.000    2.154    0.769    1.846    9.692    0.000 
#    0.000    0.000   23.692    0.000    0.000    0.000 
#    0.000    0.000    0.000    0.000    0.000    0.000 
#
# Total GULP energy -145027.022873 kJ/mol
# GULP energy per Si atom -5577.962418 kJ/mol
# Density = 1.860021 g / cm^3
# Si number density = 18.642644 Si / 1000 Ang^3
#
#
#
# Elastic Constant Matrix: (Units=GPa)
#
#
# Indices 1 2 3 4 5 6 
#
# 1 151.8241 71.0116 73.0764 0.0000 0.0000 0.0000
# 2 71.0116 72.6806 47.6261 0.0000 0.0000 0.0000
# 3 73.0764 47.6261 110.0552 0.0000 0.0000 0.0000
# 4 0.0000 0.0000 0.0000 24.4809 0.0000 0.0000
# 5 0.0000 0.0000 0.0000 0.0000 26.8356 0.0000
# 6 0.0000 0.0000 0.0000 0.0000 0.0000 18.2571
#
#
#
# Elastic Compliance Matrix: (Units=1/GPa)
#
#
# Indices 1 2 3 4 5 6 
#
# 1 0.013604 -0.010291 -0.004580 0.000000 0.000000 0.000000
# 2 -0.010291 0.026989 -0.004846 0.000000 0.000000 0.000000
# 3 -0.004580 -0.004846 0.014225 0.000000 0.000000 0.000000
# 4 0.000000 0.000000 0.000000 0.040848 0.000000 0.000000
# 5 0.000000 0.000000 0.000000 0.000000 0.037264 0.000000
# 6 0.000000 0.000000 0.000000 0.000000 0.000000 0.054773
#
#
# Mechanical properties :
#
#
# Convention : Reuss Voigt Hill
#
# Bulk Modulus (GPa) = 65.00326 79.77647 72.38986
# Shear Modulus (GPa) = 21.52714 23.43776 22.48245
#
# Velocity S-wave (km/s) = 3.40181 3.54957 3.47647
# Velocity P-wave (km/s) = 7.09743 7.72558 7.41816
#
# Compressibility (1/GPa) = 0.01538384
#
# Stress axis : x y z
#
# Youngs Moduli (GPa) = 73.50699 37.05223 70.30053
#
# Poissons Ratio (x) = 0.38129 0.32197
# Poissons Ratio (y) = 0.75644 0.34070
# Poissons Ratio (z) = 0.33665 0.17957
#
# Static dielectric constant tensor:
#      x y z
#    x 1.627310 0.000000 0.000000 
#    y 0.000000 1.670270 0.000000 
#    z 0.000000 0.000000 1.662210 
# 
# From -- ./inp_files/6962.got.cif
#   From: 2010.05.17/outbox.cif.g08.bks.cpg/sg17_4_cif.got.tgz:6962.got - 2010.06.03 22:34:06.
