data_PCOD9310113
_publ_section_title
;
Structure prediction by ZEFSAII (Michael W. Deem and Ramdas Pophale) SiO2 
 PCOD9310113
Probable space group: P 2 2 2
;
_chemical_formula_sum "Si O2"
_cell_formula_units_Z 32
_cell_length_a 15.099642
_cell_length_b 12.341492
_cell_length_c 9.411191
_cell_angle_alpha 90.000000
_cell_angle_beta 90.000000
_cell_angle_gamma 90.000000
_cell_volume 1753.795309
_symmetry_space_group_name_H-M "P 2 2 2"
_symmetry_group_IT_number 16
_symmetry_cell_setting 'orthorhombic'
loop_
_space_group_symop_operation_xyz
x,y,z
-x,-y,z
x,-y,-z
-x,y,-z
loop_
_atom_site_type_symbol
_atom_site_label
_atom_site_fract_x
_atom_site_fract_y
_atom_site_fract_z
Si Si1 0.497805 0.629759 0.829471
Si Si2 0.340489 0.710756 0.354684
Si Si3 0.826341 0.125399 0.675668
Si Si4 0.926838 0.432546 0.146923
Si Si5 0.324465 0.715449 0.680874
Si Si6 0.821387 0.870086 0.658447
Si Si7 0.777776 0.506143 0.650616
Si Si8 0.006671 0.812675 0.159195
O O1 0.500000 0.500000 0.793012
O O2 0.577234 0.694527 0.750837
O O3 0.407266 0.682874 0.775122
O O4 0.500000 0.637201 0.000000
O O5 0.358566 0.740319 0.519990
O O6 0.262792 0.793539 0.303776
O O7 0.301803 0.589628 0.369319
O O8 0.739206 0.187718 0.728723
O O9 0.839513 0.153973 0.508463
O O10 0.914478 0.161262 0.760765
O O11 0.805376 0.997830 0.677661
O O12 0.836168 0.440863 0.228454
O O13 0.967177 0.313647 0.138200
O O14 0.000000 0.500000 0.232468
O O15 0.914686 0.500000 0.000000
O O16 0.259090 0.611710 0.683268
O O17 0.910208 0.852156 0.748691
O O18 0.827378 0.500000 0.500000
O O19 0.000000 0.859809 0.000000
#
# Coordination Sequence:
#
# PCOD9310113 Si02
#       8
#     4   4   4   4   4   4   4   4
#     4  11  23  37  58  90 123 155 190 232 291 360
#     4  10  20  38  61  87 115 151 193 242 296 351
#     4  10  23  42  64  88 116 154 203 255 299 344
#     4  11  22  37  50  78 121 162 192 235 299 352
#     4  10  21  37  61  87 118 151 191 243 298 352
#     4  10  22  43  65  87 116 154 204 254 297 345
#     4  10  20  35  57  86 112 149 199 245 296 353
#     4  12  23  38  59  85 119 160 203 240 293 358
#
# _framework density 18.246141999999999
#
# number of rings (size 3 to 8) (size 9 to 14) (size 15 to 20)
#    0.000    1.500    3.750    1.875    0.000    4.750 
#    2.250    0.625    0.000    3.750    0.000    0.000 
#    0.000    0.000    0.000    0.000    0.000    0.000 
#
# Total GULP energy -178272.168185 kJ/mol
# GULP energy per Si atom -5571.005256 kJ/mol
# Density = 1.820461 g / cm^3
# Si number density = 18.246142 Si / 1000 Ang^3
#
#
#
# Elastic Constant Matrix: (Units=GPa)
#
#
# Indices 1 2 3 4 5 6 
#
# 1 121.9898 51.9471 70.2381 0.0000 0.0000 0.0000
# 2 51.9471 97.5316 36.4977 0.0000 0.0000 0.0000
# 3 70.2381 36.4977 82.1465 0.0000 0.0000 0.0000
# 4 0.0000 0.0000 0.0000 18.0620 0.0000 0.0000
# 5 0.0000 0.0000 0.0000 0.0000 -6.7932 0.0000
# 6 0.0000 0.0000 0.0000 0.0000 0.0000 8.1276
#
#
#
# Elastic Compliance Matrix: (Units=1/GPa)
#
#
# Indices 1 2 3 4 5 6 
#
# 1 0.017654 -0.004503 -0.013094 0.000000 0.000000 0.000000
# 2 -0.004503 0.013446 -0.002124 0.000000 0.000000 0.000000
# 3 -0.013094 -0.002124 0.024313 0.000000 0.000000 0.000000
# 4 0.000000 0.000000 0.000000 0.055365 0.000000 0.000000
# 5 0.000000 0.000000 0.000000 0.000000 -0.147205 0.000000
# 6 0.000000 0.000000 0.000000 0.000000 0.000000 0.123037
#
#
# Mechanical properties :
#
#
# Convention : Reuss Voigt Hill
#
# Bulk Modulus (GPa) = 62.61296 68.78151 65.69723
# Shear Modulus (GPa) = 38.05839 13.41160 25.73500
#
# Velocity S-wave (km/s) = 4.57205 2.71410 3.75965
# Velocity P-wave (km/s) = 7.89061 6.89928 7.41154
#
# Compressibility (1/GPa) = 0.01597114
#
# Stress axis : x y z
#
# Youngs Moduli (GPa) = 56.64377 74.37015 41.12997
#
# Poissons Ratio (x) = 0.33488 0.53857
# Poissons Ratio (y) = 0.25506 0.08736
# Poissons Ratio (z) = 0.74171 0.15797
#
# Static dielectric constant tensor:
#      x y z
#    x 1.642210 0.000000 0.000000 
#    y 0.000000 1.981040 0.000000 
#    z 0.000000 0.000000 1.686950 
# 
# From -- ./inp_files/5226.got.cif
#   From: 2010.05.17/outbox.cif.g08.bks.cpg/sg16_3_cif.got.tgz:5226.got - 2010.06.03 22:28:35.
