data_PCOD9310439
_publ_section_title
;
Structure prediction by ZEFSAII (Michael W. Deem and Ramdas Pophale) SiO2 
 PCOD9310439
Probable space group: P 2 2 21
;
_chemical_formula_sum "Si O2"
_cell_formula_units_Z 32
_cell_length_a 8.376022
_cell_length_b 11.133450
_cell_length_c 14.888049
_cell_angle_alpha 90.000000
_cell_angle_beta 90.000000
_cell_angle_gamma 90.000000
_cell_volume 1388.370451
_symmetry_space_group_name_H-M "P 2 2 21"
_symmetry_group_IT_number 17
_symmetry_cell_setting 'orthorhombic'
loop_
_space_group_symop_operation_xyz
x,y,z
-x,-y,1/2+z
x,-y,-z
-x,y,1/2-z
loop_
_atom_site_type_symbol
_atom_site_label
_atom_site_fract_x
_atom_site_fract_y
_atom_site_fract_z
Si Si1 0.085257 0.657074 0.404617
Si Si2 0.410997 0.041888 0.653824
Si Si3 0.114247 0.813629 0.986981
Si Si4 0.818072 0.501227 0.229526
Si Si5 0.475034 0.837803 0.986368
Si Si6 0.900548 0.102935 0.159510
Si Si7 0.705064 0.669462 0.919443
Si Si8 0.192147 0.549641 0.915261
O O1 0.158988 0.636615 0.306492
O O2 0.207138 0.646122 0.486638
O O3 0.988749 0.777303 0.426673
O O4 0.956446 0.547111 0.412178
O O5 0.500000 0.056551 0.750000
O O6 0.424891 0.146086 0.578595
O O7 0.487735 0.935373 0.591515
O O8 0.228323 0.002670 0.669302
O O9 0.134829 0.686066 0.931187
O O10 0.025688 0.906163 0.922167
O O11 0.291830 0.848141 0.011123
O O12 0.731084 0.437515 0.148097
O O13 0.727057 0.473436 0.320457
O O14 0.000000 0.452270 0.250000
O O15 0.527813 0.713296 0.941373
O O16 0.796106 0.218971 0.129403
O O17 0.000000 0.121649 0.250000
O O18 0.288139 0.500000 0.000000
#
# Coordination Sequence:
#
# PCOD9310439 Si02
#       8
#     4   4   4   4   4   4   4   4
#     4   9  17  31  52  80 114 151 192 238 282 334
#     4  10  22  43  61  82 120 156 187 242 322 375
#     4  10  18  34  58  84 114 151 195 241 287 344
#     4  10  16  28  53  81 113 150 192 243 289 330
#     4  10  23  40  60  85 120 156 187 243 310 365
#     4  10  18  32  61  91 110 144 201 250 287 353
#     4  10  18  32  54  83 115 148 191 239 294 347
#     4   9  17  30  51  80 115 150 193 242 287 330
#
# _framework density 23.048604000000001
#
# number of rings (size 3 to 8) (size 9 to 14) (size 15 to 20)
#    0.000    2.250    0.000    7.500    0.000    1.000 
#    0.000   22.500    0.000    1.500    0.000    0.000 
#    0.000    0.000    0.000    0.000    0.000    0.000 
#
# Total GULP energy -178481.096759 kJ/mol
# GULP energy per Si atom -5577.534274 kJ/mol
# Density = 2.299614 g / cm^3
# Si number density = 23.048604 Si / 1000 Ang^3
#
#
#
# Elastic Constant Matrix: (Units=GPa)
#
#
# Indices 1 2 3 4 5 6 
#
# 1 62.2968 22.9675 27.5355 0.0000 0.0000 0.0000
# 2 22.9675 43.0386 41.9009 0.0000 0.0000 0.0000
# 3 27.5355 41.9009 149.0374 0.0000 0.0000 0.0000
# 4 0.0000 0.0000 0.0000 21.2694 0.0000 0.0000
# 5 0.0000 0.0000 0.0000 0.0000 17.6082 0.0000
# 6 0.0000 0.0000 0.0000 0.0000 0.0000 22.1786
#
#
#
# Elastic Compliance Matrix: (Units=1/GPa)
#
#
# Indices 1 2 3 4 5 6 
#
# 1 0.020083 -0.009783 -0.000960 0.000000 0.000000 0.000000
# 2 -0.009783 0.036757 -0.008526 0.000000 0.000000 0.000000
# 3 -0.000960 -0.008526 0.009284 0.000000 0.000000 0.000000
# 4 0.000000 0.000000 0.000000 0.047016 0.000000 0.000000
# 5 0.000000 0.000000 0.000000 0.000000 0.056792 0.000000
# 6 0.000000 0.000000 0.000000 0.000000 0.000000 0.045089
#
#
# Mechanical properties :
#
#
# Convention : Reuss Voigt Hill
#
# Bulk Modulus (GPa) = 36.25087 48.79785 42.52436
# Shear Modulus (GPa) = 19.02922 23.00916 21.01919
#
# Velocity S-wave (km/s) = 2.87646 3.16300 3.02313
# Velocity P-wave (km/s) = 5.17631 5.87853 5.53856
#
# Compressibility (1/GPa) = 0.02758554
#
# Stress axis : x y z
#
# Youngs Moduli (GPa) = 49.79275 27.20607 107.70890
#
# Poissons Ratio (x) = 0.26615 0.10342
# Poissons Ratio (y) = 0.48710 0.91838
# Poissons Ratio (z) = 0.04781 0.23197
#
# Static dielectric constant tensor:
#      x y z
#    x 1.884060 0.000000 0.000000 
#    y 0.000000 1.929200 0.000000 
#    z 0.000000 0.000000 1.962970 
# 
# From -- ./inp_files/8278.got.cif
#   From: 2010.05.17/outbox.cif.g08.bks.cpg/sg17_5_cif.got.tgz:8278.got - 2010.06.03 22:34:06.
