data_PCOD9310566
_publ_section_title
;
Structure prediction by ZEFSAII (Michael W. Deem and Ramdas Pophale) SiO2 
 PCOD9310566
Probable space group: P 2 2 21
;
_chemical_formula_sum "Si O2"
_cell_formula_units_Z 18
_cell_length_a 5.023082
_cell_length_b 5.308718
_cell_length_c 24.952928
_cell_angle_alpha 90.000000
_cell_angle_beta 90.000000
_cell_angle_gamma 90.000000
_cell_volume 665.397918
_symmetry_space_group_name_H-M "P 2 2 21"
_symmetry_group_IT_number 17
_symmetry_cell_setting 'orthorhombic'
loop_
_space_group_symop_operation_xyz
x,y,z
-x,-y,1/2+z
x,-y,-z
-x,y,1/2-z
loop_
_atom_site_type_symbol
_atom_site_label
_atom_site_fract_x
_atom_site_fract_y
_atom_site_fract_z
Si Si1 0.028582 0.663414 0.946755
Si Si2 0.000000 0.334876 0.750000
Si Si3 0.412793 0.273374 0.302852
Si Si4 0.190410 0.346883 0.857611
Si Si5 0.554617 0.045381 0.088597
O O1 0.972701 0.471871 0.896679
O O2 0.322019 0.776926 0.936242
O O3 0.814608 0.888583 0.945578
O O4 0.015417 0.500000 0.000000
O O5 0.787417 0.518913 0.779292
O O6 0.894323 0.194810 0.696249
O O7 0.500000 0.124234 0.250000
O O8 0.655440 0.424165 0.329510
O O9 0.330553 0.102900 0.351826
O O10 0.388639 0.205339 0.898233
#
# Coordination Sequence:
#
# PCOD9310566 Si02
#       5
#     4   2   4   4   4
#     4  11  25  47  71 101 142 190 245 312 369 429
#     4  10  18  40  68  96 150 192 226 314 362 434
#     4   9  20  38  61  96 142 187 227 293 359 429
#     4  10  23  41  67 103 146 185 247 298 370 446
#     4  11  24  43  70 103 134 189 242 296 367 442
#
# _framework density 27.051486000000001
#
# number of rings (size 3 to 8) (size 9 to 14) (size 15 to 20)
#    0.000    1.778    2.222    0.667    3.111    3.556 
#    0.000    3.333    0.000    0.000    0.000    0.000 
#    0.000    0.000    0.000    0.000    0.000    0.000 
#
# Total GULP energy -100518.542331 kJ/mol
# GULP energy per Si atom -5584.363463 kJ/mol
# Density = 2.698992 g / cm^3
# Si number density = 27.051486 Si / 1000 Ang^3
#
#
#
# Elastic Constant Matrix: (Units=GPa)
#
#
# Indices 1 2 3 4 5 6 
#
# 1 111.3957 12.2481 38.9812 0.0000 0.0000 0.0000
# 2 12.2481 60.7995 34.1589 0.0000 0.0000 0.0000
# 3 38.9812 34.1589 174.7239 0.0000 0.0000 0.0000
# 4 0.0000 0.0000 0.0000 41.6336 0.0000 0.0000
# 5 0.0000 0.0000 0.0000 0.0000 20.0837 0.0000
# 6 0.0000 0.0000 0.0000 0.0000 0.0000 10.8608
#
#
#
# Elastic Compliance Matrix: (Units=1/GPa)
#
#
# Indices 1 2 3 4 5 6 
#
# 1 0.009775 -0.000836 -0.002017 0.000000 0.000000 0.000000
# 2 -0.000836 0.018548 -0.003440 0.000000 0.000000 0.000000
# 3 -0.002017 -0.003440 0.006846 0.000000 0.000000 0.000000
# 4 0.000000 0.000000 0.000000 0.024019 0.000000 0.000000
# 5 0.000000 0.000000 0.000000 0.000000 0.049792 0.000000
# 6 0.000000 0.000000 0.000000 0.000000 0.000000 0.092074
#
#
# Mechanical properties :
#
#
# Convention : Reuss Voigt Hill
#
# Bulk Modulus (GPa) = 44.28045 57.52171 50.90108
# Shear Modulus (GPa) = 22.60729 31.95102 27.27915
#
# Velocity S-wave (km/s) = 2.89401 3.44047 3.17900
# Velocity P-wave (km/s) = 5.25086 6.09035 5.68612
#
# Compressibility (1/GPa) = 0.02258333
#
# Stress axis : x y z
#
# Youngs Moduli (GPa) = 102.30336 53.91290 146.07305
#
# Poissons Ratio (x) = 0.04506 0.29469
# Poissons Ratio (y) = 0.08550 0.50246
# Poissons Ratio (z) = 0.20639 0.18545
#
# Static dielectric constant tensor:
#      x y z
#    x 2.300840 0.000000 0.000000 
#    y 0.000000 2.215570 0.000000 
#    z 0.000000 0.000000 2.320130 
# 
# From -- ./inp_files/10325.got.cif
#   From: 2010.05.17/outbox.cif.g08.bks.cpg/sg17_6_cif.got.tgz:10325.got - 2010.06.03 22:34:06.
