data_PCOD9310677
_publ_section_title
;
Structure prediction by ZEFSAII (Michael W. Deem and Ramdas Pophale) SiO2 
 PCOD9310677
Probable space group: P 2 2 21
;
_chemical_formula_sum "Si O2"
_cell_formula_units_Z 24
_cell_length_a 10.555644
_cell_length_b 13.947446
_cell_length_c 7.947386
_cell_angle_alpha 90.000000
_cell_angle_beta 90.000000
_cell_angle_gamma 90.000000
_cell_volume 1170.048139
_symmetry_space_group_name_H-M "P 2 2 21"
_symmetry_group_IT_number 17
_symmetry_cell_setting 'orthorhombic'
loop_
_space_group_symop_operation_xyz
x,y,z
-x,-y,1/2+z
x,-y,-z
-x,y,1/2-z
loop_
_atom_site_type_symbol
_atom_site_label
_atom_site_fract_x
_atom_site_fract_y
_atom_site_fract_z
Si Si1 0.127234 0.606193 0.041529
Si Si2 0.709340 0.202089 0.928365
Si Si3 0.500000 0.095695 0.750000
Si Si4 0.827683 0.190549 0.555178
Si Si5 0.313062 0.000000 0.000000
Si Si6 0.163215 0.603903 0.443380
Si Si7 0.064171 0.893418 0.568893
O O1 0.195506 0.703490 0.979598
O O2 0.138848 0.609043 0.243500
O O3 0.979959 0.612399 0.982379
O O4 0.175642 0.500000 0.000000
O O5 0.569205 0.162960 0.889414
O O6 0.774361 0.190140 0.743937
O O7 0.739291 0.310776 0.983077
O O8 0.790615 0.137331 0.054852
O O9 0.600299 0.028424 0.657160
O O10 0.769363 0.095708 0.469895
O O11 0.978312 0.174734 0.548505
O O12 0.211000 0.500000 0.500000
O O13 0.000000 0.885269 0.750000
O O14 0.052657 0.000000 0.500000
#
# Coordination Sequence:
#
# PCOD9310677 Si02
#       7
#     4   4   2   4   2   4   4
#     4   9  17  30  51  81 120 151 182 228 305 381
#     4  10  21  39  59  81 120 162 204 252 306 362
#     4  10  24  40  60  82 116 166 214 256 292 362
#     4  10  19  37  57  82 116 160 191 244 311 375
#     4  10  22  38  60  80 114 156 208 252 306 360
#     4   9  17  31  54  81 114 153 189 241 297 369
#     4  12  24  34  56  89 123 157 197 251 315 380
#
# _framework density 20.511977000000002
#
# number of rings (size 3 to 8) (size 9 to 14) (size 15 to 20)
#    0.000    2.000    2.500    1.500    3.500    1.333 
#    0.000    0.000    0.000    9.000    0.000    1.167 
#    0.000    0.000    0.000    0.000    0.000    0.000 
#
# Total GULP energy -133798.519578 kJ/mol
# GULP energy per Si atom -5574.938316 kJ/mol
# Density = 2.046529 g / cm^3
# Si number density = 20.511977 Si / 1000 Ang^3
#
#
#
# Elastic Constant Matrix: (Units=GPa)
#
#
# Indices 1 2 3 4 5 6 
#
# 1 62.3037 42.9054 12.9302 0.0000 0.0000 0.0000
# 2 42.9054 194.7662 23.8942 0.0000 0.0000 0.0000
# 3 12.9302 23.8942 31.1738 0.0000 0.0000 0.0000
# 4 0.0000 0.0000 0.0000 27.4673 0.0000 0.0000
# 5 0.0000 0.0000 0.0000 0.0000 44.1889 0.0000
# 6 0.0000 0.0000 0.0000 0.0000 0.0000 12.4717
#
#
#
# Elastic Compliance Matrix: (Units=1/GPa)
#
#
# Indices 1 2 3 4 5 6 
#
# 1 0.019696 -0.003683 -0.005347 0.000000 0.000000 0.000000
# 2 -0.003683 0.006356 -0.003344 0.000000 0.000000 0.000000
# 3 -0.005347 -0.003344 0.036859 0.000000 0.000000 0.000000
# 4 0.000000 0.000000 0.000000 0.036407 0.000000 0.000000
# 5 0.000000 0.000000 0.000000 0.000000 0.022630 0.000000
# 6 0.000000 0.000000 0.000000 0.000000 0.000000 0.080181
#
#
# Mechanical properties :
#
#
# Convention : Reuss Voigt Hill
#
# Bulk Modulus (GPa) = 26.20281 49.74480 37.97381
# Shear Modulus (GPa) = 20.86825 30.72652 25.79738
#
# Velocity S-wave (km/s) = 3.19308 3.87457 3.55022
# Velocity P-wave (km/s) = 5.13775 6.65738 5.94631
#
# Compressibility (1/GPa) = 0.03816385
#
# Stress axis : x y z
#
# Youngs Moduli (GPa) = 50.77092 157.33275 27.13040
#
# Poissons Ratio (x) = 0.57946 0.14506
# Poissons Ratio (y) = 0.18699 0.09073
# Poissons Ratio (z) = 0.27145 0.52614
#
# Static dielectric constant tensor:
#      x y z
#    x 1.755660 0.000000 0.000000 
#    y 0.000000 1.782360 0.000000 
#    z 0.000000 0.000000 1.766240 
# 
# From -- ./inp_files/4820.got.cif
#   From: 2010.05.17/outbox.cif.g08.bks.cpg/sg17_3_cif.got.tgz:4820.got - 2010.06.03 22:34:06.
