data_PCOD9310559
_publ_section_title
;
Structure prediction by ZEFSAII (Michael W. Deem and Ramdas Pophale) SiO2 
 PCOD9310559
Probable space group: P 2 2 21
;
_chemical_formula_sum "Si O2"
_cell_formula_units_Z 30
_cell_length_a 8.596094
_cell_length_b 14.073206
_cell_length_c 12.406683
_cell_angle_alpha 90.000000
_cell_angle_beta 90.000000
_cell_angle_gamma 90.000000
_cell_volume 1500.893534
_symmetry_space_group_name_H-M "P 2 2 21"
_symmetry_group_IT_number 17
_symmetry_cell_setting 'orthorhombic'
loop_
_space_group_symop_operation_xyz
x,y,z
-x,-y,1/2+z
x,-y,-z
-x,y,1/2-z
loop_
_atom_site_type_symbol
_atom_site_label
_atom_site_fract_x
_atom_site_fract_y
_atom_site_fract_z
Si Si1 0.347357 0.408295 0.934943
Si Si2 0.170758 0.917418 0.704009
Si Si3 0.500000 0.494400 0.250000
Si Si4 0.609868 0.656628 0.917193
Si Si5 0.683829 0.123164 0.771305
Si Si6 0.796314 0.203047 0.546979
Si Si7 0.609652 0.828229 0.657590
Si Si8 0.163614 0.805786 0.492395
O O1 0.378204 0.441081 0.814240
O O2 0.249699 0.314134 0.955157
O O3 0.287201 0.500000 0.000000
O O4 0.519169 0.384812 0.980399
O O5 0.233733 0.827207 0.772627
O O6 0.188699 0.888779 0.580202
O O7 0.000000 0.935336 0.750000
O O8 0.264233 0.013715 0.724610
O O9 0.399835 0.426082 0.328795
O O10 0.494938 0.738087 0.870430
O O11 0.765279 0.709606 0.955169
O O12 0.500000 0.133422 0.750000
O O13 0.765258 0.167136 0.666791
O O14 0.743569 0.171298 0.882256
O O15 0.683483 0.147111 0.460653
O O16 0.978661 0.195473 0.523152
O O17 0.500000 0.878624 0.750000
#
# Coordination Sequence:
#
# PCOD9310559 Si02
#       8
#     4   4   2   4   4   4   4   4
#     4   9  21  38  65  98 130 171 225 276 333 408
#     4  12  24  43  67 102 135 175 220 288 338 393
#     4  10  18  38  66 102 126 168 226 284 324 406
#     4  10  20  37  67  95 128 174 224 273 333 400
#     4  12  28  45  67  97 134 184 234 278 335 413
#     4  11  25  44  68  98 139 186 214 287 352 405
#     4  11  20  39  67  98 131 170 230 268 324 399
#     4  12  24  45  68  98 139 181 225 277 349 408
#
# _framework density 19.988094
#
# number of rings (size 3 to 8) (size 9 to 14) (size 15 to 20)
#    0.000    1.067    3.333    3.600    2.800    0.533 
#    2.400    2.000    0.000    0.000    0.000    0.000 
#    0.000    0.000    0.000    0.000    0.000    0.000 
#
# Total GULP energy -167083.419677 kJ/mol
# GULP energy per Si atom -5569.447323 kJ/mol
# Density = 1.994260 g / cm^3
# Si number density = 19.988094 Si / 1000 Ang^3
#
#
#
# Elastic Constant Matrix: (Units=GPa)
#
#
# Indices 1 2 3 4 5 6 
#
# 1 79.9379 30.7902 34.6025 0.0000 0.0000 0.0000
# 2 30.7902 60.0917 25.9598 0.0000 0.0000 0.0000
# 3 34.6025 25.9598 132.9944 0.0000 0.0000 0.0000
# 4 0.0000 0.0000 0.0000 24.6434 0.0000 0.0000
# 5 0.0000 0.0000 0.0000 0.0000 34.2221 0.0000
# 6 0.0000 0.0000 0.0000 0.0000 0.0000 22.3914
#
#
#
# Elastic Compliance Matrix: (Units=1/GPa)
#
#
# Indices 1 2 3 4 5 6 
#
# 1 0.016547 -0.007228 -0.002894 0.000000 0.000000 0.000000
# 2 -0.007228 0.021331 -0.002283 0.000000 0.000000 0.000000
# 3 -0.002894 -0.002283 0.008718 0.000000 0.000000 0.000000
# 4 0.000000 0.000000 0.000000 0.040579 0.000000 0.000000
# 5 0.000000 0.000000 0.000000 0.000000 0.029221 0.000000
# 6 0.000000 0.000000 0.000000 0.000000 0.000000 0.044660
#
#
# Mechanical properties :
#
#
# Convention : Reuss Voigt Hill
#
# Bulk Modulus (GPa) = 45.90355 50.63655 48.27005
# Shear Modulus (GPa) = 25.88964 28.36279 27.12622
#
# Velocity S-wave (km/s) = 3.60287 3.77103 3.68791
# Velocity P-wave (km/s) = 6.35003 6.65952 6.50661
#
# Compressibility (1/GPa) = 0.02178481
#
# Stress axis : x y z
#
# Youngs Moduli (GPa) = 60.43556 46.87998 114.70788
#
# Poissons Ratio (x) = 0.33884 0.33199
# Poissons Ratio (y) = 0.43682 0.26190
# Poissons Ratio (z) = 0.17491 0.10703
#
# Static dielectric constant tensor:
#      x y z
#    x 1.728130 0.000000 0.000000 
#    y 0.000000 1.719890 0.000000 
#    z 0.000000 0.000000 1.759320 
# 
# From -- ./inp_files/6712.got.cif
#   From: 2010.05.17/outbox.cif.g08.bks.cpg/sg17_4_cif.got.tgz:6712.got - 2010.06.03 22:34:06.
