data_PCOD9310772
_publ_section_title
;
Structure prediction by ZEFSAII (Michael W. Deem and Ramdas Pophale) SiO2 
 PCOD9310772
Probable space group: P 2 2 21
;
_chemical_formula_sum "Si O2"
_cell_formula_units_Z 18
_cell_length_a 5.676311
_cell_length_b 8.882060
_cell_length_c 16.720836
_cell_angle_alpha 90.000000
_cell_angle_beta 90.000000
_cell_angle_gamma 90.000000
_cell_volume 843.019988
_symmetry_space_group_name_H-M "P 2 2 21"
_symmetry_group_IT_number 17
_symmetry_cell_setting 'orthorhombic'
loop_
_space_group_symop_operation_xyz
x,y,z
-x,-y,1/2+z
x,-y,-z
-x,y,1/2-z
loop_
_atom_site_type_symbol
_atom_site_label
_atom_site_fract_x
_atom_site_fract_y
_atom_site_fract_z
Si Si1 0.444937 0.750938 0.584286
Si Si2 0.500000 0.909278 0.750000
Si Si3 0.256337 0.211391 0.718434
Si Si4 0.240373 0.000000 0.000000
Si Si5 0.074879 0.246113 0.550196
Si Si6 0.733121 0.500000 0.500000
O O1 0.452678 0.799467 0.675671
O O2 0.599379 0.881587 0.544128
O O3 0.198981 0.753930 0.536525
O O4 0.570733 0.595904 0.559809
O O5 0.290224 0.035410 0.744713
O O6 0.500000 0.284076 0.750000
O O7 0.255242 0.239034 0.623102
O O8 0.000000 0.263048 0.750000
O O9 0.077024 0.904822 0.058678
O O10 0.900387 0.387146 0.549335
#
# Coordination Sequence:
#
# PCOD9310772 Si02
#       6
#     4   2   4   2   4   2
#     4  11  22  42  66  99 136 179 231 286 346 419
#     4  10  22  38  70 106 136 170 230 302 350 402
#     4  10  23  40  68 110 137 170 224 297 352 404
#     4  10  20  34  70  98 126 174 218 284 342 414
#     4  11  22  42  66  96 135 185 226 282 347 418
#     4  10  26  42  66  90 138 190 236 272 342 422
#
# _framework density 21.351807000000001
#
# number of rings (size 3 to 8) (size 9 to 14) (size 15 to 20)
#    0.667    0.889    0.000    5.333    6.222    1.778 
#    0.000    4.444    0.000    0.000    0.000    0.000 
#    0.000    0.000    0.000    0.000    0.000    0.000 
#
# Total GULP energy -100402.055556 kJ/mol
# GULP energy per Si atom -5577.891975 kJ/mol
# Density = 2.130321 g / cm^3
# Si number density = 21.351807 Si / 1000 Ang^3
#
#
#
# Elastic Constant Matrix: (Units=GPa)
#
#
# Indices 1 2 3 4 5 6 
#
# 1 83.7212 18.7576 5.6218 0.0000 0.0000 0.0000
# 2 18.7576 67.8499 -12.3411 0.0000 0.0000 0.0000
# 3 5.6218 -12.3411 81.0466 0.0000 0.0000 0.0000
# 4 0.0000 0.0000 0.0000 15.1486 0.0000 0.0000
# 5 0.0000 0.0000 0.0000 0.0000 30.5848 0.0000
# 6 0.0000 0.0000 0.0000 0.0000 0.0000 46.2779
#
#
#
# Elastic Compliance Matrix: (Units=1/GPa)
#
#
# Indices 1 2 3 4 5 6 
#
# 1 0.012903 -0.003836 -0.001479 0.000000 0.000000 0.000000
# 2 -0.003836 0.016299 0.002748 0.000000 0.000000 0.000000
# 3 -0.001479 0.002748 0.012860 0.000000 0.000000 0.000000
# 4 0.000000 0.000000 0.000000 0.066013 0.000000 0.000000
# 5 0.000000 0.000000 0.000000 0.000000 0.032696 0.000000
# 6 0.000000 0.000000 0.000000 0.000000 0.000000 0.021609
#
#
# Mechanical properties :
#
#
# Convention : Reuss Voigt Hill
#
# Bulk Modulus (GPa) = 27.08070 28.52160 27.80115
# Shear Modulus (GPa) = 27.80519 33.10757 30.45638
#
# Velocity S-wave (km/s) = 3.61257 3.94201 3.78088
# Velocity P-wave (km/s) = 5.48740 5.84005 5.66647
#
# Compressibility (1/GPa) = 0.03692667
#
# Stress axis : x y z
#
# Youngs Moduli (GPa) = 77.49995 61.35427 77.76277
#
# Poissons Ratio (x) = 0.23537 0.11503
# Poissons Ratio (y) = 0.29731 -0.21369
# Poissons Ratio (z) = 0.11464 -0.16860
#
# Static dielectric constant tensor:
#      x y z
#    x 1.804990 0.000000 0.000000 
#    y 0.000000 1.748490 0.000000 
#    z 0.000000 0.000000 1.946770 
# 
# From -- ./inp_files/8908.got.cif
#   From: 2010.05.17/outbox.cif.g08.bks.cpg/sg17_5_cif.got.tgz:8908.got - 2010.06.03 22:34:06.
