data_PCOD9310848
_publ_section_title
;
Structure prediction by ZEFSAII (Michael W. Deem and Ramdas Pophale) SiO2 
 PCOD9310848
Probable space group: P 2 2 21
;
_chemical_formula_sum "Si O2"
_cell_formula_units_Z 22
_cell_length_a 12.985136
_cell_length_b 8.491220
_cell_length_c 8.861229
_cell_angle_alpha 90.000000
_cell_angle_beta 90.000000
_cell_angle_gamma 90.000000
_cell_volume 977.035977
_symmetry_space_group_name_H-M "P 2 2 21"
_symmetry_group_IT_number 17
_symmetry_cell_setting 'orthorhombic'
loop_
_space_group_symop_operation_xyz
x,y,z
-x,-y,1/2+z
x,-y,-z
-x,y,1/2-z
loop_
_atom_site_type_symbol
_atom_site_label
_atom_site_fract_x
_atom_site_fract_y
_atom_site_fract_z
Si Si1 0.798576 0.876079 0.379666
Si Si2 0.404683 0.500000 0.000000
Si Si3 0.227107 0.645473 0.853608
Si Si4 0.965540 0.500000 0.500000
Si Si5 0.737513 0.908853 0.871797
Si Si6 0.000000 0.722946 0.250000
Si Si7 0.488450 0.168767 0.432968
O O1 0.752565 0.747288 0.493112
O O2 0.896476 0.813566 0.290782
O O3 0.841037 0.000000 0.500000
O O4 0.723326 0.964979 0.264365
O O5 0.325595 0.530257 0.858054
O O6 0.469711 0.664623 0.999938
O O7 0.218643 0.758179 0.712134
O O8 0.116314 0.570840 0.880556
O O9 0.025649 0.624035 0.401276
O O10 0.634293 0.846950 0.951574
O O11 0.800338 0.000000 0.000000
O O12 0.500000 0.172465 0.250000
O O13 0.530543 0.000000 0.500000
#
# Coordination Sequence:
#
# PCOD9310848 Si02
#       7
#     4   2   4   2   4   2   4
#     4   9  20  38  65  87 124 173 211 262 331 402
#     4  11  22  40  66  91 128 178 222 263 326 405
#     4   9  19  39  62  88 123 175 220 256 333 407
#     4   9  20  36  60  91 128 162 218 277 326 405
#     4  10  21  39  58  92 130 159 217 279 328 378
#     4  10  20  38  58  94 120 164 222 264 332 400
#     4  11  25  42  64  98 129 171 226 274 328 383
#
# _framework density 22.517084000000001
#
# number of rings (size 3 to 8) (size 9 to 14) (size 15 to 20)
#    0.000    2.182    1.818    0.000    2.545    2.909 
#    3.273    6.364    0.000    0.000    0.000    0.000 
#    0.000    0.000    0.000    0.000    0.000    0.000 
#
# Total GULP energy -122486.452604 kJ/mol
# GULP energy per Si atom -5567.566027 kJ/mol
# Density = 2.246583 g / cm^3
# Si number density = 22.517084 Si / 1000 Ang^3
#
#
#
# Elastic Constant Matrix: (Units=GPa)
#
#
# Indices 1 2 3 4 5 6 
#
# 1 64.1906 48.6202 40.9192 0.0000 0.0000 0.0000
# 2 48.6202 154.6843 65.9459 0.0000 0.0000 0.0000
# 3 40.9192 65.9459 100.2510 0.0000 0.0000 0.0000
# 4 0.0000 0.0000 0.0000 43.1974 0.0000 0.0000
# 5 0.0000 0.0000 0.0000 0.0000 18.4170 0.0000
# 6 0.0000 0.0000 0.0000 0.0000 0.0000 18.4805
#
#
#
# Elastic Compliance Matrix: (Units=1/GPa)
#
#
# Indices 1 2 3 4 5 6 
#
# 1 0.023118 -0.004508 -0.006471 0.000000 0.000000 0.000000
# 2 -0.004508 0.009863 -0.004648 0.000000 0.000000 0.000000
# 3 -0.006471 -0.004648 0.015674 0.000000 0.000000 0.000000
# 4 0.000000 0.000000 0.000000 0.023150 0.000000 0.000000
# 5 0.000000 0.000000 0.000000 0.000000 0.054298 0.000000
# 6 0.000000 0.000000 0.000000 0.000000 0.000000 0.054111
#
#
# Mechanical properties :
#
#
# Convention : Reuss Voigt Hill
#
# Bulk Modulus (GPa) = 57.46644 70.01072 63.73858
# Shear Modulus (GPa) = 23.01316 26.92834 24.97075
#
# Velocity S-wave (km/s) = 3.20039 3.46194 3.33373
# Velocity P-wave (km/s) = 6.26365 6.86584 6.57165
#
# Compressibility (1/GPa) = 0.01740146
#
# Stress axis : x y z
#
# Youngs Moduli (GPa) = 43.25680 101.38567 63.80090
#
# Poissons Ratio (x) = 0.45702 0.41284
# Poissons Ratio (y) = 0.19499 0.29656
# Poissons Ratio (z) = 0.27990 0.47127
#
# Static dielectric constant tensor:
#      x y z
#    x 1.858430 0.000000 0.000000 
#    y 0.000000 1.969310 0.000000 
#    z 0.000000 0.000000 1.868520 
# 
# From -- ./inp_files/5178.got.cif
#   From: 2010.05.17/outbox.cif.g08.bks.cpg/sg17_3_cif.got.tgz:5178.got - 2010.06.03 22:34:06.
