data_PCOD9310995
_publ_section_title
;
Structure prediction by ZEFSAII (Michael W. Deem and Ramdas Pophale) SiO2 
 PCOD9310995
Probable space group: P 2 2 21
;
_chemical_formula_sum "Si O2"
_cell_formula_units_Z 18
_cell_length_a 16.045748
_cell_length_b 5.635147
_cell_length_c 8.504192
_cell_angle_alpha 90.000000
_cell_angle_beta 90.000000
_cell_angle_gamma 90.000000
_cell_volume 768.950305
_symmetry_space_group_name_H-M "P 2 2 21"
_symmetry_group_IT_number 17
_symmetry_cell_setting 'orthorhombic'
loop_
_space_group_symop_operation_xyz
x,y,z
-x,-y,1/2+z
x,-y,-z
-x,y,1/2-z
loop_
_atom_site_type_symbol
_atom_site_label
_atom_site_fract_x
_atom_site_fract_y
_atom_site_fract_z
Si Si1 0.805155 0.000000 0.500000
Si Si2 0.902061 0.311274 0.754818
Si Si3 0.822059 0.000000 0.000000
Si Si4 0.758618 0.673119 0.744299
Si Si5 0.485680 0.749580 0.938332
Si Si6 0.356802 0.500000 0.500000
O O1 0.865975 0.874080 0.373715
O O2 0.747201 0.797570 0.577620
O O3 0.847873 0.546052 0.731444
O O4 0.000000 0.349103 0.750000
O O5 0.878274 0.201867 0.923136
O O6 0.765930 0.111655 0.133591
O O7 0.696559 0.504272 0.839660
O O8 0.500000 0.745500 0.750000
O O9 0.579278 0.718689 0.007279
O O10 0.444635 0.500000 0.000000
O O11 0.450923 0.000000 0.000000
#
# Coordination Sequence:
#
# PCOD9310995 Si02
#       6
#     2   4   2   4   4   2
#     4  10  25  38  60  90 137 162 234 290 341 406
#     4  11  22  38  59  86 126 173 228 290 346 402
#     4  10  21  36  62  82 123 164 234 272 343 406
#     4  11  22  42  61  93 126 174 225 276 342 407
#     4  10  23  44  75 108 149 184 232 280 347 423
#     4  10  24  42  74  96 138 184 222 280 350 418
#
# _framework density 23.408534
#
# number of rings (size 3 to 8) (size 9 to 14) (size 15 to 20)
#    0.667    0.889    2.222    2.000    1.556    7.111 
#    2.000    2.222    0.000    0.000    0.000    0.000 
#    0.000    0.000    0.000    0.000    0.000    0.000 
#
# Total GULP energy -100447.320719 kJ/mol
# GULP energy per Si atom -5580.406707 kJ/mol
# Density = 2.335526 g / cm^3
# Si number density = 23.408534 Si / 1000 Ang^3
#
#
#
# Elastic Constant Matrix: (Units=GPa)
#
#
# Indices 1 2 3 4 5 6 
#
# 1 78.1102 13.2203 11.3283 0.0000 0.0000 0.0000
# 2 13.2203 127.9401 37.7709 0.0000 0.0000 0.0000
# 3 11.3283 37.7709 87.6501 0.0000 0.0000 0.0000
# 4 0.0000 0.0000 0.0000 42.6778 0.0000 0.0000
# 5 0.0000 0.0000 0.0000 0.0000 6.2377 0.0000
# 6 0.0000 0.0000 0.0000 0.0000 0.0000 18.0364
#
#
#
# Elastic Compliance Matrix: (Units=1/GPa)
#
#
# Indices 1 2 3 4 5 6 
#
# 1 0.013154 -0.000982 -0.001277 0.000000 0.000000 0.000000
# 2 -0.000982 0.009029 -0.003764 0.000000 0.000000 0.000000
# 3 -0.001277 -0.003764 0.013196 0.000000 0.000000 0.000000
# 4 0.000000 0.000000 0.000000 0.023431 0.000000 0.000000
# 5 0.000000 0.000000 0.000000 0.000000 0.160316 0.000000
# 6 0.000000 0.000000 0.000000 0.000000 0.000000 0.055443
#
#
# Mechanical properties :
#
#
# Convention : Reuss Voigt Hill
#
# Bulk Modulus (GPa) = 42.85797 46.48215 44.67006
# Shear Modulus (GPa) = 16.98409 28.81577 22.89993
#
# Velocity S-wave (km/s) = 2.69653 3.51236 3.13113
# Velocity P-wave (km/s) = 5.29561 6.02901 5.67417
#
# Compressibility (1/GPa) = 0.02333288
#
# Stress axis : x y z
#
# Youngs Moduli (GPa) = 76.02339 110.75631 75.78074
#
# Poissons Ratio (x) = 0.10879 0.09675
# Poissons Ratio (y) = 0.07468 0.28523
# Poissons Ratio (z) = 0.09706 0.41687
#
# Static dielectric constant tensor:
#      x y z
#    x 1.865830 0.000000 0.000000 
#    y 0.000000 1.959250 0.000000 
#    z 0.000000 0.000000 1.963380 
# 
# From -- ./inp_files/5378.got.cif
#   From: 2010.05.17/outbox.cif.g08.bks.cpg/sg17_3_cif.got.tgz:5378.got - 2010.06.03 22:34:06.
