data_PCOD9310224
_publ_section_title
;
Structure prediction by ZEFSAII (Michael W. Deem and Ramdas Pophale) SiO2 
 PCOD9310224
Probable space group: P 2 2 2
;
_chemical_formula_sum "Si O2"
_cell_formula_units_Z 25
_cell_length_a 12.036942
_cell_length_b 10.171466
_cell_length_c 9.642424
_cell_angle_alpha 90.000000
_cell_angle_beta 90.000000
_cell_angle_gamma 90.000000
_cell_volume 1180.554237
_symmetry_space_group_name_H-M "P 2 2 2"
_symmetry_group_IT_number 16
_symmetry_cell_setting 'orthorhombic'
loop_
_space_group_symop_operation_xyz
x,y,z
-x,-y,z
x,-y,-z
-x,y,-z
loop_
_atom_site_type_symbol
_atom_site_label
_atom_site_fract_x
_atom_site_fract_y
_atom_site_fract_z
Si Si1 0.229521 0.105616 0.607033
Si Si2 0.859120 0.112887 0.767712
Si Si3 0.883664 0.337265 0.570471
Si Si4 0.376620 0.245189 0.827661
Si Si5 0.677352 0.509673 0.341560
Si Si6 0.631019 0.762775 0.155162
Si Si7 0.000000 0.000000 0.000000
O O1 0.190500 0.238333 0.527723
O O2 0.302345 0.147140 0.737882
O O3 0.283715 0.000000 0.500000
O O4 0.131659 0.015828 0.670807
O O5 0.909455 0.240461 0.697084
O O6 0.728838 0.143190 0.792352
O O7 0.920365 0.087469 0.908354
O O8 0.808499 0.455888 0.631545
O O9 0.000000 0.367347 0.500000
O O10 0.356737 0.382772 0.746735
O O11 0.503659 0.195146 0.826505
O O12 0.348641 0.261408 0.990807
O O13 0.632698 0.500000 0.500000
O O14 0.638334 0.633008 0.250674
#
# Coordination Sequence:
#
# PCOD9310224 Si02
#       7
#     4   4   4   4   4   4   1
#     4  10  21  40  63  94 131 167 219 268 324 392
#     4  10  22  38  61  94 123 170 215 261 319 390
#     4  10  21  40  63  91 128 164 212 273 330 382
#     4  11  22  42  64  91 129 173 204 270 330 386
#     4  11  22  41  62  96 120 165 219 265 322 398
#     4  10  24  41  64  92 129 166 217 260 329 400
#     4  12  20  36  66  90 126 172 224 266 316 388
#
# _framework density 21.176494000000002
#
# number of rings (size 3 to 8) (size 9 to 14) (size 15 to 20)
#    0.000    1.600    1.600    2.880    0.000    5.760 
#    0.000    5.600    0.000    0.000    4.160    0.000 
#    0.000    0.000    0.000    0.000    0.000    0.000 
#
# Total GULP energy -139485.854959 kJ/mol
# GULP energy per Si atom -5579.434198 kJ/mol
# Density = 2.112830 g / cm^3
# Si number density = 21.176494 Si / 1000 Ang^3
#
#
#
# Elastic Constant Matrix: (Units=GPa)
#
#
# Indices 1 2 3 4 5 6 
#
# 1 94.3796 33.8467 33.6879 0.0000 0.0000 0.0000
# 2 33.8467 94.4403 42.9278 0.0000 0.0000 0.0000
# 3 33.6879 42.9278 151.6508 0.0000 0.0000 0.0000
# 4 0.0000 0.0000 0.0000 35.0933 0.0000 0.0000
# 5 0.0000 0.0000 0.0000 0.0000 36.1026 0.0000
# 6 0.0000 0.0000 0.0000 0.0000 0.0000 14.9171
#
#
#
# Elastic Compliance Matrix: (Units=1/GPa)
#
#
# Indices 1 2 3 4 5 6 
#
# 1 0.012545 -0.003706 -0.001738 0.000000 0.000000 0.000000
# 2 -0.003706 0.013247 -0.002927 0.000000 0.000000 0.000000
# 3 -0.001738 -0.002927 0.007809 0.000000 0.000000 0.000000
# 4 0.000000 0.000000 0.000000 0.028496 0.000000 0.000000
# 5 0.000000 0.000000 0.000000 0.000000 0.027699 0.000000
# 6 0.000000 0.000000 0.000000 0.000000 0.000000 0.067037
#
#
# Mechanical properties :
#
#
# Convention : Reuss Voigt Hill
#
# Bulk Modulus (GPa) = 59.31249 62.37729 60.84489
# Shear Modulus (GPa) = 27.90288 32.55647 30.22967
#
# Velocity S-wave (km/s) = 3.63386 3.92521 3.78234
# Velocity P-wave (km/s) = 6.75841 7.07551 6.91878
#
# Compressibility (1/GPa) = 0.01685985
#
# Stress axis : x y z
#
# Youngs Moduli (GPa) = 79.71394 75.48737 128.06503
#
# Poissons Ratio (x) = 0.27977 0.22253
# Poissons Ratio (y) = 0.29543 0.37480
# Poissons Ratio (z) = 0.13851 0.22092
#
# Static dielectric constant tensor:
#      x y z
#    x 1.779440 0.000000 0.000000 
#    y 0.000000 1.808210 0.000000 
#    z 0.000000 0.000000 1.784180 
# 
# From -- ./inp_files/4722.got.cif
#   From: 2010.05.17/outbox.cif.g08.bks.cpg/sg16_3_cif.got.tgz:4722.got - 2010.06.03 22:28:35.
