data_PCOD9310512
_publ_section_title
;
Structure prediction by ZEFSAII (Michael W. Deem and Ramdas Pophale) SiO2 
 PCOD9310512
Probable space group: P 2 2 21
;
_chemical_formula_sum "Si O2"
_cell_formula_units_Z 20
_cell_length_a 13.845714
_cell_length_b 7.378053
_cell_length_c 8.393183
_cell_angle_alpha 90.000000
_cell_angle_beta 90.000000
_cell_angle_gamma 90.000000
_cell_volume 857.400672
_symmetry_space_group_name_H-M "P 2 2 21"
_symmetry_group_IT_number 17
_symmetry_cell_setting 'orthorhombic'
loop_
_space_group_symop_operation_xyz
x,y,z
-x,-y,1/2+z
x,-y,-z
-x,y,1/2-z
loop_
_atom_site_type_symbol
_atom_site_label
_atom_site_fract_x
_atom_site_fract_y
_atom_site_fract_z
Si Si1 0.500000 0.769414 0.250000
Si Si2 0.585797 0.500000 0.500000
Si Si3 0.892383 0.173912 0.696304
Si Si4 0.307561 0.222946 0.616352
Si Si5 0.097341 0.739277 0.842003
Si Si6 0.702473 0.636787 0.784775
O O1 0.523270 0.637617 0.397170
O O2 0.600738 0.867481 0.205723
O O3 0.647094 0.632215 0.616563
O O4 0.799919 0.187726 0.813982
O O5 0.883056 0.283854 0.530736
O O6 0.000000 0.228206 0.750000
O O7 0.898669 0.957715 0.670829
O O8 0.316024 0.217273 0.424763
O O9 0.319406 0.435495 0.655765
O O10 0.184876 0.652090 0.748737
O O11 0.000000 0.682580 0.750000
#
# Coordination Sequence:
#
# PCOD9310512 Si02
#       6
#     2   2   4   4   4   4
#     4  10  18  32  54  78 108 142 178 218 270 320
#     4  10  18  32  54  80 110 140 178 224 270 328
#     4  10  21  37  56  80 109 142 181 224 272 327
#     4  10  21  35  55  81 110 142 180 225 269 322
#     4  10  20  35  57  80 106 143 182 222 273 328
#     4  10  20  34  54  81 108 141 179 223 273 321
#
# _framework density 23.326319000000002
#
# number of rings (size 3 to 8) (size 9 to 14) (size 15 to 20)
#    0.000    2.000    0.000    6.000    0.000    3.200 
#    0.000    2.000    0.000   14.400    0.000    0.000 
#    0.000    0.000    0.000    0.000    0.000    0.000 
#
# Total GULP energy -111516.255734 kJ/mol
# GULP energy per Si atom -5575.812787 kJ/mol
# Density = 2.327323 g / cm^3
# Si number density = 23.326319 Si / 1000 Ang^3
#
#
#
# Elastic Constant Matrix: (Units=GPa)
#
#
# Indices 1 2 3 4 5 6 
#
# 1 207.7640 26.5350 82.8777 0.0000 0.0000 0.0000
# 2 26.5350 33.1384 17.1512 0.0000 0.0000 0.0000
# 3 82.8777 17.1512 133.0157 0.0000 0.0000 0.0000
# 4 0.0000 0.0000 0.0000 20.0062 0.0000 0.0000
# 5 0.0000 0.0000 0.0000 0.0000 50.5843 0.0000
# 6 0.0000 0.0000 0.0000 0.0000 0.0000 190.7714
#
#
#
# Elastic Compliance Matrix: (Units=1/GPa)
#
#
# Indices 1 2 3 4 5 6 
#
# 1 0.006757 -0.003462 -0.003763 0.000000 0.000000 0.000000
# 2 -0.003462 0.034109 -0.002241 0.000000 0.000000 0.000000
# 3 -0.003763 -0.002241 0.010152 0.000000 0.000000 0.000000
# 4 0.000000 0.000000 0.000000 0.049985 0.000000 0.000000
# 5 0.000000 0.000000 0.000000 0.000000 0.019769 0.000000
# 6 0.000000 0.000000 0.000000 0.000000 0.000000 0.005242
#
#
# Mechanical properties :
#
#
# Convention : Reuss Voigt Hill
#
# Bulk Modulus (GPa) = 31.16822 69.67177 50.42000
# Shear Modulus (GPa) = 32.12542 68.76265 50.44404
#
# Velocity S-wave (km/s) = 3.71511 5.43531 4.65535
# Velocity P-wave (km/s) = 5.63858 8.32606 7.11044
#
# Compressibility (1/GPa) = 0.03208396
#
# Stress axis : x y z
#
# Youngs Moduli (GPa) = 148.00397 29.31803 98.50616
#
# Poissons Ratio (x) = 0.10151 0.37071
# Poissons Ratio (y) = 0.51245 0.22072
# Poissons Ratio (z) = 0.55699 0.06569
#
# Static dielectric constant tensor:
#      x y z
#    x 1.911610 0.000000 0.000000 
#    y 0.000000 1.933940 0.000000 
#    z 0.000000 0.000000 1.819730 
# 
# From -- ./inp_files/4733.got.cif
#   From: 2010.05.17/outbox.cif.g08.bks.cpg/sg17_3_cif.got.tgz:4733.got - 2010.06.03 22:34:06.
