data_PCOD9310385
_publ_section_title
;
Structure prediction by ZEFSAII (Michael W. Deem and Ramdas Pophale) SiO2 
 PCOD9310385
Probable space group: P 2 2 2
;
_chemical_formula_sum "Si O2"
_cell_formula_units_Z 19
_cell_length_a 9.055092
_cell_length_b 12.816205
_cell_length_c 8.383909
_cell_angle_alpha 90.000000
_cell_angle_beta 90.000000
_cell_angle_gamma 90.000000
_cell_volume 972.968698
_symmetry_space_group_name_H-M "P 2 2 2"
_symmetry_group_IT_number 16
_symmetry_cell_setting 'orthorhombic'
loop_
_space_group_symop_operation_xyz
x,y,z
-x,-y,z
x,-y,-z
-x,y,-z
loop_
_atom_site_type_symbol
_atom_site_label
_atom_site_fract_x
_atom_site_fract_y
_atom_site_fract_z
Si Si1 0.255196 0.611296 0.452993
Si Si2 0.428476 0.894811 0.826074
Si Si3 0.072940 0.113313 0.164971
Si Si4 0.000000 0.773716 0.500000
Si Si5 0.500000 0.500000 0.000000
Si Si6 0.474953 0.656834 0.740936
O O1 0.188039 0.500000 0.500000
O O2 0.136660 0.701085 0.454263
O O3 0.370085 0.630903 0.594948
O O4 0.358795 0.618298 0.297316
O O5 0.250882 0.898040 0.843748
O O6 0.470869 0.781785 0.756118
O O7 0.500000 0.000000 0.747752
O O8 0.500000 0.892450 0.000000
O O9 0.038486 0.166050 0.335932
O O10 0.000000 0.000000 0.173599
O O11 0.000000 0.160652 0.000000
O O12 0.419292 0.414931 0.113226
#
# Coordination Sequence:
#
# PCOD9310385 Si02
#       6
#     4   4   4   2   1   4
#     4  11  23  44  62  93 133 176 215 281 340 393
#     4  11  23  40  67 102 132 173 224 283 342 396
#     4  11  25  46  68  95 141 182 222 281 346 412
#     4  12  26  42  70  98 134 186 224 272 346 428
#     4  12  20  38  74  98 124 174 224 276 340 410
#     4  11  22  40  68  96 130 169 226 277 329 398
#
# _framework density 19.527863
#
# number of rings (size 3 to 8) (size 9 to 14) (size 15 to 20)
#    0.000    0.842    5.263    3.789    5.895    0.000 
#    0.000    2.105    0.000    2.526    0.000    0.000 
#    0.000    0.000    0.000    0.000    0.000    0.000 
#
# Total GULP energy -105815.984408 kJ/mol
# GULP energy per Si atom -5569.262337 kJ/mol
# Density = 1.948342 g / cm^3
# Si number density = 19.527863 Si / 1000 Ang^3
#
#
#
# Elastic Constant Matrix: (Units=GPa)
#
#
# Indices 1 2 3 4 5 6 
#
# 1 134.6544 35.7093 48.1425 0.0000 0.0000 0.0000
# 2 35.7093 137.3594 46.8646 0.0000 0.0000 0.0000
# 3 48.1425 46.8646 99.5191 0.0000 0.0000 0.0000
# 4 0.0000 0.0000 0.0000 -60.7598 0.0000 0.0000
# 5 0.0000 0.0000 0.0000 0.0000 11.3668 0.0000
# 6 0.0000 0.0000 0.0000 0.0000 0.0000 59.7024
#
#
#
# Elastic Compliance Matrix: (Units=1/GPa)
#
#
# Indices 1 2 3 4 5 6 
#
# 1 0.009100 -0.001029 -0.003917 0.000000 0.000000 0.000000
# 2 -0.001029 0.008790 -0.003642 0.000000 0.000000 0.000000
# 3 -0.003917 -0.003642 0.013658 0.000000 0.000000 0.000000
# 4 0.000000 0.000000 0.000000 -0.016458 0.000000 0.000000
# 5 0.000000 0.000000 0.000000 0.000000 0.087975 0.000000
# 6 0.000000 0.000000 0.000000 0.000000 0.000000 0.016750
#
#
# Mechanical properties :
#
#
# Convention : Reuss Voigt Hill
#
# Bulk Modulus (GPa) = 69.57953 70.32953 69.95453
# Shear Modulus (GPa) = 35.26537 18.11631 26.69084
#
# Velocity S-wave (km/s) = 4.25420 3.04915 3.70105
# Velocity P-wave (km/s) = 7.73558 6.96344 7.35964
#
# Compressibility (1/GPa) = 0.01437204
#
# Stress axis : x y z
#
# Youngs Moduli (GPa) = 109.89079 113.76381 73.21587
#
# Poissons Ratio (x) = 0.11708 0.28682
# Poissons Ratio (y) = 0.11309 0.26662
# Poissons Ratio (z) = 0.43049 0.41427
#
# Static dielectric constant tensor:
#      x y z
#    x 1.708700 0.000000 0.000000 
#    y 0.000000 1.793930 0.000000 
#    z 0.000000 0.000000 1.752840 
# 
# From -- ./inp_files/3857.got.cif
#   From: 2010.05.17/outbox.cif.g08.bks.cpg/sg16_2_cif.got.tgz:3857.got - 2010.06.03 22:28:35.
