data_PCOD9310712
_publ_section_title
;
Structure prediction by ZEFSAII (Michael W. Deem and Ramdas Pophale) SiO2 
 PCOD9310712
Probable space group: P 2 2 21
;
_chemical_formula_sum "Si O2"
_cell_formula_units_Z 32
_cell_length_a 11.303135
_cell_length_b 9.431809
_cell_length_c 14.164501
_cell_angle_alpha 90.000000
_cell_angle_beta 90.000000
_cell_angle_gamma 90.000000
_cell_volume 1510.063435
_symmetry_space_group_name_H-M "P 2 2 21"
_symmetry_group_IT_number 17
_symmetry_cell_setting 'orthorhombic'
loop_
_space_group_symop_operation_xyz
x,y,z
-x,-y,1/2+z
x,-y,-z
-x,y,1/2-z
loop_
_atom_site_type_symbol
_atom_site_label
_atom_site_fract_x
_atom_site_fract_y
_atom_site_fract_z
Si Si1 0.779018 0.278957 0.364264
Si Si2 0.478793 0.399928 0.091768
Si Si3 0.415282 0.168235 0.510874
Si Si4 0.076577 0.219600 0.942246
Si Si5 0.823113 0.774678 0.121795
Si Si6 0.868728 0.996923 0.715837
Si Si7 0.446279 0.681308 0.161124
Si Si8 0.182408 0.421090 0.791718
O O1 0.644371 0.325687 0.383411
O O2 0.852304 0.251623 0.461855
O O3 0.788571 0.137735 0.302977
O O4 0.830124 0.412919 0.307676
O O5 0.518582 0.531822 0.156001
O O6 0.455900 0.500000 0.000000
O O7 0.572017 0.273997 0.078133
O O8 0.298628 0.214392 0.566638
O O9 0.528272 0.219853 0.572198
O O10 0.415881 0.000000 0.500000
O O11 0.096960 0.344041 0.865884
O O12 0.934524 0.206273 0.948142
O O13 0.120763 0.082354 0.883263
O O14 0.833384 0.633395 0.185421
O O15 0.826065 0.897020 0.202298
O O16 0.000000 0.953033 0.750000
O O17 0.500000 0.761970 0.250000
O O18 0.311714 0.636092 0.174969
#
# Coordination Sequence:
#
# PCOD9310712 Si02
#       8
#     4   4   4   4   4   4   4   4
#     4  11  20  36  62  93 114 149 204 265 289 351
#     4   9  21  40  60  87 120 154 200 251 299 357
#     4  11  23  40  60  90 122 157 206 252 284 357
#     4  10  20  37  62  83 118 161 196 240 315 364
#     4  10  22  41  58  81 124 171 188 237 317 370
#     4   9  21  37  56  87 121 158 200 245 305 370
#     4  10  19  40  66  84 118 165 194 237 313 361
#     4  10  20  38  63  90 115 152 208 249 298 366
#
# _framework density 21.191164000000001
#
# number of rings (size 3 to 8) (size 9 to 14) (size 15 to 20)
#    0.000    2.000    1.250    4.125    0.000    6.000 
#    4.500    3.750    0.000    0.000    0.000    0.000 
#    0.000    0.000    0.000    0.000    0.000    0.000 
#
# Total GULP energy -178476.488749 kJ/mol
# GULP energy per Si atom -5577.390273 kJ/mol
# Density = 2.114293 g / cm^3
# Si number density = 21.191164 Si / 1000 Ang^3
#
#
#
# Elastic Constant Matrix: (Units=GPa)
#
#
# Indices 1 2 3 4 5 6 
#
# 1 75.4748 24.3978 11.6482 0.0000 0.0000 0.0000
# 2 24.3978 108.7710 22.8653 0.0000 0.0000 0.0000
# 3 11.6482 22.8653 45.1929 0.0000 0.0000 0.0000
# 4 0.0000 0.0000 0.0000 11.1030 0.0000 0.0000
# 5 0.0000 0.0000 0.0000 0.0000 15.7187 0.0000
# 6 0.0000 0.0000 0.0000 0.0000 0.0000 0.5450
#
#
#
# Elastic Compliance Matrix: (Units=1/GPa)
#
#
# Indices 1 2 3 4 5 6 
#
# 1 0.014503 -0.002761 -0.002341 0.000000 0.000000 0.000000
# 2 -0.002761 0.010813 -0.004759 0.000000 0.000000 0.000000
# 3 -0.002341 -0.004759 0.025139 0.000000 0.000000 0.000000
# 4 0.000000 0.000000 0.000000 0.090066 0.000000 0.000000
# 5 0.000000 0.000000 0.000000 0.000000 0.063619 0.000000
# 6 0.000000 0.000000 0.000000 0.000000 0.000000 1.834718
#
#
# Mechanical properties :
#
#
# Convention : Reuss Voigt Hill
#
# Bulk Modulus (GPa) = 32.53906 38.58458 35.56182
# Shear Modulus (GPa) = 2.41683 16.84184 9.62933
#
# Velocity S-wave (km/s) = 1.06910 2.82220 2.13399
# Velocity P-wave (km/s) = 4.11246 5.37282 4.78432
#
# Compressibility (1/GPa) = 0.03073229
#
# Stress axis : x y z
#
# Youngs Moduli (GPa) = 68.94987 92.47762 39.77914
#
# Poissons Ratio (x) = 0.25533 0.09313
# Poissons Ratio (y) = 0.19037 0.18933
# Poissons Ratio (z) = 0.16143 0.44014
#
# Static dielectric constant tensor:
#      x y z
#    x 1.781000 0.000000 0.000000 
#    y 0.000000 1.773890 0.000000 
#    z 0.000000 0.000000 2.063940 
# 
# From -- ./inp_files/8553.got.cif
#   From: 2010.05.17/outbox.cif.g08.bks.cpg/sg17_5_cif.got.tgz:8553.got - 2010.06.03 22:34:06.
