data_PCOD9310386
_publ_section_title
;
Structure prediction by ZEFSAII (Michael W. Deem and Ramdas Pophale) SiO2 
 PCOD9310386
Probable space group: P 2 2 2
;
_chemical_formula_sum "Si O2"
_cell_formula_units_Z 20
_cell_length_a 9.821205
_cell_length_b 8.146306
_cell_length_c 10.628997
_cell_angle_alpha 90.000000
_cell_angle_beta 90.000000
_cell_angle_gamma 90.000000
_cell_volume 850.389287
_symmetry_space_group_name_H-M "P 2 2 2"
_symmetry_group_IT_number 16
_symmetry_cell_setting 'orthorhombic'
loop_
_space_group_symop_operation_xyz
x,y,z
-x,-y,z
x,-y,-z
-x,y,-z
loop_
_atom_site_type_symbol
_atom_site_label
_atom_site_fract_x
_atom_site_fract_y
_atom_site_fract_z
Si Si1 0.911514 0.829388 0.779477
Si Si2 0.695481 0.610167 0.871847
Si Si3 0.162213 0.310432 0.519240
Si Si4 0.803202 0.701417 0.249279
Si Si5 0.458671 0.830121 0.854097
O O1 0.799930 0.765676 0.880484
O O2 0.832192 0.796804 0.646722
O O3 0.039476 0.706999 0.785963
O O4 0.000000 0.000000 0.787140
O O5 0.758435 0.484875 0.772104
O O6 0.553946 0.678598 0.816819
O O7 0.680883 0.500000 0.000000
O O8 0.210740 0.500000 0.500000
O O9 0.215812 0.230814 0.390430
O O10 0.000000 0.320977 0.500000
O O11 0.699868 0.803876 0.164509
O O12 0.500000 0.000000 0.791643
O O13 0.500000 0.837905 0.000000
#
# Coordination Sequence:
#
# PCOD9310386 Si02
#       5
#     4   4   4   4   4
#     4  11  24  43  70 105 142 187 240 311 378 435
#     4  12  24  43  68 101 141 192 244 301 364 447
#     4   9  18  37  65  97 132 174 234 290 355 430
#     4  11  22  40  70  99 132 186 242 293 360 451
#     4  11  24  44  66  95 138 187 241 298 368 442
#
# _framework density 23.518640999999999
#
# number of rings (size 3 to 8) (size 9 to 14) (size 15 to 20)
#    0.000    1.200    4.000    2.400    0.000    5.200 
#    0.000    2.000    0.000    1.200    0.000    0.000 
#    0.000    0.000    0.000    0.000    0.000    0.000 
#
# Total GULP energy -111366.911101 kJ/mol
# GULP energy per Si atom -5568.345555 kJ/mol
# Density = 2.346511 g / cm^3
# Si number density = 23.518641 Si / 1000 Ang^3
#
#
#
# Elastic Constant Matrix: (Units=GPa)
#
#
# Indices 1 2 3 4 5 6 
#
# 1 82.0380 10.0171 42.2086 0.0000 0.0000 0.0000
# 2 10.0171 108.8596 20.7965 0.0000 0.0000 0.0000
# 3 42.2086 20.7965 97.5579 0.0000 0.0000 0.0000
# 4 0.0000 0.0000 0.0000 15.1530 0.0000 0.0000
# 5 0.0000 0.0000 0.0000 0.0000 10.9655 0.0000
# 6 0.0000 0.0000 0.0000 0.0000 0.0000 32.2047
#
#
#
# Elastic Compliance Matrix: (Units=1/GPa)
#
#
# Indices 1 2 3 4 5 6 
#
# 1 0.015682 -0.000153 -0.006752 0.000000 0.000000 0.000000
# 2 -0.000153 0.009578 -0.001975 0.000000 0.000000 0.000000
# 3 -0.006752 -0.001975 0.013593 0.000000 0.000000 0.000000
# 4 0.000000 0.000000 0.000000 0.065994 0.000000 0.000000
# 5 0.000000 0.000000 0.000000 0.000000 0.091195 0.000000
# 6 0.000000 0.000000 0.000000 0.000000 0.000000 0.031051
#
#
# Mechanical properties :
#
#
# Convention : Reuss Voigt Hill
#
# Bulk Modulus (GPa) = 47.41360 48.27778 47.84569
# Shear Modulus (GPa) = 19.85036 26.02686 22.93861
#
# Velocity S-wave (km/s) = 2.90837 3.33024 3.12643
# Velocity P-wave (km/s) = 5.61087 5.94637 5.78106
#
# Compressibility (1/GPa) = 0.02109099
#
# Stress axis : x y z
#
# Youngs Moduli (GPa) = 63.76644 104.41010 73.56817
#
# Poissons Ratio (x) = 0.01598 0.49676
# Poissons Ratio (y) = 0.00976 0.14533
# Poissons Ratio (z) = 0.43057 0.20626
#
# Static dielectric constant tensor:
#      x y z
#    x 1.874230 0.000000 0.000000 
#    y 0.000000 2.074670 0.000000 
#    z 0.000000 0.000000 2.020880 
# 
# From -- ./inp_files/6379.got.cif
#   From: 2010.05.17/outbox.cif.g08.bks.cpg/sg16_4_cif.got.tgz:6379.got - 2010.06.03 22:28:35.
