data_PCOD9310532
_publ_section_title
;
Structure prediction by ZEFSAII (Michael W. Deem and Ramdas Pophale) SiO2 
 PCOD9310532
Probable space group: P 2 2 21
;
_chemical_formula_sum "Si O2"
_cell_formula_units_Z 16
_cell_length_a 9.080854
_cell_length_b 13.672465
_cell_length_c 5.434095
_cell_angle_alpha 90.000000
_cell_angle_beta 90.000000
_cell_angle_gamma 90.000000
_cell_volume 674.684511
_symmetry_space_group_name_H-M "P 2 2 21"
_symmetry_group_IT_number 17
_symmetry_cell_setting 'orthorhombic'
loop_
_space_group_symop_operation_xyz
x,y,z
-x,-y,1/2+z
x,-y,-z
-x,y,1/2-z
loop_
_atom_site_type_symbol
_atom_site_label
_atom_site_fract_x
_atom_site_fract_y
_atom_site_fract_z
Si Si1 0.164531 0.087527 0.673597
Si Si2 0.169441 0.302427 0.493553
Si Si3 0.167781 0.616676 0.004984
Si Si4 0.572204 0.884158 0.498020
O O1 0.164289 0.186285 0.514582
O O2 0.255737 0.113528 0.921690
O O3 0.000000 0.062051 0.750000
O O4 0.222936 0.000000 0.500000
O O5 0.999447 0.342603 0.000470
O O6 0.237840 0.345746 0.742618
O O7 0.238632 0.340675 0.242045
O O8 0.161982 0.500000 0.000000
O O9 0.500000 0.840986 0.250000
O O10 0.537958 0.000000 0.500000
O O11 0.500000 0.845027 0.750000
#
# Coordination Sequence:
#
# PCOD9310532 Si02
#       4
#     4   4   4   4
#     4  12  25  38  63 101 142 184 223 283 356 412
#     4  10  20  33  51  84 124 168 216 266 322 408
#     4  10  18  34  54  77 122 184 216 256 331 420
#     4  10  22  43  63  81 115 177 240 277 313 387
#
# _framework density 23.714787000000001
#
# number of rings (size 3 to 8) (size 9 to 14) (size 15 to 20)
#    0.000    1.500    2.500    6.750    3.500    4.000 
#    0.000    0.000    0.000    0.000    0.000    0.000 
#    0.000    8.000    0.000   23.000    0.000    0.000 
#
# Total GULP energy -89407.836002 kJ/mol
# GULP energy per Si atom -5587.989750 kJ/mol
# Density = 2.366081 g / cm^3
# Si number density = 23.714787 Si / 1000 Ang^3
#
#
#
# Elastic Constant Matrix: (Units=GPa)
#
#
# Indices 1 2 3 4 5 6 
#
# 1 96.5490 -13.4153 23.7003 0.0000 0.0000 0.0000
# 2 -13.4153 179.5731 49.4195 0.0000 0.0000 0.0000
# 3 23.7003 49.4195 252.9517 0.0000 0.0000 0.0000
# 4 0.0000 0.0000 0.0000 56.8134 0.0000 0.0000
# 5 0.0000 0.0000 0.0000 0.0000 19.7472 0.0000
# 6 0.0000 0.0000 0.0000 0.0000 0.0000 3.8560
#
#
#
# Elastic Compliance Matrix: (Units=1/GPa)
#
#
# Indices 1 2 3 4 5 6 
#
# 1 0.010821 0.001149 -0.001238 0.000000 0.000000 0.000000
# 2 0.001149 0.006007 -0.001281 0.000000 0.000000 0.000000
# 3 -0.001238 -0.001281 0.004320 0.000000 0.000000 0.000000
# 4 0.000000 0.000000 0.000000 0.017601 0.000000 0.000000
# 5 0.000000 0.000000 0.000000 0.000000 0.050640 0.000000
# 6 0.000000 0.000000 0.000000 0.000000 0.000000 0.259333
#
#
# Mechanical properties :
#
#
# Convention : Reuss Voigt Hill
#
# Bulk Modulus (GPa) = 54.32705 72.05367 63.19036
# Shear Modulus (GPa) = 13.98212 47.37461 30.67837
#
# Velocity S-wave (km/s) = 2.43079 4.47439 3.60062
# Velocity P-wave (km/s) = 5.55307 7.55930 6.63248
#
# Compressibility (1/GPa) = 0.01840704
#
# Stress axis : x y z
#
# Youngs Moduli (GPa) = 92.41189 166.46572 231.49812
#
# Poissons Ratio (x) = -0.19131 0.28669
# Poissons Ratio (y) = -0.10620 0.29662
# Poissons Ratio (z) = 0.11444 0.21330
#
# Static dielectric constant tensor:
#      x y z
#    x 1.931830 0.000000 0.000000 
#    y 0.000000 1.856500 0.000000 
#    z 0.000000 0.000000 2.081590 
# 
# From -- ./inp_files/1304.got.cif
#   From: 2010.05.17/outbox.cif.g08.bks.cpg/sg17_1_cif.got.tgz:1304.got - 2010.06.03 22:34:06.
