data_PCOD9310693
_publ_section_title
;
Structure prediction by ZEFSAII (Michael W. Deem and Ramdas Pophale) SiO2 
 PCOD9310693
Probable space group: P 2 2 21
;
_chemical_formula_sum "Si O2"
_cell_formula_units_Z 28
_cell_length_a 11.415842
_cell_length_b 7.975327
_cell_length_c 14.661422
_cell_angle_alpha 90.000000
_cell_angle_beta 90.000000
_cell_angle_gamma 90.000000
_cell_volume 1334.850235
_symmetry_space_group_name_H-M "P 2 2 21"
_symmetry_group_IT_number 17
_symmetry_cell_setting 'orthorhombic'
loop_
_space_group_symop_operation_xyz
x,y,z
-x,-y,1/2+z
x,-y,-z
-x,y,1/2-z
loop_
_atom_site_type_symbol
_atom_site_label
_atom_site_fract_x
_atom_site_fract_y
_atom_site_fract_z
Si Si1 0.974906 0.905759 0.599408
Si Si2 0.220432 0.659724 0.934336
Si Si3 0.441406 0.546949 0.847871
Si Si4 0.482042 0.106186 0.356884
Si Si5 0.126865 0.192492 0.768287
Si Si6 0.651753 0.795795 0.401847
Si Si7 0.218375 0.990471 0.608069
O O1 0.899496 0.739583 0.595382
O O2 0.108691 0.867979 0.626415
O O3 0.972833 0.000000 0.500000
O O4 0.917071 0.031878 0.672246
O O5 0.306997 0.614249 0.851765
O O6 0.204816 0.500000 0.000000
O O7 0.284372 0.792802 0.000804
O O8 0.500000 0.518647 0.750000
O O9 0.504635 0.705205 0.896055
O O10 0.432300 0.367409 0.896160
O O11 0.500000 0.129596 0.250000
O O12 0.349188 0.051173 0.366252
O O13 0.573705 0.961522 0.386261
O O14 0.243217 0.238435 0.827787
O O15 0.000000 0.285038 0.750000
O O16 0.177042 0.148632 0.668366
O O17 0.220942 0.000000 0.500000
#
# Coordination Sequence:
#
# PCOD9310693 Si02
#       7
#     4   4   4   4   4   4   4
#     4  10  19  37  67  92 126 162 212 273 315 382
#     4  10  22  38  63  92 125 168 220 266 323 389
#     4  10  24  38  59  93 129 159 214 273 315 383
#     4  11  22  38  63  85 121 169 211 254 324 384
#     4  10  20  36  65  99 124 166 217 263 326 388
#     4  11  21  40  65  91 124 169 220 263 316 388
#     4  10  23  38  60 100 129 162 213 267 329 401
#
# _framework density 20.976136
#
# number of rings (size 3 to 8) (size 9 to 14) (size 15 to 20)
#    0.000    1.714    2.857    1.286    4.000    0.000 
#    0.000    0.000   18.857    0.000    0.000    0.000 
#    0.000    0.000    0.000    0.000    0.000    0.000 
#
# Total GULP energy -155879.003056 kJ/mol
# GULP energy per Si atom -5567.107252 kJ/mol
# Density = 2.092839 g / cm^3
# Si number density = 20.976136 Si / 1000 Ang^3
#
#
#
# Elastic Constant Matrix: (Units=GPa)
#
#
# Indices 1 2 3 4 5 6 
#
# 1 126.5046 29.7188 24.3566 0.0000 0.0000 0.0000
# 2 29.7188 79.4825 1.6981 0.0000 0.0000 0.0000
# 3 24.3566 1.6981 93.5933 0.0000 0.0000 0.0000
# 4 0.0000 0.0000 0.0000 21.5642 0.0000 0.0000
# 5 0.0000 0.0000 0.0000 0.0000 33.9094 0.0000
# 6 0.0000 0.0000 0.0000 0.0000 0.0000 38.1150
#
#
#
# Elastic Compliance Matrix: (Units=1/GPa)
#
#
# Indices 1 2 3 4 5 6 
#
# 1 0.009143 -0.003369 -0.002318 0.000000 0.000000 0.000000
# 2 -0.003369 0.013828 0.000626 0.000000 0.000000 0.000000
# 3 -0.002318 0.000626 0.011276 0.000000 0.000000 0.000000
# 4 0.000000 0.000000 0.000000 0.046373 0.000000 0.000000
# 5 0.000000 0.000000 0.000000 0.000000 0.029490 0.000000
# 6 0.000000 0.000000 0.000000 0.000000 0.000000 0.026236
#
#
# Mechanical properties :
#
#
# Convention : Reuss Voigt Hill
#
# Bulk Modulus (GPa) = 41.45200 45.68081 43.56640
# Shear Modulus (GPa) = 32.36027 34.97151 33.66589
#
# Velocity S-wave (km/s) = 3.93201 4.08757 4.01054
# Velocity P-wave (km/s) = 6.35757 6.64097 6.50081
#
# Compressibility (1/GPa) = 0.02412429
#
# Stress axis : x y z
#
# Youngs Moduli (GPa) = 109.37792 72.31874 88.68049
#
# Poissons Ratio (x) = 0.24364 0.20557
# Poissons Ratio (y) = 0.36849 -0.05550
# Poissons Ratio (z) = 0.25355 -0.04526
#
# Static dielectric constant tensor:
#      x y z
#    x 1.871460 0.000000 0.000000 
#    y 0.000000 1.799410 0.000000 
#    z 0.000000 0.000000 1.787740 
# 
# From -- ./inp_files/8485.got.cif
#   From: 2010.05.17/outbox.cif.g08.bks.cpg/sg17_5_cif.got.tgz:8485.got - 2010.06.03 22:34:06.
