data_PCOD9310760
_publ_section_title
;
Structure prediction by ZEFSAII (Michael W. Deem and Ramdas Pophale) SiO2 
 PCOD9310760
Probable space group: P 2 2 21
;
_chemical_formula_sum "Si O2"
_cell_formula_units_Z 18
_cell_length_a 17.178896
_cell_length_b 10.019148
_cell_length_c 5.242122
_cell_angle_alpha 90.000000
_cell_angle_beta 90.000000
_cell_angle_gamma 90.000000
_cell_volume 902.263038
_symmetry_space_group_name_H-M "P 2 2 21"
_symmetry_group_IT_number 17
_symmetry_cell_setting 'orthorhombic'
loop_
_space_group_symop_operation_xyz
x,y,z
-x,-y,1/2+z
x,-y,-z
-x,y,1/2-z
loop_
_atom_site_type_symbol
_atom_site_label
_atom_site_fract_x
_atom_site_fract_y
_atom_site_fract_z
Si Si1 0.551769 0.158603 0.500745
Si Si2 0.191300 0.351367 0.489773
Si Si3 0.073559 0.863889 0.383588
Si Si4 0.806088 0.000000 0.500000
Si Si5 0.278938 0.265743 0.014078
O O1 0.500000 0.181804 0.750000
O O2 0.629011 0.248080 0.510639
O O3 0.572949 0.000000 0.500000
O O4 0.500000 0.183548 0.250000
O O5 0.157588 0.500000 0.500000
O O6 0.122219 0.242432 0.451982
O O7 0.250039 0.352908 0.250918
O O8 0.237724 0.311751 0.750017
O O9 0.138324 0.927937 0.200262
O O10 0.000000 0.795130 0.250000
O O11 0.039015 0.000000 0.500000
O O12 0.751887 0.118494 0.403664
#
# Coordination Sequence:
#
# PCOD9310760 Si02
#       5
#     4   4   4   2   4
#     4  10  20  34  57  95 132 158 196 257 324 372
#     4  11  25  42  63  91 125 170 215 255 309 375
#     4  11  21  38  62  92 126 158 208 260 319 372
#     4  10  20  34  58  94 116 160 202 256 304 362
#     4  11  21  39  65  88 128 162 211 256 309 369
#
# _framework density 19.949836000000001
#
# number of rings (size 3 to 8) (size 9 to 14) (size 15 to 20)
#    0.000    1.333    4.444    2.000    0.000    0.000 
#    0.000    5.556    0.000   13.333    0.000    0.000 
#    0.000    0.000    0.000    0.000    0.000    0.000 
#
# Total GULP energy -100357.566757 kJ/mol
# GULP energy per Si atom -5575.420375 kJ/mol
# Density = 1.990443 g / cm^3
# Si number density = 19.949836 Si / 1000 Ang^3
#
#
#
# Elastic Constant Matrix: (Units=GPa)
#
#
# Indices 1 2 3 4 5 6 
#
# 1 96.8164 16.8336 27.5183 0.0000 0.0000 0.0000
# 2 16.8336 65.1575 -1.9504 0.0000 0.0000 0.0000
# 3 27.5183 -1.9504 98.3658 0.0000 0.0000 0.0000
# 4 0.0000 0.0000 0.0000 8.9331 0.0000 0.0000
# 5 0.0000 0.0000 0.0000 0.0000 20.9355 0.0000
# 6 0.0000 0.0000 0.0000 0.0000 0.0000 25.8027
#
#
#
# Elastic Compliance Matrix: (Units=1/GPa)
#
#
# Indices 1 2 3 4 5 6 
#
# 1 0.011837 -0.003159 -0.003374 0.000000 0.000000 0.000000
# 2 -0.003159 0.016200 0.001205 0.000000 0.000000 0.000000
# 3 -0.003374 0.001205 0.011134 0.000000 0.000000 0.000000
# 4 0.000000 0.000000 0.000000 0.111943 0.000000 0.000000
# 5 0.000000 0.000000 0.000000 0.000000 0.047766 0.000000
# 6 0.000000 0.000000 0.000000 0.000000 0.000000 0.038756
#
#
# Mechanical properties :
#
#
# Convention : Reuss Voigt Hill
#
# Bulk Modulus (GPa) = 35.07027 38.34920 36.70973
# Shear Modulus (GPa) = 19.39514 25.66348 22.52931
#
# Velocity S-wave (km/s) = 3.12139 3.59053 3.36415
# Velocity P-wave (km/s) = 5.53246 6.03770 5.79059
#
# Compressibility (1/GPa) = 0.02851418
#
# Stress axis : x y z
#
# Youngs Moduli (GPa) = 84.47980 61.72964 89.81534
#
# Poissons Ratio (x) = 0.19501 0.30305
# Poissons Ratio (y) = 0.26688 -0.10823
# Poissons Ratio (z) = 0.28505 -0.07438
#
# Static dielectric constant tensor:
#      x y z
#    x 1.688110 0.000000 0.000000 
#    y 0.000000 1.738190 0.000000 
#    z 0.000000 0.000000 1.747830 
# 
# From -- ./inp_files/757.got.cif
#   From: 2010.05.17/outbox.cif.g08.bks.cpg/sg17_1_cif.got.tgz:757.got - 2010.06.03 22:34:06.
