data_PCOD9310356
_publ_section_title
;
Structure prediction by ZEFSAII (Michael W. Deem and Ramdas Pophale) SiO2 
 PCOD9310356
Probable space group: P 2 2 2
;
_chemical_formula_sum "Si O2"
_cell_formula_units_Z 15
_cell_length_a 5.748732
_cell_length_b 5.160878
_cell_length_c 20.151524
_cell_angle_alpha 90.000000
_cell_angle_beta 90.000000
_cell_angle_gamma 90.000000
_cell_volume 597.865581
_symmetry_space_group_name_H-M "P 2 2 2"
_symmetry_group_IT_number 16
_symmetry_cell_setting 'orthorhombic'
loop_
_space_group_symop_operation_xyz
x,y,z
-x,-y,z
x,-y,-z
-x,y,-z
loop_
_atom_site_type_symbol
_atom_site_label
_atom_site_fract_x
_atom_site_fract_y
_atom_site_fract_z
Si Si1 0.000000 0.000000 0.849561
Si Si2 0.500000 0.000000 0.500000
Si Si3 0.658499 0.743954 0.252343
Si Si4 0.154148 0.742914 0.600218
Si Si5 0.748765 0.600816 0.923857
O O1 0.204808 0.105027 0.899336
O O2 0.868029 0.191170 0.797851
O O3 0.650688 0.183202 0.547534
O O4 0.500000 0.500000 0.234315
O O5 0.748657 0.690490 0.326460
O O6 0.500000 0.000000 0.253817
O O7 0.000000 0.500000 0.579514
O O8 0.000000 0.000000 0.605487
O O9 0.500000 0.500000 0.899774
O O10 0.000000 0.500000 0.900167
O O11 0.747902 0.500000 0.000000
#
# Coordination Sequence:
#
# PCOD9310356 Si02
#       5
#     2   1   4   4   4
#     4  12  30  49  86 125 168 226 292 362 440 539
#     4  12  30  54  80 124 168 238 278 364 440 524
#     4  12  29  53  84 122 172 225 289 366 439 522
#     4  12  28  54  82 120 169 226 291 360 433 524
#     4  10  26  52  81 121 172 222 282 356 440 537
#
# _framework density 25.089251999999998
#
# number of rings (size 3 to 8) (size 9 to 14) (size 15 to 20)
#    0.000    0.533    2.667    2.000    7.467    5.333 
#    0.000   10.667    0.000    0.000    0.000    0.000 
#    0.000    0.000    0.000    0.000    0.000    0.000 
#
# Total GULP energy -83921.156517 kJ/mol
# GULP energy per Si atom -5594.743768 kJ/mol
# Density = 2.503215 g / cm^3
# Si number density = 25.089252 Si / 1000 Ang^3
#
#
#
# Elastic Constant Matrix: (Units=GPa)
#
#
# Indices 1 2 3 4 5 6 
#
# 1 208.5115 91.5734 99.3437 0.0000 0.0000 0.0000
# 2 91.5734 155.3589 72.7913 0.0000 0.0000 0.0000
# 3 99.3437 72.7913 251.4352 0.0000 0.0000 0.0000
# 4 0.0000 0.0000 0.0000 -30.0694 0.0000 0.0000
# 5 0.0000 0.0000 0.0000 0.0000 116.9739 0.0000
# 6 0.0000 0.0000 0.0000 0.0000 0.0000 62.5663
#
#
#
# Elastic Compliance Matrix: (Units=1/GPa)
#
#
# Indices 1 2 3 4 5 6 
#
# 1 0.007149 -0.003344 -0.001857 0.000000 0.000000 0.000000
# 2 -0.003344 0.009011 -0.001287 0.000000 0.000000 0.000000
# 3 -0.001857 -0.001287 0.005083 0.000000 0.000000 0.000000
# 4 0.000000 0.000000 0.000000 -0.033256 0.000000 0.000000
# 5 0.000000 0.000000 0.000000 0.000000 0.008549 0.000000
# 6 0.000000 0.000000 0.000000 0.000000 0.000000 0.015983
#
#
# Mechanical properties :
#
#
# Convention : Reuss Voigt Hill
#
# Bulk Modulus (GPa) = 120.95657 126.96916 123.96286
# Shear Modulus (GPa) = 176.98570 53.33398 115.15984
#
# Velocity S-wave (km/s) = 8.40807 4.61561 6.78231
# Velocity P-wave (km/s) = 11.94052 8.89505 10.52848
#
# Compressibility (1/GPa) = 0.00826743
#
# Stress axis : x y z
#
# Youngs Moduli (GPa) = 139.87886 110.97545 196.71791
#
# Poissons Ratio (x) = 0.37110 0.36521
# Poissons Ratio (y) = 0.46776 0.25327
# Poissons Ratio (z) = 0.25969 0.14288
#
# Static dielectric constant tensor:
#      x y z
#    x 1.957620 0.000000 0.000000 
#    y 0.000000 2.070740 0.000000 
#    z 0.000000 0.000000 2.114930 
# 
# From -- ./inp_files/9144.got.cif
#   From: 2010.05.17/outbox.cif.g08.bks.cpg/sg16_5_cif.got.tgz:9144.got - 2010.06.03 22:28:35.
