data_PCOD9310863
_publ_section_title
;
Structure prediction by ZEFSAII (Michael W. Deem and Ramdas Pophale) SiO2 
 PCOD9310863
Probable space group: P 2 2 21
;
_chemical_formula_sum "Si O2"
_cell_formula_units_Z 22
_cell_length_a 8.115915
_cell_length_b 15.458467
_cell_length_c 9.115083
_cell_angle_alpha 90.000000
_cell_angle_beta 90.000000
_cell_angle_gamma 90.000000
_cell_volume 1143.574705
_symmetry_space_group_name_H-M "P 2 2 21"
_symmetry_group_IT_number 17
_symmetry_cell_setting 'orthorhombic'
loop_
_space_group_symop_operation_xyz
x,y,z
-x,-y,1/2+z
x,-y,-z
-x,y,1/2-z
loop_
_atom_site_type_symbol
_atom_site_label
_atom_site_fract_x
_atom_site_fract_y
_atom_site_fract_z
Si Si1 0.932385 0.087844 0.413362
Si Si2 0.663491 0.644104 0.183502
Si Si3 0.892795 0.733741 0.949075
Si Si4 0.327033 0.792808 0.825762
Si Si5 0.775992 0.639275 0.502603
Si Si6 0.470982 0.500000 0.000000
O O1 0.745898 0.118714 0.387626
O O2 0.000000 0.075500 0.250000
O O3 0.022292 0.172982 0.481528
O O4 0.952079 0.000000 0.500000
O O5 0.500000 0.688222 0.250000
O O6 0.771813 0.622903 0.327700
O O7 0.587678 0.559666 0.100844
O O8 0.764381 0.701808 0.070307
O O9 0.797913 0.751611 0.796292
O O10 0.038121 0.661189 0.947204
O O11 0.500000 0.802656 0.750000
O O12 0.325029 0.725314 0.957585
O O13 0.661485 0.565307 0.575355
#
# Coordination Sequence:
#
# PCOD9310863 Si02
#       6
#     4   4   4   4   4   2
#     4   9  20  38  61  89 117 152 194 237 289 351
#     4  10  21  37  58  86 117 152 194 240 289 338
#     4  10  21  39  62  86 117 156 196 239 292 350
#     4  10  20  38  62  86 117 154 194 241 296 347
#     4  10  21  37  57  85 114 153 199 235 284 345
#     4  10  22  36  54  84 118 150 192 244 290 334
#
# _framework density 19.237922000000001
#
# number of rings (size 3 to 8) (size 9 to 14) (size 15 to 20)
#    0.000    2.182    0.000    4.364    0.000   10.182 
#    0.000    7.273    0.000   14.182    0.000    0.000 
#    0.000    0.000    0.000    0.000    0.000    0.000 
#
# Total GULP energy -122481.355638 kJ/mol
# GULP energy per Si atom -5567.334347 kJ/mol
# Density = 1.919414 g / cm^3
# Si number density = 19.237922 Si / 1000 Ang^3
#
#
#
# Elastic Constant Matrix: (Units=GPa)
#
#
# Indices 1 2 3 4 5 6 
#
# 1 116.9121 55.6803 39.6461 0.0000 0.0000 0.0000
# 2 55.6803 112.9918 52.7463 0.0000 0.0000 0.0000
# 3 39.6461 52.7463 83.3795 0.0000 0.0000 0.0000
# 4 0.0000 0.0000 0.0000 36.6067 0.0000 0.0000
# 5 0.0000 0.0000 0.0000 0.0000 32.6530 0.0000
# 6 0.0000 0.0000 0.0000 0.0000 0.0000 11.7319
#
#
#
# Elastic Compliance Matrix: (Units=1/GPa)
#
#
# Indices 1 2 3 4 5 6 
#
# 1 0.011587 -0.004453 -0.002693 0.000000 0.000000 0.000000
# 2 -0.004453 0.014270 -0.006910 0.000000 0.000000 0.000000
# 3 -0.002693 -0.006910 0.017645 0.000000 0.000000 0.000000
# 4 0.000000 0.000000 0.000000 0.027317 0.000000 0.000000
# 5 0.000000 0.000000 0.000000 0.000000 0.030625 0.000000
# 6 0.000000 0.000000 0.000000 0.000000 0.000000 0.085238
#
#
# Mechanical properties :
#
#
# Convention : Reuss Voigt Hill
#
# Bulk Modulus (GPa) = 64.97252 67.71430 66.34341
# Shear Modulus (GPa) = 22.73503 27.21236 24.97370
#
# Velocity S-wave (km/s) = 3.44144 3.76509 3.60689
# Velocity P-wave (km/s) = 7.04541 7.36043 7.20464
#
# Compressibility (1/GPa) = 0.01539112
#
# Stress axis : x y z
#
# Youngs Moduli (GPa) = 86.30111 70.07553 56.67315
#
# Poissons Ratio (x) = 0.31205 0.15260
# Poissons Ratio (y) = 0.38430 0.39162
# Poissons Ratio (z) = 0.23238 0.48423
#
# Static dielectric constant tensor:
#      x y z
#    x 1.729630 0.000000 0.000000 
#    y 0.000000 1.668900 0.000000 
#    z 0.000000 0.000000 1.700400 
# 
# From -- ./inp_files/4248.got.cif
#   From: 2010.05.17/outbox.cif.g08.bks.cpg/sg17_3_cif.got.tgz:4248.got - 2010.06.03 22:34:06.
