data_PCOD9310011
_publ_section_title
;
Structure prediction by ZEFSAII (Michael W. Deem and Ramdas Pophale) SiO2 
 PCOD9310011
Probable space group: P 2 2 2
;
_chemical_formula_sum "Si O2"
_cell_formula_units_Z 32
_cell_length_a 9.625144
_cell_length_b 11.744142
_cell_length_c 16.925115
_cell_angle_alpha 90.000000
_cell_angle_beta 90.000000
_cell_angle_gamma 90.000000
_cell_volume 1913.199055
_symmetry_space_group_name_H-M "P 2 2 2"
_symmetry_group_IT_number 16
_symmetry_cell_setting 'orthorhombic'
loop_
_space_group_symop_operation_xyz
x,y,z
-x,-y,z
x,-y,-z
-x,y,-z
loop_
_atom_site_type_symbol
_atom_site_label
_atom_site_fract_x
_atom_site_fract_y
_atom_site_fract_z
Si Si1 0.335470 0.863293 0.496540
Si Si2 0.269968 0.864766 0.193159
Si Si3 0.222149 0.864796 0.805243
Si Si4 0.834299 0.247790 0.352997
Si Si5 0.832614 0.498469 0.409704
Si Si6 0.522733 0.863356 0.089387
Si Si7 0.172260 0.749509 0.641789
Si Si8 0.973736 0.864442 0.914202
O O1 0.500000 0.830233 0.500000
O O2 0.253882 0.820503 0.418726
O O3 0.249159 0.811690 0.569639
O O4 0.330665 0.000000 0.500000
O O5 0.214520 0.796312 0.267831
O O6 0.421941 0.832600 0.162561
O O7 0.180016 0.843293 0.114678
O O8 0.246997 0.999922 0.210325
O O9 0.326260 0.837340 0.876750
O O10 0.231245 0.799899 0.723071
O O11 0.073440 0.833688 0.842130
O O12 0.798495 0.380618 0.366897
O O13 0.002950 0.233859 0.362240
O O14 0.778425 0.500000 0.500000
O O15 0.795701 0.615378 0.366482
O O16 0.000000 0.500000 0.415236
O O17 0.500000 0.000000 0.083547
O O18 0.500000 0.818920 0.000000
O O19 0.000000 0.000000 0.920771
O O20 0.000000 0.813436 0.000000
#
# Coordination Sequence:
#
# PCOD9310011 Si02
#       8
#     4   4   4   4   4   4   4   4
#     4  11  25  38  53  78 112 147 174 209 268 331
#     4  10  19  30  49  78 109 139 174 214 262 323
#     4  10  19  30  49  78 109 139 174 214 262 323
#     4  11  21  37  58  79 105 141 183 227 273 314
#     4   9  18  36  58  78  99 136 186 236 270 311
#     4   9  18  32  50  74 109 150 178 204 257 325
#     4  11  21  37  58  79 105 141 183 227 273 314
#     4   9  16  28  46  72 105 134 168 214 259 313
#
# _framework density 16.725912999999998
#
# number of rings (size 3 to 8) (size 9 to 14) (size 15 to 20)
#    0.000    2.000    2.500    1.875    1.750    5.000 
#    0.000    1.250    0.000    0.000    0.000    5.250 
#    0.000    0.000    0.000    0.000    0.000    0.000 
#
# Total GULP energy -178167.483434 kJ/mol
# GULP energy per Si atom -5567.733857 kJ/mol
# Density = 1.668784 g / cm^3
# Si number density = 16.725913 Si / 1000 Ang^3
#
#
#
# Elastic Constant Matrix: (Units=GPa)
#
#
# Indices 1 2 3 4 5 6 
#
# 1 39.7598 20.6505 7.9237 0.0000 0.0000 0.0000
# 2 20.6505 81.5229 48.3731 0.0000 0.0000 0.0000
# 3 7.9237 48.3731 118.4987 0.0000 0.0000 0.0000
# 4 0.0000 0.0000 0.0000 -2.7586 0.0000 0.0000
# 5 0.0000 0.0000 0.0000 0.0000 29.7089 0.0000
# 6 0.0000 0.0000 0.0000 0.0000 0.0000 11.7656
#
#
#
# Elastic Compliance Matrix: (Units=1/GPa)
#
#
# Indices 1 2 3 4 5 6 
#
# 1 0.029137 -0.008214 0.001405 0.000000 0.000000 0.000000
# 2 -0.008214 0.018503 -0.007004 0.000000 0.000000 0.000000
# 3 0.001405 -0.007004 0.011204 0.000000 0.000000 0.000000
# 4 0.000000 0.000000 0.000000 -0.362502 0.000000 0.000000
# 5 0.000000 0.000000 0.000000 0.000000 0.033660 0.000000
# 6 0.000000 0.000000 0.000000 0.000000 0.000000 0.084993
#
#
# Mechanical properties :
#
#
# Convention : Reuss Voigt Hill
#
# Bulk Modulus (GPa) = 32.03308 43.74177 37.88742
# Shear Modulus (GPa) = -34.02023 18.59879 -7.71072
#
# Velocity S-wave (km/s) = -4.51486 3.33825 -2.14943
# Velocity P-wave (km/s) = 2.82583 6.40838 4.06707
#
# Compressibility (1/GPa) = 0.03121773
#
# Stress axis : x y z
#
# Youngs Moduli (GPa) = 34.32014 54.04460 89.25277
#
# Poissons Ratio (x) = 0.44394 -0.12539
# Poissons Ratio (y) = 0.28192 0.62513
# Poissons Ratio (z) = -0.04822 0.37853
#
# Static dielectric constant tensor:
#      x y z
#    x 1.620110 0.000000 0.000000 
#    y 0.000000 1.546000 0.000000 
#    z 0.000000 0.000000 1.566520 
# 
# From -- ./inp_files/8006.got.cif
#   From: 2010.05.17/outbox.cif.g08.bks.cpg/sg16_5_cif.got.tgz:8006.got - 2010.06.03 22:28:35.
