data_PCOD9310205
_publ_section_title
;
Structure prediction by ZEFSAII (Michael W. Deem and Ramdas Pophale) SiO2 
 PCOD9310205
Probable space group: P 2 2 2
;
_chemical_formula_sum "Si O2"
_cell_formula_units_Z 17
_cell_length_a 7.302006
_cell_length_b 7.895123
_cell_length_c 13.475613
_cell_angle_alpha 90.000000
_cell_angle_beta 90.000000
_cell_angle_gamma 90.000000
_cell_volume 776.872263
_symmetry_space_group_name_H-M "P 2 2 2"
_symmetry_group_IT_number 16
_symmetry_cell_setting 'orthorhombic'
loop_
_space_group_symop_operation_xyz
x,y,z
-x,-y,z
x,-y,-z
-x,y,-z
loop_
_atom_site_type_symbol
_atom_site_label
_atom_site_fract_x
_atom_site_fract_y
_atom_site_fract_z
Si Si1 0.697992 0.311676 0.299998
Si Si2 0.000000 0.000000 0.000000
Si Si3 0.726567 0.675810 0.267754
Si Si4 0.217723 0.807546 0.510620
Si Si5 0.277667 0.010624 0.837282
O O1 0.793982 0.482671 0.262361
O O2 0.492892 0.325144 0.259630
O O3 0.703230 0.300752 0.419188
O O4 0.761946 0.132758 0.256325
O O5 0.150788 0.918301 0.074551
O O6 0.752012 0.737698 0.380264
O O7 0.787687 0.820936 0.191736
O O8 0.000000 0.809408 0.500000
O O9 0.286883 0.000000 0.500000
O O10 0.500000 0.000000 0.856582
#
# Coordination Sequence:
#
# PCOD9310205 Si02
#       5
#     4   1   4   4   4
#     4  10  21  38  61  88 122 165 205 242 295 362
#     4  12  26  44  74  92 116 154 206 260 322 392
#     4  10  21  38  61  88 122 165 205 242 295 362
#     4  11  22  33  54  89 131 166 203 244 290 354
#     4  10  23  44  66  91 124 157 199 261 314 360
#
# _framework density 21.882618000000001
#
# number of rings (size 3 to 8) (size 9 to 14) (size 15 to 20)
#    0.000    1.647    2.353    1.765    3.294    4.706 
#    0.000    2.353    0.000    5.647    0.000    0.000 
#    0.000    0.000    0.000    0.000    0.000    0.000 
#
# Total GULP energy -94755.999424 kJ/mol
# GULP energy per Si atom -5573.882319 kJ/mol
# Density = 2.183281 g / cm^3
# Si number density = 21.882618 Si / 1000 Ang^3
#
#
#
# Elastic Constant Matrix: (Units=GPa)
#
#
# Indices 1 2 3 4 5 6 
#
# 1 90.6606 15.3441 12.1203 0.0000 0.0000 0.0000
# 2 15.3441 116.4042 6.9158 0.0000 0.0000 0.0000
# 3 12.1203 6.9158 68.2383 0.0000 0.0000 0.0000
# 4 0.0000 0.0000 0.0000 4.2016 0.0000 0.0000
# 5 0.0000 0.0000 0.0000 0.0000 72.6485 0.0000
# 6 0.0000 0.0000 0.0000 0.0000 0.0000 -6.6627
#
#
#
# Elastic Compliance Matrix: (Units=1/GPa)
#
#
# Indices 1 2 3 4 5 6 
#
# 1 0.011523 -0.001406 -0.001904 0.000000 0.000000 0.000000
# 2 -0.001406 0.008814 -0.000644 0.000000 0.000000 0.000000
# 3 -0.001904 -0.000644 0.015058 0.000000 0.000000 0.000000
# 4 0.000000 0.000000 0.000000 0.238004 0.000000 0.000000
# 5 0.000000 0.000000 0.000000 0.000000 0.013765 0.000000
# 6 0.000000 0.000000 0.000000 0.000000 0.000000 -0.150090
#
#
# Mechanical properties :
#
#
# Convention : Reuss Voigt Hill
#
# Bulk Modulus (GPa) = 36.37972 38.22928 37.30450
# Shear Modulus (GPa) = 32.43722 30.09902 31.26812
#
# Velocity S-wave (km/s) = 3.85428 3.71276 3.78418
# Velocity P-wave (km/s) = 6.03890 5.99062 6.01481
#
# Compressibility (1/GPa) = 0.02748784
#
# Stress axis : x y z
#
# Youngs Moduli (GPa) = 86.78568 113.45208 66.41002
#
# Poissons Ratio (x) = 0.15949 0.12646
# Poissons Ratio (y) = 0.12200 0.04274
# Poissons Ratio (z) = 0.16525 0.07302
#
# Static dielectric constant tensor:
#      x y z
#    x 1.826940 0.000000 0.000000 
#    y 0.000000 1.862410 0.000000 
#    z 0.000000 0.000000 1.877710 
# 
# From -- ./inp_files/3690.got.cif
#   From: 2010.05.17/outbox.cif.g08.bks.cpg/sg16_2_cif.got.tgz:3690.got - 2010.06.03 22:28:35.
