data_PCOD9310759
_publ_section_title
;
Structure prediction by ZEFSAII (Michael W. Deem and Ramdas Pophale) SiO2 
 PCOD9310759
Probable space group: P 2 2 21
;
_chemical_formula_sum "Si O2"
_cell_formula_units_Z 20
_cell_length_a 17.657266
_cell_length_b 12.061375
_cell_length_c 4.904819
_cell_angle_alpha 90.000000
_cell_angle_beta 90.000000
_cell_angle_gamma 90.000000
_cell_volume 1044.583750
_symmetry_space_group_name_H-M "P 2 2 21"
_symmetry_group_IT_number 17
_symmetry_cell_setting 'orthorhombic'
loop_
_space_group_symop_operation_xyz
x,y,z
-x,-y,1/2+z
x,-y,-z
-x,y,1/2-z
loop_
_atom_site_type_symbol
_atom_site_label
_atom_site_fract_x
_atom_site_fract_y
_atom_site_fract_z
Si Si1 0.949539 0.774101 0.506902
Si Si2 0.181670 0.925666 0.247570
Si Si3 0.263400 0.290922 0.674535
Si Si4 0.585293 0.416093 0.752889
Si Si5 0.178971 0.384579 0.165822
O O1 0.888841 0.859298 0.382780
O O2 0.902662 0.673480 0.644238
O O3 0.000000 0.736690 0.250000
O O4 0.000000 0.823435 0.750000
O O5 0.240154 0.835920 0.373036
O O6 0.155798 0.000000 0.500000
O O7 0.213491 0.000000 0.000000
O O8 0.350299 0.326403 0.686780
O O9 0.215123 0.369363 0.466036
O O10 0.234287 0.312120 0.979127
O O11 0.600782 0.500000 0.500000
O O12 0.500000 0.368970 0.750000
O O13 0.586708 0.500000 0.000000
O O14 0.176704 0.500000 0.000000
#
# Coordination Sequence:
#
# PCOD9310759 Si02
#       5
#     4   4   4   4   4
#     4  11  23  39  56  80 109 140 186 239 291 346
#     4  11  23  40  59  80 106 145 194 243 293 337
#     4  11  21  37  58  82 114 147 188 233 274 336
#     4  10  20  34  57  90 122 150 180 220 277 341
#     4  11  22  36  57  82 111 150 186 223 279 346
#
# _framework density 19.146381999999999
#
# number of rings (size 3 to 8) (size 9 to 14) (size 15 to 20)
#    0.000    1.200    0.000    9.600    0.000    2.400 
#    0.000    2.000    0.000    1.200    0.000    0.000 
#    0.000    0.000    0.000    0.000    0.000    0.000 
#
# Total GULP energy -111553.339001 kJ/mol
# GULP energy per Si atom -5577.666950 kJ/mol
# Density = 1.910280 g / cm^3
# Si number density = 19.146382 Si / 1000 Ang^3
#
#
#
# Elastic Constant Matrix: (Units=GPa)
#
#
# Indices 1 2 3 4 5 6 
#
# 1 140.3246 47.4416 38.9579 0.0000 0.0000 0.0000
# 2 47.4416 62.6906 18.7677 0.0000 0.0000 0.0000
# 3 38.9579 18.7677 120.3575 0.0000 0.0000 0.0000
# 4 0.0000 0.0000 0.0000 25.1654 0.0000 0.0000
# 5 0.0000 0.0000 0.0000 0.0000 24.8450 0.0000
# 6 0.0000 0.0000 0.0000 0.0000 0.0000 18.6153
#
#
#
# Elastic Compliance Matrix: (Units=1/GPa)
#
#
# Indices 1 2 3 4 5 6 
#
# 1 0.010093 -0.006986 -0.002178 0.000000 0.000000 0.000000
# 2 -0.006986 0.021568 -0.001102 0.000000 0.000000 0.000000
# 3 -0.002178 -0.001102 0.009185 0.000000 0.000000 0.000000
# 4 0.000000 0.000000 0.000000 0.039737 0.000000 0.000000
# 5 0.000000 0.000000 0.000000 0.000000 0.040250 0.000000
# 6 0.000000 0.000000 0.000000 0.000000 0.000000 0.053719
#
#
# Mechanical properties :
#
#
# Convention : Reuss Voigt Hill
#
# Bulk Modulus (GPa) = 49.22431 59.30079 54.26255
# Shear Modulus (GPa) = 24.77039 28.27217 26.52128
#
# Velocity S-wave (km/s) = 3.60076 3.84687 3.72584
# Velocity P-wave (km/s) = 6.56144 7.12536 6.84921
#
# Compressibility (1/GPa) = 0.02031516
#
# Stress axis : x y z
#
# Youngs Moduli (GPa) = 99.08180 46.36545 108.87035
#
# Poissons Ratio (x) = 0.32390 0.23707
# Poissons Ratio (y) = 0.69217 0.11997
# Poissons Ratio (z) = 0.21575 0.05109
#
# Static dielectric constant tensor:
#      x y z
#    x 1.798750 0.000000 0.000000 
#    y 0.000000 1.739630 0.000000 
#    z 0.000000 0.000000 1.664320 
# 
# From -- ./inp_files/2047.got.cif
#   From: 2010.05.17/outbox.cif.g08.bks.cpg/sg17_2_cif.got.tgz:2047.got - 2010.06.03 22:34:06.
