data_PCOD9310333
_publ_section_title
;
Structure prediction by ZEFSAII (Michael W. Deem and Ramdas Pophale) SiO2 
 PCOD9310333
Probable space group: P 2 2 2
;
_chemical_formula_sum "Si O2"
_cell_formula_units_Z 18
_cell_length_a 5.345547
_cell_length_b 5.393653
_cell_length_c 25.274199
_cell_angle_alpha 90.000000
_cell_angle_beta 90.000000
_cell_angle_gamma 90.000000
_cell_volume 728.706353
_symmetry_space_group_name_H-M "P 2 2 2"
_symmetry_group_IT_number 16
_symmetry_cell_setting 'orthorhombic'
loop_
_space_group_symop_operation_xyz
x,y,z
-x,-y,z
x,-y,-z
-x,y,-z
loop_
_atom_site_type_symbol
_atom_site_label
_atom_site_fract_x
_atom_site_fract_y
_atom_site_fract_z
Si Si1 0.000000 0.500000 0.000000
Si Si2 0.844807 0.758243 0.816047
Si Si3 0.747793 0.666465 0.700583
Si Si4 0.362829 0.748936 0.073037
Si Si5 0.249835 0.332889 0.585666
Si Si6 0.000000 0.000000 0.500000
O O1 0.106587 0.299909 0.957059
O O2 0.750425 0.806501 0.756303
O O3 0.650719 0.737972 0.863375
O O4 0.000000 0.500000 0.815582
O O5 0.000000 0.000000 0.831148
O O6 0.500000 0.500000 0.701717
O O7 0.737903 0.799033 0.643448
O O8 0.000000 0.500000 0.700438
O O9 0.500000 0.500000 0.055571
O O10 0.500000 0.000000 0.058506
O O11 0.500000 0.500000 0.578757
O O12 0.000000 0.500000 0.587658
O O13 0.185903 0.153619 0.537710
#
# Coordination Sequence:
#
# PCOD9310333 Si02
#       6
#     1   4   4   4   4   1
#     4  12  30  54  76 112 168 198 266 332 388 468
#     4  11  23  45  76 110 150 196 248 321 393 466
#     4   9  20  42  72 103 148 194 247 319 393 468
#     4  12  28  50  79 113 148 206 261 317 392 468
#     4  10  24  45  68 108 150 196 260 322 387 468
#     4  12  26  42  80 104 148 214 262 316 400 472
#
# _framework density 24.701308999999998
#
# number of rings (size 3 to 8) (size 9 to 14) (size 15 to 20)
#    0.000    1.333    1.111    2.667    1.556    8.000 
#    0.000    0.000    0.000    0.000    0.000    0.000 
#    0.000    0.000    0.000    0.000    0.000    0.000 
#
# Total GULP energy -100585.728275 kJ/mol
# GULP energy per Si atom -5588.096015 kJ/mol
# Density = 2.464509 g / cm^3
# Si number density = 24.701309 Si / 1000 Ang^3
#
#
#
# Elastic Constant Matrix: (Units=GPa)
#
#
# Indices 1 2 3 4 5 6 
#
# 1 111.1641 40.4411 27.5573 0.0000 0.0000 0.0000
# 2 40.4411 138.2531 46.8442 0.0000 0.0000 0.0000
# 3 27.5573 46.8442 228.0008 0.0000 0.0000 0.0000
# 4 0.0000 0.0000 0.0000 -61.0190 0.0000 0.0000
# 5 0.0000 0.0000 0.0000 0.0000 159.5712 0.0000
# 6 0.0000 0.0000 0.0000 0.0000 0.0000 41.0846
#
#
#
# Elastic Compliance Matrix: (Units=1/GPa)
#
#
# Indices 1 2 3 4 5 6 
#
# 1 0.010160 -0.002747 -0.000664 0.000000 0.000000 0.000000
# 2 -0.002747 0.008517 -0.001418 0.000000 0.000000 0.000000
# 3 -0.000664 -0.001418 0.004757 0.000000 0.000000 0.000000
# 4 0.000000 0.000000 0.000000 -0.016388 0.000000 0.000000
# 5 0.000000 0.000000 0.000000 0.000000 0.006267 0.000000
# 6 0.000000 0.000000 0.000000 0.000000 0.000000 0.024340
#
#
# Mechanical properties :
#
#
# Convention : Reuss Voigt Hill
#
# Bulk Modulus (GPa) = 72.58339 78.56702 75.57521
# Shear Modulus (GPa) = 96.33584 52.09905 74.21745
#
# Velocity S-wave (km/s) = 6.25180 4.59754 5.48737
# Velocity P-wave (km/s) = 9.03114 7.74978 8.41489
#
# Compressibility (1/GPa) = 0.01377726
#
# Stress axis : x y z
#
# Youngs Moduli (GPa) = 98.42958 117.41133 210.19622
#
# Poissons Ratio (x) = 0.32253 0.13947
# Poissons Ratio (y) = 0.27039 0.29803
# Poissons Ratio (z) = 0.06531 0.16647
#
# Static dielectric constant tensor:
#      x y z
#    x 2.096830 0.000000 0.000000 
#    y 0.000000 1.764320 0.000000 
#    z 0.000000 0.000000 1.977340 
# 
# From -- ./inp_files/9419.got.cif
#   From: 2010.05.17/outbox.cif.g08.bks.cpg/sg16_5_cif.got.tgz:9419.got - 2010.06.03 22:28:35.
