data_PCOD9310310
_publ_section_title
;
Structure prediction by ZEFSAII (Michael W. Deem and Ramdas Pophale) SiO2 
 PCOD9310310
Probable space group: P 2 2 2
;
_chemical_formula_sum "Si O2"
_cell_formula_units_Z 18
_cell_length_a 15.663441
_cell_length_b 7.375004
_cell_length_c 6.435324
_cell_angle_alpha 90.000000
_cell_angle_beta 90.000000
_cell_angle_gamma 90.000000
_cell_volume 743.395372
_symmetry_space_group_name_H-M "P 2 2 2"
_symmetry_group_IT_number 16
_symmetry_cell_setting 'orthorhombic'
loop_
_space_group_symop_operation_xyz
x,y,z
-x,-y,z
x,-y,-z
-x,y,-z
loop_
_atom_site_type_symbol
_atom_site_label
_atom_site_fract_x
_atom_site_fract_y
_atom_site_fract_z
Si Si1 0.256978 0.303257 0.386284
Si Si2 0.089648 0.291486 0.580931
Si Si3 0.795170 0.212033 0.057866
Si Si4 0.378416 0.212822 0.684294
Si Si5 0.500000 0.000000 0.000000
Si Si6 0.500000 0.500000 0.500000
O O1 0.265119 0.500000 0.500000
O O2 0.170898 0.206730 0.466133
O O3 0.234997 0.320749 0.145535
O O4 0.341961 0.189727 0.444815
O O5 0.088947 0.500000 0.500000
O O6 0.000000 0.215403 0.500000
O O7 0.119484 0.278767 0.821116
O O8 0.712573 0.228930 0.204388
O O9 0.806103 0.000000 0.000000
O O10 0.439133 0.383960 0.647226
O O11 0.436133 0.096274 0.837478
#
# Coordination Sequence:
#
# PCOD9310310 Si02
#       6
#     4   4   4   4   1   1
#     4  10  23  45  72 100 141 192 241 300 366 442
#     4   9  21  43  73 108 144 187 247 306 361 444
#     4  11  25  46  73 104 149 199 241 302 392 454
#     4  11  27  48  67 106 141 196 253 319 374 450
#     4  12  28  44  72 100 146 196 256 318 392 438
#     4  12  28  44  72  96 144 194 256 322 364 438
#
# _framework density 24.213227
#
# number of rings (size 3 to 8) (size 9 to 14) (size 15 to 20)
#    0.000    1.556    2.222    0.000    4.667   16.889 
#    0.000    7.778    0.000    0.000    0.000    0.000 
#    0.000    0.000    0.000    0.000    0.000    0.000 
#
# Total GULP energy -100306.499308 kJ/mol
# GULP energy per Si atom -5572.583295 kJ/mol
# Density = 2.415812 g / cm^3
# Si number density = 24.213227 Si / 1000 Ang^3
#
#
#
# Elastic Constant Matrix: (Units=GPa)
#
#
# Indices 1 2 3 4 5 6 
#
# 1 216.7326 49.2666 79.4683 0.0000 0.0000 0.0000
# 2 49.2666 123.7338 59.0957 0.0000 0.0000 0.0000
# 3 79.4683 59.0957 174.9218 0.0000 0.0000 0.0000
# 4 0.0000 0.0000 0.0000 33.7157 0.0000 0.0000
# 5 0.0000 0.0000 0.0000 0.0000 29.4800 0.0000
# 6 0.0000 0.0000 0.0000 0.0000 0.0000 10.2770
#
#
#
# Elastic Compliance Matrix: (Units=1/GPa)
#
#
# Indices 1 2 3 4 5 6 
#
# 1 0.005689 -0.001229 -0.002169 0.000000 0.000000 0.000000
# 2 -0.001229 0.009902 -0.002787 0.000000 0.000000 0.000000
# 3 -0.002169 -0.002787 0.007644 0.000000 0.000000 0.000000
# 4 0.000000 0.000000 0.000000 0.029660 0.000000 0.000000
# 5 0.000000 0.000000 0.000000 0.000000 0.033921 0.000000
# 6 0.000000 0.000000 0.000000 0.000000 0.000000 0.097304
#
#
# Mechanical properties :
#
#
# Convention : Reuss Voigt Hill
#
# Bulk Modulus (GPa) = 92.04397 99.00549 95.52473
# Shear Modulus (GPa) = 24.98596 36.53172 30.75884
#
# Velocity S-wave (km/s) = 3.21583 3.88848 3.56804
# Velocity P-wave (km/s) = 7.20314 7.81909 7.51742
#
# Compressibility (1/GPa) = 0.01086437
#
# Stress axis : x y z
#
# Youngs Moduli (GPa) = 175.78597 100.98631 130.82311
#
# Poissons Ratio (x) = 0.12412 0.28378
# Poissons Ratio (y) = 0.21605 0.36461
# Poissons Ratio (z) = 0.38132 0.28145
#
# Static dielectric constant tensor:
#      x y z
#    x 1.943570 0.000000 0.000000 
#    y 0.000000 2.185200 0.000000 
#    z 0.000000 0.000000 2.085650 
# 
# From -- ./inp_files/2308.got.cif
#   From: 2010.05.17/outbox.cif.g08.bks.cpg/sg16_2_cif.got.tgz:2308.got - 2010.06.03 22:28:35.
