data_PCOD9310563
_publ_section_title
;
Structure prediction by ZEFSAII (Michael W. Deem and Ramdas Pophale) SiO2 
 PCOD9310563
Probable space group: P 2 2 21
;
_chemical_formula_sum "Si O2"
_cell_formula_units_Z 18
_cell_length_a 7.344014
_cell_length_b 11.385833
_cell_length_c 8.262846
_cell_angle_alpha 90.000000
_cell_angle_beta 90.000000
_cell_angle_gamma 90.000000
_cell_volume 690.920318
_symmetry_space_group_name_H-M "P 2 2 21"
_symmetry_group_IT_number 17
_symmetry_cell_setting 'orthorhombic'
loop_
_space_group_symop_operation_xyz
x,y,z
-x,-y,1/2+z
x,-y,-z
-x,y,1/2-z
loop_
_atom_site_type_symbol
_atom_site_label
_atom_site_fract_x
_atom_site_fract_y
_atom_site_fract_z
Si Si1 0.203266 0.174322 0.268481
Si Si2 0.299621 0.063946 0.822016
Si Si3 0.037384 0.500000 0.500000
Si Si4 0.387429 0.632860 0.590353
Si Si5 0.269268 0.691023 0.061361
O O1 0.684014 0.233140 0.089366
O O2 0.000000 0.215633 0.250000
O O3 0.200004 0.035036 0.282693
O O4 0.284955 0.234496 0.107014
O O5 0.500000 0.064440 0.750000
O O6 0.236854 0.198931 0.820260
O O7 0.294321 0.000000 0.000000
O O8 0.194479 0.563663 0.607484
O O9 0.898000 0.400087 0.563457
O O10 0.500000 0.602950 0.750000
O O11 0.532981 0.625817 0.443023
#
# Coordination Sequence:
#
# PCOD9310563 Si02
#       5
#     4   4   2   4   4
#     4  10  18  39  68  95 127 182 226 276 352 424
#     4  10  21  42  69 102 141 180 230 289 352 426
#     4  12  22  42  70  98 136 182 232 298 338 424
#     4  10  22  41  70  97 129 184 234 281 351 427
#     4  10  22  41  65 102 132 173 234 282 347 410
#
# _framework density 26.052206999999999
#
# number of rings (size 3 to 8) (size 9 to 14) (size 15 to 20)
#    0.000    1.778    2.222    4.000    0.000    0.000 
#    4.000   14.444    0.000    0.000    0.000    0.000 
#    0.000    0.000    0.000    0.000    0.000    0.000 
#
# Total GULP energy -100271.270441 kJ/mol
# GULP energy per Si atom -5570.626136 kJ/mol
# Density = 2.599291 g / cm^3
# Si number density = 26.052207 Si / 1000 Ang^3
#
#
#
# Elastic Constant Matrix: (Units=GPa)
#
#
# Indices 1 2 3 4 5 6 
#
# 1 221.7596 94.0756 15.6172 0.0000 0.0000 0.0000
# 2 94.0756 205.5642 33.2774 0.0000 0.0000 0.0000
# 3 15.6172 33.2774 36.2252 0.0000 0.0000 0.0000
# 4 0.0000 0.0000 0.0000 23.7716 0.0000 0.0000
# 5 0.0000 0.0000 0.0000 0.0000 18.8526 0.0000
# 6 0.0000 0.0000 0.0000 0.0000 0.0000 27.1307
#
#
#
# Elastic Compliance Matrix: (Units=1/GPa)
#
#
# Indices 1 2 3 4 5 6 
#
# 1 0.005596 -0.002550 -0.000070 0.000000 0.000000 0.000000
# 2 -0.002550 0.006876 -0.005217 0.000000 0.000000 0.000000
# 3 -0.000070 -0.005217 0.032428 0.000000 0.000000 0.000000
# 4 0.000000 0.000000 0.000000 0.042067 0.000000 0.000000
# 5 0.000000 0.000000 0.000000 0.000000 0.053043 0.000000
# 6 0.000000 0.000000 0.000000 0.000000 0.000000 0.036859
#
#
# Mechanical properties :
#
#
# Convention : Reuss Voigt Hill
#
# Bulk Modulus (GPa) = 34.21658 83.27658 58.74658
# Shear Modulus (GPa) = 24.71754 35.32291 30.02023
#
# Velocity S-wave (km/s) = 3.08355 3.68618 3.39825
# Velocity P-wave (km/s) = 5.08331 7.08180 6.16409
#
# Compressibility (1/GPa) = 0.02922560
#
# Stress axis : x y z
#
# Youngs Moduli (GPa) = 178.70141 145.43212 30.83731
#
# Poissons Ratio (x) = 0.37079 0.00217
# Poissons Ratio (y) = 0.45561 0.16089
# Poissons Ratio (z) = 0.01258 0.75877
#
# Static dielectric constant tensor:
#      x y z
#    x 1.975180 0.000000 0.000000 
#    y 0.000000 2.218850 0.000000 
#    z 0.000000 0.000000 2.559220 
# 
# From -- ./inp_files/5825.got.cif
#   From: 2010.05.17/outbox.cif.g08.bks.cpg/sg17_3_cif.got.tgz:5825.got - 2010.06.03 22:34:06.
