data_PCOD9310708
_publ_section_title
;
Structure prediction by ZEFSAII (Michael W. Deem and Ramdas Pophale) SiO2 
 PCOD9310708
Probable space group: P 2 2 21
;
_chemical_formula_sum "Si O2"
_cell_formula_units_Z 16
_cell_length_a 11.302637
_cell_length_b 9.009094
_cell_length_c 7.678156
_cell_angle_alpha 90.000000
_cell_angle_beta 90.000000
_cell_angle_gamma 90.000000
_cell_volume 781.839899
_symmetry_space_group_name_H-M "P 2 2 21"
_symmetry_group_IT_number 17
_symmetry_cell_setting 'orthorhombic'
loop_
_space_group_symop_operation_xyz
x,y,z
-x,-y,1/2+z
x,-y,-z
-x,y,1/2-z
loop_
_atom_site_type_symbol
_atom_site_label
_atom_site_fract_x
_atom_site_fract_y
_atom_site_fract_z
Si Si1 0.732583 0.675669 0.996211
Si Si2 0.505617 0.828919 0.543001
Si Si3 0.865875 0.865180 0.285923
Si Si4 0.765758 0.182997 0.377471
O O1 0.596743 0.726901 0.034739
O O2 0.762497 0.724394 0.798554
O O3 0.743461 0.500000 0.000000
O O4 0.814132 0.762797 0.133853
O O5 0.500000 0.812612 0.750000
O O6 0.643523 0.797646 0.513157
O O7 0.479557 0.000000 0.500000
O O8 0.862958 0.786489 0.475389
O O9 0.000000 0.911231 0.250000
O O10 0.787061 0.014059 0.310634
#
# Coordination Sequence:
#
# PCOD9310708 Si02
#       4
#     4   4   4   4
#     4  11  25  43  63  99 139 174 211 265 339 407
#     4  10  19  39  65  96 127 164 216 275 330 383
#     4  11  24  43  71  98 123 176 229 277 323 378
#     4  10  23  43  67 102 124 163 229 276 324 384
#
# _framework density 20.464547
#
# number of rings (size 3 to 8) (size 9 to 14) (size 15 to 20)
#    0.000    1.500    2.500    3.750    7.000    1.000 
#   18.000    0.000    0.000    0.000    0.000    0.000 
#    0.000    0.000    0.000    0.000    0.000    0.000 
#
# Total GULP energy -89271.181423 kJ/mol
# GULP energy per Si atom -5579.448839 kJ/mol
# Density = 2.041797 g / cm^3
# Si number density = 20.464547 Si / 1000 Ang^3
#
#
#
# Elastic Constant Matrix: (Units=GPa)
#
#
# Indices 1 2 3 4 5 6 
#
# 1 57.6920 9.2528 27.6015 0.0000 0.0000 0.0000
# 2 9.2528 76.1116 35.8776 0.0000 0.0000 0.0000
# 3 27.6015 35.8776 97.8565 0.0000 0.0000 0.0000
# 4 0.0000 0.0000 0.0000 17.5536 0.0000 0.0000
# 5 0.0000 0.0000 0.0000 0.0000 34.3243 0.0000
# 6 0.0000 0.0000 0.0000 0.0000 0.0000 118.6478
#
#
#
# Elastic Compliance Matrix: (Units=1/GPa)
#
#
# Indices 1 2 3 4 5 6 
#
# 1 0.020042 0.000276 -0.005754 0.000000 0.000000 0.000000
# 2 0.000276 0.015888 -0.005903 0.000000 0.000000 0.000000
# 3 -0.005754 -0.005903 0.014006 0.000000 0.000000 0.000000
# 4 0.000000 0.000000 0.000000 0.056968 0.000000 0.000000
# 5 0.000000 0.000000 0.000000 0.000000 0.029134 0.000000
# 6 0.000000 0.000000 0.000000 0.000000 0.000000 0.008428
#
#
# Mechanical properties :
#
#
# Convention : Reuss Voigt Hill
#
# Bulk Modulus (GPa) = 36.80018 41.90268 39.35143
# Shear Modulus (GPa) = 28.36288 44.70034 36.53161
#
# Velocity S-wave (km/s) = 3.72688 4.67870 4.22965
# Velocity P-wave (km/s) = 6.04491 7.05033 6.56689
#
# Compressibility (1/GPa) = 0.02717378
#
# Stress axis : x y z
#
# Youngs Moduli (GPa) = 49.89474 62.94251 71.39661
#
# Poissons Ratio (x) = -0.01737 0.41084
# Poissons Ratio (y) = -0.01377 0.42144
# Poissons Ratio (z) = 0.28711 0.37153
#
# Static dielectric constant tensor:
#      x y z
#    x 1.836890 0.000000 0.000000 
#    y 0.000000 1.690550 0.000000 
#    z 0.000000 0.000000 1.736140 
# 
# From -- ./inp_files/4514.got.cif
#   From: 2010.05.17/outbox.cif.g08.bks.cpg/sg17_3_cif.got.tgz:4514.got - 2010.06.03 22:34:06.
