data_PCOD9310617
_publ_section_title
;
Structure prediction by ZEFSAII (Michael W. Deem and Ramdas Pophale) SiO2 
 PCOD9310617
Probable space group: P 2 2 21
;
_chemical_formula_sum "Si O2"
_cell_formula_units_Z 16
_cell_length_a 24.111121
_cell_length_b 5.160701
_cell_length_c 5.268843
_cell_angle_alpha 90.000000
_cell_angle_beta 90.000000
_cell_angle_gamma 90.000000
_cell_volume 655.603643
_symmetry_space_group_name_H-M "P 2 2 21"
_symmetry_group_IT_number 17
_symmetry_cell_setting 'orthorhombic'
loop_
_space_group_symop_operation_xyz
x,y,z
-x,-y,1/2+z
x,-y,-z
-x,y,1/2-z
loop_
_atom_site_type_symbol
_atom_site_label
_atom_site_fract_x
_atom_site_fract_y
_atom_site_fract_z
Si Si1 0.436028 0.751047 0.329595
Si Si2 0.965852 0.000000 0.500000
Si Si3 0.104583 0.500000 0.000000
Si Si4 0.319574 0.750421 0.315845
Si Si5 0.798830 0.747305 0.175717
O O1 0.433676 0.500000 0.500000
O O2 0.500000 0.760726 0.250000
O O3 0.378712 0.749058 0.167103
O O4 0.429729 0.000000 0.500000
O O5 0.933120 0.739955 0.595618
O O6 0.000000 0.085051 0.750000
O O7 0.147051 0.329546 0.830403
O O8 0.320980 0.500000 0.500000
O O9 0.260208 0.761359 0.175254
O O10 0.317462 0.000000 0.500000
O O11 0.791265 0.500000 0.000000
O O12 0.806705 0.000000 0.000000
#
# Coordination Sequence:
#
# PCOD9310617 Si02
#       5
#     4   2   2   4   4
#     4  10  19  33  53  77 111 157 211 263 332 401
#     4  12  30  52  78 112 152 196 244 300 358 434
#     4  12  26  44  76 108 140 186 240 290 350 440
#     4   8  16  32  54  79 116 164 207 264 337 409
#     4  10  21  39  66  97 136 178 224 287 356 419
#
# _framework density 24.404987999999999
#
# number of rings (size 3 to 8) (size 9 to 14) (size 15 to 20)
#    0.000    2.000    0.000    3.000    5.250    0.000 
#    2.250    0.000    2.750    0.000    0.000    0.000 
#    0.000    0.000    0.000    0.000    0.000    0.000 
#
# Total GULP energy -89096.223424 kJ/mol
# GULP energy per Si atom -5568.513964 kJ/mol
# Density = 2.434944 g / cm^3
# Si number density = 24.404988 Si / 1000 Ang^3
#
#
#
# Elastic Constant Matrix: (Units=GPa)
#
#
# Indices 1 2 3 4 5 6 
#
# 1 162.9693 30.5789 32.5063 0.0000 0.0000 0.0000
# 2 30.5789 219.6997 28.1144 0.0000 0.0000 0.0000
# 3 32.5063 28.1144 38.9103 0.0000 0.0000 0.0000
# 4 0.0000 0.0000 0.0000 51.6104 0.0000 0.0000
# 5 0.0000 0.0000 0.0000 0.0000 41.5178 0.0000
# 6 0.0000 0.0000 0.0000 0.0000 0.0000 37.6030
#
#
#
# Elastic Compliance Matrix: (Units=1/GPa)
#
#
# Indices 1 2 3 4 5 6 
#
# 1 0.007377 -0.000262 -0.005973 0.000000 0.000000 0.000000
# 2 -0.000262 0.005025 -0.003411 0.000000 0.000000 0.000000
# 3 -0.005973 -0.003411 0.033155 0.000000 0.000000 0.000000
# 4 0.000000 0.000000 0.000000 0.019376 0.000000 0.000000
# 5 0.000000 0.000000 0.000000 0.000000 0.024086 0.000000
# 6 0.000000 0.000000 0.000000 0.000000 0.000000 0.026594
#
#
# Mechanical properties :
#
#
# Convention : Reuss Voigt Hill
#
# Bulk Modulus (GPa) = 38.07667 67.10873 52.59270
# Shear Modulus (GPa) = 34.80438 48.17157 41.48797
#
# Velocity S-wave (km/s) = 3.78049 4.44761 4.12755
# Velocity P-wave (km/s) = 5.89000 7.34389 6.65675
#
# Compressibility (1/GPa) = 0.02626280
#
# Stress axis : x y z
#
# Youngs Moduli (GPa) = 135.56084 199.01554 30.16135
#
# Poissons Ratio (x) = 0.05222 0.18016
# Poissons Ratio (y) = 0.03557 0.10289
# Poissons Ratio (z) = 0.80972 0.67892
#
# Static dielectric constant tensor:
#      x y z
#    x 2.220640 0.000000 0.000000 
#    y 0.000000 1.836180 0.000000 
#    z 0.000000 0.000000 2.037360 
# 
# From -- ./inp_files/2995.got.cif
#   From: 2010.05.17/outbox.cif.g08.bks.cpg/sg17_2_cif.got.tgz:2995.got - 2010.06.03 22:34:06.
