data_PCOD9310920
_publ_section_title
;
Structure prediction by ZEFSAII (Michael W. Deem and Ramdas Pophale) SiO2 
 PCOD9310920
Probable space group: P 2 2 21
;
_chemical_formula_sum "Si O2"
_cell_formula_units_Z 32
_cell_length_a 8.493162
_cell_length_b 5.473327
_cell_length_c 30.206384
_cell_angle_alpha 90.000000
_cell_angle_beta 90.000000
_cell_angle_gamma 90.000000
_cell_volume 1404.169523
_symmetry_space_group_name_H-M "P 2 2 21"
_symmetry_group_IT_number 17
_symmetry_cell_setting 'orthorhombic'
loop_
_space_group_symop_operation_xyz
x,y,z
-x,-y,1/2+z
x,-y,-z
-x,y,1/2-z
loop_
_atom_site_type_symbol
_atom_site_label
_atom_site_fract_x
_atom_site_fract_y
_atom_site_fract_z
Si Si1 0.104274 0.247869 0.108085
Si Si2 0.808966 0.367068 0.244129
Si Si3 0.691683 0.604268 0.453157
Si Si4 0.137581 0.881905 0.287295
Si Si5 0.123427 0.360922 0.625049
Si Si6 0.494138 0.664242 0.366994
Si Si7 0.633712 0.153465 0.330465
Si Si8 0.986726 0.879566 0.043382
O O1 0.215502 0.394276 0.073901
O O2 0.218952 0.091793 0.137968
O O3 0.998092 0.425502 0.136971
O O4 0.988916 0.090473 0.079243
O O5 0.764797 0.641216 0.228816
O O6 0.712490 0.254204 0.285303
O O7 0.000000 0.387916 0.250000
O O8 0.780768 0.145503 0.210185
O O9 0.628654 0.500000 0.500000
O O10 0.569067 0.703833 0.416504
O O11 0.833452 0.792429 0.464698
O O12 0.077866 0.829632 0.336447
O O13 0.000000 0.902994 0.250000
O O14 0.308783 0.374368 0.629638
O O15 0.094873 0.328366 0.572271
O O16 0.557914 0.403784 0.349285
O O17 0.534457 0.901785 0.336078
O O18 0.916587 0.000000 0.000000
#
# Coordination Sequence:
#
# PCOD9310920 Si02
#       8
#     4   4   4   4   4   4   4   4
#     4  10  21  38  70  91 130 169 230 281 343 392
#     4  10  21  37  67  99 129 162 231 286 336 395
#     4  10  20  40  62  95 127 172 227 285 340 425
#     4  10  22  39  64  98 132 172 227 283 348 410
#     4  11  27  42  66 100 143 181 232 299 358 427
#     4  11  26  45  65  99 140 193 223 281 372 437
#     4  11  23  44  70  99 138 183 233 281 348 434
#     4  11  22  40  70  99 129 172 238 298 350 404
#
# _framework density 22.789272
#
# number of rings (size 3 to 8) (size 9 to 14) (size 15 to 20)
#    0.000    1.500    2.500    2.250    7.000    0.000 
#    2.250    4.375    0.000    0.000    0.000    0.000 
#    0.000    0.000    0.000    0.000    0.000    0.000 
#
# Total GULP energy -178280.331876 kJ/mol
# GULP energy per Si atom -5571.260371 kJ/mol
# Density = 2.273740 g / cm^3
# Si number density = 22.789272 Si / 1000 Ang^3
#
#
#
# Elastic Constant Matrix: (Units=GPa)
#
#
# Indices 1 2 3 4 5 6 
#
# 1 70.8605 -8.2895 20.1049 0.0000 0.0000 0.0000
# 2 -8.2895 64.9603 3.1688 0.0000 0.0000 0.0000
# 3 20.1049 3.1688 95.9743 0.0000 0.0000 0.0000
# 4 0.0000 0.0000 0.0000 44.5329 0.0000 0.0000
# 5 0.0000 0.0000 0.0000 0.0000 11.8342 0.0000
# 6 0.0000 0.0000 0.0000 0.0000 0.0000 1.1472
#
#
#
# Elastic Compliance Matrix: (Units=1/GPa)
#
#
# Indices 1 2 3 4 5 6 
#
# 1 0.015288 0.002110 -0.003272 0.000000 0.000000 0.000000
# 2 0.002110 0.015710 -0.000961 0.000000 0.000000 0.000000
# 3 -0.003272 -0.000961 0.011137 0.000000 0.000000 0.000000
# 4 0.000000 0.000000 0.000000 0.022455 0.000000 0.000000
# 5 0.000000 0.000000 0.000000 0.000000 0.084501 0.000000
# 6 0.000000 0.000000 0.000000 0.000000 0.000000 0.871658
#
#
# Mechanical properties :
#
#
# Convention : Reuss Voigt Hill
#
# Bulk Modulus (GPa) = 26.39267 29.08484 27.73876
# Shear Modulus (GPa) = 4.81870 25.95691 15.38781
#
# Velocity S-wave (km/s) = 1.45570 3.37856 2.60132
# Velocity P-wave (km/s) = 3.79891 5.29243 4.60660
#
# Compressibility (1/GPa) = 0.03788931
#
# Stress axis : x y z
#
# Youngs Moduli (GPa) = 65.41284 63.65291 89.79371
#
# Poissons Ratio (x) = -0.13433 0.29382
# Poissons Ratio (y) = -0.13805 0.08627
# Poissons Ratio (z) = 0.21404 0.06116
#
# Static dielectric constant tensor:
#      x y z
#    x 1.888850 0.000000 0.000000 
#    y 0.000000 2.056040 0.000000 
#    z 0.000000 0.000000 1.940020 
# 
# From -- ./inp_files/11245.got.cif
#   From: 2010.05.17/outbox.cif.g08.bks.cpg/sg17_6_cif.got.tgz:11245.got - 2010.06.03 22:34:06.
