data_PCOD9310714
_publ_section_title
;
Structure prediction by ZEFSAII (Michael W. Deem and Ramdas Pophale) SiO2 
 PCOD9310714
Probable space group: P 2 2 21
;
_chemical_formula_sum "Si O2"
_cell_formula_units_Z 20
_cell_length_a 10.336749
_cell_length_b 5.502231
_cell_length_c 14.905758
_cell_angle_alpha 90.000000
_cell_angle_beta 90.000000
_cell_angle_gamma 90.000000
_cell_volume 847.767681
_symmetry_space_group_name_H-M "P 2 2 21"
_symmetry_group_IT_number 17
_symmetry_cell_setting 'orthorhombic'
loop_
_space_group_symop_operation_xyz
x,y,z
-x,-y,1/2+z
x,-y,-z
-x,y,1/2-z
loop_
_atom_site_type_symbol
_atom_site_label
_atom_site_fract_x
_atom_site_fract_y
_atom_site_fract_z
Si Si1 0.722772 0.617791 0.598662
Si Si2 0.913046 0.862979 0.119662
Si Si3 0.150291 0.000000 0.000000
Si Si4 0.170302 0.387387 0.290560
Si Si5 0.689102 0.000000 0.000000
Si Si6 0.429094 0.616841 0.599094
O O1 0.750377 0.500000 0.500000
O O2 0.813337 0.587160 0.684135
O O3 0.575495 0.563961 0.625263
O O4 0.750966 0.893712 0.572489
O O5 0.908195 0.619658 0.176409
O O6 0.045159 0.865654 0.063346
O O7 0.884272 0.123664 0.171813
O O8 0.794142 0.831451 0.049435
O O9 0.314340 0.429107 0.331984
O O10 0.595603 0.898864 0.924034
O O11 0.412118 0.500000 0.500000
#
# Coordination Sequence:
#
# PCOD9310714 Si02
#       6
#     4   4   2   4   2   4
#     4  11  27  45  67 101 150 189 228 296 367 429
#     4  10  24  43  77  96 140 180 252 290 342 414
#     4  11  27  48  68 104 143 195 234 298 362 431
#     4  11  24  47  73 110 131 191 241 297 349 426
#     4   9  17  36  68 104 131 183 230 296 340 413
#     4  10  19  40  71 104 144 179 233 291 361 424
#
# _framework density 23.591367000000002
#
# number of rings (size 3 to 8) (size 9 to 14) (size 15 to 20)
#    0.000    1.600    2.000    1.200    5.600    0.800 
#    0.000    2.000    0.000    0.000    0.000    0.000 
#    0.000    0.000    0.000    0.000    0.000    0.000 
#
# Total GULP energy -111348.545429 kJ/mol
# GULP energy per Si atom -5567.427271 kJ/mol
# Density = 2.353767 g / cm^3
# Si number density = 23.591367 Si / 1000 Ang^3
#
#
#
# Elastic Constant Matrix: (Units=GPa)
#
#
# Indices 1 2 3 4 5 6 
#
# 1 102.0779 40.2735 42.0722 0.0000 0.0000 0.0000
# 2 40.2735 69.9583 27.3643 0.0000 0.0000 0.0000
# 3 42.0722 27.3643 110.7377 0.0000 0.0000 0.0000
# 4 0.0000 0.0000 0.0000 8.6368 0.0000 0.0000
# 5 0.0000 0.0000 0.0000 0.0000 37.2358 0.0000
# 6 0.0000 0.0000 0.0000 0.0000 0.0000 11.9502
#
#
#
# Elastic Compliance Matrix: (Units=1/GPa)
#
#
# Indices 1 2 3 4 5 6 
#
# 1 0.013895 -0.006569 -0.003656 0.000000 0.000000 0.000000
# 2 -0.006569 0.018929 -0.002182 0.000000 0.000000 0.000000
# 3 -0.003656 -0.002182 0.010958 0.000000 0.000000 0.000000
# 4 0.000000 0.000000 0.000000 0.115783 0.000000 0.000000
# 5 0.000000 0.000000 0.000000 0.000000 0.026856 0.000000
# 6 0.000000 0.000000 0.000000 0.000000 0.000000 0.083681
#
#
# Mechanical properties :
#
#
# Convention : Reuss Voigt Hill
#
# Bulk Modulus (GPa) = 52.71666 55.79929 54.25798
# Shear Modulus (GPa) = 16.59812 23.10216 19.85014
#
# Velocity S-wave (km/s) = 2.65536 3.13271 2.90386
# Velocity P-wave (km/s) = 5.63875 6.06539 5.85596
#
# Compressibility (1/GPa) = 0.01896933
#
# Stress axis : x y z
#
# Youngs Moduli (GPa) = 71.96873 52.82809 91.25392
#
# Poissons Ratio (x) = 0.34703 0.33360
# Poissons Ratio (y) = 0.47277 0.19910
# Poissons Ratio (z) = 0.26310 0.11526
#
# Static dielectric constant tensor:
#      x y z
#    x 1.868070 0.000000 0.000000 
#    y 0.000000 2.239070 0.000000 
#    z 0.000000 0.000000 1.947390 
# 
# From -- ./inp_files/8373.got.cif
#   From: 2010.05.17/outbox.cif.g08.bks.cpg/sg17_5_cif.got.tgz:8373.got - 2010.06.03 22:34:06.
