data_PCOD9310378
_publ_section_title
;
Structure prediction by ZEFSAII (Michael W. Deem and Ramdas Pophale) SiO2 
 PCOD9310378
Probable space group: P 2 2 2
;
_chemical_formula_sum "Si O2"
_cell_formula_units_Z 28
_cell_length_a 8.926216
_cell_length_b 11.787447
_cell_length_c 15.869888
_cell_angle_alpha 90.000000
_cell_angle_beta 90.000000
_cell_angle_gamma 90.000000
_cell_volume 1669.786735
_symmetry_space_group_name_H-M "P 2 2 2"
_symmetry_group_IT_number 16
_symmetry_cell_setting 'orthorhombic'
loop_
_space_group_symop_operation_xyz
x,y,z
-x,-y,z
x,-y,-z
-x,y,-z
loop_
_atom_site_type_symbol
_atom_site_label
_atom_site_fract_x
_atom_site_fract_y
_atom_site_fract_z
Si Si1 0.819967 0.131992 0.325105
Si Si2 0.672645 0.862263 0.500000
Si Si3 0.180033 0.868008 0.674896
Si Si4 0.324845 0.864395 0.000000
Si Si5 0.819584 0.735559 0.843846
Si Si6 0.679429 0.500000 0.899379
Si Si7 0.180416 0.735559 0.843846
O O1 0.751684 0.172916 0.413396
O O2 0.777443 0.208676 0.245598
O O3 0.000000 0.133007 0.332060
O O4 0.774454 0.000000 0.310930
O O5 0.500000 0.827880 0.500000
O O6 0.751683 0.827084 0.413396
O O7 0.679703 0.000000 0.500000
O O8 0.222557 0.791325 0.754402
O O9 0.244421 0.814090 0.081856
O O10 0.500000 0.829648 0.000000
O O11 0.244421 0.814090 0.918145
O O12 0.316840 0.000000 0.000000
O O13 0.750325 0.611929 0.858571
O O14 1.000000 0.730638 0.849117
O O15 0.500000 0.500000 0.889792
O O16 0.750325 0.388070 0.858571
O O17 0.712286 0.500000 0.000000
#
# Coordination Sequence:
#
# PCOD9310378 Si02
#       7
#     4   4   4   4   4   4   4
#     4   9  18  33  53  79 110 141 173 214 265 316
#     4   9  17  29  49  78 109 142 177 211 253 313
#     4   9  18  33  53  79 110 141 173 214 265 316
#     4  11  23  36  51  76 111 145 173 211 268 323
#     4  11  22  36  57  80 104 138 183 227 265 312
#     4  11  23  39  57  76 104 141 182 224 273 323
#     4  11  22  36  57  80 104 138 183 227 265 312
#
# _framework density 16.768609000000001
#
# number of rings (size 3 to 8) (size 9 to 14) (size 15 to 20)
#    0.000    1.857    1.429    3.000    0.000    6.857 
#    0.000    2.857    0.000    0.857    0.000    6.000 
#    0.000    0.000    0.000    0.000    0.000    0.000 
#
# Total GULP energy -156319.137935 kJ/mol
# GULP energy per Si atom -5582.826355 kJ/mol
# Density = 1.673044 g / cm^3
# Si number density = 16.768609 Si / 1000 Ang^3
#
#
#
# Elastic Constant Matrix: (Units=GPa)
#
#
# Indices 1 2 3 4 5 6 
#
# 1 65.4996 48.6341 72.9396 0.0000 0.0000 0.0000
# 2 48.6341 96.4597 81.4463 0.0000 0.0000 0.0000
# 3 72.9396 81.4463 195.0098 0.0000 0.0000 0.0000
# 4 0.0000 0.0000 0.0000 -2.3163 0.0000 0.0000
# 5 0.0000 0.0000 0.0000 0.0000 -7.0043 0.0000
# 6 0.0000 0.0000 0.0000 0.0000 0.0000 21.2807
#
#
#
# Elastic Compliance Matrix: (Units=1/GPa)
#
#
# Indices 1 2 3 4 5 6 
#
# 1 0.030367 -0.008837 -0.007668 0.000000 0.000000 0.000000
# 2 -0.008837 0.018586 -0.004457 0.000000 0.000000 0.000000
# 3 -0.007668 -0.004457 0.009857 0.000000 0.000000 0.000000
# 4 0.000000 0.000000 0.000000 -0.431725 0.000000 0.000000
# 5 0.000000 0.000000 0.000000 0.000000 -0.142770 0.000000
# 6 0.000000 0.000000 0.000000 0.000000 0.000000 0.046991
#
#
# Mechanical properties :
#
#
# Convention : Reuss Voigt Hill
#
# Bulk Modulus (GPa) = 59.21560 84.77882 71.99721
# Shear Modulus (GPa) = -11.87252 12.65529 0.39138
#
# Velocity S-wave (km/s) = -2.66375 2.75016 0.48364
# Velocity P-wave (km/s) = 5.09208 7.79438 6.58337
#
# Compressibility (1/GPa) = 0.01688744
#
# Stress axis : x y z
#
# Youngs Moduli (GPa) = 32.93041 53.80424 101.44623
#
# Poissons Ratio (x) = 0.47545 0.77785
# Poissons Ratio (y) = 0.29099 0.45217
# Poissons Ratio (z) = 0.25250 0.23982
#
# Static dielectric constant tensor:
#      x y z
#    x 1.561870 0.000000 0.000000 
#    y 0.000000 1.548760 0.000000 
#    z 0.000000 0.000000 1.546040 
# 
# From -- ./inp_files/7914.got.cif
#   From: 2010.05.17/outbox.cif.g08.bks.cpg/sg16_4_cif.got.tgz:7914.got - 2010.06.03 22:28:35.
