data_PCOD9310857
_publ_section_title
;
Structure prediction by ZEFSAII (Michael W. Deem and Ramdas Pophale) SiO2 
 PCOD9310857
Probable space group: P 2 2 21
;
_chemical_formula_sum "Si O2"
_cell_formula_units_Z 32
_cell_length_a 14.801948
_cell_length_b 9.385228
_cell_length_c 12.134608
_cell_angle_alpha 90.000000
_cell_angle_beta 90.000000
_cell_angle_gamma 90.000000
_cell_volume 1685.735579
_symmetry_space_group_name_H-M "P 2 2 21"
_symmetry_group_IT_number 17
_symmetry_cell_setting 'orthorhombic'
loop_
_space_group_symop_operation_xyz
x,y,z
-x,-y,1/2+z
x,-y,-z
-x,y,1/2-z
loop_
_atom_site_type_symbol
_atom_site_label
_atom_site_fract_x
_atom_site_fract_y
_atom_site_fract_z
Si Si1 0.811063 0.954191 0.887634
Si Si2 0.841563 0.829033 0.493601
Si Si3 0.876447 0.513684 0.879835
Si Si4 0.107374 0.216398 0.745078
Si Si5 0.017586 0.786402 0.635665
Si Si6 0.515152 0.412833 0.118703
Si Si7 0.710397 0.678782 0.824047
Si Si8 0.315777 0.638347 0.921815
O O1 0.903065 0.872197 0.925097
O O2 0.751364 0.837655 0.824069
O O3 0.840127 0.089339 0.816443
O O4 0.762929 0.000000 0.000000
O O5 0.858626 0.779097 0.369732
O O6 0.747523 0.762595 0.533135
O O7 0.926146 0.776371 0.567635
O O8 0.841549 0.000000 0.500000
O O9 0.876997 0.366022 0.816649
O O10 0.934754 0.639936 0.827947
O O11 0.777362 0.580814 0.894289
O O12 0.919232 0.500000 0.000000
O O13 0.000000 0.192327 0.750000
O O14 0.000000 0.867131 0.750000
O O15 0.500000 0.473006 0.250000
O O16 0.608440 0.328649 0.133370
O O17 0.422170 0.329024 0.094105
O O18 0.525317 0.500000 0.000000
O O19 0.717082 0.611678 0.702379
O O20 0.307696 0.500000 0.000000
#
# Coordination Sequence:
#
# PCOD9310857 Si02
#       8
#     4   4   4   4   4   4   4   4
#     4  11  22  38  56  79 112 153 200 241 289 362
#     4  12  23  37  58  84 119 161 201 249 308 370
#     4  11  22  35  53  81 113 146 191 247 294 345
#     4  12  23  36  55  84 120 160 204 250 299 360
#     4  11  22  37  54  75 109 153 194 236 293 355
#     4   9  19  37  63  91 120 154 198 254 318 382
#     4  10  20  38  61  83 113 154 196 243 306 368
#     4  10  21  38  59  87 116 149 195 248 306 376
#
# _framework density 18.982811000000002
#
# number of rings (size 3 to 8) (size 9 to 14) (size 15 to 20)
#    0.000    1.250    0.000    9.000    0.000    1.500 
#    0.000    0.625    0.000    0.000    0.000    7.000 
#    0.000    0.000    0.000    0.000    0.000    0.000 
#
# Total GULP energy -178329.046515 kJ/mol
# GULP energy per Si atom -5572.782704 kJ/mol
# Density = 1.893961 g / cm^3
# Si number density = 18.982811 Si / 1000 Ang^3
#
#
#
# Elastic Constant Matrix: (Units=GPa)
#
#
# Indices 1 2 3 4 5 6 
#
# 1 113.9725 51.6257 27.3008 0.0000 0.0000 0.0000
# 2 51.6257 116.3425 29.0067 0.0000 0.0000 0.0000
# 3 27.3008 29.0067 103.5089 0.0000 0.0000 0.0000
# 4 0.0000 0.0000 0.0000 16.1799 0.0000 0.0000
# 5 0.0000 0.0000 0.0000 0.0000 35.8219 0.0000
# 6 0.0000 0.0000 0.0000 0.0000 0.0000 23.0670
#
#
#
# Elastic Compliance Matrix: (Units=1/GPa)
#
#
# Indices 1 2 3 4 5 6 
#
# 1 0.011248 -0.004571 -0.001686 0.000000 0.000000 0.000000
# 2 -0.004571 0.011099 -0.001905 0.000000 0.000000 0.000000
# 3 -0.001686 -0.001905 0.010639 0.000000 0.000000 0.000000
# 4 0.000000 0.000000 0.000000 0.061805 0.000000 0.000000
# 5 0.000000 0.000000 0.000000 0.000000 0.027916 0.000000
# 6 0.000000 0.000000 0.000000 0.000000 0.000000 0.043352
#
#
# Mechanical properties :
#
#
# Convention : Reuss Voigt Hill
#
# Bulk Modulus (GPa) = 60.01170 61.07669 60.54419
# Shear Modulus (GPa) = 26.60474 30.07314 28.33894
#
# Velocity S-wave (km/s) = 3.74775 3.98456 3.86796
# Velocity P-wave (km/s) = 7.09999 7.30845 7.20497
#
# Compressibility (1/GPa) = 0.01666342
#
# Stress axis : x y z
#
# Youngs Moduli (GPa) = 88.90152 90.10220 93.99048
#
# Poissons Ratio (x) = 0.41186 0.15845
# Poissons Ratio (y) = 0.40637 0.17901
# Poissons Ratio (z) = 0.14987 0.17160
#
# Static dielectric constant tensor:
#      x y z
#    x 1.646890 0.000000 0.000000 
#    y 0.000000 1.470370 0.000000 
#    z 0.000000 0.000000 0.614470 
# 
# From -- ./inp_files/7299.got.cif
#   From: 2010.05.17/outbox.cif.g08.bks.cpg/sg17_4_cif.got.tgz:7299.got - 2010.06.03 22:34:06.
