data_PCOD9310231
_publ_section_title
;
Structure prediction by ZEFSAII (Michael W. Deem and Ramdas Pophale) SiO2 
 PCOD9310231
Probable space group: P 2 2 2
;
_chemical_formula_sum "Si O2"
_cell_formula_units_Z 32
_cell_length_a 9.066527
_cell_length_b 12.491183
_cell_length_c 13.433505
_cell_angle_alpha 90.000000
_cell_angle_beta 90.000000
_cell_angle_gamma 90.000000
_cell_volume 1521.366579
_symmetry_space_group_name_H-M "P 2 2 2"
_symmetry_group_IT_number 16
_symmetry_cell_setting 'orthorhombic'
loop_
_space_group_symop_operation_xyz
x,y,z
-x,-y,z
x,-y,-z
-x,y,-z
loop_
_atom_site_type_symbol
_atom_site_label
_atom_site_fract_x
_atom_site_fract_y
_atom_site_fract_z
Si Si1 0.419749 0.162990 0.321655
Si Si2 0.604876 0.800515 0.093253
Si Si3 0.339645 0.446472 0.095397
Si Si4 0.826899 0.478601 0.288282
Si Si5 0.208928 0.673030 0.585657
Si Si6 0.280212 0.940418 0.310286
Si Si7 0.887070 0.738296 0.635809
Si Si8 0.167361 0.021911 0.116218
O O1 0.456581 0.187815 0.205537
O O2 0.352331 0.265003 0.375532
O O3 0.575688 0.116335 0.355976
O O4 0.300800 0.066066 0.335724
O O5 0.638397 0.677565 0.074118
O O6 0.759949 0.861217 0.112486
O O7 0.500000 0.839286 0.000000
O O8 0.500000 0.500000 0.105548
O O9 0.254953 0.469541 0.196004
O O10 0.263767 0.500000 0.000000
O O11 0.781300 0.547920 0.385490
O O12 0.808271 0.350340 0.294141
O O13 0.000000 0.500000 0.277829
O O14 0.171317 0.701527 0.472402
O O15 0.062270 0.717944 0.641775
O O16 0.150595 0.861698 0.344290
O O17 0.267617 0.950593 0.189731
O O18 0.000000 0.000000 0.150547
O O19 0.171560 0.000000 0.000000
#
# Coordination Sequence:
#
# PCOD9310231 Si02
#       8
#     4   4   4   4   4   4   4   4
#     4  10  22  39  62  87 127 166 213 263 323 396
#     4  11  21  39  67  90 128 179 214 269 328 395
#     4  11  23  39  62  98 128 169 220 266 326 404
#     4  10  22  40  64  90 129 168 213 273 331 392
#     4  10  21  42  63  92 124 171 220 264 339 394
#     4  10  23  38  59  93 123 168 209 266 330 384
#     4  10  23  38  66  93 124 166 217 278 328 401
#     4  10  23  40  63  96 130 169 223 275 325 396
#
# _framework density 21.033721
#
# number of rings (size 3 to 8) (size 9 to 14) (size 15 to 20)
#    0.000    1.750    2.500    1.125    5.250    5.000 
#    0.000    3.750    0.000    2.250    0.000    0.000 
#    0.000    0.000    0.000    0.000    0.000    0.000 
#
# Total GULP energy -178228.079857 kJ/mol
# GULP energy per Si atom -5569.627496 kJ/mol
# Density = 2.098585 g / cm^3
# Si number density = 21.033721 Si / 1000 Ang^3
#
#
#
# Elastic Constant Matrix: (Units=GPa)
#
#
# Indices 1 2 3 4 5 6 
#
# 1 53.7332 32.8234 7.0513 0.0000 0.0000 0.0000
# 2 32.8234 84.7594 4.7260 0.0000 0.0000 0.0000
# 3 7.0513 4.7260 51.7849 0.0000 0.0000 0.0000
# 4 0.0000 0.0000 0.0000 22.0737 0.0000 0.0000
# 5 0.0000 0.0000 0.0000 0.0000 25.0480 0.0000
# 6 0.0000 0.0000 0.0000 0.0000 0.0000 21.3853
#
#
#
# Elastic Compliance Matrix: (Units=1/GPa)
#
#
# Indices 1 2 3 4 5 6 
#
# 1 0.024696 -0.009424 -0.002503 0.000000 0.000000 0.000000
# 2 -0.009424 0.015455 -0.000127 0.000000 0.000000 0.000000
# 3 -0.002503 -0.000127 0.019663 0.000000 0.000000 0.000000
# 4 0.000000 0.000000 0.000000 0.045303 0.000000 0.000000
# 5 0.000000 0.000000 0.000000 0.000000 0.039923 0.000000
# 6 0.000000 0.000000 0.000000 0.000000 0.000000 0.046761
#
#
# Mechanical properties :
#
#
# Convention : Reuss Voigt Hill
#
# Bulk Modulus (GPa) = 28.00670 31.05320 29.52995
# Shear Modulus (GPa) = 21.94812 23.41317 22.68065
#
# Velocity S-wave (km/s) = 3.23379 3.33997 3.28731
# Velocity P-wave (km/s) = 5.22372 5.44697 5.33651
#
# Compressibility (1/GPa) = 0.03570574
#
# Stress axis : x y z
#
# Youngs Moduli (GPa) = 40.49313 64.70551 50.85682
#
# Poissons Ratio (x) = 0.60978 0.12728
# Poissons Ratio (y) = 0.38160 0.00647
# Poissons Ratio (z) = 0.10134 0.00823
#
# Static dielectric constant tensor:
#      x y z
#    x 1.852040 0.000000 0.000000 
#    y 0.000000 1.757930 0.000000 
#    z 0.000000 0.000000 1.850510 
# 
# From -- ./inp_files/7989.got.cif
#   From: 2010.05.17/outbox.cif.g08.bks.cpg/sg16_4_cif.got.tgz:7989.got - 2010.06.03 22:28:35.
