data_PCOD9310071
_publ_section_title
;
Structure prediction by ZEFSAII (Michael W. Deem and Ramdas Pophale) SiO2 
 PCOD9310071
Probable space group: P 2 2 2
;
_chemical_formula_sum "Si O2"
_cell_formula_units_Z 20
_cell_length_a 7.686072
_cell_length_b 12.991574
_cell_length_c 8.706526
_cell_angle_alpha 90.000000
_cell_angle_beta 90.000000
_cell_angle_gamma 90.000000
_cell_volume 869.382955
_symmetry_space_group_name_H-M "P 2 2 2"
_symmetry_group_IT_number 16
_symmetry_cell_setting 'orthorhombic'
loop_
_space_group_symop_operation_xyz
x,y,z
-x,-y,z
x,-y,-z
-x,y,-z
loop_
_atom_site_type_symbol
_atom_site_label
_atom_site_fract_x
_atom_site_fract_y
_atom_site_fract_z
Si Si1 0.695712 0.604948 0.431270
Si Si2 0.205874 0.990302 0.322567
Si Si3 0.882365 0.322068 0.865232
Si Si4 0.692708 0.887674 0.062368
Si Si5 0.867049 0.783235 0.622902
O O1 0.778439 0.500000 0.500000
O O2 0.500000 0.601956 0.500000
O O3 0.743846 0.618198 0.248421
O O4 0.767316 0.704473 0.517195
O O5 0.242411 0.870059 0.289365
O O6 0.243372 0.000000 0.500000
O O7 0.309626 0.079558 0.240115
O O8 0.000000 0.000000 0.284322
O O9 0.794299 0.220041 0.941552
O O10 0.021865 0.279369 0.744218
O O11 0.000000 0.374055 0.000000
O O12 0.500000 0.875986 0.000000
O O13 0.765145 0.000000 0.000000
O O14 0.000000 0.835418 0.500000
#
# Coordination Sequence:
#
# PCOD9310071 Si02
#       5
#     4   4   4   4   4
#     4  10  24  47  73 100 137 181 233 312 381 429
#     4  11  18  35  65  95 128 178 240 287 334 409
#     4  11  23  40  69 101 134 182 233 291 354 435
#     4  11  25  40  59  99 150 192 228 283 360 435
#     4  10  19  36  66 100 126 176 234 291 349 419
#
# _framework density 23.004822000000001
#
# number of rings (size 3 to 8) (size 9 to 14) (size 15 to 20)
#    0.000    1.400    4.000    2.400    0.000    8.400 
#    0.000    4.000    0.000    2.400    0.000    0.000 
#    0.000    0.000    0.000    0.000    0.000    0.000 
#
# Total GULP energy -111421.353593 kJ/mol
# GULP energy per Si atom -5571.067680 kJ/mol
# Density = 2.295246 g / cm^3
# Si number density = 23.004822 Si / 1000 Ang^3
#
#
#
# Elastic Constant Matrix: (Units=GPa)
#
#
# Indices 1 2 3 4 5 6 
#
# 1 87.5874 25.3868 58.2708 0.0000 0.0000 0.0000
# 2 25.3868 105.9800 14.4364 0.0000 0.0000 0.0000
# 3 58.2708 14.4364 117.8856 0.0000 0.0000 0.0000
# 4 0.0000 0.0000 0.0000 27.0212 0.0000 0.0000
# 5 0.0000 0.0000 0.0000 0.0000 31.2365 0.0000
# 6 0.0000 0.0000 0.0000 0.0000 0.0000 -20.5427
#
#
#
# Elastic Compliance Matrix: (Units=1/GPa)
#
#
# Indices 1 2 3 4 5 6 
#
# 1 0.017990 -0.003151 -0.008506 0.000000 0.000000 0.000000
# 2 -0.003151 0.010148 0.000315 0.000000 0.000000 0.000000
# 3 -0.008506 0.000315 0.012649 0.000000 0.000000 0.000000
# 4 0.000000 0.000000 0.000000 0.037008 0.000000 0.000000
# 5 0.000000 0.000000 0.000000 0.000000 0.032014 0.000000
# 6 0.000000 0.000000 0.000000 0.000000 0.000000 -0.048679
#
#
# Mechanical properties :
#
#
# Convention : Reuss Voigt Hill
#
# Bulk Modulus (GPa) = 55.24417 56.40457 55.82437
# Shear Modulus (GPa) = 55.64994 21.76693 38.70843
#
# Velocity S-wave (km/s) = 4.92373 3.07936 4.10643
# Velocity P-wave (km/s) = 7.50935 6.10041 6.84125
#
# Compressibility (1/GPa) = 0.01810146
#
# Stress axis : x y z
#
# Youngs Moduli (GPa) = 55.58779 98.54576 79.05769
#
# Poissons Ratio (x) = 0.31047 0.67250
# Poissons Ratio (y) = 0.17513 -0.02487
# Poissons Ratio (z) = 0.47285 -0.03101
#
# Static dielectric constant tensor:
#      x y z
#    x 1.985720 0.000000 0.000000 
#    y 0.000000 1.998570 0.000000 
#    z 0.000000 0.000000 2.080520 
# 
# From -- ./inp_files/3813.got.cif
#   From: 2010.05.17/outbox.cif.g08.bks.cpg/sg16_2_cif.got.tgz:3813.got - 2010.06.03 22:28:35.
