data_PCOD9310481
_publ_section_title
;
Structure prediction by ZEFSAII (Michael W. Deem and Ramdas Pophale) SiO2 
 PCOD9310481
Probable space group: P 2 2 21
;
_chemical_formula_sum "Si O2"
_cell_formula_units_Z 32
_cell_length_a 5.446090
_cell_length_b 13.379755
_cell_length_c 16.679486
_cell_angle_alpha 90.000000
_cell_angle_beta 90.000000
_cell_angle_gamma 90.000000
_cell_volume 1215.389943
_symmetry_space_group_name_H-M "P 2 2 21"
_symmetry_group_IT_number 17
_symmetry_cell_setting 'orthorhombic'
loop_
_space_group_symop_operation_xyz
x,y,z
-x,-y,1/2+z
x,-y,-z
-x,y,1/2-z
loop_
_atom_site_type_symbol
_atom_site_label
_atom_site_fract_x
_atom_site_fract_y
_atom_site_fract_z
Si Si1 0.246913 0.196327 0.726846
Si Si2 0.751170 0.970715 0.708160
Si Si3 0.014002 0.677808 0.915704
Si Si4 0.668746 0.104546 0.470342
Si Si5 0.521085 0.309140 0.157679
Si Si6 0.172484 0.190620 0.539310
Si Si7 0.506032 0.533289 0.094442
Si Si8 0.005955 0.454490 0.845748
O O1 0.500000 0.247047 0.750000
O O2 0.224396 0.174980 0.632793
O O3 0.000000 0.254458 0.750000
O O4 0.245593 0.092580 0.779472
O O5 0.500000 0.938871 0.750000
O O6 0.732984 0.926221 0.620422
O O7 0.000000 0.935530 0.750000
O O8 0.277524 0.721425 0.891505
O O9 0.014896 0.561549 0.893886
O O10 0.791326 0.725787 0.866298
O O11 0.932593 0.704109 0.004848
O O12 0.437249 0.173849 0.496705
O O13 0.932369 0.125642 0.513142
O O14 0.559666 0.000000 0.500000
O O15 0.500000 0.288156 0.250000
O O16 0.516490 0.428943 0.143443
O O17 0.261108 0.590334 0.121896
O O18 0.746598 0.589408 0.126185
O O19 0.507404 0.500000 0.000000
O O20 0.000000 0.474023 0.750000
#
# Coordination Sequence:
#
# PCOD9310481 Si02
#       8
#     4   4   4   4   4   4   4   4
#     4  10  20  37  58  77  97 128 171 214 263 326
#     4  10  19  35  52  71  99 134 168 200 259 335
#     4  10  20  35  55  82 110 145 189 233 276 322
#     4  12  23  38  58  80 110 139 172 227 291 346
#     4  10  19  36  59  81 115 157 190 225 271 328
#     4  12  24  39  59  85 108 135 182 235 280 332
#     4  10  18  29  51  87 117 145 192 237 270 311
#     4  10  19  35  56  79 116 161 196 229 273 328
#
# _framework density 26.328996
#
# number of rings (size 3 to 8) (size 9 to 14) (size 15 to 20)
#    0.000    1.500    0.000    9.750    0.000    0.000 
#    0.000    8.125    0.000    0.000    0.000   45.500 
#    0.000    0.000    0.000    0.000    0.000    0.000 
#
# Total GULP energy -178890.357058 kJ/mol
# GULP energy per Si atom -5590.323658 kJ/mol
# Density = 2.626907 g / cm^3
# Si number density = 26.328996 Si / 1000 Ang^3
#
#
#
# Elastic Constant Matrix: (Units=GPa)
#
#
# Indices 1 2 3 4 5 6 
#
# 1 299.6623 6.8511 88.8064 0.0000 0.0000 0.0000
# 2 6.8511 70.6679 27.9746 0.0000 0.0000 0.0000
# 3 88.8064 27.9746 140.7469 0.0000 0.0000 0.0000
# 4 0.0000 0.0000 0.0000 22.3117 0.0000 0.0000
# 5 0.0000 0.0000 0.0000 0.0000 42.6409 0.0000
# 6 0.0000 0.0000 0.0000 0.0000 0.0000 28.5977
#
#
#
# Elastic Compliance Matrix: (Units=1/GPa)
#
#
# Indices 1 2 3 4 5 6 
#
# 1 0.004135 0.000686 -0.002745 0.000000 0.000000 0.000000
# 2 0.000686 0.015473 -0.003508 0.000000 0.000000 0.000000
# 3 -0.002745 -0.003508 0.009534 0.000000 0.000000 0.000000
# 4 0.000000 0.000000 0.000000 0.044820 0.000000 0.000000
# 5 0.000000 0.000000 0.000000 0.000000 0.023452 0.000000
# 6 0.000000 0.000000 0.000000 0.000000 0.000000 0.034968
#
#
# Mechanical properties :
#
#
# Convention : Reuss Voigt Hill
#
# Bulk Modulus (GPa) = 55.53347 84.26015 69.89681
# Shear Modulus (GPa) = 33.44051 44.53970 38.99011
#
# Velocity S-wave (km/s) = 3.56772 4.11744 3.85240
# Velocity P-wave (km/s) = 6.17328 7.39437 6.81124
#
# Compressibility (1/GPa) = 0.01800716
#
# Stress axis : x y z
#
# Youngs Moduli (GPa) = 241.83714 64.62895 104.88263
#
# Poissons Ratio (x) = -0.04433 0.28794
# Poissons Ratio (y) = -0.16588 0.36794
# Poissons Ratio (z) = 0.66393 0.22673
#
# Static dielectric constant tensor:
#      x y z
#    x 2.220500 0.000000 0.000000 
#    y 0.000000 2.229580 0.000000 
#    z 0.000000 0.000000 2.033480 
# 
# From -- ./inp_files/7822.got.cif
#   From: 2010.05.17/outbox.cif.g08.bks.cpg/sg17_4_cif.got.tgz:7822.got - 2010.06.03 22:34:06.
