data_PCOD9310609
_publ_section_title
;
Structure prediction by ZEFSAII (Michael W. Deem and Ramdas Pophale) SiO2 
 PCOD9310609
Probable space group: P 2 2 21
;
_chemical_formula_sum "Si O2"
_cell_formula_units_Z 20
_cell_length_a 10.084432
_cell_length_b 10.665886
_cell_length_c 8.513298
_cell_angle_alpha 90.000000
_cell_angle_beta 90.000000
_cell_angle_gamma 90.000000
_cell_volume 915.685243
_symmetry_space_group_name_H-M "P 2 2 21"
_symmetry_group_IT_number 17
_symmetry_cell_setting 'orthorhombic'
loop_
_space_group_symop_operation_xyz
x,y,z
-x,-y,1/2+z
x,-y,-z
-x,y,1/2-z
loop_
_atom_site_type_symbol
_atom_site_label
_atom_site_fract_x
_atom_site_fract_y
_atom_site_fract_z
Si Si1 0.646810 0.768371 0.809053
Si Si2 0.355174 0.517385 0.310999
Si Si3 0.497962 0.863030 0.434067
Si Si4 0.201229 0.860011 0.950589
Si Si5 0.886742 0.617440 0.380840
O O1 0.500000 0.811551 0.750000
O O2 0.664781 0.626665 0.752593
O O3 0.766508 0.847174 0.735732
O O4 0.616574 0.775071 0.993886
O O5 0.346738 0.500000 0.500000
O O6 0.500000 0.556483 0.250000
O O7 0.247043 0.598257 0.220492
O O8 0.500000 0.864163 0.250000
O O9 0.649350 0.836971 0.483772
O O10 0.463453 0.000000 0.500000
O O11 0.115853 0.746970 0.020649
O O12 0.160198 0.000000 0.000000
O O13 0.901332 0.500000 0.500000
O O14 0.000000 0.617214 0.250000
#
# Coordination Sequence:
#
# PCOD9310609 Si02
#       5
#     4   4   4   4   4
#     4   9  19  35  57  94 138 175 218 276 333 393
#     4  11  24  39  67 105 139 177 230 281 335 400
#     4  10  19  32  57  96 141 184 224 276 345 408
#     4  10  21  41  67  94 131 180 230 280 335 402
#     4  12  26  48  72  98 135 182 227 281 346 415
#
# _framework density 21.841567999999999
#
# number of rings (size 3 to 8) (size 9 to 14) (size 15 to 20)
#    0.000    1.600    2.000    4.200    8.400    0.000 
#    0.000    1.000    0.000    0.000    0.000    0.000 
#    0.000    0.000    0.000    0.000    0.000    0.000 
#
# Total GULP energy -111636.801009 kJ/mol
# GULP energy per Si atom -5581.840050 kJ/mol
# Density = 2.179186 g / cm^3
# Si number density = 21.841568 Si / 1000 Ang^3
#
#
#
# Elastic Constant Matrix: (Units=GPa)
#
#
# Indices 1 2 3 4 5 6 
#
# 1 54.4352 33.8614 25.5116 0.0000 0.0000 0.0000
# 2 33.8614 142.4773 38.6055 0.0000 0.0000 0.0000
# 3 25.5116 38.6055 128.5890 0.0000 0.0000 0.0000
# 4 0.0000 0.0000 0.0000 29.5190 0.0000 0.0000
# 5 0.0000 0.0000 0.0000 0.0000 27.4918 0.0000
# 6 0.0000 0.0000 0.0000 0.0000 0.0000 8.6046
#
#
#
# Elastic Compliance Matrix: (Units=1/GPa)
#
#
# Indices 1 2 3 4 5 6 
#
# 1 0.022661 -0.004537 -0.003134 0.000000 0.000000 0.000000
# 2 -0.004537 0.008548 -0.001666 0.000000 0.000000 0.000000
# 3 -0.003134 -0.001666 0.008899 0.000000 0.000000 0.000000
# 4 0.000000 0.000000 0.000000 0.033876 0.000000 0.000000
# 5 0.000000 0.000000 0.000000 0.000000 0.036374 0.000000
# 6 0.000000 0.000000 0.000000 0.000000 0.000000 0.116216
#
#
# Mechanical properties :
#
#
# Convention : Reuss Voigt Hill
#
# Bulk Modulus (GPa) = 46.65355 57.93985 52.29670
# Shear Modulus (GPa) = 19.81029 28.29129 24.05079
#
# Velocity S-wave (km/s) = 3.01491 3.60293 3.32195
# Velocity P-wave (km/s) = 5.79016 6.62518 6.22169
#
# Compressibility (1/GPa) = 0.02143460
#
# Stress axis : x y z
#
# Youngs Moduli (GPa) = 44.12831 116.98166 112.37511
#
# Poissons Ratio (x) = 0.53069 0.35218
# Poissons Ratio (y) = 0.20019 0.18726
# Poissons Ratio (z) = 0.13830 0.19494
#
# Static dielectric constant tensor:
#      x y z
#    x 1.760370 0.000000 0.000000 
#    y 0.000000 1.854060 0.000000 
#    z 0.000000 0.000000 1.997880 
# 
# From -- ./inp_files/4013.got.cif
#   From: 2010.05.17/outbox.cif.g08.bks.cpg/sg17_3_cif.got.tgz:4013.got - 2010.06.03 22:34:06.
