data_PCOD9310633
_publ_section_title
;
Structure prediction by ZEFSAII (Michael W. Deem and Ramdas Pophale) SiO2 
 PCOD9310633
Probable space group: P 2 2 21
;
_chemical_formula_sum "Si O2"
_cell_formula_units_Z 32
_cell_length_a 7.394657
_cell_length_b 18.155270
_cell_length_c 11.898757
_cell_angle_alpha 90.000000
_cell_angle_beta 90.000000
_cell_angle_gamma 90.000000
_cell_volume 1597.431858
_symmetry_space_group_name_H-M "P 2 2 21"
_symmetry_group_IT_number 17
_symmetry_cell_setting 'orthorhombic'
loop_
_space_group_symop_operation_xyz
x,y,z
-x,-y,1/2+z
x,-y,-z
-x,y,1/2-z
loop_
_atom_site_type_symbol
_atom_site_label
_atom_site_fract_x
_atom_site_fract_y
_atom_site_fract_z
Si Si1 0.725088 0.831404 0.928820
Si Si2 0.245222 0.674747 0.650061
Si Si3 0.832313 0.662760 0.594500
Si Si4 0.363958 0.943152 0.408167
Si Si5 0.147264 0.185322 0.996430
Si Si6 0.474230 0.544259 0.881830
Si Si7 0.232274 0.054127 0.832199
Si Si8 0.812574 0.893658 0.705579
O O1 0.675614 0.748737 0.901454
O O2 0.699376 0.884531 0.819572
O O3 0.619331 0.865497 0.031465
O O4 0.935466 0.825810 0.969964
O O5 0.220506 0.692505 0.781793
O O6 0.379561 0.608848 0.627601
O O7 0.048690 0.653091 0.601840
O O8 0.806885 0.727358 0.500832
O O9 0.717066 0.587031 0.593605
O O10 0.563567 0.965368 0.370595
O O11 0.238109 0.934606 0.301050
O O12 0.289734 0.000000 0.500000
O O13 0.176486 0.128776 0.894044
O O14 0.258061 0.151621 0.101304
O O15 0.500000 0.511137 0.750000
O O16 0.507435 0.500000 0.000000
O O17 0.139351 0.974366 0.843585
O O18 0.000000 0.859384 0.750000
#
# Coordination Sequence:
#
# PCOD9310633 Si02
#       8
#     4   4   4   4   4   4   4   4
#     4  10  20  35  59  80 106 150 196 249 298 344
#     4   9  18  37  62  92 122 158 204 249 294 354
#     4   9  18  36  62  91 126 155 202 251 292 352
#     4  11  23  38  49  69 107 150 192 245 306 361
#     4  10  20  34  56  85 109 142 197 250 294 351
#     4  10  22  40  65 100 130 165 200 245 305 373
#     4  11  24  36  49  75 110 149 194 249 310 356
#     4  10  19  34  57  78 106 146 192 250 298 339
#
# _framework density 20.032154999999999
#
# number of rings (size 3 to 8) (size 9 to 14) (size 15 to 20)
#    0.000    2.000    2.500    1.125    3.500    0.500 
#    0.000    1.250    0.000    1.500    0.000    0.000 
#    0.000    0.000    0.000    0.000    0.000    0.000 
#
# Total GULP energy -178137.155520 kJ/mol
# GULP energy per Si atom -5566.786110 kJ/mol
# Density = 1.998656 g / cm^3
# Si number density = 20.032155 Si / 1000 Ang^3
#
#
#
# Elastic Constant Matrix: (Units=GPa)
#
#
# Indices 1 2 3 4 5 6 
#
# 1 38.2097 14.7066 11.0386 0.0000 0.0000 0.0000
# 2 14.7066 61.6029 38.7455 0.0000 0.0000 0.0000
# 3 11.0386 38.7455 101.9468 0.0000 0.0000 0.0000
# 4 0.0000 0.0000 0.0000 38.8474 0.0000 0.0000
# 5 0.0000 0.0000 0.0000 0.0000 25.3755 0.0000
# 6 0.0000 0.0000 0.0000 0.0000 0.0000 25.6819
#
#
#
# Elastic Compliance Matrix: (Units=1/GPa)
#
#
# Indices 1 2 3 4 5 6 
#
# 1 0.028854 -0.006470 -0.000665 0.000000 0.000000 0.000000
# 2 -0.006470 0.022783 -0.007958 0.000000 0.000000 0.000000
# 3 -0.000665 -0.007958 0.012906 0.000000 0.000000 0.000000
# 4 0.000000 0.000000 0.000000 0.025742 0.000000 0.000000
# 5 0.000000 0.000000 0.000000 0.000000 0.039408 0.000000
# 6 0.000000 0.000000 0.000000 0.000000 0.000000 0.038938
#
#
# Mechanical properties :
#
#
# Convention : Reuss Voigt Hill
#
# Bulk Modulus (GPa) = 29.10744 36.74899 32.92822
# Shear Modulus (GPa) = 23.77908 27.13221 25.45564
#
# Velocity S-wave (km/s) = 3.44909 3.68425 3.56861
# Velocity P-wave (km/s) = 5.51575 6.04013 5.78389
#
# Compressibility (1/GPa) = 0.03435547
#
# Stress axis : x y z
#
# Youngs Moduli (GPa) = 34.65750 43.89250 77.48541
#
# Poissons Ratio (x) = 0.28398 0.05155
# Poissons Ratio (y) = 0.22423 0.61665
# Poissons Ratio (z) = 0.02306 0.34931
#
# Static dielectric constant tensor:
#      x y z
#    x 1.791670 0.000000 0.000000 
#    y 0.000000 1.726490 0.000000 
#    z 0.000000 0.000000 1.757400 
# 
# From -- ./inp_files/6717.got.cif
#   From: 2010.05.17/outbox.cif.g08.bks.cpg/sg17_4_cif.got.tgz:6717.got - 2010.06.03 22:34:06.
