data_PCOD9310868
_publ_section_title
;
Structure prediction by ZEFSAII (Michael W. Deem and Ramdas Pophale) SiO2 
 PCOD9310868
Probable space group: P 2 2 21
;
_chemical_formula_sum "Si O2"
_cell_formula_units_Z 22
_cell_length_a 5.063491
_cell_length_b 15.811824
_cell_length_c 11.358156
_cell_angle_alpha 90.000000
_cell_angle_beta 90.000000
_cell_angle_gamma 90.000000
_cell_volume 909.368368
_symmetry_space_group_name_H-M "P 2 2 21"
_symmetry_group_IT_number 17
_symmetry_cell_setting 'orthorhombic'
loop_
_space_group_symop_operation_xyz
x,y,z
-x,-y,1/2+z
x,-y,-z
-x,y,1/2-z
loop_
_atom_site_type_symbol
_atom_site_label
_atom_site_fract_x
_atom_site_fract_y
_atom_site_fract_z
Si Si1 0.401092 0.902243 0.491165
Si Si2 0.769089 0.740597 0.087588
Si Si3 0.274114 0.702011 0.929206
Si Si4 0.500000 0.616267 0.250000
Si Si5 0.160310 0.513731 0.870091
Si Si6 0.086940 0.131996 0.134762
O O1 0.328031 0.838289 0.384233
O O2 0.198388 0.857706 0.579390
O O3 0.699894 0.901745 0.540528
O O4 0.319352 0.000000 0.500000
O O5 0.718379 0.678906 0.196879
O O6 0.554406 0.710667 0.990986
O O7 0.056870 0.723002 0.031893
O O8 0.245813 0.610967 0.872933
O O9 0.216987 0.777432 0.837083
O O10 0.606210 0.554326 0.352681
O O11 0.000000 0.500880 0.750000
O O12 0.034460 0.500000 0.000000
O O13 0.000000 0.080058 0.250000
#
# Coordination Sequence:
#
# PCOD9310868 Si02
#       6
#     4   4   4   2   4   4
#     4  10  21  40  67  92 133 172 221 279 348 426
#     4  10  23  43  68  94 140 178 230 287 361 423
#     4  10  22  43  66  96 129 179 226 286 352 409
#     4  12  26  42  66  98 142 186 238 292 366 428
#     4  12  26  43  69  99 138 187 247 302 355 436
#     4  10  20  38  63  95 127 164 212 282 338 414
#
# _framework density 24.192616999999998
#
# number of rings (size 3 to 8) (size 9 to 14) (size 15 to 20)
#    0.000    1.455    1.818    2.727    2.545    0.727 
#    6.545    0.000    0.000    0.000    0.000    0.000 
#    0.000    0.000    0.000    0.000    0.000    0.000 
#
# Total GULP energy -122557.694647 kJ/mol
# GULP energy per Si atom -5570.804302 kJ/mol
# Density = 2.413755 g / cm^3
# Si number density = 24.192617 Si / 1000 Ang^3
#
#
#
# Elastic Constant Matrix: (Units=GPa)
#
#
# Indices 1 2 3 4 5 6 
#
# 1 104.6839 8.7199 27.4774 0.0000 0.0000 0.0000
# 2 8.7199 190.3452 15.4090 0.0000 0.0000 0.0000
# 3 27.4774 15.4090 78.9542 0.0000 0.0000 0.0000
# 4 0.0000 0.0000 0.0000 9.3383 0.0000 0.0000
# 5 0.0000 0.0000 0.0000 0.0000 28.4416 0.0000
# 6 0.0000 0.0000 0.0000 0.0000 0.0000 14.7068
#
#
#
# Elastic Compliance Matrix: (Units=1/GPa)
#
#
# Indices 1 2 3 4 5 6 
#
# 1 0.010520 -0.000189 -0.003624 0.000000 0.000000 0.000000
# 2 -0.000189 0.005341 -0.000977 0.000000 0.000000 0.000000
# 3 -0.003624 -0.000977 0.014117 0.000000 0.000000 0.000000
# 4 0.000000 0.000000 0.000000 0.107086 0.000000 0.000000
# 5 0.000000 0.000000 0.000000 0.000000 0.035160 0.000000
# 6 0.000000 0.000000 0.000000 0.000000 0.000000 0.067996
#
#
# Mechanical properties :
#
#
# Convention : Reuss Voigt Hill
#
# Bulk Modulus (GPa) = 49.02130 53.02176 51.02153
# Shear Modulus (GPa) = 19.48568 31.98913 25.73741
#
# Velocity S-wave (km/s) = 2.84111 3.64025 3.26522
# Velocity P-wave (km/s) = 5.57399 6.29544 5.94567
#
# Compressibility (1/GPa) = 0.02039930
#
# Stress axis : x y z
#
# Youngs Moduli (GPa) = 95.06108 187.21939 70.83409
#
# Poissons Ratio (x) = 0.03530 0.25672
# Poissons Ratio (y) = 0.01792 0.06919
# Poissons Ratio (z) = 0.34452 0.18288
#
# Static dielectric constant tensor:
#      x y z
#    x 1.899120 0.000000 0.000000 
#    y 0.000000 2.021980 0.000000 
#    z 0.000000 0.000000 2.247590 
# 
# From -- ./inp_files/5953.got.cif
#   From: 2010.05.17/outbox.cif.g08.bks.cpg/sg17_3_cif.got.tgz:5953.got - 2010.06.03 22:34:06.
