data_PCOD9310442
_publ_section_title
;
Structure prediction by ZEFSAII (Michael W. Deem and Ramdas Pophale) SiO2 
 PCOD9310442
Probable space group: P 2 2 21
;
_chemical_formula_sum "Si O2"
_cell_formula_units_Z 20
_cell_length_a 9.014559
_cell_length_b 7.295279
_cell_length_c 13.662420
_cell_angle_alpha 90.000000
_cell_angle_beta 90.000000
_cell_angle_gamma 90.000000
_cell_volume 898.491604
_symmetry_space_group_name_H-M "P 2 2 21"
_symmetry_group_IT_number 17
_symmetry_cell_setting 'orthorhombic'
loop_
_space_group_symop_operation_xyz
x,y,z
-x,-y,1/2+z
x,-y,-z
-x,y,1/2-z
loop_
_atom_site_type_symbol
_atom_site_label
_atom_site_fract_x
_atom_site_fract_y
_atom_site_fract_z
Si Si1 0.537839 0.169165 0.075309
Si Si2 0.260939 0.500000 0.500000
Si Si3 0.193998 0.756959 0.901544
Si Si4 0.980851 0.000000 0.000000
Si Si5 0.188257 0.867974 0.689233
Si Si6 0.970428 0.472782 0.850921
O O1 0.368893 0.231264 0.087597
O O2 0.635571 0.117558 0.170512
O O3 0.632038 0.341927 0.037573
O O4 0.540165 0.000000 0.000000
O O5 0.144452 0.604349 0.428537
O O6 0.159657 0.885808 0.805331
O O7 0.127697 0.554310 0.884910
O O8 0.098441 0.833571 0.991609
O O9 0.883408 0.980372 0.901313
O O10 0.122295 0.661887 0.673283
O O11 0.000000 0.368125 0.750000
#
# Coordination Sequence:
#
# PCOD9310442 Si02
#       6
#     4   2   4   2   4   4
#     4  11  21  38  62  91 130 161 206 256 316 377
#     4  10  22  38  66  88 122 174 198 258 326 362
#     4  10  19  33  60  91 119 166 212 255 313 376
#     4  10  16  30  54  90 118 152 214 256 294 376
#     4   9  18  33  58  86 121 167 205 252 316 374
#     4   8  17  35  60  86 114 159 213 250 307 372
#
# _framework density 22.259526999999999
#
# number of rings (size 3 to 8) (size 9 to 14) (size 15 to 20)
#    0.000    2.400    2.000    2.400    0.000    0.800 
#    0.000    0.000   13.200   12.000    0.000    0.000 
#    0.000    0.000    0.000    0.000    0.000    0.000 
#
# Total GULP energy -111342.206598 kJ/mol
# GULP energy per Si atom -5567.110330 kJ/mol
# Density = 2.220886 g / cm^3
# Si number density = 22.259527 Si / 1000 Ang^3
#
#
#
# Elastic Constant Matrix: (Units=GPa)
#
#
# Indices 1 2 3 4 5 6 
#
# 1 210.1578 20.6952 58.0675 0.0000 0.0000 0.0000
# 2 20.6952 44.5088 19.9209 0.0000 0.0000 0.0000
# 3 58.0675 19.9209 93.3547 0.0000 0.0000 0.0000
# 4 0.0000 0.0000 0.0000 17.7074 0.0000 0.0000
# 5 0.0000 0.0000 0.0000 0.0000 28.8004 0.0000
# 6 0.0000 0.0000 0.0000 0.0000 0.0000 21.6469
#
#
#
# Elastic Compliance Matrix: (Units=1/GPa)
#
#
# Indices 1 2 3 4 5 6 
#
# 1 0.005803 -0.001197 -0.003354 0.000000 0.000000 0.000000
# 2 -0.001197 0.025087 -0.004609 0.000000 0.000000 0.000000
# 3 -0.003354 -0.004609 0.013782 0.000000 0.000000 0.000000
# 4 0.000000 0.000000 0.000000 0.056473 0.000000 0.000000
# 5 0.000000 0.000000 0.000000 0.000000 0.034722 0.000000
# 6 0.000000 0.000000 0.000000 0.000000 0.000000 0.046196
#
#
# Mechanical properties :
#
#
# Convention : Reuss Voigt Hill
#
# Bulk Modulus (GPa) = 37.94818 60.59872 49.27345
# Shear Modulus (GPa) = 23.90447 30.25346 27.07897
#
# Velocity S-wave (km/s) = 3.28059 3.69063 3.49164
# Velocity P-wave (km/s) = 5.60667 6.74120 6.19994
#
# Compressibility (1/GPa) = 0.02635172
#
# Stress axis : x y z
#
# Youngs Moduli (GPa) = 172.32637 39.86165 72.56085
#
# Poissons Ratio (x) = 0.04771 0.24337
# Poissons Ratio (y) = 0.20628 0.33441
# Poissons Ratio (z) = 0.57799 0.18371
#
# Static dielectric constant tensor:
#      x y z
#    x 1.820470 0.000000 0.000000 
#    y 0.000000 1.882020 0.000000 
#    z 0.000000 0.000000 2.024240 
# 
# From -- ./inp_files/7942.got.cif
#   From: 2010.05.17/outbox.cif.g08.bks.cpg/sg17_4_cif.got.tgz:7942.got - 2010.06.03 22:34:06.
