data_PCOD9310758
_publ_section_title
;
Structure prediction by ZEFSAII (Michael W. Deem and Ramdas Pophale) SiO2 
 PCOD9310758
Probable space group: P 2 2 21
;
_chemical_formula_sum "Si O2"
_cell_formula_units_Z 24
_cell_length_a 11.988418
_cell_length_b 11.063592
_cell_length_c 9.455663
_cell_angle_alpha 90.000000
_cell_angle_beta 90.000000
_cell_angle_gamma 90.000000
_cell_volume 1254.151536
_symmetry_space_group_name_H-M "P 2 2 21"
_symmetry_group_IT_number 17
_symmetry_cell_setting 'orthorhombic'
loop_
_space_group_symop_operation_xyz
x,y,z
-x,-y,1/2+z
x,-y,-z
-x,y,1/2-z
loop_
_atom_site_type_symbol
_atom_site_label
_atom_site_fract_x
_atom_site_fract_y
_atom_site_fract_z
Si Si1 0.409936 0.768227 0.067776
Si Si2 0.391006 0.485565 0.837130
Si Si3 0.676457 0.959638 0.222632
Si Si4 0.353527 0.181340 0.455038
Si Si5 0.897616 0.075620 0.356132
Si Si6 0.752207 0.708715 0.687517
O O1 0.375597 0.658353 0.171973
O O2 0.389764 0.889374 0.156184
O O3 0.536220 0.756853 0.015384
O O4 0.335779 0.761960 0.927046
O O5 0.500000 0.525758 0.750000
O O6 0.279890 0.566101 0.817442
O O7 0.423018 0.500000 0.000000
O O8 0.611888 0.067695 0.143929
O O9 0.787339 0.015033 0.289351
O O10 0.707428 0.870671 0.093059
O O11 0.277861 0.257295 0.348717
O O12 0.863767 0.219472 0.360521
O O13 0.000000 0.062274 0.250000
O O14 0.918850 0.000000 0.500000
#
# Coordination Sequence:
#
# PCOD9310758 Si02
#       6
#     4   4   4   4   4   4
#     4  11  20  36  54  87 124 169 194 235 285 354
#     4  10  20  34  57  85 120 164 203 232 277 350
#     4  10  22  36  52  86 120 156 194 243 297 354
#     4  10  21  32  54  83 127 159 189 230 284 366
#     4  11  24  41  64  84 111 146 197 258 319 369
#     4  10  21  37  56  85 115 154 201 244 291 353
#
# _framework density 19.136444999999998
#
# number of rings (size 3 to 8) (size 9 to 14) (size 15 to 20)
#    0.000    1.667    1.667    4.000    4.667    9.333 
#    0.000    0.000    0.000    1.000    0.000    0.000 
#    0.000    0.000    0.000    0.000    0.000    0.000 
#
# Total GULP energy -133695.548902 kJ/mol
# GULP energy per Si atom -5570.647871 kJ/mol
# Density = 1.909289 g / cm^3
# Si number density = 19.136445 Si / 1000 Ang^3
#
#
#
# Elastic Constant Matrix: (Units=GPa)
#
#
# Indices 1 2 3 4 5 6 
#
# 1 53.6739 28.7175 16.1569 0.0000 0.0000 0.0000
# 2 28.7175 87.6179 18.3521 0.0000 0.0000 0.0000
# 3 16.1569 18.3521 79.1070 0.0000 0.0000 0.0000
# 4 0.0000 0.0000 0.0000 27.9173 0.0000 0.0000
# 5 0.0000 0.0000 0.0000 0.0000 32.4774 0.0000
# 6 0.0000 0.0000 0.0000 0.0000 0.0000 9.6339
#
#
#
# Elastic Compliance Matrix: (Units=1/GPa)
#
#
# Indices 1 2 3 4 5 6 
#
# 1 0.023313 -0.006983 -0.003141 0.000000 0.000000 0.000000
# 2 -0.006983 0.014088 -0.001842 0.000000 0.000000 0.000000
# 3 -0.003141 -0.001842 0.013710 0.000000 0.000000 0.000000
# 4 0.000000 0.000000 0.000000 0.035820 0.000000 0.000000
# 5 0.000000 0.000000 0.000000 0.000000 0.030791 0.000000
# 6 0.000000 0.000000 0.000000 0.000000 0.000000 0.103801
#
#
# Mechanical properties :
#
#
# Convention : Reuss Voigt Hill
#
# Bulk Modulus (GPa) = 36.79482 38.53908 37.66695
# Shear Modulus (GPa) = 19.64527 24.48386 22.06457
#
# Velocity S-wave (km/s) = 3.20752 3.58080 3.39929
# Velocity P-wave (km/s) = 5.74343 6.10565 5.92731
#
# Compressibility (1/GPa) = 0.02717774
#
# Stress axis : x y z
#
# Youngs Moduli (GPa) = 42.89483 70.98369 72.93918
#
# Poissons Ratio (x) = 0.49568 0.22914
# Poissons Ratio (y) = 0.29953 0.13436
# Poissons Ratio (z) = 0.13475 0.13075
#
# Static dielectric constant tensor:
#      x y z
#    x 1.627200 0.000000 0.000000 
#    y 0.000000 1.826710 0.000000 
#    z 0.000000 0.000000 1.678350 
# 
# From -- ./inp_files/4769.got.cif
#   From: 2010.05.17/outbox.cif.g08.bks.cpg/sg17_3_cif.got.tgz:4769.got - 2010.06.03 22:34:06.
