data_PCOD9310873
_publ_section_title
;
Structure prediction by ZEFSAII (Michael W. Deem and Ramdas Pophale) SiO2 
 PCOD9310873
Probable space group: P 2 2 21
;
_chemical_formula_sum "Si O2"
_cell_formula_units_Z 30
_cell_length_a 5.596924
_cell_length_b 9.992527
_cell_length_c 27.152644
_cell_angle_alpha 90.000000
_cell_angle_beta 90.000000
_cell_angle_gamma 90.000000
_cell_volume 1518.577167
_symmetry_space_group_name_H-M "P 2 2 21"
_symmetry_group_IT_number 17
_symmetry_cell_setting 'orthorhombic'
loop_
_space_group_symop_operation_xyz
x,y,z
-x,-y,1/2+z
x,-y,-z
-x,y,1/2-z
loop_
_atom_site_type_symbol
_atom_site_label
_atom_site_fract_x
_atom_site_fract_y
_atom_site_fract_z
Si Si1 0.236422 0.804437 0.845762
Si Si2 0.606143 0.630732 0.361421
Si Si3 0.179167 0.890463 0.456916
Si Si4 0.375592 0.405584 0.311967
Si Si5 0.991167 0.424296 0.396821
Si Si6 0.700147 0.589730 0.038842
Si Si7 0.000000 0.722575 0.750000
Si Si8 0.322264 0.084833 0.895235
O O1 0.446569 0.715862 0.822728
O O2 0.149181 0.714971 0.892537
O O3 0.052523 0.806191 0.799519
O O4 0.303256 0.948728 0.864816
O O5 0.485554 0.553647 0.316035
O O6 0.836758 0.541946 0.372676
O O7 0.445593 0.614233 0.410840
O O8 0.661189 0.786520 0.359448
O O9 0.210783 0.737095 0.475977
O O10 0.427455 0.917675 0.426381
O O11 0.926542 0.898593 0.426655
O O12 0.166959 0.000000 0.500000
O O13 0.206294 0.400307 0.359592
O O14 0.219324 0.373648 0.264497
O O15 0.089895 0.485539 0.446723
O O16 0.552970 0.500000 0.000000
#
# Coordination Sequence:
#
# PCOD9310873 Si02
#       8
#     4   4   4   4   4   4   2   4
#     4  10  22  36  66  91 125 165 211 261 325 393
#     4   9  19  39  58  88 121 166 211 253 324 378
#     4  11  25  42  60  94 133 174 221 271 324 379
#     4   9  19  36  62  91 119 157 204 264 316 381
#     4   9  18  36  57  86 113 157 209 252 313 372
#     4  10  21  35  57  86 123 163 213 272 309 369
#     4  10  20  38  64  96 126 152 214 276 320 378
#     4  11  24  42  66  91 133 178 214 265 326 395
#
# _framework density 19.755334999999999
#
# number of rings (size 3 to 8) (size 9 to 14) (size 15 to 20)
#    0.000    2.133    1.333    0.800    5.600    2.667 
#    0.000    0.000    0.000   19.200    0.000    0.000 
#    0.000    0.000    0.000    0.000    0.000    0.000 
#
# Total GULP energy -167020.129127 kJ/mol
# GULP energy per Si atom -5567.337638 kJ/mol
# Density = 1.971037 g / cm^3
# Si number density = 19.755335 Si / 1000 Ang^3
#
#
#
# Elastic Constant Matrix: (Units=GPa)
#
#
# Indices 1 2 3 4 5 6 
#
# 1 85.8374 46.2029 21.3754 0.0000 0.0000 0.0000
# 2 46.2029 204.3029 68.1965 0.0000 0.0000 0.0000
# 3 21.3754 68.1965 64.1779 0.0000 0.0000 0.0000
# 4 0.0000 0.0000 0.0000 17.3696 0.0000 0.0000
# 5 0.0000 0.0000 0.0000 0.0000 19.2502 0.0000
# 6 0.0000 0.0000 0.0000 0.0000 0.0000 11.2174
#
#
#
# Elastic Compliance Matrix: (Units=1/GPa)
#
#
# Indices 1 2 3 4 5 6 
#
# 1 0.013417 -0.002390 -0.001929 0.000000 0.000000 0.000000
# 2 -0.002390 0.008011 -0.007717 0.000000 0.000000 0.000000
# 3 -0.001929 -0.007717 0.024424 0.000000 0.000000 0.000000
# 4 0.000000 0.000000 0.000000 0.057572 0.000000 0.000000
# 5 0.000000 0.000000 0.000000 0.000000 0.051947 0.000000
# 6 0.000000 0.000000 0.000000 0.000000 0.000000 0.089147
#
#
# Mechanical properties :
#
#
# Convention : Reuss Voigt Hill
#
# Bulk Modulus (GPa) = 45.91241 69.54089 57.72665
# Shear Modulus (GPa) = 18.12582 24.13699 21.13140
#
# Velocity S-wave (km/s) = 3.03234 3.49921 3.27411
# Velocity P-wave (km/s) = 5.96247 7.18356 6.60131
#
# Compressibility (1/GPa) = 0.02178060
#
# Stress axis : x y z
#
# Youngs Moduli (GPa) = 74.53296 124.82710 40.94380
#
# Poissons Ratio (x) = 0.29839 0.07896
# Poissons Ratio (y) = 0.17817 0.31594
# Poissons Ratio (z) = 0.14374 0.96323
#
# Static dielectric constant tensor:
#      x y z
#    x 1.799540 0.000000 0.000000 
#    y 0.000000 1.672270 0.000000 
#    z 0.000000 0.000000 1.773980 
# 
# From -- ./inp_files/11153.got.cif
#   From: 2010.05.17/outbox.cif.g08.bks.cpg/sg17_6_cif.got.tgz:11153.got - 2010.06.03 22:34:06.
