data_PCOD9310327
_publ_section_title
;
Structure prediction by ZEFSAII (Michael W. Deem and Ramdas Pophale) SiO2 
 PCOD9310327
Probable space group: P 2 2 2
;
_chemical_formula_sum "Si O2"
_cell_formula_units_Z 15
_cell_length_a 9.228846
_cell_length_b 12.318450
_cell_length_c 5.695079
_cell_angle_alpha 90.000000
_cell_angle_beta 90.000000
_cell_angle_gamma 90.000000
_cell_volume 647.445500
_symmetry_space_group_name_H-M "P 2 2 2"
_symmetry_group_IT_number 16
_symmetry_cell_setting 'orthorhombic'
loop_
_space_group_symop_operation_xyz
x,y,z
-x,-y,z
x,-y,-z
-x,y,-z
loop_
_atom_site_type_symbol
_atom_site_label
_atom_site_fract_x
_atom_site_fract_y
_atom_site_fract_z
Si Si1 0.351950 0.792474 0.120311
Si Si2 0.757588 0.403738 0.814597
Si Si3 0.500000 0.639955 0.500000
Si Si4 0.056766 0.876783 0.249163
Si Si5 0.000000 0.500000 0.500000
O O1 0.404463 0.716008 0.331146
O O2 0.230795 0.872323 0.223272
O O3 0.500000 0.836604 0.000000
O O4 0.271429 0.711560 0.937570
O O5 0.613135 0.420135 0.664531
O O6 0.897559 0.422342 0.654628
O O7 0.766194 0.500000 0.000000
O O8 0.000000 0.829798 0.500000
O O9 0.000000 0.000000 0.250746
O O10 0.000000 0.828916 0.000000
#
# Coordination Sequence:
#
# PCOD9310327 Si02
#       5
#     4   4   2   4   1
#     4  10  24  44  71 103 141 191 247 300 370 447
#     4  11  25  43  62  99 138 191 240 298 356 430
#     4  10  24  43  68  93 138 186 240 295 358 435
#     4  10  24  47  76 107 146 187 241 309 384 451
#     4  12  26  42  60  94 146 190 250 296 358 426
#
# _framework density 23.16797
#
# number of rings (size 3 to 8) (size 9 to 14) (size 15 to 20)
#    0.000    1.600    0.000    2.000    7.467   17.067 
#    2.400    2.667    0.000    0.000    0.000    0.000 
#    0.000    0.000    0.000    0.000    0.000    0.000 
#
# Total GULP energy -83826.206443 kJ/mol
# GULP energy per Si atom -5588.413763 kJ/mol
# Density = 2.311524 g / cm^3
# Si number density = 23.167970 Si / 1000 Ang^3
#
#
#
# Elastic Constant Matrix: (Units=GPa)
#
#
# Indices 1 2 3 4 5 6 
#
# 1 228.8272 68.9580 85.3009 0.0000 0.0000 0.0000
# 2 68.9580 60.3456 22.5410 0.0000 0.0000 0.0000
# 3 85.3009 22.5410 165.5150 0.0000 0.0000 0.0000
# 4 0.0000 0.0000 0.0000 8.6402 0.0000 0.0000
# 5 0.0000 0.0000 0.0000 0.0000 50.1340 0.0000
# 6 0.0000 0.0000 0.0000 0.0000 0.0000 68.6293
#
#
#
# Elastic Compliance Matrix: (Units=1/GPa)
#
#
# Indices 1 2 3 4 5 6 
#
# 1 0.007846 -0.007855 -0.002974 0.000000 0.000000 0.000000
# 2 -0.007855 0.025323 0.000599 0.000000 0.000000 0.000000
# 3 -0.002974 0.000599 0.007493 0.000000 0.000000 0.000000
# 4 0.000000 0.000000 0.000000 0.115738 0.000000 0.000000
# 5 0.000000 0.000000 0.000000 0.000000 0.019947 0.000000
# 6 0.000000 0.000000 0.000000 0.000000 0.000000 0.014571
#
#
# Mechanical properties :
#
#
# Convention : Reuss Voigt Hill
#
# Bulk Modulus (GPa) = 49.49675 89.80976 69.65326
# Shear Modulus (GPa) = 22.92435 44.00656 33.46545
#
# Velocity S-wave (km/s) = 3.14902 4.36300 3.80474
# Velocity P-wave (km/s) = 5.88493 8.01435 7.03073
#
# Compressibility (1/GPa) = 0.02020335
#
# Stress axis : x y z
#
# Youngs Moduli (GPa) = 127.45940 39.48992 133.46383
#
# Poissons Ratio (x) = 0.31018 0.39688
# Poissons Ratio (y) = 1.00114 -0.07999
# Poissons Ratio (z) = 0.37902 -0.02367
#
# Static dielectric constant tensor:
#      x y z
#    x 1.842570 0.000000 0.000000 
#    y 0.000000 1.698580 0.000000 
#    z 0.000000 0.000000 1.900280 
# 
# From -- ./inp_files/622.got.cif
#   From: 2010.05.17/outbox.cif.g08.bks.cpg/sg16_1_cif.got.tgz:622.got - 2010.06.03 22:28:35.
