data_PCOD9310738
_publ_section_title
;
Structure prediction by ZEFSAII (Michael W. Deem and Ramdas Pophale) SiO2 
 PCOD9310738
Probable space group: P 2 2 21
;
_chemical_formula_sum "Si O2"
_cell_formula_units_Z 24
_cell_length_a 20.853100
_cell_length_b 11.589154
_cell_length_c 5.134552
_cell_angle_alpha 90.000000
_cell_angle_beta 90.000000
_cell_angle_gamma 90.000000
_cell_volume 1240.866090
_symmetry_space_group_name_H-M "P 2 2 21"
_symmetry_group_IT_number 17
_symmetry_cell_setting 'orthorhombic'
loop_
_space_group_symop_operation_xyz
x,y,z
-x,-y,1/2+z
x,-y,-z
-x,y,1/2-z
loop_
_atom_site_type_symbol
_atom_site_label
_atom_site_fract_x
_atom_site_fract_y
_atom_site_fract_z
Si Si1 0.295274 0.000000 0.000000
Si Si2 0.573284 0.500000 0.500000
Si Si3 0.265423 0.724202 0.444050
Si Si4 0.202383 0.190477 0.091215
Si Si5 0.500000 0.705884 0.250000
Si Si6 0.615972 0.874430 0.118791
Si Si7 0.070206 0.082711 0.246074
Si Si8 0.339738 0.500000 0.500000
O O1 0.344751 0.090828 0.877768
O O2 0.243937 0.924960 0.837309
O O3 0.531883 0.615045 0.448182
O O4 0.614998 0.528737 0.755297
O O5 0.225281 0.714054 0.706904
O O6 0.327603 0.802488 0.516405
O O7 0.296052 0.601605 0.386327
O O8 0.223344 0.776823 0.204624
O O9 0.129743 0.162640 0.168108
O O10 0.555644 0.791377 0.149584
O O11 0.599663 0.000000 0.000000
O O12 0.000000 0.141872 0.250000
O O13 0.081475 0.000000 0.500000
O O14 0.064732 0.000000 0.000000
#
# Coordination Sequence:
#
# PCOD9310738 Si02
#       8
#     2   2   4   4   2   4   4   2
#     4  10  22  36  58  84 128 162 202 250 316 376
#     4  12  27  50  68  90 120 167 222 278 334 397
#     4  11  24  41  65  92 118 168 211 267 325 377
#     4  11  21  37  63  91 128 169 208 250 317 372
#     4  12  28  46  66  94 118 176 214 270 336 396
#     4  11  24  43  59  92 123 163 206 260 326 408
#     4  10  20  33  55  92 138 184 217 246 298 381
#     4  12  25  50  70  90 126 155 222 290 328 381
#
# _framework density 19.341329000000002
#
# number of rings (size 3 to 8) (size 9 to 14) (size 15 to 20)
#    0.000    1.000    4.167    2.500    5.833    0.000 
#    3.000    0.000    0.000    0.000    0.000    2.333 
#    0.000    0.000    0.000    0.000    0.000    0.000 
#
# Total GULP energy -133649.858867 kJ/mol
# GULP energy per Si atom -5568.744119 kJ/mol
# Density = 1.929731 g / cm^3
# Si number density = 19.341329 Si / 1000 Ang^3
#
#
#
# Elastic Constant Matrix: (Units=GPa)
#
#
# Indices 1 2 3 4 5 6 
#
# 1 142.5398 52.0937 34.1546 0.0000 0.0000 0.0000
# 2 52.0937 94.7611 10.6974 0.0000 0.0000 0.0000
# 3 34.1546 10.6974 82.1607 0.0000 0.0000 0.0000
# 4 0.0000 0.0000 0.0000 22.1997 0.0000 0.0000
# 5 0.0000 0.0000 0.0000 0.0000 13.3691 0.0000
# 6 0.0000 0.0000 0.0000 0.0000 0.0000 -6.7574
#
#
#
# Elastic Compliance Matrix: (Units=1/GPa)
#
#
# Indices 1 2 3 4 5 6 
#
# 1 0.009613 -0.004906 -0.003357 0.000000 0.000000 0.000000
# 2 -0.004906 0.013214 0.000319 0.000000 0.000000 0.000000
# 3 -0.003357 0.000319 0.013525 0.000000 0.000000 0.000000
# 4 0.000000 0.000000 0.000000 0.045046 0.000000 0.000000
# 5 0.000000 0.000000 0.000000 0.000000 0.074800 0.000000
# 6 0.000000 0.000000 0.000000 0.000000 0.000000 -0.147987
#
#
# Mechanical properties :
#
#
# Convention : Reuss Voigt Hill
#
# Bulk Modulus (GPa) = 48.86700 57.03921 52.95310
# Shear Modulus (GPa) = 161.70805 20.59668 91.15237
#
# Velocity S-wave (km/s) = 9.15363 3.26683 6.87245
# Velocity P-wave (km/s) = 11.70637 6.61698 9.50851
#
# Compressibility (1/GPa) = 0.02046371
#
# Stress axis : x y z
#
# Youngs Moduli (GPa) = 104.02696 75.67954 73.93466
#
# Poissons Ratio (x) = 0.37125 0.24823
# Poissons Ratio (y) = 0.51031 -0.02357
# Poissons Ratio (z) = 0.34926 -0.02413
#
# Static dielectric constant tensor:
#      x y z
#    x 1.734830 0.000000 0.000000 
#    y 0.000000 1.695150 0.000000 
#    z 0.000000 0.000000 1.767660 
# 
# From -- ./inp_files/2641.got.cif
#   From: 2010.05.17/outbox.cif.g08.bks.cpg/sg17_2_cif.got.tgz:2641.got - 2010.06.03 22:34:06.
