data_PCOD9310997
_publ_section_title
;
Structure prediction by ZEFSAII (Michael W. Deem and Ramdas Pophale) SiO2 
 PCOD9310997
Probable space group: P 2 2 21
;
_chemical_formula_sum "Si O2"
_cell_formula_units_Z 30
_cell_length_a 5.301772
_cell_length_b 11.170523
_cell_length_c 24.736161
_cell_angle_alpha 90.000000
_cell_angle_beta 90.000000
_cell_angle_gamma 90.000000
_cell_volume 1464.963665
_symmetry_space_group_name_H-M "P 2 2 21"
_symmetry_group_IT_number 17
_symmetry_cell_setting 'orthorhombic'
loop_
_space_group_symop_operation_xyz
x,y,z
-x,-y,1/2+z
x,-y,-z
-x,y,1/2-z
loop_
_atom_site_type_symbol
_atom_site_label
_atom_site_fract_x
_atom_site_fract_y
_atom_site_fract_z
Si Si1 0.051030 0.194671 0.916179
Si Si2 0.636826 0.410153 0.049867
Si Si3 0.861661 0.255603 0.462916
Si Si4 0.219973 0.411443 0.642024
Si Si5 0.590381 0.780589 0.316222
Si Si6 0.517362 0.047794 0.310410
Si Si7 0.035589 0.938904 0.623521
Si Si8 0.000000 0.352246 0.750000
O O1 0.899476 0.314367 0.899525
O O2 0.270319 0.193720 0.872412
O O3 0.915599 0.068446 0.904459
O O4 0.151225 0.204424 0.976514
O O5 0.400311 0.320019 0.052208
O O6 0.679857 0.480410 0.106180
O O7 0.902866 0.346843 0.037738
O O8 0.581747 0.500000 0.000000
O O9 0.937903 0.152138 0.421526
O O10 0.438092 0.337590 0.670615
O O11 0.045875 0.430169 0.695405
O O12 0.452455 0.905733 0.305992
O O13 0.783047 0.740015 0.269711
O O14 0.500000 0.098681 0.250000
O O15 0.802041 0.054831 0.333751
O O16 0.297615 0.099810 0.348520
#
# Coordination Sequence:
#
# PCOD9310997 Si02
#       8
#     4   4   4   4   4   4   4   2
#     4  10  22  39  65 100 133 172 212 277 341 407
#     4  12  26  43  71  94 131 181 230 277 326 398
#     4  12  26  45  66  97 135 178 225 271 331 403
#     4  11  21  40  63  99 132 174 217 283 336 404
#     4  10  21  36  63 100 138 163 217 269 353 400
#     4  11  22  39  67  96 131 176 217 276 330 400
#     4  11  24  42  66  99 134 172 218 275 341 400
#     4  10  22  34  64  98 138 168 212 288 348 400
#
# _framework density 20.478325999999999
#
# number of rings (size 3 to 8) (size 9 to 14) (size 15 to 20)
#    0.000    1.067    2.667    4.000    7.467    0.000 
#    0.000    2.667    5.867    0.000    0.000    0.000 
#    0.000    0.000    0.000    0.000    0.000    0.000 
#
# Total GULP energy -167365.049573 kJ/mol
# GULP energy per Si atom -5578.834986 kJ/mol
# Density = 2.043172 g / cm^3
# Si number density = 20.478326 Si / 1000 Ang^3
#
#
#
# Elastic Constant Matrix: (Units=GPa)
#
#
# Indices 1 2 3 4 5 6 
#
# 1 43.8435 1.3442 -2.8166 0.0000 0.0000 0.0000
# 2 1.3442 27.0069 39.6586 0.0000 0.0000 0.0000
# 3 -2.8166 39.6586 124.8669 0.0000 0.0000 0.0000
# 4 0.0000 0.0000 0.0000 23.5747 0.0000 0.0000
# 5 0.0000 0.0000 0.0000 0.0000 22.0673 0.0000
# 6 0.0000 0.0000 0.0000 0.0000 0.0000 30.3165
#
#
#
# Elastic Compliance Matrix: (Units=1/GPa)
#
#
# Indices 1 2 3 4 5 6 
#
# 1 0.023024 -0.003577 0.001655 0.000000 0.000000 0.000000
# 2 -0.003577 0.069947 -0.022296 0.000000 0.000000 0.000000
# 3 0.001655 -0.022296 0.015127 0.000000 0.000000 0.000000
# 4 0.000000 0.000000 0.000000 0.042418 0.000000 0.000000
# 5 0.000000 0.000000 0.000000 0.000000 0.045316 0.000000
# 6 0.000000 0.000000 0.000000 0.000000 0.000000 0.032985
#
#
# Mechanical properties :
#
#
# Convention : Reuss Voigt Hill
#
# Bulk Modulus (GPa) = 16.76080 30.23220 23.49650
# Shear Modulus (GPa) = 16.82702 25.69378 21.26040
#
# Velocity S-wave (km/s) = 2.86964 3.54599 3.22559
# Velocity P-wave (km/s) = 4.37975 5.61787 5.03700
#
# Compressibility (1/GPa) = 0.05966301
#
# Stress axis : x y z
#
# Youngs Moduli (GPa) = 43.43222 14.29659 66.10554
#
# Poissons Ratio (x) = 0.05114 -0.10943
# Poissons Ratio (y) = 0.15535 1.47391
# Poissons Ratio (z) = -0.07190 0.31876
#
# Static dielectric constant tensor:
#      x y z
#    x 1.864900 0.000000 0.000000 
#    y 0.000000 1.723260 0.000000 
#    z 0.000000 0.000000 1.753950 
# 
# From -- ./inp_files/9943.got.cif
#   From: 2010.05.17/outbox.cif.g08.bks.cpg/sg17_5_cif.got.tgz:9943.got - 2010.06.03 22:34:06.
