data_PCOD9310875
_publ_section_title
;
Structure prediction by ZEFSAII (Michael W. Deem and Ramdas Pophale) SiO2 
 PCOD9310875
Probable space group: P 2 2 21
;
_chemical_formula_sum "Si O2"
_cell_formula_units_Z 18
_cell_length_a 11.505676
_cell_length_b 7.482946
_cell_length_c 8.642387
_cell_angle_alpha 90.000000
_cell_angle_beta 90.000000
_cell_angle_gamma 90.000000
_cell_volume 744.077995
_symmetry_space_group_name_H-M "P 2 2 21"
_symmetry_group_IT_number 17
_symmetry_cell_setting 'orthorhombic'
loop_
_space_group_symop_operation_xyz
x,y,z
-x,-y,1/2+z
x,-y,-z
-x,y,1/2-z
loop_
_atom_site_type_symbol
_atom_site_label
_atom_site_fract_x
_atom_site_fract_y
_atom_site_fract_z
Si Si1 0.879227 0.680728 0.225693
Si Si2 0.664498 0.814534 0.819173
Si Si3 0.304474 0.213742 0.973643
Si Si4 0.134380 0.000000 0.500000
Si Si5 0.695616 0.500000 0.000000
Si Si6 0.500000 0.137376 0.750000
O O1 0.811783 0.730056 0.383826
O O2 0.782392 0.574187 0.130388
O O3 0.000000 0.578364 0.250000
O O4 0.916787 0.852121 0.117890
O O5 0.675924 0.727749 0.649545
O O6 0.787584 0.880255 0.884241
O O7 0.587330 0.992433 0.826315
O O8 0.621949 0.661808 0.933514
O O9 0.414927 0.245142 0.862188
O O10 0.298888 0.000000 0.000000
#
# Coordination Sequence:
#
# PCOD9310875 Si02
#       6
#     4   4   4   2   2   2
#     4  11  24  41  66  94 133 171 215 268 320 385
#     4  10  22  39  67  94 132 168 208 269 320 388
#     4  10  21  39  66 101 122 165 217 268 330 366
#     4  10  20  38  64  98 126 158 222 270 310 374
#     4  10  26  44  56  96 140 176 212 254 324 398
#     4  10  20  38  70  98 124 160 218 278 326 370
#
# _framework density 24.191012000000001
#
# number of rings (size 3 to 8) (size 9 to 14) (size 15 to 20)
#    0.000    1.778    4.444    0.000    6.222    2.667 
#    0.000   10.000    0.000    0.000    0.000    0.000 
#    0.000    0.000    0.000    0.000    0.000    0.000 
#
# Total GULP energy -100525.647666 kJ/mol
# GULP energy per Si atom -5584.758204 kJ/mol
# Density = 2.413595 g / cm^3
# Si number density = 24.191012 Si / 1000 Ang^3
#
#
#
# Elastic Constant Matrix: (Units=GPa)
#
#
# Indices 1 2 3 4 5 6 
#
# 1 108.2933 -4.1776 67.7883 0.0000 0.0000 0.0000
# 2 -4.1776 44.0331 13.3886 0.0000 0.0000 0.0000
# 3 67.7883 13.3886 130.9914 0.0000 0.0000 0.0000
# 4 0.0000 0.0000 0.0000 28.1537 0.0000 0.0000
# 5 0.0000 0.0000 0.0000 0.0000 31.0468 0.0000
# 6 0.0000 0.0000 0.0000 0.0000 0.0000 14.4232
#
#
#
# Elastic Compliance Matrix: (Units=1/GPa)
#
#
# Indices 1 2 3 4 5 6 
#
# 1 0.014220 0.003702 -0.007737 0.000000 0.000000 0.000000
# 2 0.003702 0.024402 -0.004410 0.000000 0.000000 0.000000
# 3 -0.007737 -0.004410 0.012089 0.000000 0.000000 0.000000
# 4 0.000000 0.000000 0.000000 0.035519 0.000000 0.000000
# 5 0.000000 0.000000 0.000000 0.000000 0.032209 0.000000
# 6 0.000000 0.000000 0.000000 0.000000 0.000000 0.069333
#
#
# Mechanical properties :
#
#
# Convention : Reuss Voigt Hill
#
# Bulk Modulus (GPa) = 29.56775 48.59069 39.07922
# Shear Modulus (GPa) = 23.15485 28.47931 25.81708
#
# Velocity S-wave (km/s) = 3.09717 3.43486 3.27037
# Velocity P-wave (km/s) = 5.00391 5.98839 5.51815
#
# Compressibility (1/GPa) = 0.03382063
#
# Stress axis : x y z
#
# Youngs Moduli (GPa) = 70.32160 40.97984 82.72020
#
# Poissons Ratio (x) = -0.15170 0.64004
# Poissons Ratio (y) = -0.26031 0.36478
# Poissons Ratio (z) = 0.54411 0.18071
#
# Static dielectric constant tensor:
#      x y z
#    x 1.923950 0.000000 0.000000 
#    y 0.000000 1.955680 0.000000 
#    z 0.000000 0.000000 2.018880 
# 
# From -- ./inp_files/4092.got.cif
#   From: 2010.05.17/outbox.cif.g08.bks.cpg/sg17_3_cif.got.tgz:4092.got - 2010.06.03 22:34:06.
