data_PCOD9310147
_publ_section_title
;
Structure prediction by ZEFSAII (Michael W. Deem and Ramdas Pophale) SiO2 
 PCOD9310147
Probable space group: P 2 2 2
;
_chemical_formula_sum "Si O2"
_cell_formula_units_Z 32
_cell_length_a 12.010418
_cell_length_b 15.140758
_cell_length_c 7.657970
_cell_angle_alpha 90.000000
_cell_angle_beta 90.000000
_cell_angle_gamma 90.000000
_cell_volume 1392.577587
_symmetry_space_group_name_H-M "P 2 2 2"
_symmetry_group_IT_number 16
_symmetry_cell_setting 'orthorhombic'
loop_
_space_group_symop_operation_xyz
x,y,z
-x,-y,z
x,-y,-z
-x,y,-z
loop_
_atom_site_type_symbol
_atom_site_label
_atom_site_fract_x
_atom_site_fract_y
_atom_site_fract_z
Si Si1 0.158052 0.664309 0.849889
Si Si2 0.240270 0.813155 0.337491
Si Si3 0.754513 0.511346 0.694462
Si Si4 0.540920 0.594068 0.801824
Si Si5 0.489124 0.788352 0.298823
Si Si6 0.915894 0.348297 0.249598
Si Si7 0.723265 0.842297 0.246293
Si Si8 0.128166 0.007658 0.713059
O O1 0.233187 0.582140 0.788839
O O2 0.220945 0.756728 0.839180
O O3 0.046816 0.667782 0.730823
O O4 0.114261 0.649108 0.044285
O O5 0.361003 0.803253 0.247137
O O6 0.160007 0.729171 0.327064
O O7 0.263436 0.829012 0.543354
O O8 0.177452 0.895966 0.253682
O O9 0.710576 0.500000 0.500000
O O10 0.673292 0.580219 0.791394
O O11 0.873674 0.558334 0.680644
O O12 0.500000 0.500000 0.729991
O O13 0.497267 0.682209 0.711569
O O14 0.500000 0.600175 0.000000
O O15 0.500000 0.815973 0.500000
O O16 0.591321 0.837390 0.204820
O O17 0.792062 0.931439 0.210737
O O18 0.128225 0.000000 0.500000
O O19 0.000000 0.000000 0.770495
#
# Coordination Sequence:
#
# PCOD9310147 Si02
#       8
#     4   4   4   4   4   4   4   4
#     4  11  25  41  62  89 126 167 213 265 323 391
#     4  10  20  38  62  90 126 162 210 267 315 386
#     4  12  26  41  64  94 124 163 215 266 317 376
#     4  11  26  39  60  88 118 169 209 254 310 372
#     4  10  22  37  58  89 123 160 207 259 314 374
#     4  11  24  42  62  89 125 169 211 265 327 382
#     4  10  21  37  61  91 123 165 209 261 324 383
#     4   9  18  34  60  92 123 161 210 263 322 383
#
# _framework density 22.978971000000001
#
# number of rings (size 3 to 8) (size 9 to 14) (size 15 to 20)
#    0.000    1.500    1.250    3.000    8.750    5.000 
#    0.000    3.125    0.000    2.250    0.000    2.625 
#    0.000    0.000    0.000    0.000    0.000    0.000 
#
# Total GULP energy -178971.802412 kJ/mol
# GULP energy per Si atom -5592.868825 kJ/mol
# Density = 2.292667 g / cm^3
# Si number density = 22.978971 Si / 1000 Ang^3
#
#
#
# Elastic Constant Matrix: (Units=GPa)
#
#
# Indices 1 2 3 4 5 6 
#
# 1 124.2737 21.8473 10.8755 0.0000 0.0000 0.0000
# 2 21.8473 103.3150 -1.0069 0.0000 0.0000 0.0000
# 3 10.8755 -1.0069 54.1468 0.0000 0.0000 0.0000
# 4 0.0000 0.0000 0.0000 -287.1370 0.0000 0.0000
# 5 0.0000 0.0000 0.0000 0.0000 11.3750 0.0000
# 6 0.0000 0.0000 0.0000 0.0000 0.0000 35.6531
#
#
#
# Elastic Compliance Matrix: (Units=1/GPa)
#
#
# Indices 1 2 3 4 5 6 
#
# 1 0.008519 -0.001818 -0.001745 0.000000 0.000000 0.000000
# 2 -0.001818 0.010069 0.000553 0.000000 0.000000 0.000000
# 3 -0.001745 0.000553 0.018829 0.000000 0.000000 0.000000
# 4 0.000000 0.000000 0.000000 -0.003483 0.000000 0.000000
# 5 0.000000 0.000000 0.000000 0.000000 0.087912 0.000000
# 6 0.000000 0.000000 0.000000 0.000000 0.000000 0.028048
#
#
# Mechanical properties :
#
#
# Convention : Reuss Voigt Hill
#
# Bulk Modulus (GPa) = 31.85174 38.35192 35.10183
# Shear Modulus (GPa) = 30.05144 -31.35381 -0.65118
#
# Velocity S-wave (km/s) = 3.62025 -3.69786 -0.53291
# Velocity P-wave (km/s) = 5.60056 1.22719 3.86395
#
# Compressibility (1/GPa) = 0.03139546
#
# Stress axis : x y z
#
# Youngs Moduli (GPa) = 117.38261 99.31410 53.10941
#
# Poissons Ratio (x) = 0.18060 0.09267
# Poissons Ratio (y) = 0.21346 -0.02934
# Poissons Ratio (z) = 0.20482 -0.05487
#
# Static dielectric constant tensor:
#      x y z
#    x 2.025620 0.000000 0.000000 
#    y 0.000000 1.804020 0.000000 
#    z 0.000000 0.000000 1.920430 
# 
# From -- ./inp_files/4874.got.cif
#   From: 2010.05.17/outbox.cif.g08.bks.cpg/sg16_3_cif.got.tgz:4874.got - 2010.06.03 22:28:35.
