data_PCOD9310715
_publ_section_title
;
Structure prediction by ZEFSAII (Michael W. Deem and Ramdas Pophale) SiO2 
 PCOD9310715
Probable space group: P 2 2 21
;
_chemical_formula_sum "Si O2"
_cell_formula_units_Z 24
_cell_length_a 9.056266
_cell_length_b 15.565471
_cell_length_c 8.816773
_cell_angle_alpha 90.000000
_cell_angle_beta 90.000000
_cell_angle_gamma 90.000000
_cell_volume 1242.856810
_symmetry_space_group_name_H-M "P 2 2 21"
_symmetry_group_IT_number 17
_symmetry_cell_setting 'orthorhombic'
loop_
_space_group_symop_operation_xyz
x,y,z
-x,-y,1/2+z
x,-y,-z
-x,y,1/2-z
loop_
_atom_site_type_symbol
_atom_site_label
_atom_site_fract_x
_atom_site_fract_y
_atom_site_fract_z
Si Si1 0.728340 0.906322 0.000934
Si Si2 0.880037 0.435202 0.136424
Si Si3 0.500000 0.148258 0.750000
Si Si4 0.376446 0.423779 0.120946
Si Si5 0.028356 0.761234 0.572701
Si Si6 0.500000 0.146195 0.250000
Si Si7 0.310866 0.756817 0.000347
O O1 0.619563 0.899914 0.145560
O O2 0.845524 0.827014 0.988653
O O3 0.611639 0.902174 0.861960
O O4 0.803905 0.000000 0.000000
O O5 0.758796 0.421900 0.263761
O O6 0.923802 0.340104 0.072866
O O7 0.000000 0.475914 0.250000
O O8 0.844841 0.500000 0.000000
O O9 0.603619 0.203726 0.640944
O O10 0.500000 0.421412 0.250000
O O11 0.355098 0.341537 0.015830
O O12 0.390277 0.500000 0.000000
O O13 0.000000 0.782220 0.750000
O O14 0.866202 0.769099 0.496244
O O15 0.612553 0.200946 0.352769
#
# Coordination Sequence:
#
# PCOD9310715 Si02
#       7
#     4   4   2   4   4   2   4
#     4  11  23  44  68 101 133 172 219 275 335 392
#     4  11  23  42  66  95 129 175 225 268 336 398
#     4  10  27  42  67 102 128 174 221 278 328 390
#     4  12  25  40  61  95 133 175 225 282 334 393
#     4  11  22  43  68  97 127 179 222 263 327 404
#     4  10  19  40  71  84 128 178 215 260 322 410
#     4  11  22  43  65  92 132 175 223 265 334 396
#
# _framework density 19.31035
#
# number of rings (size 3 to 8) (size 9 to 14) (size 15 to 20)
#    0.000    1.000    5.833    1.500    3.500    2.000 
#    3.000    0.833    0.000    0.000    0.000    0.000 
#    0.000    0.000    0.000    0.000    0.000    0.000 
#
# Total GULP energy -133651.985884 kJ/mol
# GULP energy per Si atom -5568.832745 kJ/mol
# Density = 1.926640 g / cm^3
# Si number density = 19.310350 Si / 1000 Ang^3
#
#
#
# Elastic Constant Matrix: (Units=GPa)
#
#
# Indices 1 2 3 4 5 6 
#
# 1 83.7722 22.2557 12.9044 0.0000 0.0000 0.0000
# 2 22.2557 143.6806 58.0150 0.0000 0.0000 0.0000
# 3 12.9044 58.0150 87.8064 0.0000 0.0000 0.0000
# 4 0.0000 0.0000 0.0000 130.9573 0.0000 0.0000
# 5 0.0000 0.0000 0.0000 0.0000 184.9138 0.0000
# 6 0.0000 0.0000 0.0000 0.0000 0.0000 22.3492
#
#
#
# Elastic Compliance Matrix: (Units=1/GPa)
#
#
# Indices 1 2 3 4 5 6 
#
# 1 0.012487 -0.001627 -0.000760 0.000000 0.000000 0.000000
# 2 -0.001627 0.009704 -0.006173 0.000000 0.000000 0.000000
# 3 -0.000760 -0.006173 0.015579 0.000000 0.000000 0.000000
# 4 0.000000 0.000000 0.000000 0.007636 0.000000 0.000000
# 5 0.000000 0.000000 0.000000 0.000000 0.005408 0.000000
# 6 0.000000 0.000000 0.000000 0.000000 0.000000 0.044744
#
#
# Mechanical properties :
#
#
# Convention : Reuss Voigt Hill
#
# Bulk Modulus (GPa) = 48.42636 55.73437 52.08036
# Shear Modulus (GPa) = 41.81974 82.44967 62.13470
#
# Velocity S-wave (km/s) = 4.65872 6.54139 5.67862
# Velocity P-wave (km/s) = 7.35327 9.27244 8.36806
#
# Compressibility (1/GPa) = 0.02064991
#
# Stress axis : x y z
#
# Youngs Moduli (GPa) = 80.08642 103.04697 64.19015
#
# Poissons Ratio (x) = 0.16769 0.04878
# Poissons Ratio (y) = 0.13032 0.39622
# Poissons Ratio (z) = 0.06086 0.63607
#
# Static dielectric constant tensor:
#      x y z
#    x 1.603480 0.000000 0.000000 
#    y 0.000000 1.627600 0.000000 
#    z 0.000000 0.000000 1.645330 
# 
# From -- ./inp_files/4309.got.cif
#   From: 2010.05.17/outbox.cif.g08.bks.cpg/sg17_3_cif.got.tgz:4309.got - 2010.06.03 22:34:06.
