data_PCOD9310697
_publ_section_title
;
Structure prediction by ZEFSAII (Michael W. Deem and Ramdas Pophale) SiO2 
 PCOD9310697
Probable space group: P 2 2 21
;
_chemical_formula_sum "Si O2"
_cell_formula_units_Z 32
_cell_length_a 9.156415
_cell_length_b 11.891544
_cell_length_c 14.013677
_cell_angle_alpha 90.000000
_cell_angle_beta 90.000000
_cell_angle_gamma 90.000000
_cell_volume 1525.863971
_symmetry_space_group_name_H-M "P 2 2 21"
_symmetry_group_IT_number 17
_symmetry_cell_setting 'orthorhombic'
loop_
_space_group_symop_operation_xyz
x,y,z
-x,-y,1/2+z
x,-y,-z
-x,y,1/2-z
loop_
_atom_site_type_symbol
_atom_site_label
_atom_site_fract_x
_atom_site_fract_y
_atom_site_fract_z
Si Si1 0.538718 0.747459 0.959951
Si Si2 0.701311 0.657842 0.442544
Si Si3 0.205791 0.704235 0.690624
Si Si4 0.662991 0.139881 0.702633
Si Si5 0.017547 0.633666 0.517494
Si Si6 0.330782 0.480624 0.755497
Si Si7 0.246714 0.731855 0.373428
Si Si8 0.644477 0.882338 0.682833
O O1 0.655815 0.716417 0.880549
O O2 0.420720 0.832513 0.915077
O O3 0.440775 0.643269 0.992742
O O4 0.635191 0.780914 0.051527
O O5 0.680568 0.775919 0.385797
O O6 0.705096 0.569900 0.357719
O O7 0.847288 0.652359 0.502453
O O8 0.071180 0.686058 0.618179
O O9 0.227544 0.585749 0.740867
O O10 0.232363 0.805046 0.766010
O O11 0.500000 0.152002 0.750000
O O12 0.770227 0.181570 0.786870
O O13 0.689353 0.011590 0.674937
O O14 0.050293 0.500000 0.500000
O O15 0.105650 0.698992 0.434234
O O16 0.500000 0.514656 0.750000
O O17 0.305735 0.382331 0.677054
O O18 0.500000 0.881265 0.750000
#
# Coordination Sequence:
#
# PCOD9310697 Si02
#       8
#     4   4   4   4   4   4   4   4
#     4  10  19  38  62  95 123 157 214 264 308 373
#     4  11  23  38  62  96 120 164 219 260 308 378
#     4  10  22  41  60  88 130 169 204 252 329 390
#     4  10  19  39  66  96 126 154 211 271 325 361
#     4  11  24  41  59  90 129 170 211 256 312 383
#     4  11  19  35  63  95 126 161 208 265 326 368
#     4  10  19  38  63  92 123 165 207 260 317 379
#     4   9  20  38  62  95 125 163 207 264 329 374
#
# _framework density 20.971726
#
# number of rings (size 3 to 8) (size 9 to 14) (size 15 to 20)
#    0.000    1.750    3.750    1.875    0.000    4.500 
#    4.500    3.750    8.250    0.000    0.000    0.000 
#    0.000    0.000    0.000    0.000    0.000    0.000 
#
# Total GULP energy -178699.484932 kJ/mol
# GULP energy per Si atom -5584.358904 kJ/mol
# Density = 2.092399 g / cm^3
# Si number density = 20.971726 Si / 1000 Ang^3
#
#
#
# Elastic Constant Matrix: (Units=GPa)
#
#
# Indices 1 2 3 4 5 6 
#
# 1 73.4402 3.8386 25.9056 0.0000 0.0000 0.0000
# 2 3.8386 110.3912 42.9683 0.0000 0.0000 0.0000
# 3 25.9056 42.9683 64.7083 0.0000 0.0000 0.0000
# 4 0.0000 0.0000 0.0000 15.3058 0.0000 0.0000
# 5 0.0000 0.0000 0.0000 0.0000 25.0909 0.0000
# 6 0.0000 0.0000 0.0000 0.0000 0.0000 10.3680
#
#
#
# Elastic Compliance Matrix: (Units=1/GPa)
#
#
# Indices 1 2 3 4 5 6 
#
# 1 0.016424 0.002681 -0.008356 0.000000 0.000000 0.000000
# 2 0.002681 0.012654 -0.009476 0.000000 0.000000 0.000000
# 3 -0.008356 -0.009476 0.025091 0.000000 0.000000 0.000000
# 4 0.000000 0.000000 0.000000 0.065335 0.000000 0.000000
# 5 0.000000 0.000000 0.000000 0.000000 0.039855 0.000000
# 6 0.000000 0.000000 0.000000 0.000000 0.000000 0.096451
#
#
# Mechanical properties :
#
#
# Convention : Reuss Voigt Hill
#
# Bulk Modulus (GPa) = 41.89643 43.77385 42.83514
# Shear Modulus (GPa) = 17.00298 21.87475 19.43887
#
# Velocity S-wave (km/s) = 2.85047 3.23315 3.04782
# Velocity P-wave (km/s) = 5.55468 5.90388 5.73194
#
# Compressibility (1/GPa) = 0.02386838
#
# Stress axis : x y z
#
# Youngs Moduli (GPa) = 60.88743 79.02742 39.85433
#
# Poissons Ratio (x) = -0.21189 0.33300
# Poissons Ratio (y) = -0.16325 0.37766
# Poissons Ratio (z) = 0.50875 0.74886
#
# Static dielectric constant tensor:
#      x y z
#    x 1.759560 0.000000 0.000000 
#    y 0.000000 1.747220 0.000000 
#    z 0.000000 0.000000 1.796070 
# 
# From -- ./inp_files/8279.got.cif
#   From: 2010.05.17/outbox.cif.g08.bks.cpg/sg17_5_cif.got.tgz:8279.got - 2010.06.03 22:34:06.
