data_PCOD9310063
_publ_section_title
;
Structure prediction by ZEFSAII (Michael W. Deem and Ramdas Pophale) SiO2 
 PCOD9310063
Probable space group: P 2 2 2
;
_chemical_formula_sum "Si O2"
_cell_formula_units_Z 18
_cell_length_a 8.396706
_cell_length_b 16.808987
_cell_length_c 6.250174
_cell_angle_alpha 90.000000
_cell_angle_beta 90.000000
_cell_angle_gamma 90.000000
_cell_volume 882.150321
_symmetry_space_group_name_H-M "P 2 2 2"
_symmetry_group_IT_number 16
_symmetry_cell_setting 'orthorhombic'
loop_
_space_group_symop_operation_xyz
x,y,z
-x,-y,z
x,-y,-z
-x,y,-z
loop_
_atom_site_type_symbol
_atom_site_label
_atom_site_fract_x
_atom_site_fract_y
_atom_site_fract_z
Si Si1 0.668886 0.419747 0.614674
Si Si2 0.000000 0.165559 0.000000
Si Si3 0.271212 0.870477 0.297115
Si Si4 0.500000 0.500000 0.000000
Si Si5 0.500000 0.229146 0.000000
Si Si6 0.500000 0.000000 0.500000
Si Si7 0.231708 0.256759 0.318524
O O1 0.729366 0.500000 0.500000
O O2 0.500000 0.399579 0.500000
O O3 0.788552 0.345788 0.594339
O O4 0.614159 0.446867 0.850919
O O5 0.108728 0.114829 0.835171
O O6 0.897301 0.222904 0.846008
O O7 0.378460 0.944584 0.368006
O O8 0.246746 0.810400 0.497676
O O9 0.377002 0.824072 0.127658
O O10 0.605105 0.269320 0.816830
#
# Coordination Sequence:
#
# PCOD9310063 Si02
#       7
#     4   2   4   1   2   1   4
#     4   9  18  30  56  94 129 168 213 277 322 369
#     4  10  26  42  67  93 134 180 216 258 346 389
#     4  11  23  44  68  99 129 167 210 276 319 401
#     4   8  16  32  48  94 136 154 214 280 324 362
#     4  10  19  35  68  98 120 170 212 257 319 387
#     4  12  24  46  78 100 132 162 228 278 332 382
#     4  11  20  40  63  95 133 173 219 267 324 397
#
# _framework density 20.404685000000001
#
# number of rings (size 3 to 8) (size 9 to 14) (size 15 to 20)
#    0.000    2.000    2.222    2.667    0.000    5.778 
#    0.000    3.333    0.000   10.000    0.000    1.556 
#    0.000    0.000    0.000    0.000    0.000    0.000 
#
# Total GULP energy -100314.947694 kJ/mol
# GULP energy per Si atom -5573.052650 kJ/mol
# Density = 2.035824 g / cm^3
# Si number density = 20.404685 Si / 1000 Ang^3
#
#
#
# Elastic Constant Matrix: (Units=GPa)
#
#
# Indices 1 2 3 4 5 6 
#
# 1 86.8680 43.9239 42.9020 0.0000 0.0000 0.0000
# 2 43.9239 126.0210 58.0358 0.0000 0.0000 0.0000
# 3 42.9020 58.0358 129.1629 0.0000 0.0000 0.0000
# 4 0.0000 0.0000 0.0000 38.9176 0.0000 0.0000
# 5 0.0000 0.0000 0.0000 0.0000 35.1858 0.0000
# 6 0.0000 0.0000 0.0000 0.0000 0.0000 14.2666
#
#
#
# Elastic Compliance Matrix: (Units=1/GPa)
#
#
# Indices 1 2 3 4 5 6 
#
# 1 0.015029 -0.003706 -0.003327 0.000000 0.000000 0.000000
# 2 -0.003706 0.010920 -0.003675 0.000000 0.000000 0.000000
# 3 -0.003327 -0.003675 0.010499 0.000000 0.000000 0.000000
# 4 0.000000 0.000000 0.000000 0.025695 0.000000 0.000000
# 5 0.000000 0.000000 0.000000 0.000000 0.028421 0.000000
# 6 0.000000 0.000000 0.000000 0.000000 0.000000 0.070094
#
#
# Mechanical properties :
#
#
# Convention : Reuss Voigt Hill
#
# Bulk Modulus (GPa) = 66.53150 70.19725 68.36438
# Shear Modulus (GPa) = 26.72618 30.82004 28.77311
#
# Velocity S-wave (km/s) = 3.62305 3.89065 3.75923
# Velocity P-wave (km/s) = 7.08370 7.39325 7.24013
#
# Compressibility (1/GPa) = 0.01503047
#
# Stress axis : x y z
#
# Youngs Moduli (GPa) = 66.53977 91.57885 95.25152
#
# Poissons Ratio (x) = 0.33941 0.31686
# Poissons Ratio (y) = 0.24661 0.35009
# Poissons Ratio (z) = 0.22135 0.33659
#
# Static dielectric constant tensor:
#      x y z
#    x 1.783930 0.000000 0.000000 
#    y 0.000000 1.790570 0.000000 
#    z 0.000000 0.000000 1.781460 
# 
# From -- ./inp_files/792.got.cif
#   From: 2010.05.17/outbox.cif.g08.bks.cpg/sg16_1_cif.got.tgz:792.got - 2010.06.03 22:28:35.
