data_PCOD9310272
_publ_section_title
;
Structure prediction by ZEFSAII (Michael W. Deem and Ramdas Pophale) SiO2 
 PCOD9310272
Probable space group: P 2 2 2
;
_chemical_formula_sum "Si O2"
_cell_formula_units_Z 20
_cell_length_a 6.395784
_cell_length_b 7.961383
_cell_length_c 18.802719
_cell_angle_alpha 90.000000
_cell_angle_beta 90.000000
_cell_angle_gamma 90.000000
_cell_volume 957.421027
_symmetry_space_group_name_H-M "P 2 2 2"
_symmetry_group_IT_number 16
_symmetry_cell_setting 'orthorhombic'
loop_
_space_group_symop_operation_xyz
x,y,z
-x,-y,z
x,-y,-z
-x,y,-z
loop_
_atom_site_type_symbol
_atom_site_label
_atom_site_fract_x
_atom_site_fract_y
_atom_site_fract_z
Si Si1 0.306451 0.723966 0.379675
Si Si2 0.500000 0.500000 0.500000
Si Si3 0.707421 0.215591 0.724853
Si Si4 0.000000 0.500000 0.000000
Si Si5 0.500000 0.000000 0.841708
Si Si6 0.000000 0.000000 0.624280
Si Si7 0.381384 0.333611 0.925495
Si Si8 0.000000 0.500000 0.714926
O O1 0.373591 0.618155 0.447245
O O2 0.500020 0.755754 0.324452
O O3 0.147270 0.612465 0.334426
O O4 0.180875 0.885634 0.409356
O O5 0.660719 0.092297 0.789427
O O6 0.831245 0.379872 0.752928
O O7 0.866311 0.123348 0.673030
O O8 0.149767 0.610442 0.050897
O O9 0.399593 0.158115 0.883705
O O10 0.500000 0.500000 0.893153
O O11 0.500000 0.304754 0.000000
#
# Coordination Sequence:
#
# PCOD9310272 Si02
#       8
#     4   1   4   1   2   2   4   2
#     4  11  22  44  68  95 131 170 232 293 346 423
#     4  12  24  42  74  96 130 186 234 286 368 426
#     4  11  22  44  64  99 139 175 228 291 345 419
#     4   8  18  48  76  90 150 182 238 306 342 390
#     4  12  23  42  74 101 146 190 234 282 366 427
#     4  10  22  44  67  90 135 176 214 284 354 408
#     4   9  21  45  67 103 142 185 235 298 345 408
#     4  10  22  41  71  90 133 181 216 296 352 410
#
# _framework density 20.88945
#
# number of rings (size 3 to 8) (size 9 to 14) (size 15 to 20)
#    0.000    1.800    4.000    0.300    0.000    2.000 
#    7.200    9.000    0.000    0.000    0.000    0.000 
#    0.000    0.000    0.000    0.000    0.000    0.000 
#
# Total GULP energy -111440.359558 kJ/mol
# GULP energy per Si atom -5572.017978 kJ/mol
# Density = 2.084191 g / cm^3
# Si number density = 20.889450 Si / 1000 Ang^3
#
#
#
# Elastic Constant Matrix: (Units=GPa)
#
#
# Indices 1 2 3 4 5 6 
#
# 1 148.5083 83.5172 44.8773 0.0000 0.0000 0.0000
# 2 83.5172 183.8278 66.6367 0.0000 0.0000 0.0000
# 3 44.8773 66.6367 70.0648 0.0000 0.0000 0.0000
# 4 0.0000 0.0000 0.0000 71.4876 0.0000 0.0000
# 5 0.0000 0.0000 0.0000 0.0000 7.5772 0.0000
# 6 0.0000 0.0000 0.0000 0.0000 0.0000 82.6523
#
#
#
# Elastic Compliance Matrix: (Units=1/GPa)
#
#
# Indices 1 2 3 4 5 6 
#
# 1 0.009441 -0.003201 -0.003003 0.000000 0.000000 0.000000
# 2 -0.003201 0.009387 -0.006878 0.000000 0.000000 0.000000
# 3 -0.003003 -0.006878 0.022737 0.000000 0.000000 0.000000
# 4 0.000000 0.000000 0.000000 0.013988 0.000000 0.000000
# 5 0.000000 0.000000 0.000000 0.000000 0.131976 0.000000
# 6 0.000000 0.000000 0.000000 0.000000 0.000000 0.012099
#
#
# Mechanical properties :
#
#
# Convention : Reuss Voigt Hill
#
# Bulk Modulus (GPa) = 64.92460 88.05146 76.48803
# Shear Modulus (GPa) = 21.65197 46.16806 33.91001
#
# Velocity S-wave (km/s) = 3.22297 4.70628 4.03340
# Velocity P-wave (km/s) = 6.70802 8.47200 7.64109
#
# Compressibility (1/GPa) = 0.01540248
#
# Stress axis : x y z
#
# Youngs Moduli (GPa) = 105.91972 106.52777 43.98064
#
# Poissons Ratio (x) = 0.34097 0.13207
# Poissons Ratio (y) = 0.33902 0.30249
# Poissons Ratio (z) = 0.31808 0.73268
#
# Static dielectric constant tensor:
#      x y z
#    x 1.773500 0.000000 0.000000 
#    y 0.000000 1.810880 0.000000 
#    z 0.000000 0.000000 1.434710 
# 
# From -- ./inp_files/8597.got.cif
#   From: 2010.05.17/outbox.cif.g08.bks.cpg/sg16_5_cif.got.tgz:8597.got - 2010.06.03 22:28:35.
