data_PCOD9310492
_publ_section_title
;
Structure prediction by ZEFSAII (Michael W. Deem and Ramdas Pophale) SiO2 
 PCOD9310492
Probable space group: P 2 2 21
;
_chemical_formula_sum "Si O2"
_cell_formula_units_Z 22
_cell_length_a 19.711092
_cell_length_b 11.969175
_cell_length_c 5.550794
_cell_angle_alpha 90.000000
_cell_angle_beta 90.000000
_cell_angle_gamma 90.000000
_cell_volume 1309.573903
_symmetry_space_group_name_H-M "P 2 2 21"
_symmetry_group_IT_number 17
_symmetry_cell_setting 'orthorhombic'
loop_
_space_group_symop_operation_xyz
x,y,z
-x,-y,1/2+z
x,-y,-z
-x,y,1/2-z
loop_
_atom_site_type_symbol
_atom_site_label
_atom_site_fract_x
_atom_site_fract_y
_atom_site_fract_z
Si Si1 0.709003 0.816784 0.776229
Si Si2 0.630327 0.627693 0.527508
Si Si3 0.621306 0.000000 0.500000
Si Si4 0.149666 0.927681 0.749199
Si Si5 0.500000 0.715495 0.750000
Si Si6 0.000000 0.929222 0.750000
Si Si7 0.594827 0.814401 0.147455
O O1 0.688204 0.698778 0.661336
O O2 0.669884 0.909962 0.622568
O O3 0.787866 0.843025 0.770474
O O4 0.669012 0.829472 0.026774
O O5 0.649803 0.500000 0.500000
O O6 0.561918 0.636498 0.681383
O O7 0.606196 0.700741 0.298219
O O8 0.581925 0.924321 0.307153
O O9 0.074305 0.873276 0.754606
O O10 0.153316 0.000000 0.500000
O O11 0.156685 0.000000 0.000000
O O12 0.464704 0.792639 0.545865
O O13 0.000579 0.000000 0.500000
#
# Coordination Sequence:
#
# PCOD9310492 Si02
#       7
#     4   4   2   4   2   2   4
#     4  10  20  33  55  77 108 141 176 215 266 321
#     4  10  23  38  58  76  98 129 181 232 278 329
#     4  10  18  34  56  74 106 138 170 210 254 332
#     4  10  18  30  53  81 117 157 182 218 263 322
#     4  10  22  36  58  76  98 130 172 228 284 326
#     4   8  16  28  44  78 118 150 188 216 252 310
#     4  10  21  36  57  77 102 132 177 217 273 330
#
# _framework density 16.799356
#
# number of rings (size 3 to 8) (size 9 to 14) (size 15 to 20)
#    0.000    2.182    0.909    2.182    5.091    2.182 
#    0.000    0.000  144.000    0.000    0.000    0.000 
#    5.455    0.000    0.000    0.000    0.000    0.000 
#
# Total GULP energy -122487.052129 kJ/mol
# GULP energy per Si atom -5567.593279 kJ/mol
# Density = 1.676112 g / cm^3
# Si number density = 16.799356 Si / 1000 Ang^3
#
#
#
# Elastic Constant Matrix: (Units=GPa)
#
#
# Indices 1 2 3 4 5 6 
#
# 1 143.6579 43.6652 15.8127 0.0000 0.0000 0.0000
# 2 43.6652 111.5606 35.4294 0.0000 0.0000 0.0000
# 3 15.8127 35.4294 77.8172 0.0000 0.0000 0.0000
# 4 0.0000 0.0000 0.0000 6.0038 0.0000 0.0000
# 5 0.0000 0.0000 0.0000 0.0000 13.3148 0.0000
# 6 0.0000 0.0000 0.0000 0.0000 0.0000 16.9490
#
#
#
# Elastic Compliance Matrix: (Units=1/GPa)
#
#
# Indices 1 2 3 4 5 6 
#
# 1 0.007904 -0.003020 -0.000231 0.000000 0.000000 0.000000
# 2 -0.003020 0.011633 -0.004683 0.000000 0.000000 0.000000
# 3 -0.000231 -0.004683 0.015030 0.000000 0.000000 0.000000
# 4 0.000000 0.000000 0.000000 0.166562 0.000000 0.000000
# 5 0.000000 0.000000 0.000000 0.000000 0.075105 0.000000
# 6 0.000000 0.000000 0.000000 0.000000 0.000000 0.059001
#
#
# Mechanical properties :
#
#
# Convention : Reuss Voigt Hill
#
# Bulk Modulus (GPa) = 53.47937 58.09447 55.78692
# Shear Modulus (GPa) = 13.99243 23.12872 18.56058
#
# Velocity S-wave (km/s) = 2.88916 3.71450 3.32752
# Velocity P-wave (km/s) = 6.55995 7.28376 6.93131
#
# Compressibility (1/GPa) = 0.01869880
#
# Stress axis : x y z
#
# Youngs Moduli (GPa) = 126.51032 85.96172 66.53560
#
# Poissons Ratio (x) = 0.25965 0.01537
# Poissons Ratio (y) = 0.38212 0.31156
# Poissons Ratio (z) = 0.02923 0.40253
#
# Static dielectric constant tensor:
#      x y z
#    x 1.575020 0.000000 0.000000 
#    y 0.000000 1.550200 0.000000 
#    z 0.000000 0.000000 1.689930 
# 
# From -- ./inp_files/2865.got.cif
#   From: 2010.05.17/outbox.cif.g08.bks.cpg/sg17_2_cif.got.tgz:2865.got - 2010.06.03 22:34:06.
