data_PCOD9310582
_publ_section_title
;
Structure prediction by ZEFSAII (Michael W. Deem and Ramdas Pophale) SiO2 
 PCOD9310582
Probable space group: P 2 2 21
;
_chemical_formula_sum "Si O2"
_cell_formula_units_Z 32
_cell_length_a 36.782322
_cell_length_b 7.290454
_cell_length_c 5.370361
_cell_angle_alpha 90.000000
_cell_angle_beta 90.000000
_cell_angle_gamma 90.000000
_cell_volume 1440.115074
_symmetry_space_group_name_H-M "P 2 2 21"
_symmetry_group_IT_number 17
_symmetry_cell_setting 'orthorhombic'
loop_
_space_group_symop_operation_xyz
x,y,z
-x,-y,1/2+z
x,-y,-z
-x,y,1/2-z
loop_
_atom_site_type_symbol
_atom_site_label
_atom_site_fract_x
_atom_site_fract_y
_atom_site_fract_z
Si Si1 0.604780 0.775678 0.500000
Si Si2 0.520676 0.223495 0.500000
Si Si3 0.979259 0.276371 1.000000
Si Si4 0.730257 0.281681 1.000000
Si Si5 0.895313 0.723665 1.000000
Si Si6 0.355686 0.218313 0.500000
Si Si7 0.146106 0.276535 1.000000
Si Si8 0.769797 0.275671 0.500000
O O1 0.562702 0.720476 0.500000
O O2 0.625419 0.713225 0.748355
O O3 0.605335 0.000000 0.500000
O O4 0.625419 0.713225 0.251645
O O5 0.500000 0.281899 0.250000
O O6 0.520364 0.000000 0.500000
O O7 0.500000 0.281899 0.750000
O O8 0.000000 0.218494 0.250000
O O9 0.979399 0.500000 0.000000
O O10 0.937288 0.219034 0.000000
O O11 0.000000 0.218494 0.750000
O O12 0.687286 0.249976 1.000000
O O13 0.749156 0.213239 0.251645
O O14 0.735846 0.500000 0.000000
O O15 0.749156 0.213239 0.748355
O O16 0.874579 0.781694 0.249949
O O17 0.895159 0.500000 0.000000
O O18 0.874579 0.781694 0.750051
O O19 0.361284 0.000000 0.500000
O O20 0.188128 0.220402 1.000000
O O21 0.145817 0.500000 0.000000
O O22 0.769250 0.500000 0.500000
#
# Coordination Sequence:
#
# PCOD9310582 Si02
#       8
#     4   4   4   4   4   4   4   4
#     4   9  17  28  42  62  89 118 144 172 209 250
#     4   9  15  23  37  58  85 114 140 168 205 246
#     4   9  15  21  27  36  53  78 109 146 189 232
#     4  10  19  31  46  64  85 109 140 175 213 254
#     4   9  15  21  30  43  59  82 113 150 193 242
#     4  10  19  31  46  64  89 118 144 172 209 250
#     4   9  15  23  34  48  65  85 113 150 198 247
#     4   9  17  28  42  59  79 102 128 167 216 257
#
# _framework density 22.220445000000002
#
# number of rings (size 3 to 8) (size 9 to 14) (size 15 to 20)
#    0.000    2.750    0.000    3.000    0.000    9.000 
#    0.000    0.000    0.000    0.000    0.000    0.000 
#    0.000   10.000    0.000    0.000    0.000    0.000 
#
# Total GULP energy -178941.833131 kJ/mol
# GULP energy per Si atom -5591.932285 kJ/mol
# Density = 2.216987 g / cm^3
# Si number density = 22.220445 Si / 1000 Ang^3
#
#
#
# Elastic Constant Matrix: (Units=GPa)
#
#
# Indices 1 2 3 4 5 6 
#
# 1 274.1884 0.7687 189.1237 0.0000 0.0000 0.0000
# 2 0.7687 94.7760 11.3698 0.0000 0.0000 0.0000
# 3 189.1237 11.3698 301.7487 0.0000 0.0000 0.0000
# 4 0.0000 0.0000 0.0000 -21.9882 0.0000 0.0000
# 5 0.0000 0.0000 0.0000 0.0000 52.4260 0.0000
# 6 0.0000 0.0000 0.0000 0.0000 0.0000 6.8121
#
#
#
# Elastic Compliance Matrix: (Units=1/GPa)
#
#
# Indices 1 2 3 4 5 6 
#
# 1 0.006442 0.000434 -0.004054 0.000000 0.000000 0.000000
# 2 0.000434 0.010628 -0.000673 0.000000 0.000000 0.000000
# 3 -0.004054 -0.000673 0.005880 0.000000 0.000000 0.000000
# 4 0.000000 0.000000 0.000000 -0.045479 0.000000 0.000000
# 5 0.000000 0.000000 0.000000 0.000000 0.019074 0.000000
# 6 0.000000 0.000000 0.000000 0.000000 0.000000 0.146798
#
#
# Mechanical properties :
#
#
# Convention : Reuss Voigt Hill
#
# Bulk Modulus (GPa) = 69.60971 119.24863 94.42917
# Shear Modulus (GPa) = 31.90449 38.74671 35.32560
#
# Velocity S-wave (km/s) = 3.79333 4.18034 3.99153
# Velocity P-wave (km/s) = 7.11201 8.77969 7.98948
#
# Compressibility (1/GPa) = 0.01436581
#
# Stress axis : x y z
#
# Youngs Moduli (GPa) = 155.22507 94.08795 170.05935
#
# Poissons Ratio (x) = -0.04084 0.68944
# Poissons Ratio (y) = -0.06738 0.11437
# Poissons Ratio (z) = 0.62930 0.06328
#
# Static dielectric constant tensor:
#      x y z
#    x 1.737250 0.000000 0.000000 
#    y 0.000000 1.982320 0.000000 
#    z 0.000000 0.000000 1.758460 
# 
# From -- ./inp_files/3212.got.cif
#   From: 2010.05.17/outbox.cif.g08.bks.cpg/sg17_2_cif.got.tgz:3212.got - 2010.06.03 22:34:06.
