data_PCOD9310055
_publ_section_title
;
Structure prediction by ZEFSAII (Michael W. Deem and Ramdas Pophale) SiO2 
 PCOD9310055
Probable space group: P 2 2 2
;
_chemical_formula_sum "Si O2"
_cell_formula_units_Z 32
_cell_length_a 9.016727
_cell_length_b 13.705312
_cell_length_c 14.203237
_cell_angle_alpha 90.000000
_cell_angle_beta 90.000000
_cell_angle_gamma 90.000000
_cell_volume 1755.194225
_symmetry_space_group_name_H-M "P 2 2 2"
_symmetry_group_IT_number 16
_symmetry_cell_setting 'orthorhombic'
loop_
_space_group_symop_operation_xyz
x,y,z
-x,-y,z
x,-y,-z
-x,y,-z
loop_
_atom_site_type_symbol
_atom_site_label
_atom_site_fract_x
_atom_site_fract_y
_atom_site_fract_z
Si Si1 0.853812 0.447265 0.164096
Si Si2 0.562756 0.651003 0.786785
Si Si3 0.641016 0.794831 0.938470
Si Si4 0.573547 0.607445 0.405634
Si Si5 0.931132 0.609319 0.402781
Si Si6 0.064379 0.108277 0.902835
Si Si7 0.960761 0.719881 0.207210
Si Si8 0.709963 0.631294 0.090205
O O1 0.708930 0.416881 0.223354
O O2 0.796373 0.528614 0.091855
O O3 0.000000 0.500000 0.206572
O O4 0.927444 0.343895 0.141188
O O5 0.603654 0.752795 0.835544
O O6 0.480150 0.660290 0.688549
O O7 0.449479 0.608863 0.864721
O O8 0.761732 0.877961 0.921551
O O9 0.500000 0.828101 0.000000
O O10 0.694653 0.698060 0.998145
O O11 0.500000 0.500000 0.397897
O O12 0.500000 0.650744 0.500000
O O13 0.751901 0.601788 0.409729
O O14 0.970390 0.677615 0.312880
O O15 0.000000 0.500000 0.395878
O O16 0.000000 0.649780 0.500000
O O17 0.009546 0.170945 0.814038
O O18 0.000000 0.000000 0.895670
O O19 0.000000 0.152677 0.000000
O O20 0.799074 0.697002 0.165993
#
# Coordination Sequence:
#
# PCOD9310055 Si02
#       8
#     4   4   4   4   4   4   4   4
#     4  10  21  31  52  80 112 162 200 239 284 346
#     4  11  21  35  52  77 121 159 202 243 289 349
#     4  10  22  38  60  85 118 156 196 250 303 368
#     4  11  23  34  51  78 114 161 205 243 287 345
#     4  11  23  37  59  88 123 162 204 245 294 355
#     4  11  23  42  65  86 113 152 202 261 312 361
#     4  11  21  37  60  85 118 157 206 252 298 358
#     4  10  19  35  53  81 119 160 195 236 290 355
#
# _framework density 18.231601000000001
#
# number of rings (size 3 to 8) (size 9 to 14) (size 15 to 20)
#    0.000    1.375    3.750    3.750    5.250    0.500 
#    0.000    5.000    0.000    0.375    0.000    0.000 
#    0.000    0.000    0.000    0.000    0.000    0.000 
#
# Total GULP energy -178255.036609 kJ/mol
# GULP energy per Si atom -5570.469894 kJ/mol
# Density = 1.819011 g / cm^3
# Si number density = 18.231601 Si / 1000 Ang^3
#
#
#
# Elastic Constant Matrix: (Units=GPa)
#
#
# Indices 1 2 3 4 5 6 
#
# 1 157.4643 43.3239 52.0160 0.0000 0.0000 0.0000
# 2 43.3239 80.0930 37.1464 0.0000 0.0000 0.0000
# 3 52.0160 37.1464 125.2622 0.0000 0.0000 0.0000
# 4 0.0000 0.0000 0.0000 21.5282 0.0000 0.0000
# 5 0.0000 0.0000 0.0000 0.0000 26.1246 0.0000
# 6 0.0000 0.0000 0.0000 0.0000 0.0000 22.6099
#
#
#
# Elastic Compliance Matrix: (Units=1/GPa)
#
#
# Indices 1 2 3 4 5 6 
#
# 1 0.008026 -0.003241 -0.002372 0.000000 0.000000 0.000000
# 2 -0.003241 0.015786 -0.003335 0.000000 0.000000 0.000000
# 3 -0.002372 -0.003335 0.009957 0.000000 0.000000 0.000000
# 4 0.000000 0.000000 0.000000 0.046451 0.000000 0.000000
# 5 0.000000 0.000000 0.000000 0.000000 0.038278 0.000000
# 6 0.000000 0.000000 0.000000 0.000000 0.000000 0.044228
#
#
# Mechanical properties :
#
#
# Convention : Reuss Voigt Hill
#
# Bulk Modulus (GPa) = 63.00298 69.75469 66.37884
# Shear Modulus (GPa) = 26.89430 29.40809 28.15119
#
# Velocity S-wave (km/s) = 3.84493 4.02061 3.93375
# Velocity P-wave (km/s) = 7.37180 7.73932 7.55779
#
# Compressibility (1/GPa) = 0.01587226
#
# Stress axis : x y z
#
# Youngs Moduli (GPa) = 124.59667 63.34850 100.43074
#
# Poissons Ratio (x) = 0.20534 0.23818
# Poissons Ratio (y) = 0.40388 0.33496
# Poissons Ratio (z) = 0.29549 0.21128
#
# Static dielectric constant tensor:
#      x y z
#    x 1.520630 0.000000 0.000000 
#    y 0.000000 1.641050 0.000000 
#    z 0.000000 0.000000 1.690890 
# 
# From -- ./inp_files/8035.got.cif
#   From: 2010.05.17/outbox.cif.g08.bks.cpg/sg16_5_cif.got.tgz:8035.got - 2010.06.03 22:28:35.
