data_PCOD9310089
_publ_section_title
;
Structure prediction by ZEFSAII (Michael W. Deem and Ramdas Pophale) SiO2 
 PCOD9310089
Probable space group: P 2 2 2
;
_chemical_formula_sum "Si O2"
_cell_formula_units_Z 30
_cell_length_a 5.215789
_cell_length_b 12.371623
_cell_length_c 25.012931
_cell_angle_alpha 90.000000
_cell_angle_beta 90.000000
_cell_angle_gamma 90.000000
_cell_volume 1614.028788
_symmetry_space_group_name_H-M "P 2 2 2"
_symmetry_group_IT_number 16
_symmetry_cell_setting 'orthorhombic'
loop_
_space_group_symop_operation_xyz
x,y,z
-x,-y,z
x,-y,-z
-x,y,-z
loop_
_atom_site_type_symbol
_atom_site_label
_atom_site_fract_x
_atom_site_fract_y
_atom_site_fract_z
Si Si1 0.000000 0.000000 0.225119
Si Si2 0.971277 0.756182 0.740976
Si Si3 0.505081 0.369680 0.439302
Si Si4 0.738426 0.566744 0.095778
Si Si5 0.361702 0.095095 0.134637
Si Si6 0.514970 0.705473 0.192672
Si Si7 0.237546 0.215697 0.034304
Si Si8 0.995772 0.631090 0.370391
O O1 0.779209 0.960232 0.184463
O O2 0.068861 0.888086 0.256744
O O3 0.741113 0.694284 0.772436
O O4 0.986182 0.702490 0.682794
O O5 0.241845 0.732962 0.770042
O O6 0.500000 0.500000 0.443292
O O7 0.500000 0.327068 0.500000
O O8 0.763574 0.342859 0.408114
O O9 0.260222 0.341698 0.403442
O O10 0.500000 0.500000 0.073647
O O11 0.619747 0.616926 0.151018
O O12 0.788888 0.660777 0.053422
O O13 0.000000 0.500000 0.105504
O O14 0.543686 0.188421 0.157170
O O15 0.199896 0.154366 0.090531
O O16 0.500000 0.000000 0.104293
O O17 0.500000 0.201422 0.000000
O O18 0.000000 0.181318 0.000000
O O19 0.000000 0.500000 0.359090
#
# Coordination Sequence:
#
# PCOD9310089 Si02
#       8
#     2   4   4   4   4   4   4   4
#     4  10  22  38  63  82 111 154 198 226 286 348
#     4  11  21  36  57  84 118 151 188 241 290 339
#     4   9  17  32  53  77 111 155 197 234 278 337
#     4  11  23  40  63  83 109 151 193 224 269 352
#     4  10  21  40  62  80 110 140 183 227 283 345
#     4  10  22  37  57  83 111 144 188 231 276 337
#     4  11  26  42  59  87 116 139 178 236 292 343
#     4  10  20  32  50  83 119 148 186 237 291 332
#
# _framework density 18.587028
#
# number of rings (size 3 to 8) (size 9 to 14) (size 15 to 20)
#    0.000    1.733    1.333    2.800    1.867    7.200 
#    0.000    0.000    0.000    0.000    0.000    2.800 
#    0.000    0.000    0.000    0.000    0.000    0.000 
#
# Total GULP energy -167187.504042 kJ/mol
# GULP energy per Si atom -5572.916801 kJ/mol
# Density = 1.854472 g / cm^3
# Si number density = 18.587028 Si / 1000 Ang^3
#
#
#
# Elastic Constant Matrix: (Units=GPa)
#
#
# Indices 1 2 3 4 5 6 
#
# 1 108.4949 10.4337 27.9086 0.0000 0.0000 0.0000
# 2 10.4337 53.5359 19.5994 0.0000 0.0000 0.0000
# 3 27.9086 19.5994 100.6634 0.0000 0.0000 0.0000
# 4 0.0000 0.0000 0.0000 10.6933 0.0000 0.0000
# 5 0.0000 0.0000 0.0000 0.0000 13.6969 0.0000
# 6 0.0000 0.0000 0.0000 0.0000 0.0000 -3.6053
#
#
#
# Elastic Compliance Matrix: (Units=1/GPa)
#
#
# Indices 1 2 3 4 5 6 
#
# 1 0.009975 -0.001003 -0.002570 0.000000 0.000000 0.000000
# 2 -0.001003 0.020214 -0.003658 0.000000 0.000000 0.000000
# 3 -0.002570 -0.003658 0.011359 0.000000 0.000000 0.000000
# 4 0.000000 0.000000 0.000000 0.093517 0.000000 0.000000
# 5 0.000000 0.000000 0.000000 0.000000 0.073009 0.000000
# 6 0.000000 0.000000 0.000000 0.000000 0.000000 -0.277369
#
#
# Mechanical properties :
#
#
# Convention : Reuss Voigt Hill
#
# Bulk Modulus (GPa) = 36.92007 42.06417 39.49212
# Shear Modulus (GPa) = -109.15573 17.80713 -45.67430
#
# Velocity S-wave (km/s) = -7.67166 3.09858 -4.96252
# Velocity P-wave (km/s) = 7.65284 5.95665 3.39737
#
# Compressibility (1/GPa) = 0.02708554
#
# Stress axis : x y z
#
# Youngs Moduli (GPa) = 100.25454 49.47171 88.03750
#
# Poissons Ratio (x) = 0.04962 0.22627
# Poissons Ratio (y) = 0.10056 0.32200
# Poissons Ratio (z) = 0.25767 0.18094
#
# Static dielectric constant tensor:
#      x y z
#    x 1.665580 0.000000 0.000000 
#    y 0.000000 1.600100 0.000000 
#    z 0.000000 0.000000 1.874990 
# 
# From -- ./inp_files/9246.got.cif
#   From: 2010.05.17/outbox.cif.g08.bks.cpg/sg16_5_cif.got.tgz:9246.got - 2010.06.03 22:28:35.
