data_PCOD9310938
_publ_section_title
;
Structure prediction by ZEFSAII (Michael W. Deem and Ramdas Pophale) SiO2 
 PCOD9310938
Probable space group: P 2 2 21
;
_chemical_formula_sum "Si O2"
_cell_formula_units_Z 16
_cell_length_a 7.554274
_cell_length_b 8.841572
_cell_length_c 11.578855
_cell_angle_alpha 90.000000
_cell_angle_beta 90.000000
_cell_angle_gamma 90.000000
_cell_volume 773.370917
_symmetry_space_group_name_H-M "P 2 2 21"
_symmetry_group_IT_number 17
_symmetry_cell_setting 'orthorhombic'
loop_
_space_group_symop_operation_xyz
x,y,z
-x,-y,1/2+z
x,-y,-z
-x,y,1/2-z
loop_
_atom_site_type_symbol
_atom_site_label
_atom_site_fract_x
_atom_site_fract_y
_atom_site_fract_z
Si Si1 0.000000 0.529828 0.750000
Si Si2 0.859964 0.089154 0.658764
Si Si3 0.500000 0.162304 0.750000
Si Si4 0.036796 0.230540 0.057960
Si Si5 0.719761 0.366122 0.917402
O O1 0.921245 0.639541 0.649761
O O2 0.846980 0.439593 0.818344
O O3 0.667746 0.065000 0.710951
O O4 0.841508 0.208417 0.554604
O O5 0.000000 0.151007 0.750000
O O6 0.946314 0.932396 0.617380
O O7 0.574029 0.267537 0.852793
O O8 0.845906 0.265948 0.001248
O O9 0.650539 0.500000 0.000000
#
# Coordination Sequence:
#
# PCOD9310938 Si02
#       5
#     2   4   2   4   4
#     4  10  20  40  72  92 126 184 220 262 326 398
#     4  11  22  42  68  93 134 168 213 279 325 393
#     4  12  24  42  66 100 134 170 222 274 338 382
#     4  10  21  42  66  96 126 175 220 263 331 383
#     4  10  22  39  66  96 134 174 220 271 323 397
#
# _framework density 20.688649999999999
#
# number of rings (size 3 to 8) (size 9 to 14) (size 15 to 20)
#    0.000    1.500    3.750    1.500    0.000    2.000 
#    9.000    1.250    0.000    0.000    0.000    0.000 
#    0.000    0.000    0.000    0.000    0.000    0.000 
#
# Total GULP energy -89259.007137 kJ/mol
# GULP energy per Si atom -5578.687946 kJ/mol
# Density = 2.064156 g / cm^3
# Si number density = 20.688650 Si / 1000 Ang^3
#
#
#
# Elastic Constant Matrix: (Units=GPa)
#
#
# Indices 1 2 3 4 5 6 
#
# 1 76.5199 33.4430 41.0446 0.0000 0.0000 0.0000
# 2 33.4430 86.0029 41.1488 0.0000 0.0000 0.0000
# 3 41.0446 41.1488 123.1990 0.0000 0.0000 0.0000
# 4 0.0000 0.0000 0.0000 34.8543 0.0000 0.0000
# 5 0.0000 0.0000 0.0000 0.0000 28.5566 0.0000
# 6 0.0000 0.0000 0.0000 0.0000 0.0000 -25.8057
#
#
#
# Elastic Compliance Matrix: (Units=1/GPa)
#
#
# Indices 1 2 3 4 5 6 
#
# 1 0.017405 -0.004753 -0.004211 0.000000 0.000000 0.000000
# 2 -0.004753 0.015137 -0.003472 0.000000 0.000000 0.000000
# 3 -0.004211 -0.003472 0.010680 0.000000 0.000000 0.000000
# 4 0.000000 0.000000 0.000000 0.028691 0.000000 0.000000
# 5 0.000000 0.000000 0.000000 0.000000 0.035018 0.000000
# 6 0.000000 0.000000 0.000000 0.000000 0.000000 -0.038751
#
#
# Mechanical properties :
#
#
# Convention : Reuss Voigt Hill
#
# Bulk Modulus (GPa) = 54.50007 57.44385 55.97196
# Shear Modulus (GPa) = 50.41949 18.86009 34.63979
#
# Velocity S-wave (km/s) = 4.94201 3.02257 4.09631
# Velocity P-wave (km/s) = 7.67886 6.32514 7.03464
#
# Compressibility (1/GPa) = 0.01834860
#
# Stress axis : x y z
#
# Youngs Moduli (GPa) = 57.45630 66.06243 93.63658
#
# Poissons Ratio (x) = 0.31401 0.39429
# Poissons Ratio (y) = 0.27310 0.32514
# Poissons Ratio (z) = 0.24194 0.22939
#
# Static dielectric constant tensor:
#      x y z
#    x 1.687100 0.000000 0.000000 
#    y 0.000000 1.772790 0.000000 
#    z 0.000000 0.000000 1.900440 
# 
# From -- ./inp_files/6330.got.cif
#   From: 2010.05.17/outbox.cif.g08.bks.cpg/sg17_4_cif.got.tgz:6330.got - 2010.06.03 22:34:06.
