data_PCOD9310950
_publ_section_title
;
Structure prediction by ZEFSAII (Michael W. Deem and Ramdas Pophale) SiO2 
 PCOD9310950
Probable space group: P 2 2 21
;
_chemical_formula_sum "Si O2"
_cell_formula_units_Z 26
_cell_length_a 6.683077
_cell_length_b 14.146211
_cell_length_c 12.377633
_cell_angle_alpha 90.000000
_cell_angle_beta 90.000000
_cell_angle_gamma 90.000000
_cell_volume 1170.184114
_symmetry_space_group_name_H-M "P 2 2 21"
_symmetry_group_IT_number 17
_symmetry_cell_setting 'orthorhombic'
loop_
_space_group_symop_operation_xyz
x,y,z
-x,-y,1/2+z
x,-y,-z
-x,y,1/2-z
loop_
_atom_site_type_symbol
_atom_site_label
_atom_site_fract_x
_atom_site_fract_y
_atom_site_fract_z
Si Si1 0.690354 0.631446 0.990937
Si Si2 0.656025 0.353401 0.335336
Si Si3 0.132646 0.158044 0.848283
Si Si4 0.149399 0.978202 0.619145
Si Si5 0.500000 0.066128 0.750000
Si Si6 0.196620 0.482006 0.687278
Si Si7 0.994998 0.775234 0.574573
O O1 0.466088 0.630123 0.945392
O O2 0.814144 0.560092 0.910193
O O3 0.796421 0.728912 0.962487
O O4 0.705548 0.601404 0.116038
O O5 0.500000 0.307227 0.250000
O O6 0.852540 0.290877 0.352948
O O7 0.702873 0.454929 0.281470
O O8 0.360759 0.135253 0.820571
O O9 0.000000 0.201598 0.750000
O O10 0.118122 0.211444 0.960750
O O11 0.020607 0.057497 0.865505
O O12 0.049129 0.876041 0.625194
O O13 0.228746 0.000000 0.500000
O O14 0.336850 0.999600 0.694008
O O15 0.000000 0.448182 0.750000
#
# Coordination Sequence:
#
# PCOD9310950 Si02
#       7
#     4   4   4   4   2   4   4
#     4  10  23  42  67  98 128 175 220 271 335 400
#     4  10  23  44  65  98 132 173 216 280 333 398
#     4   9  21  41  64  93 138 179 222 269 323 394
#     4   9  21  40  65  97 136 176 219 269 323 394
#     4  10  20  42  66 100 126 194 218 260 330 386
#     4  10  20  46  68  91 133 172 215 272 342 399
#     4  11  22  43  68  99 138 171 222 279 333 381
#
# _framework density 22.218726
#
# number of rings (size 3 to 8) (size 9 to 14) (size 15 to 20)
#    0.000    2.154    1.538    0.000    0.000    7.385 
#   36.000    0.000    0.000    0.000    0.000    0.000 
#    0.000    0.000    0.000    0.000    0.000    0.000 
#
# Total GULP energy -144962.701873 kJ/mol
# GULP energy per Si atom -5575.488534 kJ/mol
# Density = 2.216816 g / cm^3
# Si number density = 22.218726 Si / 1000 Ang^3
#
#
#
# Elastic Constant Matrix: (Units=GPa)
#
#
# Indices 1 2 3 4 5 6 
#
# 1 104.4221 22.1263 53.4981 0.0000 0.0000 0.0000
# 2 22.1263 39.3050 20.1371 0.0000 0.0000 0.0000
# 3 53.4981 20.1371 95.1549 0.0000 0.0000 0.0000
# 4 0.0000 0.0000 0.0000 16.5008 0.0000 0.0000
# 5 0.0000 0.0000 0.0000 0.0000 26.3028 0.0000
# 6 0.0000 0.0000 0.0000 0.0000 0.0000 2.4882
#
#
#
# Elastic Compliance Matrix: (Units=1/GPa)
#
#
# Indices 1 2 3 4 5 6 
#
# 1 0.014082 -0.004342 -0.006998 0.000000 0.000000 0.000000
# 2 -0.004342 0.029875 -0.003881 0.000000 0.000000 0.000000
# 3 -0.006998 -0.003881 0.015265 0.000000 0.000000 0.000000
# 4 0.000000 0.000000 0.000000 0.060603 0.000000 0.000000
# 5 0.000000 0.000000 0.000000 0.000000 0.038019 0.000000
# 6 0.000000 0.000000 0.000000 0.000000 0.000000 0.401900
#
#
# Mechanical properties :
#
#
# Convention : Reuss Voigt Hill
#
# Bulk Modulus (GPa) = 34.74739 47.82278 41.28509
# Shear Modulus (GPa) = 8.33641 18.59973 13.46807
#
# Velocity S-wave (km/s) = 1.93910 2.89644 2.46470
# Velocity P-wave (km/s) = 4.54821 5.72330 5.16926
#
# Compressibility (1/GPa) = 0.02877914
#
# Stress axis : x y z
#
# Youngs Moduli (GPa) = 71.01299 33.47321 65.50886
#
# Poissons Ratio (x) = 0.14534 0.45845
# Poissons Ratio (y) = 0.30833 0.25425
# Poissons Ratio (z) = 0.49697 0.12991
#
# Static dielectric constant tensor:
#      x y z
#    x 1.855250 0.000000 0.000000 
#    y 0.000000 1.847920 0.000000 
#    z 0.000000 0.000000 1.856630 
# 
# From -- ./inp_files/7772.got.cif
#   From: 2010.05.17/outbox.cif.g08.bks.cpg/sg17_4_cif.got.tgz:7772.got - 2010.06.03 22:34:06.
