data_PCOD9310491
_publ_section_title
;
Structure prediction by ZEFSAII (Michael W. Deem and Ramdas Pophale) SiO2 
 PCOD9310491
Probable space group: P 2 2 21
;
_chemical_formula_sum "Si O2"
_cell_formula_units_Z 32
_cell_length_a 17.135980
_cell_length_b 5.526783
_cell_length_c 16.174920
_cell_angle_alpha 90.000000
_cell_angle_beta 90.000000
_cell_angle_gamma 90.000000
_cell_volume 1531.875608
_symmetry_space_group_name_H-M "P 2 2 21"
_symmetry_group_IT_number 17
_symmetry_cell_setting 'orthorhombic'
loop_
_space_group_symop_operation_xyz
x,y,z
-x,-y,1/2+z
x,-y,-z
-x,y,1/2-z
loop_
_atom_site_type_symbol
_atom_site_label
_atom_site_fract_x
_atom_site_fract_y
_atom_site_fract_z
Si Si1 0.444787 0.380654 0.817256
Si Si2 0.285454 0.612306 0.421849
Si Si3 0.358983 0.234439 0.290639
Si Si4 0.835433 0.245932 0.802257
Si Si5 0.561449 0.864355 0.077285
Si Si6 0.231658 0.780570 0.855529
Si Si7 0.091785 0.745762 0.738158
Si Si8 0.727728 0.731219 0.361945
O O1 0.500000 0.254381 0.750000
O O2 0.418757 0.628120 0.771863
O O3 0.502563 0.348388 0.894007
O O4 0.363004 0.254826 0.836588
O O5 0.242894 0.500000 0.500000
O O6 0.320354 0.426130 0.354392
O O7 0.227727 0.786156 0.373734
O O8 0.360113 0.747088 0.457559
O O9 0.286875 0.181230 0.227376
O O10 0.403827 0.038157 0.348467
O O11 0.877877 0.506290 0.809985
O O12 0.784885 0.272720 0.718169
O O13 0.889112 0.009543 0.799771
O O14 0.523084 0.000000 0.000000
O O15 0.143696 0.752841 0.822409
O O16 0.259849 0.535238 0.898363
O O17 0.246487 0.024434 0.905665
O O18 0.000000 0.721403 0.750000
#
# Coordination Sequence:
#
# PCOD9310491 Si02
#       8
#     4   4   4   4   4   4   4   4
#     4  11  20  35  53  78 103 148 207 253 317 365
#     4  12  22  38  55  80 116 169 207 250 306 383
#     4  11  21  38  54  75 112 161 207 259 296 398
#     4  10  19  34  51  78 116 149 204 241 284 378
#     4  12  25  38  56  83 120 158 209 272 336 381
#     4   9  17  30  49  72 105 138 184 234 279 355
#     4  10  18  30  52  79 112 147 175 233 308 339
#     4   9  17  30  48  68 100 140 186 239 287 345
#
# _framework density 20.889426
#
# number of rings (size 3 to 8) (size 9 to 14) (size 15 to 20)
#    0.000    1.500    6.250    2.625    0.000    2.500 
#    0.000    0.000    0.000    0.000    0.000    0.000 
#    0.000   20.000    0.000    7.125    0.250    0.000 
#
# Total GULP energy -178195.751287 kJ/mol
# GULP energy per Si atom -5568.617228 kJ/mol
# Density = 2.084188 g / cm^3
# Si number density = 20.889426 Si / 1000 Ang^3
#
#
#
# Elastic Constant Matrix: (Units=GPa)
#
#
# Indices 1 2 3 4 5 6 
#
# 1 126.2520 27.3992 7.9382 0.0000 0.0000 0.0000
# 2 27.3992 121.2156 13.3166 0.0000 0.0000 0.0000
# 3 7.9382 13.3166 52.4544 0.0000 0.0000 0.0000
# 4 0.0000 0.0000 0.0000 13.7769 0.0000 0.0000
# 5 0.0000 0.0000 0.0000 0.0000 3.9580 0.0000
# 6 0.0000 0.0000 0.0000 0.0000 0.0000 32.9273
#
#
#
# Elastic Compliance Matrix: (Units=1/GPa)
#
#
# Indices 1 2 3 4 5 6 
#
# 1 0.008362 -0.001801 -0.000808 0.000000 0.000000 0.000000
# 2 -0.001801 0.008875 -0.001980 0.000000 0.000000 0.000000
# 3 -0.000808 -0.001980 0.019689 0.000000 0.000000 0.000000
# 4 0.000000 0.000000 0.000000 0.072585 0.000000 0.000000
# 5 0.000000 0.000000 0.000000 0.000000 0.252656 0.000000
# 6 0.000000 0.000000 0.000000 0.000000 0.000000 0.030370
#
#
# Mechanical properties :
#
#
# Convention : Reuss Voigt Hill
#
# Bulk Modulus (GPa) = 36.04098 44.13668 40.08883
# Shear Modulus (GPa) = 12.16646 26.88363 19.52504
#
# Velocity S-wave (km/s) = 2.41596 3.59130 3.06058
# Velocity P-wave (km/s) = 5.00731 6.19445 5.63224
#
# Compressibility (1/GPa) = 0.02774620
#
# Stress axis : x y z
#
# Youngs Moduli (GPa) = 119.58248 112.68231 50.78922
#
# Poissons Ratio (x) = 0.20299 0.04105
# Poissons Ratio (y) = 0.21542 0.10058
# Poissons Ratio (z) = 0.09665 0.22315
#
# Static dielectric constant tensor:
#      x y z
#    x 1.723940 0.000000 0.000000 
#    y 0.000000 1.882150 0.000000 
#    z 0.000000 0.000000 1.756190 
# 
# From -- ./inp_files/9735.got.cif
#   From: 2010.05.17/outbox.cif.g08.bks.cpg/sg17_5_cif.got.tgz:9735.got - 2010.06.03 22:34:06.
