data_PCOD9310422
_publ_section_title
;
Structure prediction by ZEFSAII (Michael W. Deem and Ramdas Pophale) SiO2 
 PCOD9310422
Probable space group: P 2 2 2
;
_chemical_formula_sum "Si O2"
_cell_formula_units_Z 18
_cell_length_a 8.979938
_cell_length_b 16.655772
_cell_length_c 4.871368
_cell_angle_alpha 90.000000
_cell_angle_beta 90.000000
_cell_angle_gamma 90.000000
_cell_volume 728.599794
_symmetry_space_group_name_H-M "P 2 2 2"
_symmetry_group_IT_number 16
_symmetry_cell_setting 'orthorhombic'
loop_
_space_group_symop_operation_xyz
x,y,z
-x,-y,z
x,-y,-z
-x,y,-z
loop_
_atom_site_type_symbol
_atom_site_label
_atom_site_fract_x
_atom_site_fract_y
_atom_site_fract_z
Si Si1 0.000000 0.194315 0.500000
Si Si2 0.500000 0.802734 0.500000
Si Si3 0.500000 0.302734 0.000000
Si Si4 0.000000 0.000000 0.000000
Si Si5 0.759694 0.084444 0.611617
Si Si6 0.759694 0.584444 0.111616
Si Si7 0.000000 0.500000 0.500000
Si Si8 0.000000 0.694315 0.000000
O O1 0.862552 0.138273 0.412271
O O2 0.950092 0.250000 0.750000
O O3 0.433705 0.750000 0.250000
O O4 0.379947 0.858512 0.657554
O O5 0.379946 0.358512 0.157554
O O6 0.115524 0.944700 0.828891
O O7 0.701882 0.000000 0.500000
O O8 0.884476 0.555300 0.328892
O O9 0.701882 0.500000 0.000000
O O10 0.862552 0.638273 0.912271
#
# Coordination Sequence:
#
# PCOD9310422 Si02
#       8
#     2   2   2   1   4   4   1   2
#     4  12  24  42  73 111 156 206 258 330 396 476
#     4  12  31  54  79 122 170 220 270 342 425 488
#     4  12  31  54  79 122 170 220 270 342 425 488
#     4  12  24  48  90 120 160 208 294 334 406 476
#     4  12  26  49  78 119 160 217 277 332 409 493
#     4  12  26  49  78 119 160 217 277 332 409 493
#     4  12  24  48  90 120 160 208 294 334 406 476
#     4  12  24  42  73 111 156 206 258 330 396 476
#
# _framework density 24.704922
#
# number of rings (size 3 to 8) (size 9 to 14) (size 15 to 20)
#    0.000    0.000    4.444    4.667    6.222    0.000 
#    0.000    0.000    0.000    0.000    0.000    0.000 
#    0.000    0.000    0.000    0.000    0.000    0.000 
#
# Total GULP energy -100456.252043 kJ/mol
# GULP energy per Si atom -5580.902891 kJ/mol
# Density = 2.464869 g / cm^3
# Si number density = 24.704922 Si / 1000 Ang^3
#
#
#
# Elastic Constant Matrix: (Units=GPa)
#
#
# Indices 1 2 3 4 5 6 
#
# 1 125.8299 55.6539 23.0865 0.0000 0.0000 0.0000
# 2 55.6539 149.0157 43.9237 0.0000 0.0000 0.0000
# 3 23.0865 43.9237 98.4194 0.0000 0.0000 0.0000
# 4 0.0000 0.0000 0.0000 28.2940 0.0000 0.0000
# 5 0.0000 0.0000 0.0000 0.0000 14.6395 0.0000
# 6 0.0000 0.0000 0.0000 0.0000 0.0000 50.8809
#
#
#
# Elastic Compliance Matrix: (Units=1/GPa)
#
#
# Indices 1 2 3 4 5 6 
#
# 1 0.009567 -0.003353 -0.000748 0.000000 0.000000 0.000000
# 2 -0.003353 0.008902 -0.003186 0.000000 0.000000 0.000000
# 3 -0.000748 -0.003186 0.011758 0.000000 0.000000 0.000000
# 4 0.000000 0.000000 0.000000 0.035343 0.000000 0.000000
# 5 0.000000 0.000000 0.000000 0.000000 0.068308 0.000000
# 6 0.000000 0.000000 0.000000 0.000000 0.000000 0.019654
#
#
# Mechanical properties :
#
#
# Convention : Reuss Voigt Hill
#
# Bulk Modulus (GPa) = 63.88424 68.73257 66.30841
# Shear Modulus (GPa) = 28.84757 35.46961 32.15859
#
# Velocity S-wave (km/s) = 3.42085 3.79321 3.61183
# Velocity P-wave (km/s) = 6.44344 6.86050 6.65524
#
# Compressibility (1/GPa) = 0.01565331
#
# Stress axis : x y z
#
# Youngs Moduli (GPa) = 104.52205 112.33298 85.04749
#
# Poissons Ratio (x) = 0.37662 0.06361
# Poissons Ratio (y) = 0.35043 0.27100
# Poissons Ratio (z) = 0.07818 0.35795
#
# Static dielectric constant tensor:
#      x y z
#    x 1.917320 0.000000 0.000000 
#    y 0.000000 2.005030 0.000000 
#    z 0.000000 0.000000 2.014280 
# 
# From -- ./inp_files/939.got.cif
#   From: 2010.05.17/outbox.cif.g08.bks.cpg/sg16_1_cif.got.tgz:939.got - 2010.06.03 22:28:35.
