data_PCOD9310130
_publ_section_title
;
Structure prediction by ZEFSAII (Michael W. Deem and Ramdas Pophale) SiO2 
 PCOD9310130
Probable space group: P 2 2 2
;
_chemical_formula_sum "Si O2"
_cell_formula_units_Z 32
_cell_length_a 9.326332
_cell_length_b 14.150139
_cell_length_c 11.001385
_cell_angle_alpha 90.000000
_cell_angle_beta 90.000000
_cell_angle_gamma 90.000000
_cell_volume 1451.840613
_symmetry_space_group_name_H-M "P 2 2 2"
_symmetry_group_IT_number 16
_symmetry_cell_setting 'orthorhombic'
loop_
_space_group_symop_operation_xyz
x,y,z
-x,-y,z
x,-y,-z
-x,y,-z
loop_
_atom_site_type_symbol
_atom_site_label
_atom_site_fract_x
_atom_site_fract_y
_atom_site_fract_z
Si Si1 0.826229 0.386558 0.001307
Si Si2 0.799343 0.304085 0.738671
Si Si3 0.173191 0.896281 0.749015
Si Si4 0.707979 0.305500 0.256541
Si Si5 0.339157 0.888356 0.998168
Si Si6 0.949641 0.599860 0.637935
Si Si7 0.172343 0.889245 0.247639
Si Si8 0.456655 0.395134 0.360604
O O1 0.759026 0.336582 0.121126
O O2 0.793381 0.500000 0.000000
O O3 0.772396 0.333222 0.879117
O O4 0.000000 0.377890 0.000000
O O5 0.772348 0.199003 0.685342
O O6 0.966865 0.322517 0.715774
O O7 0.710057 0.377178 0.658898
O O8 0.000246 0.890996 0.754936
O O9 0.213359 0.003495 0.710899
O O10 0.242471 0.875651 0.880137
O O11 0.761755 0.204167 0.308120
O O12 0.539820 0.319834 0.275813
O O13 0.783652 0.382734 0.343469
O O14 0.241265 0.872248 0.115091
O O15 0.500000 0.844174 0.000000
O O16 0.362424 0.000000 0.000000
O O17 0.000000 0.500000 0.689642
O O18 0.000000 0.605992 0.500000
O O19 0.500000 0.500000 0.321638
O O20 0.500000 0.381995 0.500000
#
# Coordination Sequence:
#
# PCOD9310130 Si02
#       8
#     4   4   4   4   4   4   4   4
#     4  11  21  35  60  95 134 164 198 256 324 392
#     4  12  23  40  64  94 129 169 208 258 320 385
#     4  10  20  36  58  87 125 166 210 261 311 370
#     4  12  23  40  64  94 129 169 208 258 320 385
#     4   9  18  31  53  84 119 165 215 255 299 362
#     4  11  22  39  66  92 115 157 219 271 310 365
#     4  10  20  36  58  87 125 166 210 261 311 370
#     4  11  26  47  68  92 125 165 215 271 318 371
#
# _framework density 22.040987000000001
#
# number of rings (size 3 to 8) (size 9 to 14) (size 15 to 20)
#    0.000    1.250    2.500    4.125    1.750    4.000 
#    0.000    1.250    0.000    4.500    0.000    0.000 
#    0.000    0.000    0.000    0.000    0.000    0.000 
#
# Total GULP energy -178377.847381 kJ/mol
# GULP energy per Si atom -5574.307731 kJ/mol
# Density = 2.199082 g / cm^3
# Si number density = 22.040987 Si / 1000 Ang^3
#
#
#
# Elastic Constant Matrix: (Units=GPa)
#
#
# Indices 1 2 3 4 5 6 
#
# 1 45.4443 13.6393 -1.0661 0.0000 0.0000 0.0000
# 2 13.6393 168.1971 4.5353 0.0000 0.0000 0.0000
# 3 -1.0661 4.5353 40.2567 0.0000 0.0000 0.0000
# 4 0.0000 0.0000 0.0000 -3.5842 0.0000 0.0000
# 5 0.0000 0.0000 0.0000 0.0000 6.3593 0.0000
# 6 0.0000 0.0000 0.0000 0.0000 0.0000 29.0417
#
#
#
# Elastic Compliance Matrix: (Units=1/GPa)
#
#
# Indices 1 2 3 4 5 6 
#
# 1 0.022580 -0.001853 0.000807 0.000000 0.000000 0.000000
# 2 -0.001853 0.006116 -0.000738 0.000000 0.000000 0.000000
# 3 0.000807 -0.000738 0.024945 0.000000 0.000000 0.000000
# 4 0.000000 0.000000 0.000000 -0.279004 0.000000 0.000000
# 5 0.000000 0.000000 0.000000 0.000000 0.157250 0.000000
# 6 0.000000 0.000000 0.000000 0.000000 0.000000 0.034433
#
#
# Mechanical properties :
#
#
# Convention : Reuss Voigt Hill
#
# Bulk Modulus (GPa) = 19.97110 32.01277 25.99194
# Shear Modulus (GPa) = -372.52654 22.14934 -175.18860
#
# Velocity S-wave (km/s) = -13.01469 3.17348 -8.92500
# Velocity P-wave (km/s) = 14.72286 5.28996 9.71542
#
# Compressibility (1/GPa) = 0.05007235
#
# Stress axis : x y z
#
# Youngs Moduli (GPa) = 44.28707 163.51756 40.08809
#
# Poissons Ratio (x) = 0.30296 -0.03234
# Poissons Ratio (y) = 0.08205 0.02959
# Poissons Ratio (z) = -0.03573 0.12068
#
# Static dielectric constant tensor:
#      x y z
#    x 1.755580 0.000000 0.000000 
#    y 0.000000 1.933570 0.000000 
#    z 0.000000 0.000000 1.772970 
# 
# From -- ./inp_files/6655.got.cif
#   From: 2010.05.17/outbox.cif.g08.bks.cpg/sg16_4_cif.got.tgz:6655.got - 2010.06.03 22:28:35.
