data_PCOD9310927
_publ_section_title
;
Structure prediction by ZEFSAII (Michael W. Deem and Ramdas Pophale) SiO2 
 PCOD9310927
Probable space group: P 2 2 21
;
_chemical_formula_sum "Si O2"
_cell_formula_units_Z 30
_cell_length_a 6.751203
_cell_length_b 7.466133
_cell_length_c 23.712627
_cell_angle_alpha 90.000000
_cell_angle_beta 90.000000
_cell_angle_gamma 90.000000
_cell_volume 1195.243963
_symmetry_space_group_name_H-M "P 2 2 21"
_symmetry_group_IT_number 17
_symmetry_cell_setting 'orthorhombic'
loop_
_space_group_symop_operation_xyz
x,y,z
-x,-y,1/2+z
x,-y,-z
-x,y,1/2-z
loop_
_atom_site_type_symbol
_atom_site_label
_atom_site_fract_x
_atom_site_fract_y
_atom_site_fract_z
Si Si1 0.207083 0.206424 0.476574
Si Si2 0.684685 0.376579 0.662419
Si Si3 0.655081 0.297769 0.478716
Si Si4 0.417722 0.982998 0.812360
Si Si5 0.922905 0.249670 0.571034
Si Si6 0.630535 0.656455 0.808909
Si Si7 0.000000 0.513668 0.750000
Si Si8 0.080078 0.132024 0.117744
O O1 0.089040 0.304328 0.526989
O O2 0.102439 0.225032 0.415681
O O3 0.424425 0.277950 0.473954
O O4 0.202210 0.000000 0.500000
O O5 0.837695 0.400839 0.611611
O O6 0.492462 0.501800 0.660103
O O7 0.828197 0.404710 0.716681
O O8 0.607022 0.174402 0.659310
O O9 0.701121 0.500000 0.500000
O O10 0.744313 0.185510 0.530817
O O11 0.750573 0.213943 0.423076
O O12 0.500000 0.027108 0.750000
O O13 0.585143 0.849385 0.834835
O O14 0.205121 0.880381 0.822785
O O15 0.977716 0.077198 0.608148
O O16 0.500000 0.665008 0.750000
O O17 0.859256 0.621541 0.793939
#
# Coordination Sequence:
#
# PCOD9310927 Si02
#       8
#     4   4   4   4   4   4   2   4
#     4   9  18  37  59  83 118 153 198 251 305 370
#     4  10  21  40  64  93 126 171 213 268 320 382
#     4  11  22  35  57  90 121 156 201 252 311 379
#     4  10  20  40  65  89 122 167 214 254 317 380
#     4   9  20  38  62  84 117 162 199 249 314 369
#     4   9  20  38  59  85 124 165 207 268 317 372
#     4  10  20  40  64  94 130 168 222 272 320 374
#     4   9  20  39  60  84 116 158 204 250 308 366
#
# _framework density 25.099477
#
# number of rings (size 3 to 8) (size 9 to 14) (size 15 to 20)
#    0.000    2.400    0.000    3.200    1.867    3.200 
#    0.000   21.333    0.000    0.000    0.000    0.000 
#    0.000    0.000    0.000    0.000    0.000    0.000 
#
# Total GULP energy -167252.834391 kJ/mol
# GULP energy per Si atom -5575.094480 kJ/mol
# Density = 2.504235 g / cm^3
# Si number density = 25.099477 Si / 1000 Ang^3
#
#
#
# Elastic Constant Matrix: (Units=GPa)
#
#
# Indices 1 2 3 4 5 6 
#
# 1 140.1982 28.8555 0.3006 0.0000 0.0000 0.0000
# 2 28.8555 101.9532 -9.3662 0.0000 0.0000 0.0000
# 3 0.3006 -9.3662 55.3596 0.0000 0.0000 0.0000
# 4 0.0000 0.0000 0.0000 22.1888 0.0000 0.0000
# 5 0.0000 0.0000 0.0000 0.0000 22.9358 0.0000
# 6 0.0000 0.0000 0.0000 0.0000 0.0000 18.4318
#
#
#
# Elastic Compliance Matrix: (Units=1/GPa)
#
#
# Indices 1 2 3 4 5 6 
#
# 1 0.007583 -0.002184 -0.000411 0.000000 0.000000 0.000000
# 2 -0.002184 0.010592 0.001804 0.000000 0.000000 0.000000
# 3 -0.000411 0.001804 0.018371 0.000000 0.000000 0.000000
# 4 0.000000 0.000000 0.000000 0.045068 0.000000 0.000000
# 5 0.000000 0.000000 0.000000 0.000000 0.043600 0.000000
# 6 0.000000 0.000000 0.000000 0.000000 0.000000 0.054254
#
#
# Mechanical properties :
#
#
# Convention : Reuss Voigt Hill
#
# Bulk Modulus (GPa) = 28.59990 37.45454 33.02722
# Shear Modulus (GPa) = 25.94641 31.22602 28.58621
#
# Velocity S-wave (km/s) = 3.21868 3.53099 3.37845
# Velocity P-wave (km/s) = 5.02320 5.61949 5.32969
#
# Compressibility (1/GPa) = 0.03496515
#
# Stress axis : x y z
#
# Youngs Moduli (GPa) = 131.87153 94.40849 54.43323
#
# Poissons Ratio (x) = 0.20618 0.02235
# Poissons Ratio (y) = 0.28800 -0.09819
# Poissons Ratio (z) = 0.05416 -0.17031
#
# Static dielectric constant tensor:
#      x y z
#    x 1.977610 0.000000 0.000000 
#    y 0.000000 2.057230 0.000000 
#    z 0.000000 0.000000 2.109920 
# 
# From -- ./inp_files/11151.got.cif
#   From: 2010.05.17/outbox.cif.g08.bks.cpg/sg17_6_cif.got.tgz:11151.got - 2010.06.03 22:34:06.
