data_PCOD9310315
_publ_section_title
;
Structure prediction by ZEFSAII (Michael W. Deem and Ramdas Pophale) SiO2 
 PCOD9310315
Probable space group: P 2 2 2
;
_chemical_formula_sum "Si O2"
_cell_formula_units_Z 14
_cell_length_a 19.808779
_cell_length_b 5.171860
_cell_length_c 5.683411
_cell_angle_alpha 90.000000
_cell_angle_beta 90.000000
_cell_angle_gamma 90.000000
_cell_volume 582.255407
_symmetry_space_group_name_H-M "P 2 2 2"
_symmetry_group_IT_number 16
_symmetry_cell_setting 'orthorhombic'
loop_
_space_group_symop_operation_xyz
x,y,z
-x,-y,z
x,-y,-z
-x,y,-z
loop_
_atom_site_type_symbol
_atom_site_label
_atom_site_fract_x
_atom_site_fract_y
_atom_site_fract_z
Si Si1 0.601048 0.262184 0.346657
Si Si2 0.000000 0.500000 0.000000
Si Si3 0.500000 0.000000 0.000000
Si Si4 0.744074 0.851152 0.754978
Si Si5 0.894682 0.747756 0.663478
O O1 0.577063 0.500000 0.500000
O O2 0.677601 0.325903 0.265327
O O3 0.604838 0.000000 0.500000
O O4 0.549440 0.185237 0.145552
O O5 0.047737 0.690540 0.148800
O O6 0.819932 0.746662 0.776157
O O7 0.746600 0.000000 0.500000
O O8 0.731901 0.000000 0.000000
O O9 0.897002 0.500000 0.500000
O O10 0.904263 0.000000 0.500000
#
# Coordination Sequence:
#
# PCOD9310315 Si02
#       5
#     4   1   1   4   4
#     4  11  26  49  78 116 160 210 272 335 406 487
#     4  12  30  50  84 112 168 216 270 338 418 498
#     4  12  26  50  80 116 164 216 266 338 418 498
#     4  10  23  50  81 118 157 212 277 339 403 486
#     4  11  28  51  76 114 158 210 274 337 409 488
#
# _framework density 24.044432
#
# number of rings (size 3 to 8) (size 9 to 14) (size 15 to 20)
#    0.000    1.143    1.429    1.714    8.000    8.000 
#    0.000    0.000    0.000    0.000    0.000    0.000 
#    0.000    0.000    0.000    0.000    0.000    0.000 
#
# Total GULP energy -78359.902379 kJ/mol
# GULP energy per Si atom -5597.135884 kJ/mol
# Density = 2.398971 g / cm^3
# Si number density = 24.044432 Si / 1000 Ang^3
#
#
#
# Elastic Constant Matrix: (Units=GPa)
#
#
# Indices 1 2 3 4 5 6 
#
# 1 241.6772 51.9303 76.4020 0.0000 0.0000 0.0000
# 2 51.9303 148.0138 56.2734 0.0000 0.0000 0.0000
# 3 76.4020 56.2734 127.8742 0.0000 0.0000 0.0000
# 4 0.0000 0.0000 0.0000 127.5507 0.0000 0.0000
# 5 0.0000 0.0000 0.0000 0.0000 106.0911 0.0000
# 6 0.0000 0.0000 0.0000 0.0000 0.0000 -76.6401
#
#
#
# Elastic Compliance Matrix: (Units=1/GPa)
#
#
# Indices 1 2 3 4 5 6 
#
# 1 0.005173 -0.000768 -0.002753 0.000000 0.000000 0.000000
# 2 -0.000768 0.008228 -0.003162 0.000000 0.000000 0.000000
# 3 -0.002753 -0.003162 0.010856 0.000000 0.000000 0.000000
# 4 0.000000 0.000000 0.000000 0.007840 0.000000 0.000000
# 5 0.000000 0.000000 0.000000 0.000000 0.009426 0.000000
# 6 0.000000 0.000000 0.000000 0.000000 0.000000 -0.013048
#
#
# Mechanical properties :
#
#
# Convention : Reuss Voigt Hill
#
# Bulk Modulus (GPa) = 91.81426 98.53074 95.17250
# Shear Modulus (GPa) = 109.96061 53.59763 81.77912
#
# Velocity S-wave (km/s) = 6.76990 4.72646 5.83828
# Velocity P-wave (km/s) = 9.96879 8.41745 9.22579
#
# Compressibility (1/GPa) = 0.01089155
#
# Stress axis : x y z
#
# Youngs Moduli (GPa) = 193.30901 121.53975 92.11353
#
# Poissons Ratio (x) = 0.09340 0.25355
# Poissons Ratio (y) = 0.14855 0.29123
# Poissons Ratio (z) = 0.53211 0.38427
#
# Static dielectric constant tensor:
#      x y z
#    x 1.519580 0.000000 0.000000 
#    y 0.000000 1.893400 0.000000 
#    z 0.000000 0.000000 2.003440 
# 
# From -- ./inp_files/2549.got.cif
#   From: 2010.05.17/outbox.cif.g08.bks.cpg/sg16_2_cif.got.tgz:2549.got - 2010.06.03 22:28:35.
