data_PCOD9310965
_publ_section_title
;
Structure prediction by ZEFSAII (Michael W. Deem and Ramdas Pophale) SiO2 
 PCOD9310965
Probable space group: P 2 2 21
;
_chemical_formula_sum "Si O2"
_cell_formula_units_Z 20
_cell_length_a 8.669075
_cell_length_b 10.674345
_cell_length_c 8.223324
_cell_angle_alpha 90.000000
_cell_angle_beta 90.000000
_cell_angle_gamma 90.000000
_cell_volume 760.959244
_symmetry_space_group_name_H-M "P 2 2 21"
_symmetry_group_IT_number 17
_symmetry_cell_setting 'orthorhombic'
loop_
_space_group_symop_operation_xyz
x,y,z
-x,-y,1/2+z
x,-y,-z
-x,y,1/2-z
loop_
_atom_site_type_symbol
_atom_site_label
_atom_site_fract_x
_atom_site_fract_y
_atom_site_fract_z
Si Si1 0.561907 0.864137 0.068448
Si Si2 0.183381 0.543041 0.232029
Si Si3 0.327512 0.313394 0.087685
Si Si4 0.886039 0.233097 0.905390
Si Si5 0.113397 0.896866 0.871443
O O1 0.500000 0.852281 0.250000
O O2 0.745909 0.861727 0.085455
O O3 0.487864 0.745794 0.972793
O O4 0.517311 0.000000 0.000000
O O5 0.298617 0.427530 0.210283
O O6 0.195552 0.632660 0.387170
O O7 0.000000 0.503224 0.250000
O O8 0.234075 0.632077 0.074543
O O9 0.254102 0.190197 0.172632
O O10 0.000000 0.228919 0.750000
O O11 0.994462 0.204556 0.054826
O O12 0.000000 0.966341 0.750000
O O13 0.163826 0.000000 0.000000
#
# Coordination Sequence:
#
# PCOD9310965 Si02
#       5
#     4   4   4   4   4
#     4  12  26  46  76 109 159 207 257 326 406 478
#     4  10  20  43  81 105 147 199 261 316 388 471
#     4  11  23  42  76 110 149 198 252 324 397 461
#     4  11  22  47  78 109 144 204 267 320 397 470
#     4  12  25  41  71 110 152 202 262 321 390 471
#
# _framework density 26.282616999999998
#
# number of rings (size 3 to 8) (size 9 to 14) (size 15 to 20)
#    0.000    0.800    6.000    2.400    0.000    4.800 
#    0.000    1.000   48.400    0.000    0.000    0.000 
#    0.000    0.000    0.000    0.000    0.000    0.000 
#
# Total GULP energy -111678.236693 kJ/mol
# GULP energy per Si atom -5583.911835 kJ/mol
# Density = 2.622280 g / cm^3
# Si number density = 26.282617 Si / 1000 Ang^3
#
#
#
# Elastic Constant Matrix: (Units=GPa)
#
#
# Indices 1 2 3 4 5 6 
#
# 1 150.7335 38.1871 35.9157 0.0000 0.0000 0.0000
# 2 38.1871 175.0400 20.4583 0.0000 0.0000 0.0000
# 3 35.9157 20.4583 40.2821 0.0000 0.0000 0.0000
# 4 0.0000 0.0000 0.0000 26.2146 0.0000 0.0000
# 5 0.0000 0.0000 0.0000 0.0000 21.0406 0.0000
# 6 0.0000 0.0000 0.0000 0.0000 0.0000 26.1608
#
#
#
# Elastic Compliance Matrix: (Units=1/GPa)
#
#
# Indices 1 2 3 4 5 6 
#
# 1 0.008599 -0.001042 -0.007138 0.000000 0.000000 0.000000
# 2 -0.001042 0.006200 -0.002220 0.000000 0.000000 0.000000
# 3 -0.007138 -0.002220 0.032316 0.000000 0.000000 0.000000
# 4 0.000000 0.000000 0.000000 0.038147 0.000000 0.000000
# 5 0.000000 0.000000 0.000000 0.000000 0.047527 0.000000
# 6 0.000000 0.000000 0.000000 0.000000 0.000000 0.038225
#
#
# Mechanical properties :
#
#
# Convention : Reuss Voigt Hill
#
# Bulk Modulus (GPa) = 37.99925 61.68643 49.84284
# Shear Modulus (GPa) = 24.92711 32.78282 28.85496
#
# Velocity S-wave (km/s) = 3.08299 3.53557 3.31701
# Velocity P-wave (km/s) = 5.21176 6.33943 5.80305
#
# Compressibility (1/GPa) = 0.02631631
#
# Stress axis : x y z
#
# Youngs Moduli (GPa) = 116.29443 161.29824 30.94401
#
# Poissons Ratio (x) = 0.16802 0.22087
# Poissons Ratio (y) = 0.12114 0.06869
# Poissons Ratio (z) = 0.83008 0.35807
#
# Static dielectric constant tensor:
#      x y z
#    x 2.195870 0.000000 0.000000 
#    y 0.000000 2.095750 0.000000 
#    z 0.000000 0.000000 2.251650 
# 
# From -- ./inp_files/4010.got.cif
#   From: 2010.05.17/outbox.cif.g08.bks.cpg/sg17_3_cif.got.tgz:4010.got - 2010.06.03 22:34:06.
