data_PCOD9310183
_publ_section_title
;
Structure prediction by ZEFSAII (Michael W. Deem and Ramdas Pophale) SiO2 
 PCOD9310183
Probable space group: P 2 2 2
;
_chemical_formula_sum "Si O2"
_cell_formula_units_Z 19
_cell_length_a 15.617713
_cell_length_b 4.971651
_cell_length_c 12.748275
_cell_angle_alpha 90.000000
_cell_angle_beta 90.000000
_cell_angle_gamma 90.000000
_cell_volume 989.850246
_symmetry_space_group_name_H-M "P 2 2 2"
_symmetry_group_IT_number 16
_symmetry_cell_setting 'orthorhombic'
loop_
_space_group_symop_operation_xyz
x,y,z
-x,-y,z
x,-y,-z
-x,y,-z
loop_
_atom_site_type_symbol
_atom_site_label
_atom_site_fract_x
_atom_site_fract_y
_atom_site_fract_z
Si Si1 0.160546 0.928954 0.878731
Si Si2 0.500000 0.500000 0.000000
Si Si3 0.096379 0.433944 0.759925
Si Si4 0.739080 0.448404 0.377342
Si Si5 0.500000 0.000000 0.151338
Si Si6 0.325112 0.947671 0.740578
O O1 0.125750 0.634393 0.852776
O O2 0.107879 0.136551 0.806305
O O3 0.258310 0.950717 0.837783
O O4 0.153679 0.000000 0.000000
O O5 0.471850 0.265625 0.084084
O O6 0.164597 0.483377 0.667430
O O7 0.000000 0.500000 0.729241
O O8 0.734008 0.500000 0.500000
O O9 0.711420 0.149961 0.346259
O O10 0.680031 0.653868 0.310961
O O11 0.583500 0.049933 0.220968
#
# Coordination Sequence:
#
# PCOD9310183 Si02
#       6
#     4   1   4   4   2   4
#     4  10  21  35  53  81 112 154 186 226 284 345
#     4  10  24  34  60  90 114 158 186 234 276 326
#     4  10  21  36  55  82 112 145 191 239 283 339
#     4  10  21  40  61  83 112 151 193 242 296 340
#     4  11  22  42  57  90 122 154 193 240 273 334
#     4  10  22  39  59  83 119 150 191 241 284 340
#
# _framework density 19.194824000000001
#
# number of rings (size 3 to 8) (size 9 to 14) (size 15 to 20)
#    0.000    1.895    0.000    3.158    2.947    2.947 
#    0.000    3.158    0.000    7.579    0.000    0.000 
#    0.000    0.000    0.000    0.000    0.000    0.000 
#
# Total GULP energy -105886.996809 kJ/mol
# GULP energy per Si atom -5572.999832 kJ/mol
# Density = 1.915114 g / cm^3
# Si number density = 19.194824 Si / 1000 Ang^3
#
#
#
# Elastic Constant Matrix: (Units=GPa)
#
#
# Indices 1 2 3 4 5 6 
#
# 1 98.0505 -11.0898 5.9328 0.0000 0.0000 0.0000
# 2 -11.0898 61.1445 -10.5154 0.0000 0.0000 0.0000
# 3 5.9328 -10.5154 71.3348 0.0000 0.0000 0.0000
# 4 0.0000 0.0000 0.0000 18.7300 0.0000 0.0000
# 5 0.0000 0.0000 0.0000 0.0000 7.8923 0.0000
# 6 0.0000 0.0000 0.0000 0.0000 0.0000 17.3485
#
#
#
# Elastic Compliance Matrix: (Units=1/GPa)
#
#
# Indices 1 2 3 4 5 6 
#
# 1 0.010438 0.001789 -0.000604 0.000000 0.000000 0.000000
# 2 0.001789 0.017087 0.002370 0.000000 0.000000 0.000000
# 3 -0.000604 0.002370 0.014418 0.000000 0.000000 0.000000
# 4 0.000000 0.000000 0.000000 0.053390 0.000000 0.000000
# 5 0.000000 0.000000 0.000000 0.000000 0.126706 0.000000
# 6 0.000000 0.000000 0.000000 0.000000 0.000000 0.057642
#
#
# Mechanical properties :
#
#
# Convention : Reuss Voigt Hill
#
# Bulk Modulus (GPa) = 20.38652 22.13169 21.25910
# Shear Modulus (GPa) = 17.30572 25.20764 21.25668
#
# Velocity S-wave (km/s) = 3.00589 3.62781 3.33140
# Velocity P-wave (km/s) = 4.76352 5.39473 5.08892
#
# Compressibility (1/GPa) = 0.04905203
#
# Stress axis : x y z
#
# Youngs Moduli (GPa) = 95.80610 58.52477 69.35766
#
# Poissons Ratio (x) = -0.10471 0.04192
# Poissons Ratio (y) = -0.17141 -0.16437
# Poissons Ratio (z) = 0.05790 -0.13870
#
# Static dielectric constant tensor:
#      x y z
#    x 1.659480 0.000000 0.000000 
#    y 0.000000 1.662880 0.000000 
#    z 0.000000 0.000000 1.641340 
# 
# From -- ./inp_files/1389.got.cif
#   From: 2010.05.17/outbox.cif.g08.bks.cpg/sg16_1_cif.got.tgz:1389.got - 2010.06.03 22:28:35.
