data_PCOD9310807
_publ_section_title
;
Structure prediction by ZEFSAII (Michael W. Deem and Ramdas Pophale) SiO2 
 PCOD9310807
Probable space group: P 2 2 21
;
_chemical_formula_sum "Si O2"
_cell_formula_units_Z 24
_cell_length_a 8.139995
_cell_length_b 9.936474
_cell_length_c 15.831965
_cell_angle_alpha 90.000000
_cell_angle_beta 90.000000
_cell_angle_gamma 90.000000
_cell_volume 1280.534429
_symmetry_space_group_name_H-M "P 2 2 21"
_symmetry_group_IT_number 17
_symmetry_cell_setting 'orthorhombic'
loop_
_space_group_symop_operation_xyz
x,y,z
-x,-y,1/2+z
x,-y,-z
-x,y,1/2-z
loop_
_atom_site_type_symbol
_atom_site_label
_atom_site_fract_x
_atom_site_fract_y
_atom_site_fract_z
Si Si1 0.569344 0.253221 0.584393
Si Si2 0.800087 0.666463 0.137663
Si Si3 0.273360 0.313560 0.085840
Si Si4 0.324363 0.538146 0.211062
Si Si5 0.205368 0.003309 0.096595
Si Si6 0.000000 0.122110 0.750000
Si Si7 0.999961 0.500000 0.000000
O O1 0.381119 0.279326 0.610856
O O2 0.596362 0.309345 0.490430
O O3 0.692823 0.343144 0.642267
O O4 0.639962 0.101210 0.590388
O O5 0.793679 0.551597 0.210091
O O6 0.888532 0.785890 0.188423
O O7 0.892384 0.597299 0.059842
O O8 0.330529 0.397562 0.165374
O O9 0.116354 0.397477 0.052121
O O10 0.244392 0.159428 0.107994
O O11 0.500000 0.566664 0.250000
O O12 0.103349 0.959371 0.179346
O O13 0.129423 0.000000 0.000000
#
# Coordination Sequence:
#
# PCOD9310807 Si02
#       7
#     4   4   4   4   4   2   2
#     4  10  20  42  65  90 122 169 221 260 315 396
#     4  11  24  37  68  97 127 171 224 262 329 405
#     4  11  22  43  63  90 133 169 208 275 335 377
#     4  10  20  36  63  92 117 161 211 264 316 378
#     4  10  23  41  66  93 126 175 220 264 331 395
#     4  12  22  44  64  94 136 176 210 274 340 404
#     4  12  24  38  66 100 134 174 212 278 340 392
#
# _framework density 18.742173999999999
#
# number of rings (size 3 to 8) (size 9 to 14) (size 15 to 20)
#    0.000    1.333    3.333    3.000    4.667    1.333 
#    3.000    7.500    0.000    0.000    0.000    0.000 
#    0.000    0.000    0.000    0.000    0.000    0.000 
#
# Total GULP energy -133678.095353 kJ/mol
# GULP energy per Si atom -5569.920640 kJ/mol
# Density = 1.869952 g / cm^3
# Si number density = 18.742174 Si / 1000 Ang^3
#
#
#
# Elastic Constant Matrix: (Units=GPa)
#
#
# Indices 1 2 3 4 5 6 
#
# 1 70.5787 23.0406 39.1931 0.0000 0.0000 0.0000
# 2 23.0406 113.4198 38.9646 0.0000 0.0000 0.0000
# 3 39.1931 38.9646 109.3449 0.0000 0.0000 0.0000
# 4 0.0000 0.0000 0.0000 39.4153 0.0000 0.0000
# 5 0.0000 0.0000 0.0000 0.0000 4.6030 0.0000
# 6 0.0000 0.0000 0.0000 0.0000 0.0000 9.8048
#
#
#
# Elastic Compliance Matrix: (Units=1/GPa)
#
#
# Indices 1 2 3 4 5 6 
#
# 1 0.017952 -0.001637 -0.005852 0.000000 0.000000 0.000000
# 2 -0.001637 0.010196 -0.003047 0.000000 0.000000 0.000000
# 3 -0.005852 -0.003047 0.012328 0.000000 0.000000 0.000000
# 4 0.000000 0.000000 0.000000 0.025371 0.000000 0.000000
# 5 0.000000 0.000000 0.000000 0.000000 0.217249 0.000000
# 6 0.000000 0.000000 0.000000 0.000000 0.000000 0.101991
#
#
# Mechanical properties :
#
#
# Convention : Reuss Voigt Hill
#
# Bulk Modulus (GPa) = 51.52779 55.08221 53.30500
# Shear Modulus (GPa) = 12.11749 23.57429 17.84589
#
# Velocity S-wave (km/s) = 2.54547 3.55042 3.08909
# Velocity P-wave (km/s) = 6.01597 6.80151 6.42076
#
# Compressibility (1/GPa) = 0.01940700
#
# Stress axis : x y z
#
# Youngs Moduli (GPa) = 55.70319 98.07830 81.11339
#
# Poissons Ratio (x) = 0.16052 0.47464
# Poissons Ratio (y) = 0.09117 0.24712
# Poissons Ratio (z) = 0.32595 0.29881
#
# Static dielectric constant tensor:
#      x y z
#    x 1.681360 0.000000 0.000000 
#    y 0.000000 1.729690 0.000000 
#    z 0.000000 0.000000 1.725010 
# 
# From -- ./inp_files/8138.got.cif
#   From: 2010.05.17/outbox.cif.g08.bks.cpg/sg17_5_cif.got.tgz:8138.got - 2010.06.03 22:34:06.
