data_PCOD9310330
_publ_section_title
;
Structure prediction by ZEFSAII (Michael W. Deem and Ramdas Pophale) SiO2 
 PCOD9310330
Probable space group: P 2 2 2
;
_chemical_formula_sum "Si O2"
_cell_formula_units_Z 14
_cell_length_a 5.318775
_cell_length_b 5.265953
_cell_length_c 20.249313
_cell_angle_alpha 90.000000
_cell_angle_beta 90.000000
_cell_angle_gamma 90.000000
_cell_volume 567.151246
_symmetry_space_group_name_H-M "P 2 2 2"
_symmetry_group_IT_number 16
_symmetry_cell_setting 'orthorhombic'
loop_
_space_group_symop_operation_xyz
x,y,z
-x,-y,z
x,-y,-z
-x,y,-z
loop_
_atom_site_type_symbol
_atom_site_label
_atom_site_fract_x
_atom_site_fract_y
_atom_site_fract_z
Si Si1 0.248018 0.327279 0.752511
Si Si2 0.500000 0.000000 0.500000
Si Si3 0.250043 0.671258 0.390704
Si Si4 0.657564 0.239094 0.104289
Si Si5 0.000000 0.500000 0.000000
O O1 0.500000 0.500000 0.751769
O O2 0.237183 0.192036 0.681132
O O3 0.250786 0.176967 0.821245
O O4 0.000000 0.500000 0.755158
O O5 0.312692 0.847726 0.452027
O O6 0.500000 0.500000 0.387694
O O7 0.000000 0.500000 0.398796
O O8 0.500000 0.500000 0.109628
O O9 0.500000 0.000000 0.081736
O O10 0.857371 0.314036 0.049902
#
# Coordination Sequence:
#
# PCOD9310330 Si02
#       5
#     4   1   4   4   1
#     4   9  19  44  72 105 145 199 254 324 387 470
#     4  12  26  42  76 112 144 218 248 326 400 472
#     4  10  24  44  69 105 152 193 258 320 386 465
#     4  11  26  46  75 111 153 203 264 326 402 477
#     4  12  26  50  76 116 156 214 260 342 402 490
#
# _framework density 24.684771999999999
#
# number of rings (size 3 to 8) (size 9 to 14) (size 15 to 20)
#    0.000    1.714    1.429    0.857    2.000    9.143 
#    0.000    0.000    0.000    0.000    0.000    0.000 
#    0.000    0.000    0.000    0.000    0.000    0.000 
#
# Total GULP energy -78341.051947 kJ/mol
# GULP energy per Si atom -5595.789425 kJ/mol
# Density = 2.462859 g / cm^3
# Si number density = 24.684772 Si / 1000 Ang^3
#
#
#
# Elastic Constant Matrix: (Units=GPa)
#
#
# Indices 1 2 3 4 5 6 
#
# 1 176.7072 58.0485 78.7191 0.0000 0.0000 0.0000
# 2 58.0485 98.9803 74.3986 0.0000 0.0000 0.0000
# 3 78.7191 74.3986 295.9672 0.0000 0.0000 0.0000
# 4 0.0000 0.0000 0.0000 180.1458 0.0000 0.0000
# 5 0.0000 0.0000 0.0000 0.0000 57.5047 0.0000
# 6 0.0000 0.0000 0.0000 0.0000 0.0000 49.3156
#
#
#
# Elastic Compliance Matrix: (Units=1/GPa)
#
#
# Indices 1 2 3 4 5 6 
#
# 1 0.007271 -0.003465 -0.001063 0.000000 0.000000 0.000000
# 2 -0.003465 0.014108 -0.002625 0.000000 0.000000 0.000000
# 3 -0.001063 -0.002625 0.004321 0.000000 0.000000 0.000000
# 4 0.000000 0.000000 0.000000 0.005551 0.000000 0.000000
# 5 0.000000 0.000000 0.000000 0.000000 0.017390 0.000000
# 6 0.000000 0.000000 0.000000 0.000000 0.000000 0.020278
#
#
# Mechanical properties :
#
#
# Convention : Reuss Voigt Hill
#
# Bulk Modulus (GPa) = 87.76052 110.44302 99.10177
# Shear Modulus (GPa) = 57.45632 81.42578 69.44105
#
# Velocity S-wave (km/s) = 4.82976 5.74960 5.30963
# Velocity P-wave (km/s) = 8.16895 9.42951 8.82177
#
# Compressibility (1/GPa) = 0.01139464
#
# Stress axis : x y z
#
# Youngs Moduli (GPa) = 137.53522 70.88080 231.41608
#
# Poissons Ratio (x) = 0.24562 0.24594
# Poissons Ratio (y) = 0.47660 0.60741
# Poissons Ratio (z) = 0.14617 0.18605
#
# Static dielectric constant tensor:
#      x y z
#    x 1.908630 0.000000 0.000000 
#    y 0.000000 1.931250 0.000000 
#    z 0.000000 0.000000 2.020900 
# 
# From -- ./inp_files/2553.got.cif
#   From: 2010.05.17/outbox.cif.g08.bks.cpg/sg16_2_cif.got.tgz:2553.got - 2010.06.03 22:28:35.
