data_PCOD9310383
_publ_section_title
;
Structure prediction by ZEFSAII (Michael W. Deem and Ramdas Pophale) SiO2 
 PCOD9310383
Probable space group: P 2 2 2
;
_chemical_formula_sum "Si O2"
_cell_formula_units_Z 13
_cell_length_a 7.054852
_cell_length_b 9.730661
_cell_length_c 10.031195
_cell_angle_alpha 90.000000
_cell_angle_beta 90.000000
_cell_angle_gamma 90.000000
_cell_volume 688.625218
_symmetry_space_group_name_H-M "P 2 2 2"
_symmetry_group_IT_number 16
_symmetry_cell_setting 'orthorhombic'
loop_
_space_group_symop_operation_xyz
x,y,z
-x,-y,z
x,-y,-z
-x,y,-z
loop_
_atom_site_type_symbol
_atom_site_label
_atom_site_fract_x
_atom_site_fract_y
_atom_site_fract_z
Si Si1 0.735365 0.888457 0.740572
Si Si2 0.462268 0.350125 0.155757
Si Si3 0.113892 0.165148 0.143148
Si Si4 0.500000 0.000000 0.500000
O O1 0.605054 0.768443 0.798055
O O2 0.951648 0.838729 0.744802
O O3 0.756226 0.028608 0.830636
O O4 0.640994 0.921508 0.599783
O O5 0.500000 0.500000 0.218037
O O6 0.248840 0.294147 0.164799
O O7 0.500000 0.362178 0.000000
O O8 0.000000 0.165180 0.000000
#
# Coordination Sequence:
#
# PCOD9310383 Si02
#       4
#     4   4   4   1
#     4  11  23  40  63  95 126 170 224 272 314 381
#     4  11  23  40  63  97 136 170 204 270 344 401
#     4  11  22  39  68 100 126 164 217 279 340 385
#     4  12  24  42  68  92 130 180 230 280 308 372
#
# _framework density 18.878194000000001
#
# number of rings (size 3 to 8) (size 9 to 14) (size 15 to 20)
#    0.000    0.923    6.154    1.846    0.000    4.923 
#    0.000    0.769    0.000    0.000   16.000    0.000 
#    0.000    0.000    0.000    0.000    0.000    0.000 
#
# Total GULP energy -72403.953332 kJ/mol
# GULP energy per Si atom -5569.534872 kJ/mol
# Density = 1.883523 g / cm^3
# Si number density = 18.878194 Si / 1000 Ang^3
#
#
#
# Elastic Constant Matrix: (Units=GPa)
#
#
# Indices 1 2 3 4 5 6 
#
# 1 141.5095 91.9206 49.1040 0.0000 0.0000 0.0000
# 2 91.9206 142.8554 56.1502 0.0000 0.0000 0.0000
# 3 49.1040 56.1502 84.9575 0.0000 0.0000 0.0000
# 4 0.0000 0.0000 0.0000 24.5271 0.0000 0.0000
# 5 0.0000 0.0000 0.0000 0.0000 43.1211 0.0000
# 6 0.0000 0.0000 0.0000 0.0000 0.0000 50.9871
#
#
#
# Elastic Compliance Matrix: (Units=1/GPa)
#
#
# Indices 1 2 3 4 5 6 
#
# 1 0.012549 -0.007057 -0.002589 0.000000 0.000000 0.000000
# 2 -0.007057 0.013425 -0.004794 0.000000 0.000000 0.000000
# 3 -0.002589 -0.004794 0.016436 0.000000 0.000000 0.000000
# 4 0.000000 0.000000 0.000000 0.040771 0.000000 0.000000
# 5 0.000000 0.000000 0.000000 0.000000 0.023190 0.000000
# 6 0.000000 0.000000 0.000000 0.000000 0.000000 0.019613
#
#
# Mechanical properties :
#
#
# Convention : Reuss Voigt Hill
#
# Bulk Modulus (GPa) = 73.91291 84.85245 79.38268
# Shear Modulus (GPa) = 31.37248 35.20356 33.28802
#
# Velocity S-wave (km/s) = 4.08099 4.32299 4.20373
# Velocity P-wave (km/s) = 7.83859 8.36436 8.10574
#
# Compressibility (1/GPa) = 0.01352944
#
# Stress axis : x y z
#
# Youngs Moduli (GPa) = 79.68643 74.48546 60.84365
#
# Poissons Ratio (x) = 0.52566 0.15752
# Poissons Ratio (y) = 0.56236 0.29170
# Poissons Ratio (z) = 0.20631 0.35710
#
# Static dielectric constant tensor:
#      x y z
#    x 1.680760 0.000000 0.000000 
#    y 0.000000 1.762360 0.000000 
#    z 0.000000 0.000000 1.650390 
# 
# From -- ./inp_files/3345.got.cif
#   From: 2010.05.17/outbox.cif.g08.bks.cpg/sg16_2_cif.got.tgz:3345.got - 2010.06.03 22:28:35.
