data_PCOD9310890
_publ_section_title
;
Structure prediction by ZEFSAII (Michael W. Deem and Ramdas Pophale) SiO2 
 PCOD9310890
Probable space group: P 2 2 21
;
_chemical_formula_sum "Si O2"
_cell_formula_units_Z 18
_cell_length_a 9.159953
_cell_length_b 6.988864
_cell_length_c 11.692456
_cell_angle_alpha 90.000000
_cell_angle_beta 90.000000
_cell_angle_gamma 90.000000
_cell_volume 748.523740
_symmetry_space_group_name_H-M "P 2 2 21"
_symmetry_group_IT_number 17
_symmetry_cell_setting 'orthorhombic'
loop_
_space_group_symop_operation_xyz
x,y,z
-x,-y,1/2+z
x,-y,-z
-x,y,1/2-z
loop_
_atom_site_type_symbol
_atom_site_label
_atom_site_fract_x
_atom_site_fract_y
_atom_site_fract_z
Si Si1 0.011006 0.286564 0.908790
Si Si2 0.426004 0.500000 0.500000
Si Si3 0.190721 0.076854 0.152824
Si Si4 0.313963 0.264721 0.917519
Si Si5 0.838630 0.637645 0.861516
O O1 0.168930 0.387507 0.893344
O O2 0.893560 0.418312 0.844890
O O3 0.053267 0.069997 0.871999
O O4 0.948348 0.289222 0.038115
O O5 0.535772 0.629038 0.426724
O O6 0.320234 0.377912 0.418902
O O7 0.164681 0.224273 0.253716
O O8 0.311145 0.909183 0.172429
O O9 0.261383 0.181586 0.042017
#
# Coordination Sequence:
#
# PCOD9310890 Si02
#       5
#     4   2   4   4   4
#     4   8  18  39  70 109 150 190 239 313 368 444
#     4  10  20  38  76 100 154 194 240 318 364 438
#     4   9  20  39  73 108 145 195 245 291 373 459
#     4   9  19  41  71 102 147 198 232 304 373 456
#     4  10  20  38  76 116 144 194 247 315 372 433
#
# _framework density 24.047335
#
# number of rings (size 3 to 8) (size 9 to 14) (size 15 to 20)
#    1.333    1.778    0.000    1.333    0.000    1.778 
#    0.000    2.222   63.556    0.000    0.000    0.000 
#    0.000    0.000    0.000    0.000    0.000    0.000 
#
# Total GULP energy -100222.808248 kJ/mol
# GULP energy per Si atom -5567.933792 kJ/mol
# Density = 2.399260 g / cm^3
# Si number density = 24.047335 Si / 1000 Ang^3
#
#
#
# Elastic Constant Matrix: (Units=GPa)
#
#
# Indices 1 2 3 4 5 6 
#
# 1 146.8996 42.8542 33.6962 0.0000 0.0000 0.0000
# 2 42.8542 138.2213 61.0223 0.0000 0.0000 0.0000
# 3 33.6962 61.0223 136.5817 0.0000 0.0000 0.0000
# 4 0.0000 0.0000 0.0000 57.9843 0.0000 0.0000
# 5 0.0000 0.0000 0.0000 0.0000 9.4622 0.0000
# 6 0.0000 0.0000 0.0000 0.0000 0.0000 20.0374
#
#
#
# Elastic Compliance Matrix: (Units=1/GPa)
#
#
# Indices 1 2 3 4 5 6 
#
# 1 0.007598 -0.001903 -0.001024 0.000000 0.000000 0.000000
# 2 -0.001903 0.009489 -0.003770 0.000000 0.000000 0.000000
# 3 -0.001024 -0.003770 0.009259 0.000000 0.000000 0.000000
# 4 0.000000 0.000000 0.000000 0.017246 0.000000 0.000000
# 5 0.000000 0.000000 0.000000 0.000000 0.105684 0.000000
# 6 0.000000 0.000000 0.000000 0.000000 0.000000 0.049907
#
#
# Mechanical properties :
#
#
# Convention : Reuss Voigt Hill
#
# Bulk Modulus (GPa) = 77.21693 77.42756 77.32224
# Shear Modulus (GPa) = 23.05276 36.43877 29.74576
#
# Velocity S-wave (km/s) = 3.09955 3.89690 3.52087
# Velocity P-wave (km/s) = 6.70744 7.24677 6.98231
#
# Compressibility (1/GPa) = 0.01295053
#
# Stress axis : x y z
#
# Youngs Moduli (GPa) = 131.62157 105.38131 108.00718
#
# Poissons Ratio (x) = 0.20059 0.11059
# Poissons Ratio (y) = 0.25054 0.40719
# Poissons Ratio (z) = 0.13477 0.39729
#
# Static dielectric constant tensor:
#      x y z
#    x 1.920840 0.000000 0.000000 
#    y 0.000000 1.998770 0.000000 
#    z 0.000000 0.000000 2.079600 
# 
# From -- ./inp_files/6384.got.cif
#   From: 2010.05.17/outbox.cif.g08.bks.cpg/sg17_4_cif.got.tgz:6384.got - 2010.06.03 22:34:06.
