data_PCOD9310320
_publ_section_title
;
Structure prediction by ZEFSAII (Michael W. Deem and Ramdas Pophale) SiO2 
 PCOD9310320
Probable space group: P 2 2 2
;
_chemical_formula_sum "Si O2"
_cell_formula_units_Z 20
_cell_length_a 6.279180
_cell_length_b 11.411566
_cell_length_c 14.269254
_cell_angle_alpha 90.000000
_cell_angle_beta 90.000000
_cell_angle_gamma 90.000000
_cell_volume 1022.467348
_symmetry_space_group_name_H-M "P 2 2 2"
_symmetry_group_IT_number 16
_symmetry_cell_setting 'orthorhombic'
loop_
_space_group_symop_operation_xyz
x,y,z
-x,-y,z
x,-y,-z
-x,y,-z
loop_
_atom_site_type_symbol
_atom_site_label
_atom_site_fract_x
_atom_site_fract_y
_atom_site_fract_z
Si Si1 0.500000 0.500000 0.326908
Si Si2 0.000000 0.000000 0.500000
Si Si3 0.617458 0.880234 0.595354
Si Si4 0.791406 0.704810 0.739076
Si Si5 0.889112 0.625762 0.405931
Si Si6 0.500000 0.000000 0.000000
Si Si7 0.880273 0.880798 0.902728
O O1 0.662626 0.419236 0.265531
O O2 0.643427 0.588307 0.391343
O O3 0.151014 0.921869 0.436412
O O4 0.500000 0.836873 0.500000
O O5 0.640189 0.790050 0.678231
O O6 0.500000 0.000000 0.623890
O O7 0.852299 0.771839 0.833754
O O8 0.013026 0.692735 0.682036
O O9 0.000000 0.500000 0.402346
O O10 0.000000 0.677752 0.500000
O O11 0.351499 0.077507 0.934400
O O12 0.000000 0.000000 0.865183
O O13 0.000000 0.850427 0.000000
#
# Coordination Sequence:
#
# PCOD9310320 Si02
#       7
#     2   1   4   4   4   1   4
#     4  10  24  41  58  89 124 168 222 253 310 389
#     4   8  18  36  48  70 124 164 206 244 300 356
#     4   9  21  36  51  86 126 166 208 249 303 375
#     4  11  23  36  64  88 126 166 208 262 315 379
#     4   9  21  38  58  85 121 169 212 256 301 358
#     4   8  18  40  68  92 122 156 198 252 342 382
#     4   9  21  41  63  94 124 153 210 271 326 386
#
# _framework density 19.560525999999999
#
# number of rings (size 3 to 8) (size 9 to 14) (size 15 to 20)
#    0.000    3.000    0.000    0.000    7.000   10.400 
#    0.000    0.000    0.000   14.400    0.000    0.000 
#    0.000    0.000    0.000    0.000    0.000    0.000 
#
# Total GULP energy -111352.622742 kJ/mol
# GULP energy per Si atom -5567.631137 kJ/mol
# Density = 1.951601 g / cm^3
# Si number density = 19.560526 Si / 1000 Ang^3
#
#
#
# Elastic Constant Matrix: (Units=GPa)
#
#
# Indices 1 2 3 4 5 6 
#
# 1 120.1257 34.5828 43.1034 0.0000 0.0000 0.0000
# 2 34.5828 97.4656 54.5557 0.0000 0.0000 0.0000
# 3 43.1034 54.5557 103.8759 0.0000 0.0000 0.0000
# 4 0.0000 0.0000 0.0000 39.7860 0.0000 0.0000
# 5 0.0000 0.0000 0.0000 0.0000 7.4921 0.0000
# 6 0.0000 0.0000 0.0000 0.0000 0.0000 -8.4038
#
#
#
# Elastic Compliance Matrix: (Units=1/GPa)
#
#
# Indices 1 2 3 4 5 6 
#
# 1 0.009983 -0.001733 -0.003232 0.000000 0.000000 0.000000
# 2 -0.001733 0.014833 -0.007071 0.000000 0.000000 0.000000
# 3 -0.003232 -0.007071 0.014682 0.000000 0.000000 0.000000
# 4 0.000000 0.000000 0.000000 0.025134 0.000000 0.000000
# 5 0.000000 0.000000 0.000000 0.000000 0.133474 0.000000
# 6 0.000000 0.000000 0.000000 0.000000 0.000000 -0.118994
#
#
# Mechanical properties :
#
#
# Convention : Reuss Voigt Hill
#
# Bulk Modulus (GPa) = 64.82941 65.10568 64.96754
# Shear Modulus (GPa) = 46.15647 20.38989 33.27318
#
# Velocity S-wave (km/s) = 4.86292 3.23212 4.12884
# Velocity P-wave (km/s) = 8.04646 6.87643 7.48435
#
# Compressibility (1/GPa) = 0.01542510
#
# Stress axis : x y z
#
# Youngs Moduli (GPa) = 100.16649 67.41730 68.11068
#
# Poissons Ratio (x) = 0.11683 0.22016
# Poissons Ratio (y) = 0.17359 0.48162
# Poissons Ratio (z) = 0.32378 0.47672
#
# Static dielectric constant tensor:
#      x y z
#    x 1.783230 0.000000 0.000000 
#    y 0.000000 1.742970 0.000000 
#    z 0.000000 0.000000 1.734980 
# 
# From -- ./inp_files/7535.got.cif
#   From: 2010.05.17/outbox.cif.g08.bks.cpg/sg16_4_cif.got.tgz:7535.got - 2010.06.03 22:28:35.
