data_PCOD9310908
_publ_section_title
;
Structure prediction by ZEFSAII (Michael W. Deem and Ramdas Pophale) SiO2 
 PCOD9310908
Probable space group: P 2 2 21
;
_chemical_formula_sum "Si O2"
_cell_formula_units_Z 20
_cell_length_a 5.103428
_cell_length_b 10.966292
_cell_length_c 16.091074
_cell_angle_alpha 90.000000
_cell_angle_beta 90.000000
_cell_angle_gamma 90.000000
_cell_volume 900.547925
_symmetry_space_group_name_H-M "P 2 2 21"
_symmetry_group_IT_number 17
_symmetry_cell_setting 'orthorhombic'
loop_
_space_group_symop_operation_xyz
x,y,z
-x,-y,1/2+z
x,-y,-z
-x,y,1/2-z
loop_
_atom_site_type_symbol
_atom_site_label
_atom_site_fract_x
_atom_site_fract_y
_atom_site_fract_z
Si Si1 0.432808 0.295247 0.837585
Si Si2 0.463070 0.248954 0.156095
Si Si3 0.921270 0.827392 0.105608
Si Si4 0.695031 0.369162 0.999810
Si Si5 0.962754 0.915560 0.844928
O O1 0.500000 0.356273 0.750000
O O2 0.642885 0.184384 0.847296
O O3 0.142839 0.244497 0.844188
O O4 0.500934 0.371638 0.919937
O O5 0.500000 0.297863 0.250000
O O6 0.541009 0.341628 0.083883
O O7 0.177232 0.190700 0.145019
O O8 0.673938 0.139674 0.148450
O O9 0.997367 0.967184 0.097227
O O10 0.875307 0.747623 0.022538
O O11 0.833474 0.500000 0.000000
O O12 0.000000 0.961133 0.750000
#
# Coordination Sequence:
#
# PCOD9310908 Si02
#       5
#     4   4   4   4   4
#     4  10  21  39  64  95 128 166 212 268 329 387
#     4  10  23  42  66  94 130 176 213 265 337 393
#     4  10  22  39  67  94 131 164 213 271 337 382
#     4  10  26  44  64  94 135 175 226 275 317 391
#     4  10  20  39  67  95 130 163 211 273 330 402
#
# _framework density 22.208703
#
# number of rings (size 3 to 8) (size 9 to 14) (size 15 to 20)
#    1.200    0.800    0.000    3.000    2.800    4.000 
#    0.000    0.000    4.400    0.000    0.000    0.000 
#    0.000    0.000    0.000    0.000    0.000    0.000 
#
# Total GULP energy -111545.627096 kJ/mol
# GULP energy per Si atom -5577.281355 kJ/mol
# Density = 2.215816 g / cm^3
# Si number density = 22.208703 Si / 1000 Ang^3
#
#
#
# Elastic Constant Matrix: (Units=GPa)
#
#
# Indices 1 2 3 4 5 6 
#
# 1 72.9467 -19.6493 15.0435 0.0000 0.0000 0.0000
# 2 -19.6493 56.1143 48.8834 0.0000 0.0000 0.0000
# 3 15.0435 48.8834 165.2295 0.0000 0.0000 0.0000
# 4 0.0000 0.0000 0.0000 -35.2446 0.0000 0.0000
# 5 0.0000 0.0000 0.0000 0.0000 28.6205 0.0000
# 6 0.0000 0.0000 0.0000 0.0000 0.0000 8.0332
#
#
#
# Elastic Compliance Matrix: (Units=1/GPa)
#
#
# Indices 1 2 3 4 5 6 
#
# 1 0.017351 0.010039 -0.004550 0.000000 0.000000 0.000000
# 2 0.010039 0.029817 -0.009735 0.000000 0.000000 0.000000
# 3 -0.004550 -0.009735 0.009347 0.000000 0.000000 0.000000
# 4 0.000000 0.000000 0.000000 -0.028373 0.000000 0.000000
# 5 0.000000 0.000000 0.000000 0.000000 0.034940 0.000000
# 6 0.000000 0.000000 0.000000 0.000000 0.000000 0.124483
#
#
# Mechanical properties :
#
#
# Convention : Reuss Voigt Hill
#
# Bulk Modulus (GPa) = 20.82333 42.53840 31.68086
# Shear Modulus (GPa) = 23.57773 16.94935 20.26354
#
# Velocity S-wave (km/s) = 3.26182 2.76558 3.02390
# Velocity P-wave (km/s) = 4.85619 5.42157 5.14665
#
# Compressibility (1/GPa) = 0.04802307
#
# Stress axis : x y z
#
# Youngs Moduli (GPa) = 57.63285 33.53771 106.98963
#
# Poissons Ratio (x) = -0.33670 0.48680
# Poissons Ratio (y) = -0.57860 1.04160
# Poissons Ratio (z) = 0.26223 0.32651
#
# Static dielectric constant tensor:
#      x y z
#    x 1.787530 0.000000 0.000000 
#    y 0.000000 1.779200 0.000000 
#    z 0.000000 0.000000 1.889620 
# 
# From -- ./inp_files/7539.got.cif
#   From: 2010.05.17/outbox.cif.g08.bks.cpg/sg17_4_cif.got.tgz:7539.got - 2010.06.03 22:34:06.
