data_PCOD9310094
_publ_section_title
;
Structure prediction by ZEFSAII (Michael W. Deem and Ramdas Pophale) SiO2 
 PCOD9310094
Probable space group: P 2 2 2
;
_chemical_formula_sum "Si O2"
_cell_formula_units_Z 20
_cell_length_a 12.692498
_cell_length_b 5.247730
_cell_length_c 16.675249
_cell_angle_alpha 90.000000
_cell_angle_beta 90.000000
_cell_angle_gamma 90.000000
_cell_volume 1110.685017
_symmetry_space_group_name_H-M "P 2 2 2"
_symmetry_group_IT_number 16
_symmetry_cell_setting 'orthorhombic'
loop_
_space_group_symop_operation_xyz
x,y,z
-x,-y,z
x,-y,-z
-x,y,-z
loop_
_atom_site_type_symbol
_atom_site_label
_atom_site_fract_x
_atom_site_fract_y
_atom_site_fract_z
Si Si1 0.874643 0.451548 0.593538
Si Si2 0.372564 0.507794 0.091513
Si Si3 0.239774 0.925945 0.353651
Si Si4 0.547103 0.753067 0.589193
Si Si5 0.371756 0.008210 0.191766
O O1 0.845425 0.500000 0.500000
O O2 0.831102 0.674184 0.651198
O O3 0.000000 0.500000 0.596635
O O4 0.825861 0.174121 0.617024
O O5 0.500000 0.500000 0.087269
O O6 0.343601 0.765350 0.137155
O O7 0.342668 0.264312 0.144331
O O8 0.333356 0.500000 0.000000
O O9 0.330366 0.813793 0.413394
O O10 0.304663 0.989910 0.273365
O O11 0.500000 0.500000 0.629767
O O12 0.500000 0.745375 0.500000
O O13 0.500000 0.000000 0.629766
O O14 0.500000 0.000000 0.200898
#
# Coordination Sequence:
#
# PCOD9310094 Si02
#       5
#     4   4   4   4   4
#     4  11  26  44  61  80 103 142 204 262 302 339
#     4   9  17  31  52  76 114 161 192 214 253 320
#     4  12  23  38  62  81 114 150 185 245 302 337
#     4  10  22  34  50  78 111 146 188 218 262 351
#     4  10  20  33  51  84 121 149 184 224 272 331
#
# _framework density 18.006907999999999
#
# number of rings (size 3 to 8) (size 9 to 14) (size 15 to 20)
#    0.000    1.600    0.000    4.800    8.400    6.400 
#    0.000    0.000    0.000    0.000    0.000    0.000 
#    0.000   56.000    0.000    0.000    0.000    0.000 
#
# Total GULP energy -111403.957241 kJ/mol
# GULP energy per Si atom -5570.197862 kJ/mol
# Density = 1.796592 g / cm^3
# Si number density = 18.006908 Si / 1000 Ang^3
#
#
#
# Elastic Constant Matrix: (Units=GPa)
#
#
# Indices 1 2 3 4 5 6 
#
# 1 84.8015 45.1513 31.0778 0.0000 0.0000 0.0000
# 2 45.1513 178.3273 39.5557 0.0000 0.0000 0.0000
# 3 31.0778 39.5557 108.6980 0.0000 0.0000 0.0000
# 4 0.0000 0.0000 0.0000 13.0098 0.0000 0.0000
# 5 0.0000 0.0000 0.0000 0.0000 14.4102 0.0000
# 6 0.0000 0.0000 0.0000 0.0000 0.0000 30.6935
#
#
#
# Elastic Compliance Matrix: (Units=1/GPa)
#
#
# Indices 1 2 3 4 5 6 
#
# 1 0.014508 -0.002995 -0.003058 0.000000 0.000000 0.000000
# 2 -0.002995 0.006718 -0.001589 0.000000 0.000000 0.000000
# 3 -0.003058 -0.001589 0.010652 0.000000 0.000000 0.000000
# 4 0.000000 0.000000 0.000000 0.076865 0.000000 0.000000
# 5 0.000000 0.000000 0.000000 0.000000 0.069395 0.000000
# 6 0.000000 0.000000 0.000000 0.000000 0.000000 0.032580
#
#
# Mechanical properties :
#
#
# Convention : Reuss Voigt Hill
#
# Bulk Modulus (GPa) = 60.25855 67.04403 63.65129
# Shear Modulus (GPa) = 21.59516 28.69216 25.14366
#
# Velocity S-wave (km/s) = 3.46681 3.99607 3.74081
# Velocity P-wave (km/s) = 7.04001 7.65537 7.35413
#
# Compressibility (1/GPa) = 0.01659515
#
# Stress axis : x y z
#
# Youngs Moduli (GPa) = 68.92986 148.84673 93.87742
#
# Poissons Ratio (x) = 0.44578 0.28707
# Poissons Ratio (y) = 0.20644 0.14913
# Poissons Ratio (z) = 0.21079 0.23645
#
# Static dielectric constant tensor:
#      x y z
#    x 1.693600 0.000000 0.000000 
#    y 0.000000 1.690750 0.000000 
#    z 0.000000 0.000000 1.513740 
# 
# From -- ./inp_files/1437.got.cif
#   From: 2010.05.17/outbox.cif.g08.bks.cpg/sg16_1_cif.got.tgz:1437.got - 2010.06.03 22:28:35.
