data_PCOD9310216
_publ_section_title
;
Structure prediction by ZEFSAII (Michael W. Deem and Ramdas Pophale) SiO2 
 PCOD9310216
Probable space group: P 2 2 2
;
_chemical_formula_sum "Si O2"
_cell_formula_units_Z 25
_cell_length_a 16.780461
_cell_length_b 9.107523
_cell_length_c 7.428336
_cell_angle_alpha 90.000000
_cell_angle_beta 90.000000
_cell_angle_gamma 90.000000
_cell_volume 1135.260962
_symmetry_space_group_name_H-M "P 2 2 2"
_symmetry_group_IT_number 16
_symmetry_cell_setting 'orthorhombic'
loop_
_space_group_symop_operation_xyz
x,y,z
-x,-y,z
x,-y,-z
-x,y,-z
loop_
_atom_site_type_symbol
_atom_site_label
_atom_site_fract_x
_atom_site_fract_y
_atom_site_fract_z
Si Si1 0.296727 0.163254 0.861811
Si Si2 0.860436 0.528768 0.283650
Si Si3 0.580928 0.337276 0.889848
Si Si4 0.120614 0.249786 0.965651
Si Si5 0.415743 0.942739 0.702209
Si Si6 0.320165 0.553340 0.308503
Si Si7 0.000000 0.000000 0.000000
O O1 0.207726 0.177029 0.936873
O O2 0.339411 0.013583 0.803674
O O3 0.301661 0.274575 0.692250
O O4 0.352448 0.250797 0.998644
O O5 0.877094 0.500000 0.500000
O O6 0.889583 0.386454 0.171621
O O7 0.764173 0.523997 0.262325
O O8 0.886975 0.673735 0.166611
O O9 0.612401 0.493221 0.822955
O O10 0.575903 0.231278 0.715691
O O11 0.500000 0.332146 0.000000
O O12 0.060078 0.119514 0.914790
O O13 0.500000 0.000000 0.782533
O O14 0.411443 0.000000 0.500000
O O15 0.345234 0.500000 0.500000
#
# Coordination Sequence:
#
# PCOD9310216 Si02
#       7
#     4   4   4   4   4   4   1
#     4  11  22  40  65  90 120 171 216 263 325 393
#     4   9  19  42  75 102 127 176 228 267 323 410
#     4  12  23  38  60  90 125 169 217 264 322 386
#     4  10  23  44  69  98 139 174 219 276 340 407
#     4  11  24  41  58  86 126 170 222 273 323 388
#     4  10  21  39  63  95 126 160 218 274 322 379
#     4  12  28  46  66 108 146 176 212 284 350 406
#
# _framework density 22.021367000000001
#
# number of rings (size 3 to 8) (size 9 to 14) (size 15 to 20)
#    0.000    1.440    3.200    1.920    2.240    2.560 
#    0.000    4.000    0.000    0.000    0.000    0.000 
#    0.000    0.000    0.000    0.000    0.000    0.000 
#
# Total GULP energy -139359.386326 kJ/mol
# GULP energy per Si atom -5574.375453 kJ/mol
# Density = 2.197125 g / cm^3
# Si number density = 22.021367 Si / 1000 Ang^3
#
#
#
# Elastic Constant Matrix: (Units=GPa)
#
#
# Indices 1 2 3 4 5 6 
#
# 1 108.1667 43.9460 27.9531 0.0000 0.0000 0.0000
# 2 43.9460 136.7584 34.7371 0.0000 0.0000 0.0000
# 3 27.9531 34.7371 103.2660 0.0000 0.0000 0.0000
# 4 0.0000 0.0000 0.0000 13.6829 0.0000 0.0000
# 5 0.0000 0.0000 0.0000 0.0000 5.1886 0.0000
# 6 0.0000 0.0000 0.0000 0.0000 0.0000 471.1356
#
#
#
# Elastic Compliance Matrix: (Units=1/GPa)
#
#
# Indices 1 2 3 4 5 6 
#
# 1 0.010982 -0.003033 -0.001952 0.000000 0.000000 0.000000
# 2 -0.003033 0.008833 -0.002150 0.000000 0.000000 0.000000
# 3 -0.001952 -0.002150 0.010936 0.000000 0.000000 0.000000
# 4 0.000000 0.000000 0.000000 0.073084 0.000000 0.000000
# 5 0.000000 0.000000 0.000000 0.000000 0.192729 0.000000
# 6 0.000000 0.000000 0.000000 0.000000 0.000000 0.002123
#
#
# Mechanical properties :
#
#
# Convention : Reuss Voigt Hill
#
# Bulk Modulus (GPa) = 60.68343 62.38483 61.53413
# Shear Modulus (GPa) = 15.70103 114.10507 64.90305
#
# Velocity S-wave (km/s) = 2.67309 7.20612 5.43477
# Velocity P-wave (km/s) = 6.09456 9.88070 8.20889
#
# Compressibility (1/GPa) = 0.01647896
#
# Stress axis : x y z
#
# Youngs Moduli (GPa) = 91.05992 113.21234 91.44482
#
# Poissons Ratio (x) = 0.34337 0.17854
# Poissons Ratio (y) = 0.27618 0.19663
# Poissons Ratio (z) = 0.17779 0.24344
#
# Static dielectric constant tensor:
#      x y z
#    x 1.833980 0.000000 0.000000 
#    y 0.000000 1.938490 0.000000 
#    z 0.000000 0.000000 1.827100 
# 
# From -- ./inp_files/5474.got.cif
#   From: 2010.05.17/outbox.cif.g08.bks.cpg/sg16_3_cif.got.tgz:5474.got - 2010.06.03 22:28:35.
