data_PCOD9310690
_publ_section_title
;
Structure prediction by ZEFSAII (Michael W. Deem and Ramdas Pophale) SiO2 
 PCOD9310690
Probable space group: P 2 2 21
;
_chemical_formula_sum "Si O2"
_cell_formula_units_Z 18
_cell_length_a 5.158733
_cell_length_b 12.041913
_cell_length_c 14.401422
_cell_angle_alpha 90.000000
_cell_angle_beta 90.000000
_cell_angle_gamma 90.000000
_cell_volume 894.630937
_symmetry_space_group_name_H-M "P 2 2 21"
_symmetry_group_IT_number 17
_symmetry_cell_setting 'orthorhombic'
loop_
_space_group_symop_operation_xyz
x,y,z
-x,-y,1/2+z
x,-y,-z
-x,y,1/2-z
loop_
_atom_site_type_symbol
_atom_site_label
_atom_site_fract_x
_atom_site_fract_y
_atom_site_fract_z
Si Si1 0.074844 0.383001 0.949039
Si Si2 0.760010 0.137922 0.188862
Si Si3 0.688419 0.105776 0.835690
Si Si4 0.427383 0.751636 0.501394
Si Si5 0.000000 0.309270 0.750000
O O1 0.115226 0.379920 0.836131
O O2 0.106941 0.500000 0.000000
O O3 0.287960 0.300818 0.993770
O O4 0.784501 0.338893 0.968112
O O5 0.500000 0.136876 0.250000
O O6 0.679613 0.208298 0.099727
O O7 0.000000 0.180742 0.250000
O O8 0.835489 0.011455 0.157024
O O9 0.500000 0.086336 0.750000
O O10 0.824655 0.219066 0.803262
O O11 0.567973 0.141497 0.933132
#
# Coordination Sequence:
#
# PCOD9310690 Si02
#       5
#     4   4   4   4   2
#     4  11  24  43  66  95 126 170 229 277 328 386
#     4  11  23  39  61  94 135 172 209 256 329 401
#     4  10  19  37  64  95 124 164 213 263 321 401
#     4  11  23  41  65  93 132 165 217 274 333 387
#     4  10  20  40  66  92 126 170 218 276 322 394
#
# _framework density 20.120028999999999
#
# number of rings (size 3 to 8) (size 9 to 14) (size 15 to 20)
#    0.000    1.333    3.333    2.667    0.000    0.000 
#    6.000    4.444    0.000    0.000    0.000    0.000 
#    0.000    0.000    0.000    0.000    0.000    0.000 
#
# Total GULP energy -100234.024464 kJ/mol
# GULP energy per Si atom -5568.556915 kJ/mol
# Density = 2.007423 g / cm^3
# Si number density = 20.120029 Si / 1000 Ang^3
#
#
#
# Elastic Constant Matrix: (Units=GPa)
#
#
# Indices 1 2 3 4 5 6 
#
# 1 52.2794 -9.2590 -4.1135 0.0000 0.0000 0.0000
# 2 -9.2590 51.8068 43.9453 0.0000 0.0000 0.0000
# 3 -4.1135 43.9453 105.4428 0.0000 0.0000 0.0000
# 4 0.0000 0.0000 0.0000 -21.8170 0.0000 0.0000
# 5 0.0000 0.0000 0.0000 0.0000 30.5154 0.0000
# 6 0.0000 0.0000 0.0000 0.0000 0.0000 236.0797
#
#
#
# Elastic Compliance Matrix: (Units=1/GPa)
#
#
# Indices 1 2 3 4 5 6 
#
# 1 0.019834 0.004468 -0.001088 0.000000 0.000000 0.000000
# 2 0.004468 0.030865 -0.012689 0.000000 0.000000 0.000000
# 3 -0.001088 -0.012689 0.014730 0.000000 0.000000 0.000000
# 4 0.000000 0.000000 0.000000 -0.045836 0.000000 0.000000
# 5 0.000000 0.000000 0.000000 0.000000 0.032770 0.000000
# 6 0.000000 0.000000 0.000000 0.000000 0.000000 0.004236
#
#
# Mechanical properties :
#
#
# Convention : Reuss Voigt Hill
#
# Bulk Modulus (GPa) = 21.36346 30.07497 25.71922
# Shear Modulus (GPa) = 55.05366 60.88603 57.96985
#
# Velocity S-wave (km/s) = 5.23660 5.50700 5.37351
# Velocity P-wave (km/s) = 6.87050 7.44422 7.16310
#
# Compressibility (1/GPa) = 0.04680889
#
# Stress axis : x y z
#
# Youngs Moduli (GPa) = 50.41934 32.39963 67.88966
#
# Poissons Ratio (x) = -0.14476 0.07389
# Poissons Ratio (y) = -0.22527 0.86146
# Poissons Ratio (z) = 0.05487 0.41112
#
# Static dielectric constant tensor:
#      x y z
#    x 1.766470 0.000000 0.000000 
#    y 0.000000 1.791530 0.000000 
#    z 0.000000 0.000000 1.179580 
# 
# From -- ./inp_files/5802.got.cif
#   From: 2010.05.17/outbox.cif.g08.bks.cpg/sg17_3_cif.got.tgz:5802.got - 2010.06.03 22:34:06.
