data_PCOD9310254
_publ_section_title
;
Structure prediction by ZEFSAII (Michael W. Deem and Ramdas Pophale) SiO2 
 PCOD9310254
Probable space group: P 2 2 2
;
_chemical_formula_sum "Si O2"
_cell_formula_units_Z 30
_cell_length_a 12.245359
_cell_length_b 5.442255
_cell_length_c 21.731369
_cell_angle_alpha 90.000000
_cell_angle_beta 90.000000
_cell_angle_gamma 90.000000
_cell_volume 1448.229852
_symmetry_space_group_name_H-M "P 2 2 2"
_symmetry_group_IT_number 16
_symmetry_cell_setting 'orthorhombic'
loop_
_space_group_symop_operation_xyz
x,y,z
-x,-y,z
x,-y,-z
-x,y,-z
loop_
_atom_site_type_symbol
_atom_site_label
_atom_site_fract_x
_atom_site_fract_y
_atom_site_fract_z
Si Si1 0.824421 0.706207 0.168771
Si Si2 0.810294 0.318305 0.262773
Si Si3 0.125797 0.748777 0.974281
Si Si4 0.621766 0.936647 0.234554
Si Si5 0.436062 0.751783 0.629599
Si Si6 0.000000 0.000000 0.249476
Si Si7 0.875045 0.085395 0.434084
Si Si8 0.209138 0.606412 0.615044
O O1 0.834584 0.432490 0.195812
O O2 0.860232 0.737037 0.098758
O O3 0.701511 0.791908 0.187318
O O4 0.910742 0.861371 0.208358
O O5 0.789651 0.519334 0.314540
O O6 0.700471 0.161285 0.255220
O O7 0.922641 0.189329 0.284344
O O8 0.177306 0.500000 0.000000
O O9 0.000000 0.748709 0.000000
O O10 0.175170 0.000000 0.000000
O O11 0.596218 0.805613 0.299338
O O12 0.500000 0.000000 0.209579
O O13 0.500000 0.500000 0.630688
O O14 0.330021 0.668126 0.591630
O O15 0.500000 0.000000 0.609099
O O16 0.848110 0.372618 0.419842
O O17 0.826230 0.000000 0.500000
O O18 0.835827 0.882930 0.385444
O O19 0.000000 0.000000 0.438088
#
# Coordination Sequence:
#
# PCOD9310254 Si02
#       8
#     4   4   4   4   4   2   4   4
#     4  11  23  38  63  92 133 168 220 272 328 400
#     4  11  24  38  60 100 136 173 216 270 358 407
#     4  10  23  39  62  87 120 170 223 258 310 383
#     4  10  22  39  62  92 134 172 216 269 339 409
#     4  11  22  40  66  99 136 173 218 273 345 425
#     4  10  24  36  55  88 145 172 198 258 344 402
#     4  11  26  45  67  93 132 186 237 277 326 401
#     4  12  23  42  67  97 132 173 227 282 342 405
#
# _framework density 20.714943000000002
#
# number of rings (size 3 to 8) (size 9 to 14) (size 15 to 20)
#    0.000    1.200    1.333    5.200   10.267    2.133 
#    0.000    0.000    0.000    6.400    0.000    0.933 
#    0.000    0.000    0.000    0.000    0.000    0.000 
#
# Total GULP energy -167139.556018 kJ/mol
# GULP energy per Si atom -5571.318534 kJ/mol
# Density = 2.066779 g / cm^3
# Si number density = 20.714943 Si / 1000 Ang^3
#
#
#
# Elastic Constant Matrix: (Units=GPa)
#
#
# Indices 1 2 3 4 5 6 
#
# 1 129.0717 42.1992 4.9867 0.0000 0.0000 0.0000
# 2 42.1992 121.8193 9.4119 0.0000 0.0000 0.0000
# 3 4.9867 9.4119 38.3794 0.0000 0.0000 0.0000
# 4 0.0000 0.0000 0.0000 -153.0158 0.0000 0.0000
# 5 0.0000 0.0000 0.0000 0.0000 -1.0090 0.0000
# 6 0.0000 0.0000 0.0000 0.0000 0.0000 31.8697
#
#
#
# Elastic Compliance Matrix: (Units=1/GPa)
#
#
# Indices 1 2 3 4 5 6 
#
# 1 0.008743 -0.002998 -0.000401 0.000000 0.000000 0.000000
# 2 -0.002998 0.009395 -0.001915 0.000000 0.000000 0.000000
# 3 -0.000401 -0.001915 0.026577 0.000000 0.000000 0.000000
# 4 0.000000 0.000000 0.000000 -0.006535 0.000000 0.000000
# 5 0.000000 0.000000 0.000000 0.000000 -0.991089 0.000000
# 6 0.000000 0.000000 0.000000 0.000000 0.000000 0.031378
#
#
# Mechanical properties :
#
#
# Convention : Reuss Voigt Hill
#
# Bulk Modulus (GPa) = 29.33459 44.71844 37.02652
# Shear Modulus (GPa) = -5.55839 -8.91952 -7.23896
#
# Velocity S-wave (km/s) = -1.63985 -2.07730 -1.87140
# Velocity P-wave (km/s) = 3.25674 3.98507 3.63917
#
# Compressibility (1/GPa) = 0.03408944
#
# Stress axis : x y z
#
# Youngs Moduli (GPa) = 114.37440 106.43681 37.62615
#
# Poissons Ratio (x) = 0.31907 0.01508
# Poissons Ratio (y) = 0.34287 0.07204
# Poissons Ratio (z) = 0.04585 0.20377
#
# Static dielectric constant tensor:
#      x y z
#    x 1.996860 0.000000 0.000000 
#    y 0.000000 1.855150 0.000000 
#    z 0.000000 0.000000 1.798580 
# 
# From -- ./inp_files/9366.got.cif
#   From: 2010.05.17/outbox.cif.g08.bks.cpg/sg16_5_cif.got.tgz:9366.got - 2010.06.03 22:28:35.
