data_PCOD9310552
_publ_section_title
;
Structure prediction by ZEFSAII (Michael W. Deem and Ramdas Pophale) SiO2 
 PCOD9310552
Probable space group: P 2 2 21
;
_chemical_formula_sum "Si O2"
_cell_formula_units_Z 16
_cell_length_a 4.866002
_cell_length_b 4.890750
_cell_length_c 21.594207
_cell_angle_alpha 90.000000
_cell_angle_beta 90.000000
_cell_angle_gamma 90.000000
_cell_volume 513.907560
_symmetry_space_group_name_H-M "P 2 2 21"
_symmetry_group_IT_number 17
_symmetry_cell_setting 'orthorhombic'
loop_
_space_group_symop_operation_xyz
x,y,z
-x,-y,1/2+z
x,-y,-z
-x,y,1/2-z
loop_
_atom_site_type_symbol
_atom_site_label
_atom_site_fract_x
_atom_site_fract_y
_atom_site_fract_z
Si Si1 0.250000 0.500000 0.500000
Si Si2 0.250000 0.000000 0.000000
Si Si3 0.750000 0.499998 0.208197
Si Si4 0.975656 0.725306 0.401183
Si Si5 0.475654 0.725306 0.901183
O O1 0.502767 0.240224 0.482903
O O2 0.250002 0.500002 0.423757
O O3 0.002767 0.759775 0.017097
O O4 0.249999 1.000000 0.086209
O O5 0.500000 0.601287 0.250000
O O6 0.621235 0.255663 0.165389
O O7 0.000000 0.398707 0.250000
O O8 0.878766 0.744335 0.165390
O O9 0.750001 0.499999 0.391780
#
# Coordination Sequence:
#
# PCOD9310552 Si02
#       5
#     2   2   4   4   4
#     4  10  18  38  60 102 150 172 236 274 368 420
#     4  12  22  42  72 118 146 168 236 302 386 414
#     4  11  24  47  78  95 140 207 244 274 346 427
#     4  11  22  41  70 106 144 187 226 300 359 421
#     4  11  22  41  70 106 144 187 226 300 359 421
#
# _framework density 31.134001999999999
#
# number of rings (size 3 to 8) (size 9 to 14) (size 15 to 20)
#    0.000    1.000    7.500    0.000    0.000    1.000 
#    0.000    0.000   11.000    0.000    0.000    0.000 
#    0.000    0.000    0.000    0.000    0.000    0.000 
#
# Total GULP energy -89123.927447 kJ/mol
# GULP energy per Si atom -5570.245465 kJ/mol
# Density = 3.106314 g / cm^3
# Si number density = 31.134002 Si / 1000 Ang^3
#
#
#
# Elastic Constant Matrix: (Units=GPa)
#
#
# Indices 1 2 3 4 5 6 
#
# 1 362.6031 118.4720 148.2953 0.0000 0.0000 0.0000
# 2 118.4720 284.8626 89.1706 0.0000 0.0000 0.0000
# 3 148.2953 89.1706 238.7546 0.0000 0.0000 0.0000
# 4 0.0000 0.0000 0.0000 -4.7638 0.0000 0.0000
# 5 0.0000 0.0000 0.0000 0.0000 83.8850 0.0000
# 6 0.0000 0.0000 0.0000 0.0000 0.0000 77.1152
#
#
#
# Elastic Compliance Matrix: (Units=1/GPa)
#
#
# Indices 1 2 3 4 5 6 
#
# 1 0.003927 -0.000985 -0.002071 0.000000 0.000000 0.000000
# 2 -0.000985 0.004222 -0.000965 0.000000 0.000000 0.000000
# 3 -0.002071 -0.000965 0.005835 0.000000 0.000000 0.000000
# 4 0.000000 0.000000 0.000000 -0.209915 0.000000 0.000000
# 5 0.000000 0.000000 0.000000 0.000000 0.011921 0.000000
# 6 0.000000 0.000000 0.000000 0.000000 0.000000 0.012968
#
#
# Mechanical properties :
#
#
# Convention : Reuss Voigt Hill
#
# Bulk Modulus (GPa) = 168.29716 177.56622 172.93169
# Shear Modulus (GPa) = -31.05213 66.59945 17.77366
#
# Velocity S-wave (km/s) = -3.16154 4.63008 2.39189
# Velocity P-wave (km/s) = 6.39108 9.25960 7.95570
#
# Compressibility (1/GPa) = 0.00594187
#
# Stress axis : x y z
#
# Youngs Moduli (GPa) = 254.67296 236.84561 171.37000
#
# Poissons Ratio (x) = 0.23323 0.35493
# Poissons Ratio (y) = 0.25078 0.16542
# Poissons Ratio (z) = 0.52746 0.22862
#
# Static dielectric constant tensor:
#      x y z
#    x 2.613890 0.000000 0.000000 
#    y 0.000000 2.986710 0.000000 
#    z 0.000000 0.000000 2.550930 
# 
# From -- ./inp_files/9817.got.cif
#   From: 2010.05.17/outbox.cif.g08.bks.cpg/sg17_5_cif.got.tgz:9817.got - 2010.06.03 22:34:06.
