data_PCOD9310243
_publ_section_title
;
Structure prediction by ZEFSAII (Michael W. Deem and Ramdas Pophale) SiO2 
 PCOD9310243
Probable space group: P 2 2 2
;
_chemical_formula_sum "Si O2"
_cell_formula_units_Z 17
_cell_length_a 17.004941
_cell_length_b 5.163763
_cell_length_c 9.508017
_cell_angle_alpha 90.000000
_cell_angle_beta 90.000000
_cell_angle_gamma 90.000000
_cell_volume 834.894078
_symmetry_space_group_name_H-M "P 2 2 2"
_symmetry_group_IT_number 16
_symmetry_cell_setting 'orthorhombic'
loop_
_space_group_symop_operation_xyz
x,y,z
-x,-y,z
x,-y,-z
-x,y,-z
loop_
_atom_site_type_symbol
_atom_site_label
_atom_site_fract_x
_atom_site_fract_y
_atom_site_fract_z
Si Si1 0.760863 0.494206 0.670322
Si Si2 0.500000 0.000000 0.188644
Si Si3 0.000000 0.000000 0.000000
Si Si4 0.500000 0.500000 0.000000
Si Si5 0.927308 0.692884 0.750223
Si Si6 0.000000 0.000000 0.500000
Si Si7 0.335998 0.997636 0.331597
O O1 0.770789 0.500000 0.500000
O O2 0.844079 0.554869 0.740353
O O3 0.698957 0.719080 0.709032
O O4 0.725958 0.217856 0.711666
O O5 0.527038 0.268063 0.108705
O O6 0.578487 0.933958 0.273429
O O7 0.057244 0.847932 0.106625
O O8 0.000000 0.500000 0.746437
O O9 0.941606 0.855247 0.607617
O O10 0.340854 0.000000 0.500000
#
# Coordination Sequence:
#
# PCOD9310243 Si02
#       7
#     4   2   1   1   4   1   4
#     4  10  22  37  63  99 133 160 213 271 331 392
#     4  11  21  44  66  92 131 175 218 268 320 391
#     4  10  26  42  64  88 132 180 226 270 334 394
#     4  10  24  38  70  86 124 174 226 264 292 398
#     4  11  23  41  64  90 128 174 218 276 330 403
#     4  10  22  34  68  96 108 176 222 266 338 406
#     4  10  22  39  66 101 129 163 206 276 335 389
#
# _framework density 20.361861999999999
#
# number of rings (size 3 to 8) (size 9 to 14) (size 15 to 20)
#    0.000    1.647    0.000    3.882   11.529    0.000 
#    0.000    9.412    5.176    0.000    0.000    0.000 
#    0.000    0.000    0.000    0.000    0.000    0.000 
#
# Total GULP energy -94683.328572 kJ/mol
# GULP energy per Si atom -5569.607563 kJ/mol
# Density = 2.031552 g / cm^3
# Si number density = 20.361862 Si / 1000 Ang^3
#
#
#
# Elastic Constant Matrix: (Units=GPa)
#
#
# Indices 1 2 3 4 5 6 
#
# 1 134.8124 18.2682 49.2903 0.0000 0.0000 0.0000
# 2 18.2682 100.5483 47.6293 0.0000 0.0000 0.0000
# 3 49.2903 47.6293 89.5948 0.0000 0.0000 0.0000
# 4 0.0000 0.0000 0.0000 -55.3675 0.0000 0.0000
# 5 0.0000 0.0000 0.0000 0.0000 48.8748 0.0000
# 6 0.0000 0.0000 0.0000 0.0000 0.0000 29.8253
#
#
#
# Elastic Compliance Matrix: (Units=1/GPa)
#
#
# Indices 1 2 3 4 5 6 
#
# 1 0.009358 0.000987 -0.005673 0.000000 0.000000 0.000000
# 2 0.000987 0.013397 -0.007665 0.000000 0.000000 0.000000
# 3 -0.005673 -0.007665 0.018357 0.000000 0.000000 0.000000
# 4 0.000000 0.000000 0.000000 -0.018061 0.000000 0.000000
# 5 0.000000 0.000000 0.000000 0.000000 0.020460 0.000000
# 6 0.000000 0.000000 0.000000 0.000000 0.000000 0.033529
#
#
# Mechanical properties :
#
#
# Convention : Reuss Voigt Hill
#
# Bulk Modulus (GPa) = 60.93728 61.70344 61.32036
# Shear Modulus (GPa) = 46.63640 18.65103 32.64371
#
# Velocity S-wave (km/s) = 4.79098 3.02980 4.00832
# Velocity P-wave (km/s) = 7.78440 6.52754 7.18351
#
# Compressibility (1/GPa) = 0.01641032
#
# Stress axis : x y z
#
# Youngs Moduli (GPa) = 106.85849 74.64352 54.47459
#
# Poissons Ratio (x) = -0.07368 0.30904
# Poissons Ratio (y) = -0.10548 0.41755
# Poissons Ratio (z) = 0.60622 0.57214
#
# Static dielectric constant tensor:
#      x y z
#    x 1.676150 0.000000 0.000000 
#    y 0.000000 1.768080 0.000000 
#    z 0.000000 0.000000 1.708030 
# 
# From -- ./inp_files/5354.got.cif
#   From: 2010.05.17/outbox.cif.g08.bks.cpg/sg16_3_cif.got.tgz:5354.got - 2010.06.03 22:28:35.
