data_PCOD9310246
_publ_section_title
;
Structure prediction by ZEFSAII (Michael W. Deem and Ramdas Pophale) SiO2 
 PCOD9310246
Probable space group: P 2 2 2
;
_chemical_formula_sum "Si O2"
_cell_formula_units_Z 23
_cell_length_a 14.727480
_cell_length_b 9.116068
_cell_length_c 8.942997
_cell_angle_alpha 90.000000
_cell_angle_beta 90.000000
_cell_angle_gamma 90.000000
_cell_volume 1200.657347
_symmetry_space_group_name_H-M "P 2 2 2"
_symmetry_group_IT_number 16
_symmetry_cell_setting 'orthorhombic'
loop_
_space_group_symop_operation_xyz
x,y,z
-x,-y,z
x,-y,-z
-x,y,-z
loop_
_atom_site_type_symbol
_atom_site_label
_atom_site_fract_x
_atom_site_fract_y
_atom_site_fract_z
Si Si1 0.500000 0.000000 0.500000
Si Si2 0.731886 0.167014 0.800744
Si Si3 0.000000 0.000000 0.749401
Si Si4 0.000000 0.759955 0.500000
Si Si5 0.392210 0.332504 0.989103
Si Si6 0.658065 0.853049 0.693554
Si Si7 0.856018 0.000000 0.000000
Si Si8 0.796996 0.669098 0.489588
O O1 0.567642 0.898780 0.600125
O O2 0.796269 0.134323 0.942154
O O3 0.779424 0.263501 0.674546
O O4 0.703281 0.007914 0.739544
O O5 0.645154 0.247037 0.867438
O O6 0.917780 0.960844 0.858743
O O7 0.980567 0.135267 0.641409
O O8 0.904490 0.679209 0.527714
O O9 0.365552 0.245027 0.838474
O O10 0.357330 0.500000 0.000000
O O11 0.500000 0.336320 0.000000
O O12 0.732308 0.765943 0.595912
O O13 0.769078 0.500000 0.500000
#
# Coordination Sequence:
#
# PCOD9310246 Si02
#       8
#     1   4   2   2   4   4   2   4
#     4  12  24  40  72 102 136 168 244 280 332 406
#     4  12  22  43  68  97 128 172 225 278 332 397
#     4  10  22  36  66  98 130 160 226 280 332 392
#     4  11  23  40  68  94 130 186 222 284 336 410
#     4  11  25  43  65  96 136 176 217 271 346 409
#     4  12  24  43  69  98 131 177 225 282 330 406
#     4  11  20  38  63 100 124 164 217 280 332 381
#     4  12  26  44  65  98 139 179 227 281 346 403
#
# _framework density 19.156172999999999
#
# number of rings (size 3 to 8) (size 9 to 14) (size 15 to 20)
#    0.000    0.522    5.217    3.391    2.435    0.696 
#    0.000    0.000    0.000    0.000    0.000    0.000 
#    0.000    0.000    0.000    0.000    0.000    0.000 
#
# Total GULP energy -128473.782159 kJ/mol
# GULP energy per Si atom -5585.816616 kJ/mol
# Density = 1.911257 g / cm^3
# Si number density = 19.156173 Si / 1000 Ang^3
#
#
#
# Elastic Constant Matrix: (Units=GPa)
#
#
# Indices 1 2 3 4 5 6 
#
# 1 113.7433 48.5975 44.0282 0.0000 0.0000 0.0000
# 2 48.5975 151.0756 57.1772 0.0000 0.0000 0.0000
# 3 44.0282 57.1772 106.1368 0.0000 0.0000 0.0000
# 4 0.0000 0.0000 0.0000 21.4763 0.0000 0.0000
# 5 0.0000 0.0000 0.0000 0.0000 35.9981 0.0000
# 6 0.0000 0.0000 0.0000 0.0000 0.0000 8.6708
#
#
#
# Elastic Compliance Matrix: (Units=1/GPa)
#
#
# Indices 1 2 3 4 5 6 
#
# 1 0.011070 -0.002290 -0.003359 0.000000 0.000000 0.000000
# 2 -0.002290 0.008788 -0.003784 0.000000 0.000000 0.000000
# 3 -0.003359 -0.003784 0.012854 0.000000 0.000000 0.000000
# 4 0.000000 0.000000 0.000000 0.046563 0.000000 0.000000
# 5 0.000000 0.000000 0.000000 0.000000 0.027779 0.000000
# 6 0.000000 0.000000 0.000000 0.000000 0.000000 0.115330
#
#
# Mechanical properties :
#
#
# Convention : Reuss Voigt Hill
#
# Bulk Modulus (GPa) = 72.22155 74.50686 73.36421
# Shear Modulus (GPa) = 20.33635 27.97255 24.15445
#
# Velocity S-wave (km/s) = 3.26177 3.82545 3.55480
# Velocity P-wave (km/s) = 7.20894 7.64794 7.43168
#
# Compressibility (1/GPa) = 0.01384628
#
# Stress axis : x y z
#
# Youngs Moduli (GPa) = 90.33298 113.79084 77.79863
#
# Poissons Ratio (x) = 0.26057 0.26129
# Poissons Ratio (y) = 0.20685 0.29442
# Poissons Ratio (z) = 0.30339 0.43062
#
# Static dielectric constant tensor:
#      x y z
#    x 1.714490 0.000000 0.000000 
#    y 0.000000 1.646580 0.000000 
#    z 0.000000 0.000000 1.666230 
# 
# From -- ./inp_files/5151.got.cif
#   From: 2010.05.17/outbox.cif.g08.bks.cpg/sg16_3_cif.got.tgz:5151.got - 2010.06.03 22:28:35.
