data_PCOD9310680
_publ_section_title
;
Structure prediction by ZEFSAII (Michael W. Deem and Ramdas Pophale) SiO2 
 PCOD9310680
Probable space group: P 2 2 21
;
_chemical_formula_sum "Si O2"
_cell_formula_units_Z 24
_cell_length_a 8.412951
_cell_length_b 11.618136
_cell_length_c 10.894188
_cell_angle_alpha 90.000000
_cell_angle_beta 90.000000
_cell_angle_gamma 90.000000
_cell_volume 1064.828536
_symmetry_space_group_name_H-M "P 2 2 21"
_symmetry_group_IT_number 17
_symmetry_cell_setting 'orthorhombic'
loop_
_space_group_symop_operation_xyz
x,y,z
-x,-y,1/2+z
x,-y,-z
-x,y,1/2-z
loop_
_atom_site_type_symbol
_atom_site_label
_atom_site_fract_x
_atom_site_fract_y
_atom_site_fract_z
Si Si1 0.180983 0.473569 0.203705
Si Si2 0.046583 0.918762 0.884855
Si Si3 0.144538 0.223892 0.566197
Si Si4 0.696979 0.734852 0.573684
Si Si5 0.207899 0.258449 0.821952
Si Si6 0.379242 0.386172 0.430680
O O1 0.207682 0.386863 0.090001
O O2 0.232505 0.605546 0.194446
O O3 0.291695 0.420958 0.307804
O O4 0.000000 0.470285 0.250000
O O5 0.188804 0.827494 0.861524
O O6 0.000000 0.967529 0.750000
O O7 0.894451 0.856466 0.949898
O O8 0.096406 0.000000 0.000000
O O9 0.228124 0.190295 0.695018
O O10 0.245331 0.330151 0.517010
O O11 0.969456 0.250632 0.620132
O O12 0.683752 0.778367 0.433672
O O13 0.517242 0.702809 0.603220
O O14 0.444035 0.500000 0.500000
#
# Coordination Sequence:
#
# PCOD9310680 Si02
#       6
#     4   4   4   4   4   4
#     4  12  20  35  59  91 130 187 228 272 326 417
#     4  11  26  48  77 101 127 177 247 313 365 405
#     4  10  21  39  64  95 130 177 234 286 334 412
#     4  11  25  37  59  92 137 174 223 284 354 419
#     4  10  19  37  59  91 134 180 230 273 331 410
#     4  12  22  37  59  97 146 189 220 271 352 441
#
# _framework density 22.538838999999999
#
# number of rings (size 3 to 8) (size 9 to 14) (size 15 to 20)
#    0.000    1.000    3.333    5.500    4.667    0.667 
#    0.000    0.833    0.000    0.000    0.000    0.000 
#    0.000    0.000    0.000    0.000    0.000    0.000 
#
# Total GULP energy -133819.957271 kJ/mol
# GULP energy per Si atom -5575.831553 kJ/mol
# Density = 2.248754 g / cm^3
# Si number density = 22.538839 Si / 1000 Ang^3
#
#
#
# Elastic Constant Matrix: (Units=GPa)
#
#
# Indices 1 2 3 4 5 6 
#
# 1 55.8333 16.7701 12.3869 0.0000 0.0000 0.0000
# 2 16.7701 71.6304 15.9472 0.0000 0.0000 0.0000
# 3 12.3869 15.9472 149.9094 0.0000 0.0000 0.0000
# 4 0.0000 0.0000 0.0000 32.3310 0.0000 0.0000
# 5 0.0000 0.0000 0.0000 0.0000 11.0391 0.0000
# 6 0.0000 0.0000 0.0000 0.0000 0.0000 -17.2355
#
#
#
# Elastic Compliance Matrix: (Units=1/GPa)
#
#
# Indices 1 2 3 4 5 6 
#
# 1 0.019457 -0.004299 -0.001150 0.000000 0.000000 0.000000
# 2 -0.004299 0.015249 -0.001267 0.000000 0.000000 0.000000
# 3 -0.001150 -0.001267 0.006901 0.000000 0.000000 0.000000
# 4 0.000000 0.000000 0.000000 0.030930 0.000000 0.000000
# 5 0.000000 0.000000 0.000000 0.000000 0.090587 0.000000
# 6 0.000000 0.000000 0.000000 0.000000 0.000000 -0.058020
#
#
# Mechanical properties :
#
#
# Convention : Reuss Voigt Hill
#
# Bulk Modulus (GPa) = 35.49412 40.84238 38.16825
# Shear Modulus (GPa) = 39.08459 20.71154 29.89807
#
# Velocity S-wave (km/s) = 4.16877 3.03467 3.64608
# Velocity P-wave (km/s) = 6.24129 5.51717 5.89037
#
# Compressibility (1/GPa) = 0.02817368
#
# Stress axis : x y z
#
# Youngs Moduli (GPa) = 51.39543 65.57753 144.91647
#
# Poissons Ratio (x) = 0.28193 0.16671
# Poissons Ratio (y) = 0.22096 0.18360
# Poissons Ratio (z) = 0.05912 0.08308
#
# Static dielectric constant tensor:
#      x y z
#    x 1.851610 0.000000 0.000000 
#    y 0.000000 1.907670 0.000000 
#    z 0.000000 0.000000 2.011800 
# 
# From -- ./inp_files/6545.got.cif
#   From: 2010.05.17/outbox.cif.g08.bks.cpg/sg17_4_cif.got.tgz:6545.got - 2010.06.03 22:34:06.
