data_PCOD9310153
_publ_section_title
;
Structure prediction by ZEFSAII (Michael W. Deem and Ramdas Pophale) SiO2 
 PCOD9310153
Probable space group: P 2 2 2
;
_chemical_formula_sum "Si O2"
_cell_formula_units_Z 24
_cell_length_a 8.467976
_cell_length_b 10.723497
_cell_length_c 10.966472
_cell_angle_alpha 90.000000
_cell_angle_beta 90.000000
_cell_angle_gamma 90.000000
_cell_volume 995.824913
_symmetry_space_group_name_H-M "P 2 2 2"
_symmetry_group_IT_number 16
_symmetry_cell_setting 'orthorhombic'
loop_
_space_group_symop_operation_xyz
x,y,z
-x,-y,z
x,-y,-z
-x,y,-z
loop_
_atom_site_type_symbol
_atom_site_label
_atom_site_fract_x
_atom_site_fract_y
_atom_site_fract_z
Si Si1 0.000000 0.000000 0.000000
Si Si2 0.542500 0.666396 0.138229
Si Si3 0.000000 0.500000 0.500000
Si Si4 0.312808 0.178181 0.725142
Si Si5 0.962328 0.193716 0.641586
Si Si6 0.258948 0.081116 0.183053
Si Si7 0.500000 0.725677 0.500000
Si Si8 0.747056 0.568491 0.338332
O O1 0.118421 0.076930 0.084972
O O2 0.380951 0.701589 0.206728
O O3 0.636242 0.799013 0.152378
O O4 0.653921 0.568118 0.210000
O O5 0.500000 0.638879 0.000000
O O6 0.143734 0.538380 0.401650
O O7 0.402430 0.188833 0.594946
O O8 0.125906 0.181836 0.710683
O O9 0.341569 0.052594 0.803247
O O10 0.829485 0.098688 0.687351
O O11 0.879929 0.324740 0.667856
O O12 0.000000 0.182958 0.500000
O O13 0.615299 0.632988 0.425639
#
# Coordination Sequence:
#
# PCOD9310153 Si02
#       8
#     1   4   1   4   4   4   2   4
#     4  12  20  36  52  76 112 158 242 258 296 344
#     4  10  23  41  57  85 130 174 220 257 317 383
#     4  12  20  42  72 108 136 138 212 278 348 438
#     4  11  20  36  55  83 121 175 215 270 305 359
#     4  11  20  39  53  82 126 163 214 262 329 378
#     4  11  23  34  53  81 116 177 229 268 307 343
#     4  10  20  39  59  90 134 164 214 247 337 396
#     4  10  22  38  66  98 125 165 199 268 344 403
#
# _framework density 24.100622999999999
#
# number of rings (size 3 to 8) (size 9 to 14) (size 15 to 20)
#    0.000    1.333    4.167    1.500    0.000    2.333 
#    3.000    0.000    0.000    0.000    0.000   33.833 
#    0.000    0.000    0.000    0.000    0.000    0.000 
#
# Total GULP energy -133915.608976 kJ/mol
# GULP energy per Si atom -5579.817041 kJ/mol
# Density = 2.404577 g / cm^3
# Si number density = 24.100623 Si / 1000 Ang^3
#
#
#
# Elastic Constant Matrix: (Units=GPa)
#
#
# Indices 1 2 3 4 5 6 
#
# 1 144.8057 41.0902 44.4400 0.0000 0.0000 0.0000
# 2 41.0902 117.6519 17.9991 0.0000 0.0000 0.0000
# 3 44.4400 17.9991 140.5643 0.0000 0.0000 0.0000
# 4 0.0000 0.0000 0.0000 1.7606 0.0000 0.0000
# 5 0.0000 0.0000 0.0000 0.0000 123.9788 0.0000
# 6 0.0000 0.0000 0.0000 0.0000 0.0000 33.1370
#
#
#
# Elastic Compliance Matrix: (Units=1/GPa)
#
#
# Indices 1 2 3 4 5 6 
#
# 1 0.008341 -0.002560 -0.002309 0.000000 0.000000 0.000000
# 2 -0.002560 0.009455 -0.000401 0.000000 0.000000 0.000000
# 3 -0.002309 -0.000401 0.007896 0.000000 0.000000 0.000000
# 4 0.000000 0.000000 0.000000 0.567992 0.000000 0.000000
# 5 0.000000 0.000000 0.000000 0.000000 0.008066 0.000000
# 6 0.000000 0.000000 0.000000 0.000000 0.000000 0.030178
#
#
# Mechanical properties :
#
#
# Convention : Reuss Voigt Hill
#
# Bulk Modulus (GPa) = 66.00345 67.78673 66.89509
# Shear Modulus (GPa) = 7.72178 51.74144 29.73161
#
# Velocity S-wave (km/s) = 1.79191 4.63848 3.51614
# Velocity P-wave (km/s) = 5.63270 7.54155 6.65591
#
# Compressibility (1/GPa) = 0.01515072
#
# Stress axis : x y z
#
# Youngs Moduli (GPa) = 119.89179 105.76332 126.65192
#
# Poissons Ratio (x) = 0.27073 0.29247
# Poissons Ratio (y) = 0.30690 0.05084
# Poissons Ratio (z) = 0.27686 0.04246
#
# Static dielectric constant tensor:
#      x y z
#    x 1.919490 0.000000 0.000000 
#    y 0.000000 1.902610 0.000000 
#    z 0.000000 0.000000 2.033210 
# 
# From -- ./inp_files/6562.got.cif
#   From: 2010.05.17/outbox.cif.g08.bks.cpg/sg16_4_cif.got.tgz:6562.got - 2010.06.03 22:28:35.
