data_PCOD9310295
_publ_section_title
;
Structure prediction by ZEFSAII (Michael W. Deem and Ramdas Pophale) SiO2 
 PCOD9310295
Probable space group: P 2 2 2
;
_chemical_formula_sum "Si O2"
_cell_formula_units_Z 19
_cell_length_a 9.349010
_cell_length_b 11.757164
_cell_length_c 9.101765
_cell_angle_alpha 90.000000
_cell_angle_beta 90.000000
_cell_angle_gamma 90.000000
_cell_volume 1000.446384
_symmetry_space_group_name_H-M "P 2 2 2"
_symmetry_group_IT_number 16
_symmetry_cell_setting 'orthorhombic'
loop_
_space_group_symop_operation_xyz
x,y,z
-x,-y,z
x,-y,-z
-x,y,-z
loop_
_atom_site_type_symbol
_atom_site_label
_atom_site_fract_x
_atom_site_fract_y
_atom_site_fract_z
Si Si1 0.369645 0.182759 0.288534
Si Si2 0.500000 0.500000 0.000000
Si Si3 0.350025 0.701343 0.177417
Si Si4 0.274205 0.622227 0.500517
Si Si5 0.500000 0.000000 0.500000
Si Si6 0.000000 0.500000 0.500000
Si Si7 0.169885 0.867965 0.974339
O O1 0.510260 0.218701 0.197828
O O2 0.344809 0.289255 0.393478
O O3 0.233952 0.161646 0.185354
O O4 0.404785 0.077404 0.393382
O O5 0.402811 0.585288 0.098127
O O6 0.280172 0.670208 0.335079
O O7 0.242198 0.776489 0.082122
O O8 0.348236 0.500000 0.500000
O O9 0.116912 0.587741 0.564652
O O10 0.000000 0.861291 0.000000
O O11 0.212626 0.000000 0.000000
#
# Coordination Sequence:
#
# PCOD9310295 Si02
#       7
#     4   1   4   4   1   1   4
#     4  12  23  44  70 100 132 175 225 284 336 398
#     4  12  24  40  66 108 124 180 216 270 340 404
#     4  12  23  43  69  97 136 172 221 280 336 395
#     4  10  23  41  66  98 133 174 220 270 334 402
#     4  12  24  40  72 106 132 176 234 284 348 380
#     4   8  24  40  62  96 140 176 202 270 338 392
#     4  11  27  46  67  94 135 179 226 271 337 408
#
# _framework density 18.991523000000001
#
# number of rings (size 3 to 8) (size 9 to 14) (size 15 to 20)
#    0.632    0.211    4.211    2.526    2.947    1.684 
#    0.000    0.000    0.000    0.000    0.000    0.000 
#    0.000    0.000    0.000    0.000    0.000    0.000 
#
# Total GULP energy -105900.391929 kJ/mol
# GULP energy per Si atom -5573.704838 kJ/mol
# Density = 1.894830 g / cm^3
# Si number density = 18.991523 Si / 1000 Ang^3
#
#
#
# Elastic Constant Matrix: (Units=GPa)
#
#
# Indices 1 2 3 4 5 6 
#
# 1 98.0219 46.9431 38.7067 0.0000 0.0000 0.0000
# 2 46.9431 139.7560 61.1770 0.0000 0.0000 0.0000
# 3 38.7067 61.1770 118.8056 0.0000 0.0000 0.0000
# 4 0.0000 0.0000 0.0000 37.8065 0.0000 0.0000
# 5 0.0000 0.0000 0.0000 0.0000 23.4675 0.0000
# 6 0.0000 0.0000 0.0000 0.0000 0.0000 40.6323
#
#
#
# Elastic Compliance Matrix: (Units=1/GPa)
#
#
# Indices 1 2 3 4 5 6 
#
# 1 0.012711 -0.003172 -0.002508 0.000000 0.000000 0.000000
# 2 -0.003172 0.010029 -0.004131 0.000000 0.000000 0.000000
# 3 -0.002508 -0.004131 0.011361 0.000000 0.000000 0.000000
# 4 0.000000 0.000000 0.000000 0.026450 0.000000 0.000000
# 5 0.000000 0.000000 0.000000 0.000000 0.042612 0.000000
# 6 0.000000 0.000000 0.000000 0.000000 0.000000 0.024611
#
#
# Mechanical properties :
#
#
# Convention : Reuss Voigt Hill
#
# Bulk Modulus (GPa) = 69.06019 72.24858 70.65439
# Shear Modulus (GPa) = 32.84654 34.36505 33.60580
#
# Velocity S-wave (km/s) = 4.16328 4.25843 4.21112
# Velocity P-wave (km/s) = 7.71707 7.89329 7.80568
#
# Compressibility (1/GPa) = 0.01448012
#
# Stress axis : x y z
#
# Youngs Moduli (GPa) = 78.67133 99.71130 88.01755
#
# Poissons Ratio (x) = 0.31626 0.22075
# Poissons Ratio (y) = 0.24952 0.36359
# Poissons Ratio (z) = 0.19731 0.41190
#
# Static dielectric constant tensor:
#      x y z
#    x 1.832060 0.000000 0.000000 
#    y 0.000000 1.635180 0.000000 
#    z 0.000000 0.000000 1.670190 
# 
# From -- ./inp_files/3886.got.cif
#   From: 2010.05.17/outbox.cif.g08.bks.cpg/sg16_2_cif.got.tgz:3886.got - 2010.06.03 22:28:35.
