data_PCOD9310557
_publ_section_title
;
Structure prediction by ZEFSAII (Michael W. Deem and Ramdas Pophale) SiO2 
 PCOD9310557
Probable space group: P 2 2 21
;
_chemical_formula_sum "Si O2"
_cell_formula_units_Z 24
_cell_length_a 7.482715
_cell_length_b 15.593570
_cell_length_c 9.862566
_cell_angle_alpha 90.000000
_cell_angle_beta 90.000000
_cell_angle_gamma 90.000000
_cell_volume 1150.786294
_symmetry_space_group_name_H-M "P 2 2 21"
_symmetry_group_IT_number 17
_symmetry_cell_setting 'orthorhombic'
loop_
_space_group_symop_operation_xyz
x,y,z
-x,-y,1/2+z
x,-y,-z
-x,y,1/2-z
loop_
_atom_site_type_symbol
_atom_site_label
_atom_site_fract_x
_atom_site_fract_y
_atom_site_fract_z
Si Si1 0.684315 0.000000 0.000000
Si Si2 0.000000 0.710541 0.750000
Si Si3 0.200980 0.180369 0.424095
Si Si4 0.213671 0.769934 0.272631
Si Si5 0.718765 0.401028 0.366712
Si Si6 0.500000 0.093861 0.750000
Si Si7 0.813768 0.414788 0.669137
Si Si8 0.500000 0.267055 0.250000
O O1 0.566421 0.037488 0.876670
O O2 0.801331 0.921075 0.944459
O O3 0.019091 0.774039 0.623539
O O4 0.163637 0.646085 0.754173
O O5 0.250344 0.220333 0.568064
O O6 0.346471 0.206129 0.310502
O O7 0.336615 0.843269 0.206826
O O8 0.260173 0.674310 0.225399
O O9 0.000000 0.782356 0.250000
O O10 0.829514 0.401024 0.506815
O O11 0.694081 0.499348 0.324576
O O12 0.555362 0.334727 0.369131
O O13 0.000000 0.430596 0.750000
#
# Coordination Sequence:
#
# PCOD9310557 Si02
#       8
#     2   2   4   4   4   2   4   2
#     4  10  22  44  62  98 122 168 214 268 336 390
#     4  10  18  38  62  90 118 170 198 256 314 374
#     4  10  22  42  66  89 129 161 214 266 325 391
#     4  10  22  41  64  98 126 170 215 265 325 386
#     4  10  21  36  61  89 127 165 211 250 310 382
#     4  10  23  43  68  90 136 168 214 275 337 392
#     4  10  20  37  60  91 125 162 210 262 304 369
#     4  10  23  41  60  94 126 170 208 257 321 394
#
# _framework density 20.855305999999999
#
# number of rings (size 3 to 8) (size 9 to 14) (size 15 to 20)
#    0.000    2.000    0.833    2.500    4.667    0.667 
#   12.000    0.833    0.000    0.000    0.000    0.000 
#    0.000    0.000    0.000    0.000    0.000    0.000 
#
# Total GULP energy -133671.177367 kJ/mol
# GULP energy per Si atom -5569.632390 kJ/mol
# Density = 2.080784 g / cm^3
# Si number density = 20.855306 Si / 1000 Ang^3
#
#
#
# Elastic Constant Matrix: (Units=GPa)
#
#
# Indices 1 2 3 4 5 6 
#
# 1 48.9556 22.4577 0.4527 0.0000 0.0000 0.0000
# 2 22.4577 173.4335 33.6961 0.0000 0.0000 0.0000
# 3 0.4527 33.6961 56.1796 0.0000 0.0000 0.0000
# 4 0.0000 0.0000 0.0000 33.8815 0.0000 0.0000
# 5 0.0000 0.0000 0.0000 0.0000 30.3375 0.0000
# 6 0.0000 0.0000 0.0000 0.0000 0.0000 23.4598
#
#
#
# Elastic Compliance Matrix: (Units=1/GPa)
#
#
# Indices 1 2 3 4 5 6 
#
# 1 0.021863 -0.003166 0.001723 0.000000 0.000000 0.000000
# 2 -0.003166 0.006985 -0.004164 0.000000 0.000000 0.000000
# 3 0.001723 -0.004164 0.020284 0.000000 0.000000 0.000000
# 4 0.000000 0.000000 0.000000 0.029515 0.000000 0.000000
# 5 0.000000 0.000000 0.000000 0.000000 0.032962 0.000000
# 6 0.000000 0.000000 0.000000 0.000000 0.000000 0.042626
#
#
# Mechanical properties :
#
#
# Convention : Reuss Voigt Hill
#
# Bulk Modulus (GPa) = 26.37311 43.53129 34.95220
# Shear Modulus (GPa) = 28.07603 32.33326 30.20464
#
# Velocity S-wave (km/s) = 3.67308 3.94173 3.80978
# Velocity P-wave (km/s) = 5.53732 6.45249 6.01234
#
# Compressibility (1/GPa) = 0.03791741
#
# Stress axis : x y z
#
# Youngs Moduli (GPa) = 45.73944 143.16756 49.30073
#
# Poissons Ratio (x) = 0.45322 -0.08493
# Poissons Ratio (y) = 0.14480 0.20528
# Poissons Ratio (z) = -0.07879 0.59614
#
# Static dielectric constant tensor:
#      x y z
#    x 1.901530 0.000000 0.000000 
#    y 0.000000 1.741950 0.000000 
#    z 0.000000 0.000000 1.772880 
# 
# From -- ./inp_files/4310.got.cif
#   From: 2010.05.17/outbox.cif.g08.bks.cpg/sg17_3_cif.got.tgz:4310.got - 2010.06.03 22:34:06.
