data_PCOD9310704
_publ_section_title
;
Structure prediction by ZEFSAII (Michael W. Deem and Ramdas Pophale) SiO2 
 PCOD9310704
Probable space group: P 2 2 21
;
_chemical_formula_sum "Si O2"
_cell_formula_units_Z 22
_cell_length_a 8.404892
_cell_length_b 6.997681
_cell_length_c 16.283535
_cell_angle_alpha 90.000000
_cell_angle_beta 90.000000
_cell_angle_gamma 90.000000
_cell_volume 957.712090
_symmetry_space_group_name_H-M "P 2 2 21"
_symmetry_group_IT_number 17
_symmetry_cell_setting 'orthorhombic'
loop_
_space_group_symop_operation_xyz
x,y,z
-x,-y,1/2+z
x,-y,-z
-x,y,1/2-z
loop_
_atom_site_type_symbol
_atom_site_label
_atom_site_fract_x
_atom_site_fract_y
_atom_site_fract_z
Si Si1 0.844791 0.947835 0.807561
Si Si2 0.141827 0.236491 0.559508
Si Si3 0.826513 0.494157 0.784163
Si Si4 0.500000 0.915433 0.750000
Si Si5 0.131660 0.500000 0.000000
Si Si6 0.619472 0.500000 0.000000
Si Si7 0.620601 0.580306 0.637601
O O1 0.833208 0.718622 0.805452
O O2 0.668892 0.013169 0.774489
O O3 0.000000 0.996877 0.750000
O O4 0.869458 0.029607 0.899553
O O5 0.191868 0.364948 0.637631
O O6 0.274051 0.308482 0.495423
O O7 0.976605 0.326599 0.531418
O O8 0.689481 0.471227 0.716545
O O9 0.000000 0.445551 0.750000
O O10 0.551685 0.777531 0.673886
O O11 0.232010 0.411303 0.074740
O O12 0.509773 0.485254 0.919956
#
# Coordination Sequence:
#
# PCOD9310704 Si02
#       7
#     4   4   4   2   2   2   4
#     4  10  23  40  67 101 126 165 234 280 318 392
#     4  11  22  41  64  99 131 177 217 274 335 406
#     4  10  19  38  70  89 124 174 229 270 323 383
#     4  10  22  44  70  92 134 176 236 280 328 388
#     4  10  22  38  68  98 140 174 218 264 360 408
#     4  10  22  36  60  96 142 168 212 270 350 406
#     4  10  20  40  65  96 126 179 219 274 331 402
#
# _framework density 22.971412999999998
#
# number of rings (size 3 to 8) (size 9 to 14) (size 15 to 20)
#    0.000    1.818    1.818    2.727    0.000    1.455 
#    3.273    8.182    8.000    0.000    0.000    0.000 
#    0.000    0.000    0.000    0.000    0.000    0.000 
#
# Total GULP energy -122821.130905 kJ/mol
# GULP energy per Si atom -5582.778677 kJ/mol
# Density = 2.291913 g / cm^3
# Si number density = 22.971413 Si / 1000 Ang^3
#
#
#
# Elastic Constant Matrix: (Units=GPa)
#
#
# Indices 1 2 3 4 5 6 
#
# 1 165.9938 18.5173 46.0925 0.0000 0.0000 0.0000
# 2 18.5173 79.7692 16.7593 0.0000 0.0000 0.0000
# 3 46.0925 16.7593 81.2200 0.0000 0.0000 0.0000
# 4 0.0000 0.0000 0.0000 33.0372 0.0000 0.0000
# 5 0.0000 0.0000 0.0000 0.0000 29.5872 0.0000
# 6 0.0000 0.0000 0.0000 0.0000 0.0000 -7.1987
#
#
#
# Elastic Compliance Matrix: (Units=1/GPa)
#
#
# Indices 1 2 3 4 5 6 
#
# 1 0.007206 -0.000850 -0.003914 0.000000 0.000000 0.000000
# 2 -0.000850 0.013205 -0.002242 0.000000 0.000000 0.000000
# 3 -0.003914 -0.002242 0.014996 0.000000 0.000000 0.000000
# 4 0.000000 0.000000 0.000000 0.030269 0.000000 0.000000
# 5 0.000000 0.000000 0.000000 0.000000 0.033798 0.000000
# 6 0.000000 0.000000 0.000000 0.000000 0.000000 -0.138915
#
#
# Mechanical properties :
#
#
# Convention : Reuss Voigt Hill
#
# Bulk Modulus (GPa) = 46.74258 54.41346 50.57802
# Shear Modulus (GPa) = -273.27689 27.45940 -122.90875
#
# Velocity S-wave (km/s) = -10.91889 3.46117 -7.32265
# Velocity P-wave (km/s) = 11.77160 6.30173 7.03060
#
# Compressibility (1/GPa) = 0.02139377
#
# Stress axis : x y z
#
# Youngs Moduli (GPa) = 138.77322 75.73091 66.68430
#
# Poissons Ratio (x) = 0.06441 0.26100
# Poissons Ratio (y) = 0.11802 0.14951
# Poissons Ratio (z) = 0.54315 0.16979
#
# Static dielectric constant tensor:
#      x y z
#    x 1.929090 0.000000 0.000000 
#    y 0.000000 1.876970 0.000000 
#    z 0.000000 0.000000 1.903200 
# 
# From -- ./inp_files/8044.got.cif
#   From: 2010.05.17/outbox.cif.g08.bks.cpg/sg17_5_cif.got.tgz:8044.got - 2010.06.03 22:34:06.
