data_PCOD9310556
_publ_section_title
;
Structure prediction by ZEFSAII (Michael W. Deem and Ramdas Pophale) SiO2 
 PCOD9310556
Probable space group: P 2 2 21
;
_chemical_formula_sum "Si O2"
_cell_formula_units_Z 18
_cell_length_a 11.788584
_cell_length_b 13.815175
_cell_length_c 5.720213
_cell_angle_alpha 90.000000
_cell_angle_beta 90.000000
_cell_angle_gamma 90.000000
_cell_volume 931.601617
_symmetry_space_group_name_H-M "P 2 2 21"
_symmetry_group_IT_number 17
_symmetry_cell_setting 'orthorhombic'
loop_
_space_group_symop_operation_xyz
x,y,z
-x,-y,1/2+z
x,-y,-z
-x,y,1/2-z
loop_
_atom_site_type_symbol
_atom_site_label
_atom_site_fract_x
_atom_site_fract_y
_atom_site_fract_z
Si Si1 0.713817 0.000000 0.000000
Si Si2 0.370761 0.812822 0.722066
Si Si3 0.000000 0.164418 0.250000
Si Si4 0.186621 0.132269 0.898290
Si Si5 0.931697 0.500000 0.000000
Si Si6 0.822157 0.707125 0.030822
O O1 0.635954 0.088734 0.074165
O O2 0.789291 0.950872 0.205540
O O3 0.500000 0.783545 0.750000
O O4 0.298778 0.731678 0.585154
O O5 0.299392 0.847011 0.949227
O O6 0.089533 0.233281 0.375005
O O7 0.922963 0.110976 0.441951
O O8 0.167423 0.236123 0.774699
O O9 0.856847 0.596322 0.033224
O O10 0.000000 0.510198 0.750000
#
# Coordination Sequence:
#
# PCOD9310556 Si02
#       6
#     2   4   2   4   2   4
#     4  10  22  36  62  94 122 168 228 270 316 386
#     4  10  23  40  66  90 127 171 219 274 327 385
#     4  10  18  38  62  86 130 172 200 262 328 388
#     4  10  21  38  64  89 130 167 216 268 327 389
#     4  12  24  40  74 108 132 176 224 276 328 408
#     4  10  22  39  65  95 132 166 211 266 328 389
#
# _framework density 19.321565
#
# number of rings (size 3 to 8) (size 9 to 14) (size 15 to 20)
#    0.000    1.778    1.111    2.667    6.222    2.667 
#    0.000    0.000  180.889    0.000    0.000    0.000 
#    0.000    0.000    0.000    0.000    0.000    0.000 
#
# Total GULP energy -100421.309088 kJ/mol
# GULP energy per Si atom -5578.961616 kJ/mol
# Density = 1.927759 g / cm^3
# Si number density = 19.321565 Si / 1000 Ang^3
#
#
#
# Elastic Constant Matrix: (Units=GPa)
#
#
# Indices 1 2 3 4 5 6 
#
# 1 150.6265 44.3631 52.2555 0.0000 0.0000 0.0000
# 2 44.3631 126.9128 27.1189 0.0000 0.0000 0.0000
# 3 52.2555 27.1189 91.0588 0.0000 0.0000 0.0000
# 4 0.0000 0.0000 0.0000 16.3809 0.0000 0.0000
# 5 0.0000 0.0000 0.0000 0.0000 10.5778 0.0000
# 6 0.0000 0.0000 0.0000 0.0000 0.0000 20.1963
#
#
#
# Elastic Compliance Matrix: (Units=1/GPa)
#
#
# Indices 1 2 3 4 5 6 
#
# 1 0.008798 -0.002132 -0.004414 0.000000 0.000000 0.000000
# 2 -0.002132 0.008932 -0.001436 0.000000 0.000000 0.000000
# 3 -0.004414 -0.001436 0.013943 0.000000 0.000000 0.000000
# 4 0.000000 0.000000 0.000000 0.061047 0.000000 0.000000
# 5 0.000000 0.000000 0.000000 0.000000 0.094537 0.000000
# 6 0.000000 0.000000 0.000000 0.000000 0.000000 0.049514
#
#
# Mechanical properties :
#
#
# Convention : Reuss Voigt Hill
#
# Bulk Modulus (GPa) = 63.66428 68.45259 66.05843
# Shear Modulus (GPa) = 19.38196 25.75503 22.56850
#
# Velocity S-wave (km/s) = 3.17065 3.65494 3.42138
# Velocity P-wave (km/s) = 6.81362 7.30181 7.06194
#
# Compressibility (1/GPa) = 0.01570739
#
# Stress axis : x y z
#
# Youngs Moduli (GPa) = 113.65887 111.96065 71.72194
#
# Poissons Ratio (x) = 0.23873 0.31658
# Poissons Ratio (y) = 0.24235 0.10302
# Poissons Ratio (z) = 0.50169 0.16082
#
# Static dielectric constant tensor:
#      x y z
#    x 1.685760 0.000000 0.000000 
#    y 0.000000 1.648380 0.000000 
#    z 0.000000 0.000000 1.785300 
# 
# From -- ./inp_files/1435.got.cif
#   From: 2010.05.17/outbox.cif.g08.bks.cpg/sg17_1_cif.got.tgz:1435.got - 2010.06.03 22:34:06.
