data_PCOD9310859
_publ_section_title
;
Structure prediction by ZEFSAII (Michael W. Deem and Ramdas Pophale) SiO2 
 PCOD9310859
Probable space group: P 2 2 21
;
_chemical_formula_sum "Si O2"
_cell_formula_units_Z 32
_cell_length_a 12.176838
_cell_length_b 13.665753
_cell_length_c 8.078079
_cell_angle_alpha 90.000000
_cell_angle_beta 90.000000
_cell_angle_gamma 90.000000
_cell_volume 1344.238071
_symmetry_space_group_name_H-M "P 2 2 21"
_symmetry_group_IT_number 17
_symmetry_cell_setting 'orthorhombic'
loop_
_space_group_symop_operation_xyz
x,y,z
-x,-y,1/2+z
x,-y,-z
-x,y,1/2-z
loop_
_atom_site_type_symbol
_atom_site_label
_atom_site_fract_x
_atom_site_fract_y
_atom_site_fract_z
Si Si1 0.391628 0.462512 0.189233
Si Si2 0.840160 0.128246 0.369692
Si Si3 0.062435 0.836898 0.511542
Si Si4 0.016550 0.605412 0.551970
Si Si5 0.216946 0.342162 0.032786
Si Si6 0.374214 0.672129 0.279675
Si Si7 0.630397 0.038426 0.246879
Si Si8 0.710277 0.141430 0.911012
O O1 0.500000 0.406636 0.250000
O O2 0.280338 0.404539 0.169874
O O3 0.377804 0.555992 0.307596
O O4 0.411239 0.500000 0.000000
O O5 0.892638 0.121569 0.186806
O O6 0.815160 0.242125 0.385304
O O7 0.722190 0.076154 0.376155
O O8 0.940358 0.117768 0.501137
O O9 0.158888 0.867293 0.387656
O O10 0.059889 0.716495 0.512471
O O11 0.068715 0.500000 0.500000
O O12 0.894219 0.607350 0.470966
O O13 0.000000 0.603456 0.750000
O O14 0.299873 0.319804 0.884091
O O15 0.500000 0.701546 0.250000
O O16 0.322862 0.745553 0.409804
O O17 0.500000 0.057699 0.250000
O O18 0.648973 0.922244 0.227021
O O19 0.671181 0.093015 0.080878
#
# Coordination Sequence:
#
# PCOD9310859 Si02
#       8
#     4   4   4   4   4   4   4   4
#     4   9  19  37  54  83 124 171 218 265 327 383
#     4   9  18  38  65  87 122 166 216 255 322 397
#     4   9  18  40  64  84 128 168 212 268 314 387
#     4  11  21  37  61  94 130 178 227 277 327 397
#     4  10  20  38  61  85 125 178 212 264 333 389
#     4  10  21  37  59  87 128 163 204 279 329 386
#     4  10  22  40  69  97 124 165 211 279 347 408
#     4  10  22  41  66  94 127 159 216 273 328 404
#
# _framework density 23.805306999999999
#
# number of rings (size 3 to 8) (size 9 to 14) (size 15 to 20)
#    0.000    2.250    2.500    1.500    1.750    2.500 
#   11.250    2.500   41.250    0.000    0.000    0.000 
#    0.000    0.000    0.000    0.000    0.000    0.000 
#
# Total GULP energy -178404.625201 kJ/mol
# GULP energy per Si atom -5575.144538 kJ/mol
# Density = 2.375112 g / cm^3
# Si number density = 23.805307 Si / 1000 Ang^3
#
#
#
# Elastic Constant Matrix: (Units=GPa)
#
#
# Indices 1 2 3 4 5 6 
#
# 1 186.8800 31.1071 13.8098 0.0000 0.0000 0.0000
# 2 31.1071 88.2276 14.5821 0.0000 0.0000 0.0000
# 3 13.8098 14.5821 31.4415 0.0000 0.0000 0.0000
# 4 0.0000 0.0000 0.0000 26.5189 0.0000 0.0000
# 5 0.0000 0.0000 0.0000 0.0000 12.8448 0.0000
# 6 0.0000 0.0000 0.0000 0.0000 0.0000 33.2205
#
#
#
# Elastic Compliance Matrix: (Units=1/GPa)
#
#
# Indices 1 2 3 4 5 6 
#
# 1 0.005770 -0.001749 -0.001723 0.000000 0.000000 0.000000
# 2 -0.001749 0.012806 -0.005171 0.000000 0.000000 0.000000
# 3 -0.001723 -0.005171 0.034960 0.000000 0.000000 0.000000
# 4 0.000000 0.000000 0.000000 0.037709 0.000000 0.000000
# 5 0.000000 0.000000 0.000000 0.000000 0.077853 0.000000
# 6 0.000000 0.000000 0.000000 0.000000 0.000000 0.030102
#
#
# Mechanical properties :
#
#
# Convention : Reuss Voigt Hill
#
# Bulk Modulus (GPa) = 27.58670 47.28301 37.43486
# Shear Modulus (GPa) = 21.87538 30.98686 26.43112
#
# Velocity S-wave (km/s) = 3.03467 3.61179 3.33574
# Velocity P-wave (km/s) = 4.88801 6.10728 5.53134
#
# Compressibility (1/GPa) = 0.03624935
#
# Stress axis : x y z
#
# Youngs Moduli (GPa) = 173.32401 78.08988 28.60421
#
# Poissons Ratio (x) = 0.13662 0.04928
# Poissons Ratio (y) = 0.30323 0.14790
# Poissons Ratio (z) = 0.29859 0.40378
#
# Static dielectric constant tensor:
#      x y z
#    x 2.026040 0.000000 0.000000 
#    y 0.000000 1.930170 0.000000 
#    z 0.000000 0.000000 1.930070 
# 
# From -- ./inp_files/4964.got.cif
#   From: 2010.05.17/outbox.cif.g08.bks.cpg/sg17_3_cif.got.tgz:4964.got - 2010.06.03 22:34:06.
