data_PCOD9310187
_publ_section_title
;
Structure prediction by ZEFSAII (Michael W. Deem and Ramdas Pophale) SiO2 
 PCOD9310187
Probable space group: P 2 2 2
;
_chemical_formula_sum "Si O2"
_cell_formula_units_Z 30
_cell_length_a 5.195291
_cell_length_b 22.912827
_cell_length_c 12.604802
_cell_angle_alpha 90.000000
_cell_angle_beta 90.000000
_cell_angle_gamma 90.000000
_cell_volume 1500.460553
_symmetry_space_group_name_H-M "P 2 2 2"
_symmetry_group_IT_number 16
_symmetry_cell_setting 'orthorhombic'
loop_
_space_group_symop_operation_xyz
x,y,z
-x,-y,z
x,-y,-z
-x,y,-z
loop_
_atom_site_type_symbol
_atom_site_label
_atom_site_fract_x
_atom_site_fract_y
_atom_site_fract_z
Si Si1 0.000800 0.317296 0.874169
Si Si2 0.000000 0.000000 0.784354
Si Si3 0.959764 0.565198 0.750032
Si Si4 0.401295 0.066606 0.115655
Si Si5 0.584302 0.852087 0.312249
Si Si6 0.893999 0.087195 0.387201
Si Si7 0.534227 0.602357 0.375017
Si Si8 0.502214 0.720299 0.748796
O O1 0.730221 0.296064 0.827362
O O2 0.036124 0.384957 0.839758
O O3 0.231467 0.283498 0.814089
O O4 0.000000 0.310128 0.000000
O O5 0.103400 0.949020 0.861260
O O6 0.835378 0.964658 0.696087
O O7 0.690464 0.569034 0.688077
O O8 0.000000 0.500000 0.791114
O O9 0.189620 0.581482 0.668374
O O10 0.471718 0.115728 0.199837
O O11 0.500000 0.000000 0.135170
O O12 0.500000 0.082547 0.000000
O O13 0.869184 0.873372 0.343958
O O14 0.552994 0.783478 0.298797
O O15 0.365731 0.875815 0.391218
O O16 0.000000 0.066300 0.500000
O O17 0.500000 0.594495 0.500000
O O18 0.497639 0.670073 0.340957
#
# Coordination Sequence:
#
# PCOD9310187 Si02
#       8
#     4   2   4   4   4   4   4   4
#     4  10  21  39  62  86 115 157 194 239 292 340
#     4  10  21  41  58  82 120 148 186 236 286 352
#     4  10  21  36  56  87 121 152 195 241 285 343
#     4  10  21  38  59  85 115 151 188 233 297 353
#     4  11  23  42  60  89 119 150 195 244 290 347
#     4  11  23  39  62  87 114 150 190 233 290 348
#     4  10  21  36  56  83 116 159 196 237 292 340
#     4  10  22  40  60  84 119 151 197 246 288 342
#
# _framework density 19.993862
#
# number of rings (size 3 to 8) (size 9 to 14) (size 15 to 20)
#    0.000    1.733    1.333    2.600    0.000    5.067 
#    0.000    1.333    0.000    4.800    0.000    0.000 
#    0.000    0.000    0.000    0.000    0.000    0.000 
#
# Total GULP energy -167344.299100 kJ/mol
# GULP energy per Si atom -5578.143303 kJ/mol
# Density = 1.994835 g / cm^3
# Si number density = 19.993862 Si / 1000 Ang^3
#
#
#
# Elastic Constant Matrix: (Units=GPa)
#
#
# Indices 1 2 3 4 5 6 
#
# 1 63.1226 -4.2504 7.2184 0.0000 0.0000 0.0000
# 2 -4.2504 72.5313 -5.0611 0.0000 0.0000 0.0000
# 3 7.2184 -5.0611 73.9942 0.0000 0.0000 0.0000
# 4 0.0000 0.0000 0.0000 2.6271 0.0000 0.0000
# 5 0.0000 0.0000 0.0000 0.0000 19.5667 0.0000
# 6 0.0000 0.0000 0.0000 0.0000 0.0000 13.8551
#
#
#
# Elastic Compliance Matrix: (Units=1/GPa)
#
#
# Indices 1 2 3 4 5 6 
#
# 1 0.016071 0.000836 -0.001511 0.000000 0.000000 0.000000
# 2 0.000836 0.013897 0.000869 0.000000 0.000000 0.000000
# 3 -0.001511 0.000869 0.013721 0.000000 0.000000 0.000000
# 4 0.000000 0.000000 0.000000 0.380655 0.000000 0.000000
# 5 0.000000 0.000000 0.000000 0.000000 0.051107 0.000000
# 6 0.000000 0.000000 0.000000 0.000000 0.000000 0.072175
#
#
# Mechanical properties :
#
#
# Convention : Reuss Voigt Hill
#
# Bulk Modulus (GPa) = 22.68663 22.82911 22.75787
# Shear Modulus (GPa) = 8.89790 21.32587 15.11189
#
# Velocity S-wave (km/s) = 2.11187 3.26946 2.75221
# Velocity P-wave (km/s) = 4.16150 5.06906 4.63753
#
# Compressibility (1/GPa) = 0.04407882
#
# Stress axis : x y z
#
# Youngs Moduli (GPa) = 62.22291 71.95907 72.87906
#
# Poissons Ratio (x) = -0.06018 0.11009
# Poissons Ratio (y) = -0.05204 -0.06333
# Poissons Ratio (z) = 0.09399 -0.06253
#
# Static dielectric constant tensor:
#      x y z
#    x 1.938080 0.000000 0.000000 
#    y 0.000000 1.693970 0.000000 
#    z 0.000000 0.000000 1.675880 
# 
# From -- ./inp_files/6109.got.cif
#   From: 2010.05.17/outbox.cif.g08.bks.cpg/sg16_4_cif.got.tgz:6109.got - 2010.06.03 22:28:35.
