data_PCOD9310515
_publ_section_title
;
Structure prediction by ZEFSAII (Michael W. Deem and Ramdas Pophale) SiO2 
 PCOD9310515
Probable space group: P 2 2 21
;
_chemical_formula_sum "Si O2"
_cell_formula_units_Z 30
_cell_length_a 7.800112
_cell_length_b 10.192803
_cell_length_c 17.738309
_cell_angle_alpha 90.000000
_cell_angle_beta 90.000000
_cell_angle_gamma 90.000000
_cell_volume 1410.284346
_symmetry_space_group_name_H-M "P 2 2 21"
_symmetry_group_IT_number 17
_symmetry_cell_setting 'orthorhombic'
loop_
_space_group_symop_operation_xyz
x,y,z
-x,-y,1/2+z
x,-y,-z
-x,y,1/2-z
loop_
_atom_site_type_symbol
_atom_site_label
_atom_site_fract_x
_atom_site_fract_y
_atom_site_fract_z
Si Si1 0.541689 0.500000 0.000000
Si Si2 0.661479 0.785890 0.018068
Si Si3 0.224612 0.200753 0.361822
Si Si4 0.772648 0.090074 0.827121
Si Si5 0.814610 0.089871 0.666005
Si Si6 0.725904 0.149960 0.508881
Si Si7 0.470157 0.407384 0.166536
Si Si8 0.164006 0.218472 0.143032
O O1 0.651589 0.370422 0.984852
O O2 0.451951 0.521617 0.916610
O O3 0.475174 0.838077 0.992627
O O4 0.698896 0.838160 0.100646
O O5 0.788018 0.828597 0.951764
O O6 0.280723 0.062097 0.327931
O O7 0.365830 0.311367 0.347289
O O8 0.033616 0.234188 0.334417
O O9 0.735646 0.140937 0.743686
O O10 0.979213 0.094477 0.833699
O O11 0.751803 0.175840 0.596358
O O12 0.778619 0.933123 0.657548
O O13 0.821479 0.235576 0.447582
O O14 0.785126 0.000000 0.500000
O O15 0.500000 0.473067 0.250000
O O16 0.300601 0.318105 0.176666
#
# Coordination Sequence:
#
# PCOD9310515 Si02
#       8
#     2   4   4   4   4   4   4   4
#     4  10  24  46  58  86 120 164 224 266 290 348
#     4  11  21  37  60  79 117 159 210 251 300 358
#     4  10  20  36  64  94 119 153 198 246 321 380
#     4  10  19  34  54  89 126 159 188 247 315 379
#     4   9  20  32  52  90 132 151 190 240 311 393
#     4  10  18  32  55  85 116 153 194 240 304 372
#     4  11  23  42  66  88 123 162 209 266 307 363
#     4  10  19  37  62  91 123 156 191 250 309 382
#
# _framework density 21.272303999999998
#
# number of rings (size 3 to 8) (size 9 to 14) (size 15 to 20)
#    0.000    1.867    2.667    2.800    1.867    4.267 
#    2.400    2.667    0.000    0.000    0.000    0.000 
#    0.000    0.000    0.000    0.000    0.000    0.000 
#
# Total GULP energy -167240.233312 kJ/mol
# GULP energy per Si atom -5574.674444 kJ/mol
# Density = 2.122389 g / cm^3
# Si number density = 21.272304 Si / 1000 Ang^3
#
#
#
# Elastic Constant Matrix: (Units=GPa)
#
#
# Indices 1 2 3 4 5 6 
#
# 1 52.5061 -0.1602 0.3310 0.0000 0.0000 0.0000
# 2 -0.1602 29.5405 13.3455 0.0000 0.0000 0.0000
# 3 0.3310 13.3455 160.1628 0.0000 0.0000 0.0000
# 4 0.0000 0.0000 0.0000 21.0782 0.0000 0.0000
# 5 0.0000 0.0000 0.0000 0.0000 11.9069 0.0000
# 6 0.0000 0.0000 0.0000 0.0000 0.0000 -52.0301
#
#
#
# Elastic Compliance Matrix: (Units=1/GPa)
#
#
# Indices 1 2 3 4 5 6 
#
# 1 0.019046 0.000126 -0.000050 0.000000 0.000000 0.000000
# 2 0.000126 0.035177 -0.002931 0.000000 0.000000 0.000000
# 3 -0.000050 -0.002931 0.006488 0.000000 0.000000 0.000000
# 4 0.000000 0.000000 0.000000 0.047442 0.000000 0.000000
# 5 0.000000 0.000000 0.000000 0.000000 0.083985 0.000000
# 6 0.000000 0.000000 0.000000 0.000000 0.000000 -0.019220
#
#
# Mechanical properties :
#
#
# Convention : Reuss Voigt Hill
#
# Bulk Modulus (GPa) = 18.18179 29.91580 24.04880
# Shear Modulus (GPa) = 25.38545 11.43717 18.41131
#
# Velocity S-wave (km/s) = 3.45825 2.32126 2.94514
# Velocity P-wave (km/s) = 4.95093 4.61282 4.78486
#
# Compressibility (1/GPa) = 0.05500007
#
# Stress axis : x y z
#
# Youngs Moduli (GPa) = 52.50417 28.42781 154.13053
#
# Poissons Ratio (x) = -0.00358 0.00768
# Poissons Ratio (y) = -0.00660 0.45181
# Poissons Ratio (z) = 0.00262 0.08333
#
# Static dielectric constant tensor:
#      x y z
#    x 1.769400 0.000000 0.000000 
#    y 0.000000 1.750950 0.000000 
#    z 0.000000 0.000000 1.912140 
# 
# From -- ./inp_files/8245.got.cif
#   From: 2010.05.17/outbox.cif.g08.bks.cpg/sg17_5_cif.got.tgz:8245.got - 2010.06.03 22:34:06.
