data_PCOD9310497
_publ_section_title
;
Structure prediction by ZEFSAII (Michael W. Deem and Ramdas Pophale) SiO2 
 PCOD9310497
Probable space group: P 2 2 21
;
_chemical_formula_sum "Si O2"
_cell_formula_units_Z 16
_cell_length_a 6.673519
_cell_length_b 19.150164
_cell_length_c 5.154385
_cell_angle_alpha 90.000000
_cell_angle_beta 90.000000
_cell_angle_gamma 90.000000
_cell_volume 658.725163
_symmetry_space_group_name_H-M "P 2 2 21"
_symmetry_group_IT_number 17
_symmetry_cell_setting 'orthorhombic'
loop_
_space_group_symop_operation_xyz
x,y,z
-x,-y,1/2+z
x,-y,-z
-x,y,1/2-z
loop_
_atom_site_type_symbol
_atom_site_label
_atom_site_fract_x
_atom_site_fract_y
_atom_site_fract_z
Si Si1 0.645147 0.074733 0.499640
Si Si2 0.766097 0.571203 0.840166
Si Si3 0.221831 0.630745 0.164296
Si Si4 0.356494 0.774421 0.999338
O O1 0.500000 0.074750 0.750000
O O2 0.752617 0.149938 0.493808
O O3 0.757706 0.000000 0.500000
O O4 0.500000 0.074770 0.250000
O O5 0.680564 0.580129 0.550333
O O6 0.000000 0.577815 0.750000
O O7 0.740063 0.500000 0.000000
O O8 0.692371 0.630195 0.043965
O O9 0.218435 0.706791 0.035861
O O10 0.000000 0.606649 0.250000
O O11 0.500000 0.774426 0.250000
O O12 0.500000 0.769022 0.750000
#
# Coordination Sequence:
#
# PCOD9310497 Si02
#       4
#     4   4   4   4
#     4   8  14  25  43  68  93 120 160 204 240 280
#     4  10  18  31  51  73  95 122 164 211 249 290
#     4  10  20  32  50  75  99 126 162 207 253 299
#     4  10  19  32  50  72 101 134 165 204 254 305
#
# _framework density 24.289342999999999
#
# number of rings (size 3 to 8) (size 9 to 14) (size 15 to 20)
#    0.000    2.500    0.000    4.500    0.000    0.000 
#    0.000    0.000    0.000   15.000    0.000   22.750 
#    0.000    0.000    0.000    0.000    0.000    0.000 
#
# Total GULP energy -89122.812730 kJ/mol
# GULP energy per Si atom -5570.175796 kJ/mol
# Density = 2.423406 g / cm^3
# Si number density = 24.289343 Si / 1000 Ang^3
#
#
#
# Elastic Constant Matrix: (Units=GPa)
#
#
# Indices 1 2 3 4 5 6 
#
# 1 32.9784 -5.3387 24.6136 0.0000 0.0000 0.0000
# 2 -5.3387 223.6605 53.5435 0.0000 0.0000 0.0000
# 3 24.6136 53.5435 228.4190 0.0000 0.0000 0.0000
# 4 0.0000 0.0000 0.0000 28.6672 0.0000 0.0000
# 5 0.0000 0.0000 0.0000 0.0000 11.4264 0.0000
# 6 0.0000 0.0000 0.0000 0.0000 0.0000 8.8701
#
#
#
# Elastic Compliance Matrix: (Units=1/GPa)
#
#
# Indices 1 2 3 4 5 6 
#
# 1 0.033623 0.001769 -0.004038 0.000000 0.000000 0.000000
# 2 0.001769 0.004830 -0.001323 0.000000 0.000000 0.000000
# 3 -0.004038 -0.001323 0.005123 0.000000 0.000000 0.000000
# 4 0.000000 0.000000 0.000000 0.034883 0.000000 0.000000
# 5 0.000000 0.000000 0.000000 0.000000 0.087516 0.000000
# 6 0.000000 0.000000 0.000000 0.000000 0.000000 0.112738
#
#
# Mechanical properties :
#
#
# Convention : Reuss Voigt Hill
#
# Bulk Modulus (GPa) = 27.47770 70.07719 48.77745
# Shear Modulus (GPa) = 16.77697 37.27539 27.02618
#
# Velocity S-wave (km/s) = 2.63099 3.92170 3.33930
# Velocity P-wave (km/s) = 4.53505 7.02993 5.91552
#
# Compressibility (1/GPa) = 0.03639315
#
# Stress axis : x y z
#
# Youngs Moduli (GPa) = 29.74159 207.04052 195.19415
#
# Poissons Ratio (x) = -0.36630 0.78816
# Poissons Ratio (y) = -0.05262 0.25821
# Poissons Ratio (z) = 0.12009 0.27388
#
# Static dielectric constant tensor:
#      x y z
#    x 2.123930 0.000000 0.000000 
#    y 0.000000 2.054650 0.000000 
#    z 0.000000 0.000000 2.038490 
# 
# From -- ./inp_files/744.got.cif
#   From: 2010.05.17/outbox.cif.g08.bks.cpg/sg17_1_cif.got.tgz:744.got - 2010.06.03 22:34:06.
