data_PCOD9310160
_publ_section_title
;
Structure prediction by ZEFSAII (Michael W. Deem and Ramdas Pophale) SiO2 
 PCOD9310160
Probable space group: P 2 2 2
;
_chemical_formula_sum "Si O2"
_cell_formula_units_Z 20
_cell_length_a 13.354240
_cell_length_b 12.329626
_cell_length_c 5.824600
_cell_angle_alpha 90.000000
_cell_angle_beta 90.000000
_cell_angle_gamma 90.000000
_cell_volume 959.036610
_symmetry_space_group_name_H-M "P 2 2 2"
_symmetry_group_IT_number 16
_symmetry_cell_setting 'orthorhombic'
loop_
_space_group_symop_operation_xyz
x,y,z
-x,-y,z
x,-y,-z
-x,y,-z
loop_
_atom_site_type_symbol
_atom_site_label
_atom_site_fract_x
_atom_site_fract_y
_atom_site_fract_z
Si Si1 0.860704 0.940017 0.246986
Si Si2 0.826483 0.380612 0.450493
Si Si3 0.000000 0.217873 0.500000
Si Si4 0.634995 0.611011 0.866128
Si Si5 0.500000 0.289313 0.500000
Si Si6 0.310538 0.768045 0.753697
O O1 0.757881 0.872645 0.221260
O O2 0.951323 0.856957 0.303033
O O3 0.853730 0.000000 0.500000
O O4 0.875246 0.000000 0.000000
O O5 0.867851 0.500000 0.500000
O O6 0.913353 0.294814 0.398554
O O7 0.741838 0.395905 0.259832
O O8 0.763346 0.326385 0.657763
O O9 0.545038 0.632594 0.693054
O O10 0.620729 0.500000 0.000000
O O11 0.643249 0.718878 0.017849
O O12 0.595319 0.220784 0.583913
#
# Coordination Sequence:
#
# PCOD9310160 Si02
#       6
#     4   4   2   4   2   4
#     4  11  27  50  75 103 138 182 238 303 362 411
#     4  10  20  41  64  98 144 180 221 274 340 419
#     4  10  24  44  72 104 132 182 234 292 344 426
#     4  11  22  40  64 101 140 186 223 274 344 417
#     4  10  24  39  67 100 140 172 241 276 339 418
#     4  10  23  42  68  94 140 181 226 287 342 412
#
# _framework density 20.854264000000001
#
# number of rings (size 3 to 8) (size 9 to 14) (size 15 to 20)
#    0.000    1.600    2.000    1.200    8.400    4.000 
#    3.600    0.500    0.000    0.000    0.000    0.000 
#    0.000    0.000    0.000    0.000    0.000    0.000 
#
# Total GULP energy -111651.508363 kJ/mol
# GULP energy per Si atom -5582.575418 kJ/mol
# Density = 2.080680 g / cm^3
# Si number density = 20.854264 Si / 1000 Ang^3
#
#
#
# Elastic Constant Matrix: (Units=GPa)
#
#
# Indices 1 2 3 4 5 6 
#
# 1 147.2507 76.8949 60.9425 0.0000 0.0000 0.0000
# 2 76.8949 116.0016 69.2153 0.0000 0.0000 0.0000
# 3 60.9425 69.2153 115.3609 0.0000 0.0000 0.0000
# 4 0.0000 0.0000 0.0000 23.2377 0.0000 0.0000
# 5 0.0000 0.0000 0.0000 0.0000 27.2522 0.0000
# 6 0.0000 0.0000 0.0000 0.0000 0.0000 24.5274
#
#
#
# Elastic Compliance Matrix: (Units=1/GPa)
#
#
# Indices 1 2 3 4 5 6 
#
# 1 0.010728 -0.005809 -0.002182 0.000000 0.000000 0.000000
# 2 -0.005809 0.016574 -0.006875 0.000000 0.000000 0.000000
# 3 -0.002182 -0.006875 0.013946 0.000000 0.000000 0.000000
# 4 0.000000 0.000000 0.000000 0.043033 0.000000 0.000000
# 5 0.000000 0.000000 0.000000 0.000000 0.036694 0.000000
# 6 0.000000 0.000000 0.000000 0.000000 0.000000 0.040771
#
#
# Mechanical properties :
#
#
# Convention : Reuss Voigt Hill
#
# Bulk Modulus (GPa) = 86.84232 88.07983 87.46108
# Shear Modulus (GPa) = 25.59948 26.44084 26.02016
#
# Velocity S-wave (km/s) = 3.50743 3.56460 3.53613
# Velocity P-wave (km/s) = 7.62467 7.69866 7.66176
#
# Compressibility (1/GPa) = 0.01151512
#
# Stress axis : x y z
#
# Youngs Moduli (GPa) = 93.21593 60.33647 71.70572
#
# Poissons Ratio (x) = 0.35052 0.15643
# Poissons Ratio (y) = 0.54154 0.49298
# Poissons Ratio (z) = 0.20336 0.41482
#
# Static dielectric constant tensor:
#      x y z
#    x 1.771440 0.000000 0.000000 
#    y 0.000000 1.738280 0.000000 
#    z 0.000000 0.000000 1.822850 
# 
# From -- ./inp_files/1915.got.cif
#   From: 2010.05.17/outbox.cif.g08.bks.cpg/sg16_1_cif.got.tgz:1915.got - 2010.06.03 22:28:35.
