data_PCOD9310124
_publ_section_title
;
Structure prediction by ZEFSAII (Michael W. Deem and Ramdas Pophale) SiO2 
 PCOD9310124
Probable space group: P 2 2 2
;
_chemical_formula_sum "Si O2"
_cell_formula_units_Z 32
_cell_length_a 11.427735
_cell_length_b 9.580361
_cell_length_c 16.330232
_cell_angle_alpha 90.000000
_cell_angle_beta 90.000000
_cell_angle_gamma 90.000000
_cell_volume 1787.863630
_symmetry_space_group_name_H-M "P 2 2 2"
_symmetry_group_IT_number 16
_symmetry_cell_setting 'orthorhombic'
loop_
_space_group_symop_operation_xyz
x,y,z
-x,-y,z
x,-y,-z
-x,y,-z
loop_
_atom_site_type_symbol
_atom_site_label
_atom_site_fract_x
_atom_site_fract_y
_atom_site_fract_z
Si Si1 0.139240 0.833012 0.338093
Si Si2 0.763581 0.213877 0.165412
Si Si3 0.999739 0.659930 0.902735
Si Si4 0.362743 0.532231 0.094719
Si Si5 0.757549 0.719676 0.169967
Si Si6 0.141535 0.339150 0.499436
Si Si7 0.858654 0.832514 0.336274
Si Si8 0.367899 0.965373 0.904131
O O1 0.215144 0.777635 0.262168
O O2 0.172358 0.749179 0.419835
O O3 0.999228 0.810464 0.321400
O O4 0.156005 0.000401 0.346578
O O5 0.885845 0.259317 0.126138
O O6 0.666747 0.311554 0.122574
O O7 0.726030 0.058169 0.143662
O O8 0.000000 0.500000 0.870815
O O9 0.117210 0.732687 0.873226
O O10 0.000000 0.653669 0.000000
O O11 0.500000 0.500000 0.100588
O O12 0.287180 0.437267 0.156530
O O13 0.326310 0.500000 0.000000
O O14 0.781681 0.772996 0.261459
O O15 0.663429 0.808804 0.119410
O O16 0.183896 0.500000 0.500000
O O17 0.173251 0.252667 0.418175
O O18 0.000000 0.345340 0.500000
O O19 0.500000 0.000000 0.878984
O O20 0.357308 0.000000 0.000000
#
# Coordination Sequence:
#
# PCOD9310124 Si02
#       8
#     4   4   4   4   4   4   4   4
#     4  10  20  36  54  84 122 155 185 227 289 360
#     4  12  22  37  59  86 117 156 196 244 298 354
#     4  11  22  35  53  82 119 156 193 239 304 363
#     4  11  24  41  59  80 111 159 214 257 292 334
#     4  12  22  37  59  86 117 156 196 244 298 354
#     4   9  19  33  57  85 116 153 190 227 276 344
#     4  10  20  36  54  84 122 155 185 227 289 360
#     4  11  24  41  59  82 115 157 208 257 290 330
#
# _framework density 17.898457000000001
#
# number of rings (size 3 to 8) (size 9 to 14) (size 15 to 20)
#    0.000    1.250    3.750    3.375    1.750    4.000 
#    0.000    1.250    0.000    0.000    0.000    5.250 
#    0.000    0.000    0.000    0.000    0.000    0.000 
#
# Total GULP energy -178629.579131 kJ/mol
# GULP energy per Si atom -5582.174348 kJ/mol
# Density = 1.785772 g / cm^3
# Si number density = 17.898457 Si / 1000 Ang^3
#
#
#
# Elastic Constant Matrix: (Units=GPa)
#
#
# Indices 1 2 3 4 5 6 
#
# 1 60.7997 0.5419 17.5405 0.0000 0.0000 0.0000
# 2 0.5419 55.5041 29.6785 0.0000 0.0000 0.0000
# 3 17.5405 29.6785 116.4771 0.0000 0.0000 0.0000
# 4 0.0000 0.0000 0.0000 29.6799 0.0000 0.0000
# 5 0.0000 0.0000 0.0000 0.0000 24.2119 0.0000
# 6 0.0000 0.0000 0.0000 0.0000 0.0000 26.3354
#
#
#
# Elastic Compliance Matrix: (Units=1/GPa)
#
#
# Indices 1 2 3 4 5 6 
#
# 1 0.017290 0.001416 -0.002965 0.000000 0.000000 0.000000
# 2 0.001416 0.020975 -0.005558 0.000000 0.000000 0.000000
# 3 -0.002965 -0.005558 0.010448 0.000000 0.000000 0.000000
# 4 0.000000 0.000000 0.000000 0.033693 0.000000 0.000000
# 5 0.000000 0.000000 0.000000 0.000000 0.041302 0.000000
# 6 0.000000 0.000000 0.000000 0.000000 0.000000 0.037972
#
#
# Mechanical properties :
#
#
# Convention : Reuss Voigt Hill
#
# Bulk Modulus (GPa) = 28.98479 36.47806 32.73142
# Shear Modulus (GPa) = 26.68214 28.38010 27.53112
#
# Velocity S-wave (km/s) = 3.86521 3.98630 3.92622
# Velocity P-wave (km/s) = 6.01240 6.45076 6.23543
#
# Compressibility (1/GPa) = 0.03450086
#
# Stress axis : x y z
#
# Youngs Moduli (GPa) = 57.83648 47.67680 95.71285
#
# Poissons Ratio (x) = -0.06753 0.28375
# Poissons Ratio (y) = -0.08192 0.53194
# Poissons Ratio (z) = 0.17146 0.26497
#
# Static dielectric constant tensor:
#      x y z
#    x 1.594910 0.000000 0.000000 
#    y 0.000000 1.610570 0.000000 
#    z 0.000000 0.000000 1.599910 
# 
# From -- ./inp_files/7168.got.cif
#   From: 2010.05.17/outbox.cif.g08.bks.cpg/sg16_4_cif.got.tgz:7168.got - 2010.06.03 22:28:35.
