data_PCOD9310005
_publ_section_title
;
Structure prediction by ZEFSAII (Michael W. Deem and Ramdas Pophale) SiO2 
 PCOD9310005
Probable space group: P 2 2 2
;
_chemical_formula_sum "Si O2"
_cell_formula_units_Z 24
_cell_length_a 9.221222
_cell_length_b 5.569778
_cell_length_c 19.913628
_cell_angle_alpha 90.000000
_cell_angle_beta 90.000000
_cell_angle_gamma 90.000000
_cell_volume 1022.767109
_symmetry_space_group_name_H-M "P 2 2 2"
_symmetry_group_IT_number 16
_symmetry_cell_setting 'orthorhombic'
loop_
_space_group_symop_operation_xyz
x,y,z
-x,-y,z
x,-y,-z
-x,y,-z
loop_
_atom_site_type_symbol
_atom_site_label
_atom_site_fract_x
_atom_site_fract_y
_atom_site_fract_z
Si Si1 0.334601 0.754726 0.026611
Si Si2 0.828305 0.987149 0.580088
Si Si3 0.755995 0.210433 0.175729
Si Si4 0.492035 0.749872 0.285882
Si Si5 0.161477 0.475921 0.368781
Si Si6 0.198639 0.300199 0.219509
O O1 0.331718 0.787926 0.106562
O O2 0.272777 0.500000 0.000000
O O3 0.500000 0.754136 0.000000
O O4 0.262247 0.000000 0.000000
O O5 0.774543 0.739743 0.615000
O O6 0.820381 0.000000 0.500000
O O7 0.761045 0.241459 0.601919
O O8 0.000000 0.000000 0.599917
O O9 0.650068 0.237161 0.239773
O O10 0.834550 0.468609 0.174372
O O11 0.839533 0.960863 0.189749
O O12 0.500000 0.500000 0.324287
O O13 0.627787 0.732456 0.233829
O O14 0.500000 0.000000 0.323465
O O15 0.141296 0.384323 0.292252
O O16 0.000000 0.500000 0.400144
#
# Coordination Sequence:
#
# PCOD9310005 Si02
#       6
#     4   4   4   4   4   4
#     4  10  21  27  43  64  92 126 158 186 235 301
#     4   9  17  30  49  70  97 129 155 188 241 293
#     4  10  19  31  44  64  95 126 161 193 240 287
#     4   8  16  25  42  56  84 117 153 182 229 268
#     4  10  19  31  47  72 101 126 161 198 231 286
#     4  10  19  29  46  63  93 131 158 192 235 281
#
# _framework density 23.465752999999999
#
# number of rings (size 3 to 8) (size 9 to 14) (size 15 to 20)
#    0.000    2.500    0.000    2.500   14.000    2.000 
#    0.000    0.000    0.000    0.000    0.000    0.000 
#    0.000  100.000    0.000    0.000    0.000    0.000 
#
# Total GULP energy -133624.914111 kJ/mol
# GULP energy per Si atom -5567.704755 kJ/mol
# Density = 2.341234 g / cm^3
# Si number density = 23.465753 Si / 1000 Ang^3
#
#
#
# Elastic Constant Matrix: (Units=GPa)
#
#
# Indices 1 2 3 4 5 6 
#
# 1 53.3092 27.2418 7.8385 0.0000 0.0000 0.0000
# 2 27.2418 338.5352 61.8252 0.0000 0.0000 0.0000
# 3 7.8385 61.8252 97.0383 0.0000 0.0000 0.0000
# 4 0.0000 0.0000 0.0000 31.7707 0.0000 0.0000
# 5 0.0000 0.0000 0.0000 0.0000 21.3844 0.0000
# 6 0.0000 0.0000 0.0000 0.0000 0.0000 -4.4502
#
#
#
# Elastic Compliance Matrix: (Units=1/GPa)
#
#
# Indices 1 2 3 4 5 6 
#
# 1 0.019600 -0.001458 -0.000655 0.000000 0.000000 0.000000
# 2 -0.001458 0.003451 -0.002081 0.000000 0.000000 0.000000
# 3 -0.000655 -0.002081 0.011684 0.000000 0.000000 0.000000
# 4 0.000000 0.000000 0.000000 0.031476 0.000000 0.000000
# 5 0.000000 0.000000 0.000000 0.000000 0.046763 0.000000
# 6 0.000000 0.000000 0.000000 0.000000 0.000000 -0.224710
#
#
# Mechanical properties :
#
#
# Convention : Reuss Voigt Hill
#
# Bulk Modulus (GPa) = 37.95309 75.85487 56.90398
# Shear Modulus (GPa) = -52.87258 35.87280 -8.49989
#
# Velocity S-wave (km/s) = -4.75192 3.91414 -1.90529
# Velocity P-wave (km/s) = 3.72810 7.26796 4.41161
#
# Compressibility (1/GPa) = 0.02634832
#
# Stress axis : x y z
#
# Youngs Moduli (GPa) = 51.02145 289.74866 85.58699
#
# Poissons Ratio (x) = 0.42235 0.05602
# Poissons Ratio (y) = 0.07437 0.17812
# Poissons Ratio (z) = 0.03339 0.60301
#
# Static dielectric constant tensor:
#      x y z
#    x 1.942030 0.000000 0.000000 
#    y 0.000000 2.044260 0.000000 
#    z 0.000000 0.000000 1.878310 
# 
# From -- ./inp_files/5993.got.cif
#   From: 2010.05.17/outbox.cif.g08.bks.cpg/sg16_3_cif.got.tgz:5993.got - 2010.06.03 22:28:35.
