data_PCOD9310250
_publ_section_title
;
Structure prediction by ZEFSAII (Michael W. Deem and Ramdas Pophale) SiO2 
 PCOD9310250
Probable space group: P 2 2 2
;
_chemical_formula_sum "Si O2"
_cell_formula_units_Z 19
_cell_length_a 11.227173
_cell_length_b 13.889073
_cell_length_c 6.364296
_cell_angle_alpha 90.000000
_cell_angle_beta 90.000000
_cell_angle_gamma 90.000000
_cell_volume 992.416658
_symmetry_space_group_name_H-M "P 2 2 2"
_symmetry_group_IT_number 16
_symmetry_cell_setting 'orthorhombic'
loop_
_space_group_symop_operation_xyz
x,y,z
-x,-y,z
x,-y,-z
-x,y,-z
loop_
_atom_site_type_symbol
_atom_site_label
_atom_site_fract_x
_atom_site_fract_y
_atom_site_fract_z
Si Si1 0.700017 0.234492 0.283442
Si Si2 0.865693 0.885394 0.022605
Si Si3 0.119778 0.400944 0.620093
Si Si4 0.668175 0.903066 0.355294
Si Si5 0.500000 0.170719 0.000000
Si Si6 0.000000 0.500000 0.000000
O O1 0.773742 0.326640 0.356379
O O2 0.645710 0.182259 0.483884
O O3 0.594066 0.239379 0.116298
O O4 0.791553 0.162506 0.164880
O O5 0.793850 0.876743 0.241479
O O6 0.000000 0.847680 0.000000
O O7 0.869214 0.000000 0.000000
O O8 0.152475 0.500000 0.500000
O O9 0.000000 0.363440 0.500000
O O10 0.078506 0.433295 0.850454
O O11 0.571487 0.896079 0.167658
O O12 0.668757 0.000000 0.500000
#
# Coordination Sequence:
#
# PCOD9310250 Si02
#       6
#     4   4   4   4   2   1
#     4  11  23  39  64  90 126 166 208 263 311 375
#     4  10  22  38  55  91 132 163 203 242 309 382
#     4   9  21  38  64  97 124 159 209 255 328 392
#     4  11  23  42  61  86 122 171 213 263 305 367
#     4  10  26  41  60  89 118 168 228 255 318 371
#     4   8  18  40  64  92 130 156 190 264 314 386
#
# _framework density 19.145182999999999
#
# number of rings (size 3 to 8) (size 9 to 14) (size 15 to 20)
#    0.000    2.105    2.105    0.632    4.421    7.579 
#    0.000    0.000    0.000    9.474    0.000    0.000 
#    0.000    0.000    0.000    0.000    0.000    0.000 
#
# Total GULP energy -105933.057532 kJ/mol
# GULP energy per Si atom -5575.424081 kJ/mol
# Density = 1.910161 g / cm^3
# Si number density = 19.145183 Si / 1000 Ang^3
#
#
#
# Elastic Constant Matrix: (Units=GPa)
#
#
# Indices 1 2 3 4 5 6 
#
# 1 141.3626 49.9900 64.2901 0.0000 0.0000 0.0000
# 2 49.9900 86.2091 46.8661 0.0000 0.0000 0.0000
# 3 64.2901 46.8661 131.1866 0.0000 0.0000 0.0000
# 4 0.0000 0.0000 0.0000 5.3051 0.0000 0.0000
# 5 0.0000 0.0000 0.0000 0.0000 9.3350 0.0000
# 6 0.0000 0.0000 0.0000 0.0000 0.0000 -7.5897
#
#
#
# Elastic Compliance Matrix: (Units=1/GPa)
#
#
# Indices 1 2 3 4 5 6 
#
# 1 0.010066 -0.003916 -0.003534 0.000000 0.000000 0.000000
# 2 -0.003916 0.015919 -0.003768 0.000000 0.000000 0.000000
# 3 -0.003534 -0.003768 0.010701 0.000000 0.000000 0.000000
# 4 0.000000 0.000000 0.000000 0.188499 0.000000 0.000000
# 5 0.000000 0.000000 0.000000 0.000000 0.107123 0.000000
# 6 0.000000 0.000000 0.000000 0.000000 0.000000 -0.131757
#
#
# Mechanical properties :
#
#
# Convention : Reuss Voigt Hill
#
# Bulk Modulus (GPa) = 70.17602 75.67231 72.92416
# Shear Modulus (GPa) = 21.95523 14.58422 18.26972
#
# Velocity S-wave (km/s) = 3.39008 2.76301 3.09248
# Velocity P-wave (km/s) = 7.21511 7.05622 7.13611
#
# Compressibility (1/GPa) = 0.01424988
#
# Stress axis : x y z
#
# Youngs Moduli (GPa) = 99.34440 62.81929 93.45112
#
# Poissons Ratio (x) = 0.24598 0.33027
# Poissons Ratio (y) = 0.38900 0.35212
# Poissons Ratio (z) = 0.35110 0.23670
#
# Static dielectric constant tensor:
#      x y z
#    x 1.728230 0.000000 0.000000 
#    y 0.000000 1.665850 0.000000 
#    z 0.000000 0.000000 1.741050 
# 
# From -- ./inp_files/1385.got.cif
#   From: 2010.05.17/outbox.cif.g08.bks.cpg/sg16_1_cif.got.tgz:1385.got - 2010.06.03 22:28:35.
