data_PCOD9310195
_publ_section_title
;
Structure prediction by ZEFSAII (Michael W. Deem and Ramdas Pophale) SiO2 
 PCOD9310195
Probable space group: P 2 2 2
;
_chemical_formula_sum "Si O2"
_cell_formula_units_Z 21
_cell_length_a 14.689156
_cell_length_b 5.386753
_cell_length_c 13.461905
_cell_angle_alpha 90.000000
_cell_angle_beta 90.000000
_cell_angle_gamma 90.000000
_cell_volume 1065.198207
_symmetry_space_group_name_H-M "P 2 2 2"
_symmetry_group_IT_number 16
_symmetry_cell_setting 'orthorhombic'
loop_
_space_group_symop_operation_xyz
x,y,z
-x,-y,z
x,-y,-z
-x,y,-z
loop_
_atom_site_type_symbol
_atom_site_label
_atom_site_fract_x
_atom_site_fract_y
_atom_site_fract_z
Si Si1 0.344813 0.181805 0.593057
Si Si2 0.798289 0.528576 0.884066
Si Si3 0.082889 0.147848 0.356708
Si Si4 0.500000 0.500000 0.500000
Si Si5 0.249814 0.983225 0.769278
Si Si6 0.000000 0.500000 0.190765
Si Si7 0.194496 0.500000 0.500000
O O1 0.436975 0.329731 0.570159
O O2 0.262469 0.377696 0.580362
O O3 0.332129 0.000000 0.500000
O O4 0.334414 0.028351 0.694598
O O5 0.762316 0.284080 0.823513
O O6 0.908371 0.555971 0.870536
O O7 0.755634 0.783191 0.842689
O O8 0.778218 0.500000 0.000000
O O9 0.163033 0.995577 0.304440
O O10 0.034607 0.290713 0.266039
O O11 0.131171 0.315476 0.438720
O O12 0.000000 0.000000 0.400411
#
# Coordination Sequence:
#
# PCOD9310195 Si02
#       7
#     4   4   4   1   4   2   2
#     4  11  22  44  65  96 135 169 207 263 332 412
#     4  11  23  40  63  91 124 175 235 286 334 375
#     4  11  22  40  52  82 126 184 237 272 318 378
#     4  10  26  40  74 102 136 164 212 240 338 422
#     4  11  23  42  65  90 133 175 216 283 329 380
#     4  10  21  37  54  78 120 168 237 294 333 356
#     4  11  24  38  57  84 132 186 227 269 319 391
#
# _framework density 19.714641
#
# number of rings (size 3 to 8) (size 9 to 14) (size 15 to 20)
#    0.000    1.143    3.810    3.429    2.667    0.381 
#    6.857    1.905    0.000    0.000    0.000    0.667 
#    0.000    0.000    0.000    0.000    0.000    0.000 
#
# Total GULP energy -117282.592197 kJ/mol
# GULP energy per Si atom -5584.885343 kJ/mol
# Density = 1.966977 g / cm^3
# Si number density = 19.714641 Si / 1000 Ang^3
#
#
#
# Elastic Constant Matrix: (Units=GPa)
#
#
# Indices 1 2 3 4 5 6 
#
# 1 88.1350 44.6108 34.6607 0.0000 0.0000 0.0000
# 2 44.6108 84.5257 33.3729 0.0000 0.0000 0.0000
# 3 34.6607 33.3729 111.7272 0.0000 0.0000 0.0000
# 4 0.0000 0.0000 0.0000 35.9673 0.0000 0.0000
# 5 0.0000 0.0000 0.0000 0.0000 -0.7432 0.0000
# 6 0.0000 0.0000 0.0000 0.0000 0.0000 13.5900
#
#
#
# Elastic Compliance Matrix: (Units=1/GPa)
#
#
# Indices 1 2 3 4 5 6 
#
# 1 0.016223 -0.007454 -0.002806 0.000000 0.000000 0.000000
# 2 -0.007454 0.016838 -0.002717 0.000000 0.000000 0.000000
# 3 -0.002806 -0.002717 0.010632 0.000000 0.000000 0.000000
# 4 0.000000 0.000000 0.000000 0.027803 0.000000 0.000000
# 5 0.000000 0.000000 0.000000 0.000000 -1.345552 0.000000
# 6 0.000000 0.000000 0.000000 0.000000 0.000000 0.073583
#
#
# Mechanical properties :
#
#
# Convention : Reuss Voigt Hill
#
# Bulk Modulus (GPa) = 56.37485 56.63074 56.50280
# Shear Modulus (GPa) = -4.27860 21.21240 8.46690
#
# Velocity S-wave (km/s) = -1.47478 3.28376 2.07462
# Velocity P-wave (km/s) = 5.07519 6.57001 5.87037
#
# Compressibility (1/GPa) = 0.01773841
#
# Stress axis : x y z
#
# Youngs Moduli (GPa) = 61.64157 59.39109 94.05146
#
# Poissons Ratio (x) = 0.44271 0.26393
# Poissons Ratio (y) = 0.45948 0.25553
# Poissons Ratio (z) = 0.17298 0.16136
#
# Static dielectric constant tensor:
#      x y z
#    x 1.874080 0.000000 0.000000 
#    y 0.000000 1.806960 0.000000 
#    z 0.000000 0.000000 1.688760 
# 
# From -- ./inp_files/7087.got.cif
#   From: 2010.05.17/outbox.cif.g08.bks.cpg/sg16_4_cif.got.tgz:7087.got - 2010.06.03 22:28:35.
