data_PCOD9310083
_publ_section_title
;
Structure prediction by ZEFSAII (Michael W. Deem and Ramdas Pophale) SiO2 
 PCOD9310083
Probable space group: P 2 2 2
;
_chemical_formula_sum "Si O2"
_cell_formula_units_Z 32
_cell_length_a 12.707914
_cell_length_b 18.077175
_cell_length_c 9.145495
_cell_angle_alpha 90.000000
_cell_angle_beta 90.000000
_cell_angle_gamma 90.000000
_cell_volume 2100.932242
_symmetry_space_group_name_H-M "P 2 2 2"
_symmetry_group_IT_number 16
_symmetry_cell_setting 'orthorhombic'
loop_
_space_group_symop_operation_xyz
x,y,z
-x,-y,z
x,-y,-z
-x,y,-z
loop_
_atom_site_type_symbol
_atom_site_label
_atom_site_fract_x
_atom_site_fract_y
_atom_site_fract_z
Si Si1 0.372070 0.649492 0.331605
Si Si2 1.000000 0.910211 0.831729
Si Si3 0.625423 0.801963 0.826323
Si Si4 0.627930 0.350508 0.668395
Si Si5 0.374577 0.801963 0.826323
Si Si6 0.371637 0.500000 0.169204
Si Si7 0.783621 0.911765 0.673768
Si Si8 0.216379 0.911765 0.673768
O O1 0.342859 0.723211 0.243633
O O2 0.337157 0.652523 0.500000
O O3 0.500000 0.647634 0.332727
O O4 0.337329 0.574357 0.251999
O O5 0.894102 0.888540 0.747181
O O6 0.105898 0.888541 0.747181
O O7 0.000000 0.000000 0.833584
O O8 0.000000 0.884843 0.000000
O O9 0.500000 0.811376 0.802698
O O10 0.690525 0.866265 0.748506
O O11 0.644206 0.801822 0.000000
O O12 0.657141 0.276789 0.756367
O O13 0.662671 0.425643 0.748001
O O14 0.309475 0.866265 0.748506
O O15 0.500000 0.500000 0.170568
O O16 0.339226 0.500000 0.000000
O O17 0.786295 0.898897 0.500000
O O18 0.770449 1.000000 0.697343
#
# Coordination Sequence:
#
# PCOD9310083 Si02
#       8
#     4   4   4   4   4   4   4   4
#     4   9  16  26  40  58  82 113 148 184 222 264
#     4   9  17  31  51  71  89 110 141 184 231 273
#     4  10  20  32  45  63  90 123 156 189 226 269
#     4   9  16  26  40  58  82 113 148 184 222 264
#     4  10  20  32  45  63  90 123 156 189 226 269
#     4   9  15  23  37  57  81 110 145 182 219 261
#     4  10  20  33  49  68  90 117 150 188 229 272
#     4  10  20  33  49  68  90 117 150 188 229 272
#
# _framework density 15.231332999999999
#
# number of rings (size 3 to 8) (size 9 to 14) (size 15 to 20)
#    0.000    2.500    0.000    3.000    0.000    9.500 
#    0.000    2.500    0.000    0.000    0.000    0.000 
#    0.000    1.000    0.000   10.000    0.000    9.000 
#
# Total GULP energy -178372.552946 kJ/mol
# GULP energy per Si atom -5574.142280 kJ/mol
# Density = 1.519667 g / cm^3
# Si number density = 15.231333 Si / 1000 Ang^3
#
#
#
# Elastic Constant Matrix: (Units=GPa)
#
#
# Indices 1 2 3 4 5 6 
#
# 1 49.4409 49.0941 60.1191 0.0000 0.0000 0.0000
# 2 49.0941 94.8994 85.4987 0.0000 0.0000 0.0000
# 3 60.1191 85.4987 154.6587 0.0000 0.0000 0.0000
# 4 0.0000 0.0000 0.0000 30.5765 0.0000 0.0000
# 5 0.0000 0.0000 0.0000 0.0000 22.4678 0.0000
# 6 0.0000 0.0000 0.0000 0.0000 0.0000 -1.8791
#
#
#
# Elastic Compliance Matrix: (Units=1/GPa)
#
#
# Indices 1 2 3 4 5 6 
#
# 1 0.048097 -0.016013 -0.009844 0.000000 0.000000 0.000000
# 2 -0.016013 0.026325 -0.008328 0.000000 0.000000 0.000000
# 3 -0.009844 -0.008328 0.014896 0.000000 0.000000 0.000000
# 4 0.000000 0.000000 0.000000 0.032705 0.000000 0.000000
# 5 0.000000 0.000000 0.000000 0.000000 0.044508 0.000000
# 6 0.000000 0.000000 0.000000 0.000000 0.000000 -0.532182
#
#
# Mechanical properties :
#
#
# Convention : Reuss Voigt Hill
#
# Bulk Modulus (GPa) = 47.73819 76.49142 62.11481
# Shear Modulus (GPa) = -17.22367 17.18551 -0.01908
#
# Velocity S-wave (km/s) = -3.36639 3.36266 -0.11205
# Velocity P-wave (km/s) = 4.03733 8.08736 6.39161
#
# Compressibility (1/GPa) = 0.02094759
#
# Stress axis : x y z
#
# Youngs Moduli (GPa) = 20.79135 37.98705 67.13007
#
# Poissons Ratio (x) = 0.60829 0.66082
# Poissons Ratio (y) = 0.33293 0.55908
# Poissons Ratio (z) = 0.20467 0.31637
#
# Static dielectric constant tensor:
#      x y z
#    x 1.478850 0.000000 0.000000 
#    y 0.000000 1.495020 0.000000 
#    z 0.000000 0.000000 1.508950 
# 
# From -- ./inp_files/4915.got.cif
#   From: 2010.05.17/outbox.cif.g08.bks.cpg/sg16_3_cif.got.tgz:4915.got - 2010.06.03 22:28:35.
