data_PCOD9310019
_publ_section_title
;
Structure prediction by ZEFSAII (Michael W. Deem and Ramdas Pophale) SiO2 
 PCOD9310019
Probable space group: P 2 2 2
;
_chemical_formula_sum "Si O2"
_cell_formula_units_Z 17
_cell_length_a 12.135419
_cell_length_b 8.813266
_cell_length_c 8.736668
_cell_angle_alpha 90.000000
_cell_angle_beta 90.000000
_cell_angle_gamma 90.000000
_cell_volume 934.410019
_symmetry_space_group_name_H-M "P 2 2 2"
_symmetry_group_IT_number 16
_symmetry_cell_setting 'orthorhombic'
loop_
_space_group_symop_operation_xyz
x,y,z
-x,-y,z
x,-y,-z
-x,y,-z
loop_
_atom_site_type_symbol
_atom_site_label
_atom_site_fract_x
_atom_site_fract_y
_atom_site_fract_z
Si Si1 0.310625 0.665683 0.677603
Si Si2 0.500000 0.500000 0.500000
Si Si3 0.627625 0.969280 0.178888
Si Si4 0.115529 0.447036 0.678302
Si Si5 0.202585 0.139987 0.596710
O O1 0.420112 0.592383 0.610603
O O2 0.341099 0.794095 0.797403
O O3 0.223382 0.539104 0.734058
O O4 0.260848 0.757741 0.532927
O O5 0.500000 0.000000 0.222865
O O6 0.708568 0.068662 0.286416
O O7 0.640658 0.000000 0.000000
O O8 0.111336 0.500000 0.500000
O O9 0.127402 0.264898 0.681061
O O10 0.000000 0.500000 0.749257
O O11 0.150535 0.000000 0.500000
#
# Coordination Sequence:
#
# PCOD9310019 Si02
#       5
#     4   1   4   4   4
#     4  10  19  31  55  80 107 141 173 225 272 329
#     4  12  16  28  56  86 112 132 182 220 280 336
#     4  10  21  35  51  74 112 146 180 223 273 328
#     4   9  17  33  53  80 111 135 176 229 274 317
#     4   9  17  33  54  80 104 139 179 220 272 324
#
# _framework density 18.193297999999999
#
# number of rings (size 3 to 8) (size 9 to 14) (size 15 to 20)
#    0.000    2.353    3.529    1.412    0.000    3.294 
#    0.000   21.176    0.000    4.235    0.000    0.000 
#    0.000    0.000    0.000    0.000    0.000    0.000 
#
# Total GULP energy -94648.113192 kJ/mol
# GULP energy per Si atom -5567.536070 kJ/mol
# Density = 1.815189 g / cm^3
# Si number density = 18.193298 Si / 1000 Ang^3
#
#
#
# Elastic Constant Matrix: (Units=GPa)
#
#
# Indices 1 2 3 4 5 6 
#
# 1 109.1402 79.1613 19.9357 0.0000 0.0000 0.0000
# 2 79.1613 156.5780 28.3454 0.0000 0.0000 0.0000
# 3 19.9357 28.3454 40.9055 0.0000 0.0000 0.0000
# 4 0.0000 0.0000 0.0000 21.0597 0.0000 0.0000
# 5 0.0000 0.0000 0.0000 0.0000 8.0411 0.0000
# 6 0.0000 0.0000 0.0000 0.0000 0.0000 175.0969
#
#
#
# Elastic Compliance Matrix: (Units=1/GPa)
#
#
# Indices 1 2 3 4 5 6 
#
# 1 0.014654 -0.006993 -0.002296 0.000000 0.000000 0.000000
# 2 -0.006993 0.010640 -0.003965 0.000000 0.000000 0.000000
# 3 -0.002296 -0.003965 0.028313 0.000000 0.000000 0.000000
# 4 0.000000 0.000000 0.000000 0.047484 0.000000 0.000000
# 5 0.000000 0.000000 0.000000 0.000000 0.124361 0.000000
# 6 0.000000 0.000000 0.000000 0.000000 0.000000 0.005711
#
#
# Mechanical properties :
#
#
# Convention : Reuss Voigt Hill
#
# Bulk Modulus (GPa) = 36.90131 62.38983 49.64557
# Shear Modulus (GPa) = 18.74743 52.78497 35.76620
#
# Velocity S-wave (km/s) = 3.21356 5.39225 4.43866
# Velocity P-wave (km/s) = 5.83920 8.55194 7.32229
#
# Compressibility (1/GPa) = 0.02709931
#
# Stress axis : x y z
#
# Youngs Moduli (GPa) = 68.24042 93.98672 35.31959
#
# Poissons Ratio (x) = 0.65725 0.08109
# Poissons Ratio (y) = 0.47721 0.14003
# Poissons Ratio (z) = 0.15668 0.37263
#
# Static dielectric constant tensor:
#      x y z
#    x 1.699970 0.000000 0.000000 
#    y 0.000000 1.657840 0.000000 
#    z 0.000000 0.000000 1.568840 
# 
# From -- ./inp_files/3592.got.cif
#   From: 2010.05.17/outbox.cif.g08.bks.cpg/sg16_2_cif.got.tgz:3592.got - 2010.06.03 22:28:35.
