data_PCOD9310959
_publ_section_title
;
Structure prediction by ZEFSAII (Michael W. Deem and Ramdas Pophale) SiO2 
 PCOD9310959
Probable space group: P 2 2 21
;
_chemical_formula_sum "Si O2"
_cell_formula_units_Z 18
_cell_length_a 5.999433
_cell_length_b 11.407822
_cell_length_c 11.826107
_cell_angle_alpha 90.000000
_cell_angle_beta 90.000000
_cell_angle_gamma 90.000000
_cell_volume 809.384248
_symmetry_space_group_name_H-M "P 2 2 21"
_symmetry_group_IT_number 17
_symmetry_cell_setting 'orthorhombic'
loop_
_space_group_symop_operation_xyz
x,y,z
-x,-y,1/2+z
x,-y,-z
-x,y,1/2-z
loop_
_atom_site_type_symbol
_atom_site_label
_atom_site_fract_x
_atom_site_fract_y
_atom_site_fract_z
Si Si1 0.856958 0.861595 0.986191
Si Si2 0.391239 0.329369 0.371609
Si Si3 0.741774 0.864811 0.233126
Si Si4 0.080365 0.500000 0.500000
Si Si5 0.766894 0.291774 0.552882
O O1 0.751702 0.819237 0.105215
O O2 0.108359 0.815413 0.988082
O O3 0.731793 0.796674 0.885207
O O4 0.840409 0.000000 0.000000
O O5 0.500000 0.343871 0.250000
O O6 0.221146 0.431670 0.405338
O O7 0.569883 0.331025 0.472309
O O8 0.500000 0.930578 0.250000
O O9 0.724114 0.760956 0.324087
O O10 0.000000 0.916641 0.250000
O O11 0.932223 0.400924 0.558720
#
# Coordination Sequence:
#
# PCOD9310959 Si02
#       5
#     4   4   4   2   4
#     4  10  23  43  68 103 138 185 235 288 354 426
#     4  11  24  47  66 101 139 179 233 297 362 425
#     4  10  20  42  70  99 139 179 235 287 345 420
#     4  10  24  46  68 102 134 182 234 290 362 434
#     4  10  22  46  65  99 140 179 233 294 354 430
#
# _framework density 22.239128999999998
#
# number of rings (size 3 to 8) (size 9 to 14) (size 15 to 20)
#    0.000    1.778    2.222    0.667    0.000    5.333 
#   48.000    0.000    0.000    0.000    0.000    0.000 
#    0.000    0.000    0.000    0.000    0.000    0.000 
#
# Total GULP energy -100367.921238 kJ/mol
# GULP energy per Si atom -5575.995624 kJ/mol
# Density = 2.218851 g / cm^3
# Si number density = 22.239129 Si / 1000 Ang^3
#
#
#
# Elastic Constant Matrix: (Units=GPa)
#
#
# Indices 1 2 3 4 5 6 
#
# 1 107.5150 39.8680 17.6759 0.0000 0.0000 0.0000
# 2 39.8680 138.7151 31.1385 0.0000 0.0000 0.0000
# 3 17.6759 31.1385 85.5912 0.0000 0.0000 0.0000
# 4 0.0000 0.0000 0.0000 9.1724 0.0000 0.0000
# 5 0.0000 0.0000 0.0000 0.0000 13.8658 0.0000
# 6 0.0000 0.0000 0.0000 0.0000 0.0000 7.3720
#
#
#
# Elastic Compliance Matrix: (Units=1/GPa)
#
#
# Indices 1 2 3 4 5 6 
#
# 1 0.010517 -0.002760 -0.001168 0.000000 0.000000 0.000000
# 2 -0.002760 0.008575 -0.002549 0.000000 0.000000 0.000000
# 3 -0.001168 -0.002549 0.012852 0.000000 0.000000 0.000000
# 4 0.000000 0.000000 0.000000 0.109023 0.000000 0.000000
# 5 0.000000 0.000000 0.000000 0.000000 0.072120 0.000000
# 6 0.000000 0.000000 0.000000 0.000000 0.000000 0.135648
#
#
# Mechanical properties :
#
#
# Convention : Reuss Voigt Hill
#
# Bulk Modulus (GPa) = 52.66372 56.57623 54.61997
# Shear Modulus (GPa) = 13.58627 22.29129 17.93878
#
# Velocity S-wave (km/s) = 2.47436 3.16942 2.84321
# Velocity P-wave (km/s) = 5.64759 6.23609 5.94912
#
# Compressibility (1/GPa) = 0.01898841
#
# Stress axis : x y z
#
# Youngs Moduli (GPa) = 95.08775 116.62214 77.80854
#
# Poissons Ratio (x) = 0.32193 0.09085
# Poissons Ratio (y) = 0.26249 0.19837
# Poissons Ratio (z) = 0.11102 0.29732
#
# Static dielectric constant tensor:
#      x y z
#    x 1.974910 0.000000 0.000000 
#    y 0.000000 1.831540 0.000000 
#    z 0.000000 0.000000 1.791290 
# 
# From -- ./inp_files/5806.got.cif
#   From: 2010.05.17/outbox.cif.g08.bks.cpg/sg17_3_cif.got.tgz:5806.got - 2010.06.03 22:34:06.
