data_PCOD9310401
_publ_section_title
;
Structure prediction by ZEFSAII (Michael W. Deem and Ramdas Pophale) SiO2 
 PCOD9310401
Probable space group: P 2 2 2
;
_chemical_formula_sum "Si O2"
_cell_formula_units_Z 21
_cell_length_a 4.960442
_cell_length_b 13.503331
_cell_length_c 13.389584
_cell_angle_alpha 90.000000
_cell_angle_beta 90.000000
_cell_angle_gamma 90.000000
_cell_volume 896.867679
_symmetry_space_group_name_H-M "P 2 2 2"
_symmetry_group_IT_number 16
_symmetry_cell_setting 'orthorhombic'
loop_
_space_group_symop_operation_xyz
x,y,z
-x,-y,z
x,-y,-z
-x,y,-z
loop_
_atom_site_type_symbol
_atom_site_label
_atom_site_fract_x
_atom_site_fract_y
_atom_site_fract_z
Si Si1 0.417497 0.708029 0.599601
Si Si2 0.409441 0.697845 0.814144
Si Si3 0.090594 0.394992 0.886723
Si Si4 0.699228 0.908944 0.812031
Si Si5 0.084135 0.846111 0.393418
Si Si6 0.000000 0.000000 0.000000
O O1 0.500000 0.651037 0.500000
O O2 0.470358 0.656979 0.703716
O O3 0.615981 0.803226 0.596276
O O4 0.119305 0.752691 0.607497
O O5 0.596722 0.629909 0.882294
O O6 0.521728 0.809110 0.821012
O O7 0.094522 0.688962 0.835980
O O8 0.000000 0.500000 0.841708
O O9 0.000000 0.395366 0.000000
O O10 0.901958 0.895938 0.716481
O O11 0.500000 0.000000 0.788894
O O12 0.832647 0.933359 0.920096
O O13 0.000000 0.895525 0.500000
#
# Coordination Sequence:
#
# PCOD9310401 Si02
#       6
#     4   4   4   4   4   1
#     4   9  18  36  65 100 128 164 212 267 329 397
#     4  11  23  42  72  95 127 180 218 267 342 405
#     4  11  25  44  67  98 130 166 224 289 338 390
#     4  11  27  44  66  97 141 187 234 280 338 413
#     4   9  19  39  68  90 127 172 225 282 330 381
#     4  12  30  44  62  86 150 192 238 290 326 408
#
# _framework density 23.414828
#
# number of rings (size 3 to 8) (size 9 to 14) (size 15 to 20)
#    0.000    1.714    0.000    3.714    9.333    3.048 
#    0.000    0.476   12.571    3.429    0.000    0.000 
#    0.000    0.000    0.000    0.000    0.000    0.000 
#
# Total GULP energy -117168.620334 kJ/mol
# GULP energy per Si atom -5579.458111 kJ/mol
# Density = 2.336153 g / cm^3
# Si number density = 23.414828 Si / 1000 Ang^3
#
#
#
# Elastic Constant Matrix: (Units=GPa)
#
#
# Indices 1 2 3 4 5 6 
#
# 1 78.4659 7.7914 27.7519 0.0000 0.0000 0.0000
# 2 7.7914 54.2532 3.4516 0.0000 0.0000 0.0000
# 3 27.7519 3.4516 186.9463 0.0000 0.0000 0.0000
# 4 0.0000 0.0000 0.0000 57.3846 0.0000 0.0000
# 5 0.0000 0.0000 0.0000 0.0000 40.4266 0.0000
# 6 0.0000 0.0000 0.0000 0.0000 0.0000 12.5667
#
#
#
# Elastic Compliance Matrix: (Units=1/GPa)
#
#
# Indices 1 2 3 4 5 6 
#
# 1 0.013630 -0.001831 -0.001990 0.000000 0.000000 0.000000
# 2 -0.001831 0.018700 -0.000073 0.000000 0.000000 0.000000
# 3 -0.001990 -0.000073 0.005646 0.000000 0.000000 0.000000
# 4 0.000000 0.000000 0.000000 0.017426 0.000000 0.000000
# 5 0.000000 0.000000 0.000000 0.000000 0.024736 0.000000
# 6 0.000000 0.000000 0.000000 0.000000 0.000000 0.079575
#
#
# Mechanical properties :
#
#
# Convention : Reuss Voigt Hill
#
# Bulk Modulus (GPa) = 33.12607 44.18391 38.65499
# Shear Modulus (GPa) = 28.15899 40.78696 34.47297
#
# Velocity S-wave (km/s) = 3.47163 4.17817 3.84118
# Velocity P-wave (km/s) = 5.49980 6.49516 6.01810
#
# Compressibility (1/GPa) = 0.03018770
#
# Stress axis : x y z
#
# Youngs Moduli (GPa) = 73.36840 53.47684 177.12196
#
# Poissons Ratio (x) = 0.09791 0.35239
# Poissons Ratio (y) = 0.13433 0.01301
# Poissons Ratio (z) = 0.14597 0.00393
#
# Static dielectric constant tensor:
#      x y z
#    x 1.869580 0.000000 0.000000 
#    y 0.000000 1.920650 0.000000 
#    z 0.000000 0.000000 2.002180 
# 
# From -- ./inp_files/7527.got.cif
#   From: 2010.05.17/outbox.cif.g08.bks.cpg/sg16_4_cif.got.tgz:7527.got - 2010.06.03 22:28:35.
