data_PCOD9310516
_publ_section_title
;
Structure prediction by ZEFSAII (Michael W. Deem and Ramdas Pophale) SiO2 
 PCOD9310516
Probable space group: P 2 2 21
;
_chemical_formula_sum "Si O2"
_cell_formula_units_Z 24
_cell_length_a 23.888124
_cell_length_b 5.577959
_cell_length_c 8.873220
_cell_angle_alpha 90.000000
_cell_angle_beta 90.000000
_cell_angle_gamma 90.000000
_cell_volume 1182.329735
_symmetry_space_group_name_H-M "P 2 2 21"
_symmetry_group_IT_number 17
_symmetry_cell_setting 'orthorhombic'
loop_
_space_group_symop_operation_xyz
x,y,z
-x,-y,1/2+z
x,-y,-z
-x,y,1/2-z
loop_
_atom_site_type_symbol
_atom_site_label
_atom_site_fract_x
_atom_site_fract_y
_atom_site_fract_z
Si Si1 0.405147 0.000000 0.500000
Si Si2 0.238300 0.251700 0.089324
Si Si3 0.595107 0.000000 0.500000
Si Si4 0.344770 0.288629 0.261179
Si Si5 0.106395 0.750416 0.844055
Si Si6 0.441124 0.335920 0.763965
Si Si7 0.937228 0.250345 0.687941
O O1 0.364991 0.188903 0.419191
O O2 0.438877 0.139727 0.629670
O O3 0.278806 0.283186 0.233255
O O4 0.172337 0.248902 0.123118
O O5 0.250214 0.500000 0.000000
O O6 0.249525 0.000000 0.000000
O O7 0.632319 0.886977 0.630707
O O8 0.558998 0.795166 0.423617
O O9 0.382378 0.524953 0.240322
O O10 0.090472 0.502119 0.763388
O O11 0.090283 0.998284 0.763159
O O12 0.073066 0.750037 0.005397
O O13 0.500000 0.477187 0.750000
O O14 0.000000 0.250846 0.750000
#
# Coordination Sequence:
#
# PCOD9310516 Si02
#       7
#     2   4   2   4   4   4   4
#     4  10  25  44  58  90 128 166 209 256 354 394
#     4  12  21  39  67  96 129 160 229 281 320 382
#     4  10  21  38  58  92 116 150 215 260 332 380
#     4  11  24  39  64  91 122 169 211 272 331 388
#     4  10  19  35  54  94 117 164 208 256 318 363
#     4  11  23  41  63  90 124 162 211 268 336 408
#     4  10  18  32  55  85 122 155 197 248 309 367
#
# _framework density 20.298907
#
# number of rings (size 3 to 8) (size 9 to 14) (size 15 to 20)
#    0.000    1.333    4.167    3.000    2.333    5.333 
#    0.000    0.000    0.000    6.000    0.000    0.000 
#    0.000    0.000    0.000    0.000    0.000    0.000 
#
# Total GULP energy -133752.063093 kJ/mol
# GULP energy per Si atom -5573.002629 kJ/mol
# Density = 2.025271 g / cm^3
# Si number density = 20.298907 Si / 1000 Ang^3
#
#
#
# Elastic Constant Matrix: (Units=GPa)
#
#
# Indices 1 2 3 4 5 6 
#
# 1 119.3700 16.9275 21.4632 0.0000 0.0000 0.0000
# 2 16.9275 138.5707 -2.1009 0.0000 0.0000 0.0000
# 3 21.4632 -2.1009 32.6518 0.0000 0.0000 0.0000
# 4 0.0000 0.0000 0.0000 25.2842 0.0000 0.0000
# 5 0.0000 0.0000 0.0000 0.0000 -10.4395 0.0000
# 6 0.0000 0.0000 0.0000 0.0000 0.0000 21.5104
#
#
#
# Elastic Compliance Matrix: (Units=1/GPa)
#
#
# Indices 1 2 3 4 5 6 
#
# 1 0.009724 -0.001286 -0.006475 0.000000 0.000000 0.000000
# 2 -0.001286 0.007394 0.001321 0.000000 0.000000 0.000000
# 3 -0.006475 0.001321 0.034967 0.000000 0.000000 0.000000
# 4 0.000000 0.000000 0.000000 0.039550 0.000000 0.000000
# 5 0.000000 0.000000 0.000000 0.000000 -0.095790 0.000000
# 6 0.000000 0.000000 0.000000 0.000000 0.000000 0.046489
#
#
# Mechanical properties :
#
#
# Convention : Reuss Voigt Hill
#
# Bulk Modulus (GPa) = 25.50655 40.35246 32.92950
# Shear Modulus (GPa) = 73.22598 24.22454 48.72526
#
# Velocity S-wave (km/s) = 6.01267 3.45830 4.90469
# Velocity P-wave (km/s) = 7.79716 5.98905 6.95213
#
# Compressibility (1/GPa) = 0.03920562
#
# Stress axis : x y z
#
# Youngs Moduli (GPa) = 102.84012 135.25105 28.59829
#
# Poissons Ratio (x) = 0.17393 0.18516
# Poissons Ratio (y) = 0.13225 -0.03778
# Poissons Ratio (z) = 0.66584 -0.17868
#
# Static dielectric constant tensor:
#      x y z
#    x 1.724020 0.000000 0.000000 
#    y 0.000000 1.905410 0.000000 
#    z 0.000000 0.000000 1.696270 
# 
# From -- ./inp_files/5555.got.cif
#   From: 2010.05.17/outbox.cif.g08.bks.cpg/sg17_3_cif.got.tgz:5555.got - 2010.06.03 22:34:06.
