data_PCOD9310555
_publ_section_title
;
Structure prediction by ZEFSAII (Michael W. Deem and Ramdas Pophale) SiO2 
 PCOD9310555
Probable space group: P 2 2 21
;
_chemical_formula_sum "Si O2"
_cell_formula_units_Z 26
_cell_length_a 8.931220
_cell_length_b 14.452910
_cell_length_c 11.278730
_cell_angle_alpha 90.000000
_cell_angle_beta 90.000000
_cell_angle_gamma 90.000000
_cell_volume 1455.882366
_symmetry_space_group_name_H-M "P 2 2 21"
_symmetry_group_IT_number 17
_symmetry_cell_setting 'orthorhombic'
loop_
_space_group_symop_operation_xyz
x,y,z
-x,-y,1/2+z
x,-y,-z
-x,y,1/2-z
loop_
_atom_site_type_symbol
_atom_site_label
_atom_site_fract_x
_atom_site_fract_y
_atom_site_fract_z
Si Si1 0.282086 0.898331 0.044728
Si Si2 0.254844 0.390683 0.986932
Si Si3 0.555202 0.748055 0.617399
Si Si4 0.305268 0.725594 0.422140
Si Si5 0.972804 0.245635 0.610062
Si Si6 0.539063 0.553707 0.125277
Si Si7 0.500000 0.852494 0.250000
O O1 0.135687 0.840902 0.084262
O O2 0.398921 0.905556 0.154160
O O3 0.362791 0.835600 0.943846
O O4 0.244838 0.000000 0.000000
O O5 0.114447 0.334141 0.941222
O O6 0.391000 0.382597 0.892475
O O7 0.225455 0.500000 0.000000
O O8 0.328436 0.337799 0.099516
O O9 0.500000 0.762221 0.750000
O O10 0.407682 0.728189 0.538926
O O11 0.318198 0.620630 0.372992
O O12 0.385267 0.789904 0.325134
O O13 0.137781 0.758251 0.445176
O O14 0.000000 0.254487 0.750000
O O15 0.500000 0.504277 0.250000
O O16 0.546888 0.500000 0.000000
#
# Coordination Sequence:
#
# PCOD9310555 Si02
#       7
#     4   4   4   4   4   4   2
#     4  10  22  38  62  91 119 148 195 245 299 362
#     4   9  20  35  54  81 120 159 200 247 289 350
#     4   9  20  39  61  84 116 158 198 249 300 342
#     4  10  19  34  61  82 112 157 200 235 297 349
#     4  11  20  37  59  85 121 158 191 242 301 356
#     4  10  19  32  53  82 114 155 208 258 289 341
#     4  10  18  38  62  84 108 148 198 248 276 348
#
# _framework density 17.858587
#
# number of rings (size 3 to 8) (size 9 to 14) (size 15 to 20)
#    0.000    2.154    2.308    1.846    1.077    6.154 
#    0.000    9.231    0.000    0.000    0.000    0.000 
#    0.000    0.000    0.000    0.000    0.000    0.000 
#
# Total GULP energy -144830.296288 kJ/mol
# GULP energy per Si atom -5570.396011 kJ/mol
# Density = 1.781794 g / cm^3
# Si number density = 17.858587 Si / 1000 Ang^3
#
#
#
# Elastic Constant Matrix: (Units=GPa)
#
#
# Indices 1 2 3 4 5 6 
#
# 1 132.5969 50.6322 37.5285 0.0000 0.0000 0.0000
# 2 50.6322 101.3526 32.2846 0.0000 0.0000 0.0000
# 3 37.5285 32.2846 120.0787 0.0000 0.0000 0.0000
# 4 0.0000 0.0000 0.0000 15.0175 0.0000 0.0000
# 5 0.0000 0.0000 0.0000 0.0000 21.7628 0.0000
# 6 0.0000 0.0000 0.0000 0.0000 0.0000 13.4657
#
#
#
# Elastic Compliance Matrix: (Units=1/GPa)
#
#
# Indices 1 2 3 4 5 6 
#
# 1 0.009696 -0.004242 -0.001890 0.000000 0.000000 0.000000
# 2 -0.004242 0.012646 -0.002074 0.000000 0.000000 0.000000
# 3 -0.001890 -0.002074 0.009476 0.000000 0.000000 0.000000
# 4 0.000000 0.000000 0.000000 0.066589 0.000000 0.000000
# 5 0.000000 0.000000 0.000000 0.000000 0.045950 0.000000
# 6 0.000000 0.000000 0.000000 0.000000 0.000000 0.074263
#
#
# Mechanical properties :
#
#
# Convention : Reuss Voigt Hill
#
# Bulk Modulus (GPa) = 64.90764 66.10210 65.50487
# Shear Modulus (GPa) = 20.81865 25.62137 23.22001
#
# Velocity S-wave (km/s) = 3.41801 3.79183 3.60976
# Velocity P-wave (km/s) = 7.21119 7.50101 7.35753
#
# Compressibility (1/GPa) = 0.01540651
#
# Stress axis : x y z
#
# Youngs Moduli (GPa) = 103.13170 79.07362 105.52678
#
# Poissons Ratio (x) = 0.33543 0.19944
# Poissons Ratio (y) = 0.43748 0.21891
# Poissons Ratio (z) = 0.19491 0.16403
#
# Static dielectric constant tensor:
#      x y z
#    x 1.618690 0.000000 0.000000 
#    y 0.000000 1.642730 0.000000 
#    z 0.000000 0.000000 1.655390 
# 
# From -- ./inp_files/6679.got.cif
#   From: 2010.05.17/outbox.cif.g08.bks.cpg/sg17_4_cif.got.tgz:6679.got - 2010.06.03 22:34:06.
