data_PCOD9310304
_publ_section_title
;
Structure prediction by ZEFSAII (Michael W. Deem and Ramdas Pophale) SiO2 
 PCOD9310304
Probable space group: P 2 2 2
;
_chemical_formula_sum "Si O2"
_cell_formula_units_Z 20
_cell_length_a 4.875067
_cell_length_b 13.751664
_cell_length_c 11.878192
_cell_angle_alpha 90.000000
_cell_angle_beta 90.000000
_cell_angle_gamma 90.000000
_cell_volume 796.317358
_symmetry_space_group_name_H-M "P 2 2 2"
_symmetry_group_IT_number 16
_symmetry_cell_setting 'orthorhombic'
loop_
_space_group_symop_operation_xyz
x,y,z
-x,-y,z
x,-y,-z
-x,y,-z
loop_
_atom_site_type_symbol
_atom_site_label
_atom_site_fract_x
_atom_site_fract_y
_atom_site_fract_z
Si Si1 0.677705 0.139184 0.833668
Si Si2 0.815954 0.859191 0.679116
Si Si3 0.000000 0.000000 0.500000
Si Si4 0.805690 0.634287 0.675562
Si Si5 0.000000 0.500000 0.000000
Si Si6 0.000000 0.000000 0.000000
Si Si7 0.685576 0.635344 0.170721
Si Si8 0.500000 0.500000 0.500000
O O1 0.379400 0.115709 0.784431
O O2 0.687420 0.252377 0.869015
O O3 0.876759 0.133925 0.726062
O O4 0.803961 0.069642 0.926593
O O5 0.758207 0.747706 0.646461
O O6 0.809555 0.931841 0.576508
O O7 0.617346 0.613136 0.784948
O O8 0.695701 0.567027 0.576953
O O9 0.115934 0.624373 0.719431
O O10 0.808078 0.431815 0.924344
#
# Coordination Sequence:
#
# PCOD9310304 Si02
#       8
#     4   4   1   4   1   1   4   1
#     4  10  24  45  65  96 138 179 223 285 346 410
#     4  10  25  46  68  99 140 177 227 287 347 414
#     4  12  26  46  80 106 136 194 242 286 356 422
#     4  10  24  44  65  96 136 175 220 281 339 404
#     4  12  22  38  72 102 124 174 230 274 332 414
#     4  12  24  42  72  98 128 182 236 278 344 418
#     4  10  23  43  64  94 135 171 217 278 339 399
#     4  12  24  42  72  98 128 182 232 274 340 410
#
# _framework density 25.115617
#
# number of rings (size 3 to 8) (size 9 to 14) (size 15 to 20)
#    0.000    1.600    0.000    2.400    0.000   14.400 
#    0.000    8.000    0.000    0.000    0.000    0.000 
#    0.000    0.000    0.000    0.000    0.000    0.000 
#
# Total GULP energy -112307.910940 kJ/mol
# GULP energy per Si atom -5615.395547 kJ/mol
# Density = 2.505845 g / cm^3
# Si number density = 25.115617 Si / 1000 Ang^3
#
#
#
# Elastic Constant Matrix: (Units=GPa)
#
#
# Indices 1 2 3 4 5 6 
#
# 1 89.3622 25.0459 5.9591 0.0000 0.0000 0.0000
# 2 25.0459 158.5884 99.9582 0.0000 0.0000 0.0000
# 3 5.9591 99.9582 105.2467 0.0000 0.0000 0.0000
# 4 0.0000 0.0000 0.0000 31.7172 0.0000 0.0000
# 5 0.0000 0.0000 0.0000 0.0000 21.5625 0.0000
# 6 0.0000 0.0000 0.0000 0.0000 0.0000 31.2887
#
#
#
# Elastic Compliance Matrix: (Units=1/GPa)
#
#
# Indices 1 2 3 4 5 6 
#
# 1 0.012031 -0.003664 0.002799 0.000000 0.000000 0.000000
# 2 -0.003664 0.016826 -0.015773 0.000000 0.000000 0.000000
# 3 0.002799 -0.015773 0.024324 0.000000 0.000000 0.000000
# 4 0.000000 0.000000 0.000000 0.031529 0.000000 0.000000
# 5 0.000000 0.000000 0.000000 0.000000 0.046377 0.000000
# 6 0.000000 0.000000 0.000000 0.000000 0.000000 0.031960
#
#
# Mechanical properties :
#
#
# Convention : Reuss Voigt Hill
#
# Bulk Modulus (GPa) = 50.24239 68.34707 59.29473
# Shear Modulus (GPa) = 24.63567 31.72929 28.18248
#
# Velocity S-wave (km/s) = 3.13531 3.55819 3.35342
# Velocity P-wave (km/s) = 5.75802 6.64477 6.21723
#
# Compressibility (1/GPa) = 0.01990351
#
# Stress axis : x y z
#
# Youngs Moduli (GPa) = 83.12053 59.43146 41.11239
#
# Poissons Ratio (x) = 0.21776 -0.11507
# Poissons Ratio (y) = 0.30456 0.64847
# Poissons Ratio (z) = -0.23264 0.93742
#
# Static dielectric constant tensor:
#      x y z
#    x 1.918120 0.000000 0.000000 
#    y 0.000000 1.989950 0.000000 
#    z 0.000000 0.000000 1.970280 
# 
# From -- ./inp_files/5959.got.cif
#   From: 2010.05.17/outbox.cif.g08.bks.cpg/sg16_3_cif.got.tgz:5959.got - 2010.06.03 22:28:35.
