data_PCOD9310013
_publ_section_title
;
Structure prediction by ZEFSAII (Michael W. Deem and Ramdas Pophale) SiO2 
 PCOD9310013
Probable space group: P 2 2 2
;
_chemical_formula_sum "Si O2"
_cell_formula_units_Z 18
_cell_length_a 16.683642
_cell_length_b 10.229906
_cell_length_c 5.430670
_cell_angle_alpha 90.000000
_cell_angle_beta 90.000000
_cell_angle_gamma 90.000000
_cell_volume 926.863796
_symmetry_space_group_name_H-M "P 2 2 2"
_symmetry_group_IT_number 16
_symmetry_cell_setting 'orthorhombic'
loop_
_space_group_symop_operation_xyz
x,y,z
-x,-y,z
x,-y,-z
-x,y,-z
loop_
_atom_site_type_symbol
_atom_site_label
_atom_site_fract_x
_atom_site_fract_y
_atom_site_fract_z
Si Si1 0.291105 0.879364 0.848875
Si Si2 0.533662 0.849193 0.257612
Si Si3 0.843285 0.000000 0.500000
Si Si4 0.092737 0.283532 0.537987
Si Si5 0.185096 0.645626 0.971887
O O1 0.370583 0.838033 0.708141
O O2 0.252357 0.758008 0.990783
O O3 0.217456 0.945849 0.705433
O O4 0.325536 0.000000 0.000000
O O5 0.500000 0.782634 0.500000
O O6 0.500000 0.000000 0.259258
O O7 0.500000 0.795116 0.000000
O O8 0.895412 0.873556 0.564674
O O9 0.141802 0.331775 0.294720
O O10 0.000000 0.315542 0.500000
O O11 0.125425 0.338921 0.795924
O O12 0.218427 0.500000 0.000000
#
# Coordination Sequence:
#
# PCOD9310013 Si02
#       5
#     4   4   2   4   4
#     4  11  20  37  61  86 121 156 197 246 294 355
#     4  10  19  30  52  87 116 142 183 235 286 337
#     4  10  21  36  57  90 120 150 200 248 311 352
#     4  11  23  39  62  86 119 156 202 257 306 356
#     4  11  25  41  60  87 119 160 206 244 298 360
#
# _framework density 19.420328999999999
#
# number of rings (size 3 to 8) (size 9 to 14) (size 15 to 20)
#    0.000    1.333    4.444    3.000    0.000    2.667 
#    0.000    2.222    0.000    0.667    0.000    3.111 
#    0.000    0.000    0.000    0.000    0.000    0.000 
#
# Total GULP energy -100271.815555 kJ/mol
# GULP energy per Si atom -5570.656420 kJ/mol
# Density = 1.937613 g / cm^3
# Si number density = 19.420329 Si / 1000 Ang^3
#
#
#
# Elastic Constant Matrix: (Units=GPa)
#
#
# Indices 1 2 3 4 5 6 
#
# 1 90.6232 12.6274 16.9086 0.0000 0.0000 0.0000
# 2 12.6274 104.0198 16.1527 0.0000 0.0000 0.0000
# 3 16.9086 16.1527 114.0167 0.0000 0.0000 0.0000
# 4 0.0000 0.0000 0.0000 14.5622 0.0000 0.0000
# 5 0.0000 0.0000 0.0000 0.0000 33.5392 0.0000
# 6 0.0000 0.0000 0.0000 0.0000 0.0000 -3.5847
#
#
#
# Elastic Compliance Matrix: (Units=1/GPa)
#
#
# Indices 1 2 3 4 5 6 
#
# 1 0.011483 -0.001155 -0.001539 0.000000 0.000000 0.000000
# 2 -0.001155 0.009946 -0.001238 0.000000 0.000000 0.000000
# 3 -0.001539 -0.001238 0.009174 0.000000 0.000000 0.000000
# 4 0.000000 0.000000 0.000000 0.068671 0.000000 0.000000
# 5 0.000000 0.000000 0.000000 0.000000 0.029816 0.000000
# 6 0.000000 0.000000 0.000000 0.000000 0.000000 -0.278965
#
#
# Mechanical properties :
#
#
# Convention : Reuss Voigt Hill
#
# Bulk Modulus (GPa) = 43.97704 44.44855 44.21280
# Shear Modulus (GPa) = -37.19381 26.43473 -5.37954
#
# Velocity S-wave (km/s) = -4.38105 3.69343 -1.66615
# Velocity P-wave (km/s) = 1.70218 6.41295 4.37198
#
# Compressibility (1/GPa) = 0.02273914
#
# Stress axis : x y z
#
# Youngs Moduli (GPa) = 87.08653 100.54327 109.00041
#
# Poissons Ratio (x) = 0.11612 0.16778
# Poissons Ratio (y) = 0.10058 0.13492
# Poissons Ratio (z) = 0.13405 0.12445
#
# Static dielectric constant tensor:
#      x y z
#    x 1.672590 0.000000 0.000000 
#    y 0.000000 1.684930 0.000000 
#    z 0.000000 0.000000 1.744610 
# 
# From -- ./inp_files/843.got.cif
#   From: 2010.05.17/outbox.cif.g08.bks.cpg/sg16_1_cif.got.tgz:843.got - 2010.06.03 22:28:35.
