data_PCOD9310719
_publ_section_title
;
Structure prediction by ZEFSAII (Michael W. Deem and Ramdas Pophale) SiO2 
 PCOD9310719
Probable space group: P 2 2 21
;
_chemical_formula_sum "Si O2"
_cell_formula_units_Z 26
_cell_length_a 16.511028
_cell_length_b 8.107854
_cell_length_c 9.107059
_cell_angle_alpha 90.000000
_cell_angle_beta 90.000000
_cell_angle_gamma 90.000000
_cell_volume 1219.152921
_symmetry_space_group_name_H-M "P 2 2 21"
_symmetry_group_IT_number 17
_symmetry_cell_setting 'orthorhombic'
loop_
_space_group_symop_operation_xyz
x,y,z
-x,-y,1/2+z
x,-y,-z
-x,y,1/2-z
loop_
_atom_site_type_symbol
_atom_site_label
_atom_site_fract_x
_atom_site_fract_y
_atom_site_fract_z
Si Si1 0.000000 0.983737 0.750000
Si Si2 0.127792 0.384770 0.687485
Si Si3 0.296347 0.319194 0.805790
Si Si4 0.875075 0.250542 0.236528
Si Si5 0.412465 0.009708 0.822906
Si Si6 0.700828 0.707944 0.659061
Si Si7 0.962316 0.734139 0.451448
O O1 0.928105 0.890583 0.837299
O O2 0.951816 0.094130 0.633551
O O3 0.215209 0.300024 0.705891
O O4 0.134199 0.577640 0.653322
O O5 0.094716 0.384278 0.855551
O O6 0.053752 0.313309 0.594079
O O7 0.315318 0.517409 0.791313
O O8 0.361011 0.173140 0.775030
O O9 0.285412 0.298343 0.982390
O O10 0.784297 0.214808 0.281338
O O11 0.931260 0.268058 0.383322
O O12 0.500000 0.017036 0.750000
O O13 0.367284 0.836545 0.790642
O O14 0.419820 0.000000 0.000000
#
# Coordination Sequence:
#
# PCOD9310719 Si02
#       7
#     2   4   4   4   4   4   4
#     4  10  22  28  44  74 104 146 194 228 284 326
#     4   9  18  31  50  77 103 147 192 235 288 333
#     4   9  17  34  56  88 111 147 190 243 291 351
#     4  11  19  34  51  74 111 149 194 247 280 330
#     4  10  22  38  64  93 119 151 190 244 310 370
#     4   9  19  32  60  87 111 144 196 244 292 349
#     4  10  20  30  48  75 109 145 187 242 286 328
#
# _framework density 21.326280000000001
#
# number of rings (size 3 to 8) (size 9 to 14) (size 15 to 20)
#    0.000    2.462    1.538    1.846    4.308    1.846 
#    0.000    0.000    3.385    0.000    0.000    0.000 
#    0.000    0.000    0.000    0.000    0.000    0.000 
#
# Total GULP energy -144808.860356 kJ/mol
# GULP energy per Si atom -5569.571552 kJ/mol
# Density = 2.127774 g / cm^3
# Si number density = 21.326280 Si / 1000 Ang^3
#
#
#
# Elastic Constant Matrix: (Units=GPa)
#
#
# Indices 1 2 3 4 5 6 
#
# 1 170.3502 75.1933 13.8529 0.0000 0.0000 0.0000
# 2 75.1933 106.3162 -11.3539 0.0000 0.0000 0.0000
# 3 13.8529 -11.3539 22.7424 0.0000 0.0000 0.0000
# 4 0.0000 0.0000 0.0000 30.4118 0.0000 0.0000
# 5 0.0000 0.0000 0.0000 0.0000 29.2548 0.0000
# 6 0.0000 0.0000 0.0000 0.0000 0.0000 -49.1974
#
#
#
# Elastic Compliance Matrix: (Units=1/GPa)
#
#
# Indices 1 2 3 4 5 6 
#
# 1 0.010534 -0.008594 -0.010707 0.000000 0.000000 0.000000
# 2 -0.008594 0.016947 0.013695 0.000000 0.000000 0.000000
# 3 -0.010707 0.013695 0.057330 0.000000 0.000000 0.000000
# 4 0.000000 0.000000 0.000000 0.032882 0.000000 0.000000
# 5 0.000000 0.000000 0.000000 0.000000 0.034182 0.000000
# 6 0.000000 0.000000 0.000000 0.000000 0.000000 -0.020326
#
#
# Mechanical properties :
#
#
# Convention : Reuss Voigt Hill
#
# Bulk Modulus (GPa) = 13.58710 50.53259 32.05984
# Shear Modulus (GPa) = 29.88744 16.87495 23.38119
#
# Velocity S-wave (km/s) = 3.74764 2.81601 3.31472
# Velocity P-wave (km/s) = 5.01112 5.85830 5.45119
#
# Compressibility (1/GPa) = 0.07359923
#
# Stress axis : x y z
#
# Youngs Moduli (GPa) = 94.92688 59.00849 17.44285
#
# Poissons Ratio (x) = 0.50712 0.18676
# Poissons Ratio (y) = 0.81581 -0.23889
# Poissons Ratio (z) = 1.01641 -0.80814
#
# Static dielectric constant tensor:
#      x y z
#    x 1.753500 0.000000 0.000000 
#    y 0.000000 1.959600 0.000000 
#    z 0.000000 0.000000 1.905220 
# 
# From -- ./inp_files/7235.got.cif
#   From: 2010.05.17/outbox.cif.g08.bks.cpg/sg17_4_cif.got.tgz:7235.got - 2010.06.03 22:34:06.
