data_PCOD9310049
_publ_section_title
;
Structure prediction by ZEFSAII (Michael W. Deem and Ramdas Pophale) SiO2 
 PCOD9310049
Probable space group: P 2 2 2
;
_chemical_formula_sum "Si O2"
_cell_formula_units_Z 32
_cell_length_a 5.142356
_cell_length_b 13.243940
_cell_length_c 26.651522
_cell_angle_alpha 90.000000
_cell_angle_beta 90.000000
_cell_angle_gamma 90.000000
_cell_volume 1815.103354
_symmetry_space_group_name_H-M "P 2 2 2"
_symmetry_group_IT_number 16
_symmetry_cell_setting 'orthorhombic'
loop_
_space_group_symop_operation_xyz
x,y,z
-x,-y,z
x,-y,-z
-x,y,-z
loop_
_atom_site_type_symbol
_atom_site_label
_atom_site_fract_x
_atom_site_fract_y
_atom_site_fract_z
Si Si1 0.745808 0.385454 0.976792
Si Si2 0.519708 0.882387 0.681384
Si Si3 0.260124 0.434242 0.711471
Si Si4 0.561481 0.308080 0.385070
Si Si5 0.384096 0.610739 0.859637
Si Si6 0.979934 0.116700 0.749955
Si Si7 0.952676 0.382214 0.559510
Si Si8 0.124498 0.694934 0.192106
O O1 0.708240 0.387812 0.917569
O O2 0.747283 0.500000 0.000000
O O3 0.500000 0.331515 0.000000
O O4 0.000000 0.337238 0.000000
O O5 0.492339 0.801372 0.637213
O O6 0.296512 0.864015 0.723200
O O7 0.798155 0.868002 0.707754
O O8 0.500000 0.000000 0.665624
O O9 0.500000 0.500000 0.731357
O O10 0.376961 0.379781 0.662560
O O11 0.192123 0.354309 0.754273
O O12 0.000000 0.500000 0.700936
O O13 0.329068 0.350950 0.419471
O O14 0.829828 0.312138 0.415293
O O15 0.500000 0.500000 0.850263
O O16 0.624024 0.683013 0.843663
O O17 0.125072 0.635578 0.828907
O O18 0.037835 0.191726 0.795361
O O19 0.000000 0.000000 0.765321
O O20 0.000000 0.500000 0.573106
O O21 0.000000 0.374996 0.500000
#
# Coordination Sequence:
#
# PCOD9310049 Si02
#       8
#     4   4   4   4   4   4   4   4
#     4  10  19  34  54  72 101 150 203 243 263 310
#     4  10  21  38  62  86 108 142 196 243 281 333
#     4  12  24  36  51  80 120 157 189 220 269 342
#     4  12  22  38  63  82 111 149 194 236 283 339
#     4  12  23  36  52  80 118 164 189 228 288 332
#     4  10  21  40  59  79 111 153 194 244 280 325
#     4  11  24  41  59  85 114 148 192 238 284 338
#     4  12  24  36  53  81 121 154 194 228 280 355
#
# _framework density 17.629849
#
# number of rings (size 3 to 8) (size 9 to 14) (size 15 to 20)
#    0.000    0.875    2.500    7.125    3.500    1.000 
#    0.000    0.000    0.000    2.250    0.000    0.000 
#    0.000    7.500    0.000    0.000    0.000    0.000 
#
# Total GULP energy -178701.295338 kJ/mol
# GULP energy per Si atom -5584.415479 kJ/mol
# Density = 1.758972 g / cm^3
# Si number density = 17.629849 Si / 1000 Ang^3
#
#
#
# Elastic Constant Matrix: (Units=GPa)
#
#
# Indices 1 2 3 4 5 6 
#
# 1 125.5366 17.4279 33.8666 0.0000 0.0000 0.0000
# 2 17.4279 74.4772 35.7035 0.0000 0.0000 0.0000
# 3 33.8666 35.7035 99.5287 0.0000 0.0000 0.0000
# 4 0.0000 0.0000 0.0000 1.4435 0.0000 0.0000
# 5 0.0000 0.0000 0.0000 0.0000 14.5359 0.0000
# 6 0.0000 0.0000 0.0000 0.0000 0.0000 17.7902
#
#
#
# Elastic Compliance Matrix: (Units=1/GPa)
#
#
# Indices 1 2 3 4 5 6 
#
# 1 0.008806 -0.000754 -0.002726 0.000000 0.000000 0.000000
# 2 -0.000754 0.016280 -0.005584 0.000000 0.000000 0.000000
# 3 -0.002726 -0.005584 0.012978 0.000000 0.000000 0.000000
# 4 0.000000 0.000000 0.000000 0.692743 0.000000 0.000000
# 5 0.000000 0.000000 0.000000 0.000000 0.068795 0.000000
# 6 0.000000 0.000000 0.000000 0.000000 0.000000 0.056211
#
#
# Mechanical properties :
#
#
# Convention : Reuss Voigt Hill
#
# Bulk Modulus (GPa) = 50.15776 52.61539 51.38657
# Shear Modulus (GPa) = 5.67804 20.92355 13.30080
#
# Velocity S-wave (km/s) = 1.79658 3.44877 2.74970
# Velocity P-wave (km/s) = 5.72851 6.76520 6.26833
#
# Compressibility (1/GPa) = 0.01993710
#
# Stress axis : x y z
#
# Youngs Moduli (GPa) = 113.56088 61.42506 77.05420
#
# Poissons Ratio (x) = 0.04630 0.21005
# Poissons Ratio (y) = 0.08560 0.43024
# Poissons Ratio (z) = 0.30956 0.34297
#
# Static dielectric constant tensor:
#      x y z
#    x 1.629280 0.000000 0.000000 
#    y 0.000000 1.603210 0.000000 
#    z 0.000000 0.000000 1.634150 
# 
# From -- ./inp_files/9523.got.cif
#   From: 2010.05.17/outbox.cif.g08.bks.cpg/sg16_5_cif.got.tgz:9523.got - 2010.06.03 22:28:35.
