data_PCOD9310275
_publ_section_title
;
Structure prediction by ZEFSAII (Michael W. Deem and Ramdas Pophale) SiO2 
 PCOD9310275
Probable space group: P 2 2 2
;
_chemical_formula_sum "Si O2"
_cell_formula_units_Z 18
_cell_length_a 9.844778
_cell_length_b 9.520260
_cell_length_c 8.955466
_cell_angle_alpha 90.000000
_cell_angle_beta 90.000000
_cell_angle_gamma 90.000000
_cell_volume 839.349674
_symmetry_space_group_name_H-M "P 2 2 2"
_symmetry_group_IT_number 16
_symmetry_cell_setting 'orthorhombic'
loop_
_space_group_symop_operation_xyz
x,y,z
-x,-y,z
x,-y,-z
-x,y,-z
loop_
_atom_site_type_symbol
_atom_site_label
_atom_site_fract_x
_atom_site_fract_y
_atom_site_fract_z
Si Si1 0.500000 0.000000 0.000000
Si Si2 0.696473 0.000000 0.500000
Si Si3 0.000000 0.500000 0.000000
Si Si4 0.000000 0.000000 0.000000
Si Si5 0.178041 0.252256 0.071770
Si Si6 0.586667 0.261021 0.688945
Si Si7 0.500000 0.500000 0.500000
Si Si8 0.304093 0.171489 0.778493
O O1 0.604961 0.926479 0.887546
O O2 0.617306 0.879651 0.406210
O O3 0.760418 0.909939 0.637312
O O4 0.092198 0.392990 0.096260
O O5 0.094605 0.106794 0.094779
O O6 0.315417 0.255733 0.167868
O O7 0.205969 0.247545 0.893480
O O8 0.601084 0.400890 0.594392
O O9 0.426371 0.267978 0.722255
#
# Coordination Sequence:
#
# PCOD9310275 Si02
#       8
#     1   2   1   1   4   4   1   4
#     4  12  18  30  60 108 128 160 208 262 334 398
#     4  12  21  36  64  99 144 167 194 260 355 414
#     4  10  28  46  66  88 128 194 232 286 308 358
#     4  10  22  42  66  96 120 172 232 286 316 362
#     4  11  24  44  68  93 130 171 237 280 320 389
#     4  12  23  40  64 100 135 171 208 275 351 413
#     4  12  28  38  58 110 144 174 206 260 378 420
#     4  12  20  36  64 104 130 165 208 273 348 404
#
# _framework density 21.445173
#
# number of rings (size 3 to 8) (size 9 to 14) (size 15 to 20)
#    0.000    0.444    6.667    2.667    3.111    0.000 
#    0.000    0.000    0.000   34.000    0.000    0.000 
#    0.000    0.000    0.000    0.000    0.000    0.000 
#
# Total GULP energy -100287.383192 kJ/mol
# GULP energy per Si atom -5571.521288 kJ/mol
# Density = 2.139636 g / cm^3
# Si number density = 21.445173 Si / 1000 Ang^3
#
#
#
# Elastic Constant Matrix: (Units=GPa)
#
#
# Indices 1 2 3 4 5 6 
#
# 1 57.2601 29.8339 28.7723 0.0000 0.0000 0.0000
# 2 29.8339 132.1969 42.3712 0.0000 0.0000 0.0000
# 3 28.7723 42.3712 132.6711 0.0000 0.0000 0.0000
# 4 0.0000 0.0000 0.0000 35.9421 0.0000 0.0000
# 5 0.0000 0.0000 0.0000 0.0000 7.2303 0.0000
# 6 0.0000 0.0000 0.0000 0.0000 0.0000 22.0908
#
#
#
# Elastic Compliance Matrix: (Units=1/GPa)
#
#
# Indices 1 2 3 4 5 6 
#
# 1 0.021084 -0.003668 -0.003401 0.000000 0.000000 0.000000
# 2 -0.003668 0.009065 -0.002100 0.000000 0.000000 0.000000
# 3 -0.003401 -0.002100 0.008946 0.000000 0.000000 0.000000
# 4 0.000000 0.000000 0.000000 0.027823 0.000000 0.000000
# 5 0.000000 0.000000 0.000000 0.000000 0.138308 0.000000
# 6 0.000000 0.000000 0.000000 0.000000 0.000000 0.045268
#
#
# Mechanical properties :
#
#
# Convention : Reuss Voigt Hill
#
# Bulk Modulus (GPa) = 48.17552 58.23146 53.20349
# Shear Modulus (GPa) = 18.13236 27.79600 22.96418
#
# Velocity S-wave (km/s) = 2.91094 3.60410 3.27591
# Velocity P-wave (km/s) = 5.81475 6.67323 6.25873
#
# Compressibility (1/GPa) = 0.02075743
#
# Stress axis : x y z
#
# Youngs Moduli (GPa) = 47.42855 110.31101 111.78695
#
# Poissons Ratio (x) = 0.40464 0.38019
# Poissons Ratio (y) = 0.17398 0.23472
# Poissons Ratio (z) = 0.16131 0.23162
#
# Static dielectric constant tensor:
#      x y z
#    x 1.819110 0.000000 0.000000 
#    y 0.000000 1.861110 0.000000 
#    z 0.000000 0.000000 1.896930 
# 
# From -- ./inp_files/3910.got.cif
#   From: 2010.05.17/outbox.cif.g08.bks.cpg/sg16_2_cif.got.tgz:3910.got - 2010.06.03 22:28:35.
