data_PCOD9310125
_publ_section_title
;
Structure prediction by ZEFSAII (Michael W. Deem and Ramdas Pophale) SiO2 
 PCOD9310125
Probable space group: P 2 2 2
;
_chemical_formula_sum "Si O2"
_cell_formula_units_Z 32
_cell_length_a 9.010837
_cell_length_b 12.890527
_cell_length_c 15.165837
_cell_angle_alpha 90.000000
_cell_angle_beta 90.000000
_cell_angle_gamma 90.000000
_cell_volume 1761.579268
_symmetry_space_group_name_H-M "P 2 2 2"
_symmetry_group_IT_number 16
_symmetry_cell_setting 'orthorhombic'
loop_
_space_group_symop_operation_xyz
x,y,z
-x,-y,z
x,-y,-z
-x,y,-z
loop_
_atom_site_type_symbol
_atom_site_label
_atom_site_fract_x
_atom_site_fract_y
_atom_site_fract_z
Si Si1 0.409615 0.606856 0.711558
Si Si2 0.157641 0.907319 0.445833
Si Si3 0.158518 0.979017 0.742638
Si Si4 0.177028 0.124238 0.002656
Si Si5 0.683421 0.798566 0.182878
Si Si6 0.659742 0.848843 0.825944
Si Si7 0.686662 0.273845 0.350870
Si Si8 0.828267 0.487719 0.396590
O O1 0.500000 0.500000 0.735866
O O2 0.346297 0.679550 0.789259
O O3 0.519121 0.681416 0.654432
O O4 0.273046 0.569025 0.653873
O O5 0.261308 0.809446 0.424181
O O6 0.000000 0.885477 0.500000
O O7 0.233320 0.000000 0.500000
O O8 0.138650 0.961553 0.350116
O O9 0.216328 0.860920 0.744286
O O10 0.284254 0.038958 0.795957
O O11 0.000000 0.000000 0.789251
O O12 0.235430 0.177822 0.091413
O O13 0.261757 0.172706 0.918613
O O14 0.000000 0.136910 0.000000
O O15 0.208939 0.000000 0.000000
O O16 0.516979 0.842960 0.172919
O O17 0.711525 0.774117 0.746256
O O18 0.784646 0.373821 0.366239
O O19 0.799725 0.500000 0.500000
O O20 0.000000 0.500000 0.379049
#
# Coordination Sequence:
#
# PCOD9310125 Si02
#       8
#     4   4   4   4   4   4   4   4
#     4   9  21  43  63  91 123 155 214 272 324 375
#     4  10  20  36  54  85 123 164 205 247 302 380
#     4  11  20  33  53  84 121 161 207 248 298 370
#     4  11  22  36  57  93 130 161 206 254 295 374
#     4  11  22  36  63  88 119 174 202 251 327 363
#     4  10  21  37  56  84 123 162 207 247 298 383
#     4   9  21  38  62  84 119 166 197 258 314 368
#     4  10  22  38  62  93 115 152 213 272 319 372
#
# _framework density 18.165519
#
# number of rings (size 3 to 8) (size 9 to 14) (size 15 to 20)
#    0.000    1.875    2.500    1.500    1.750    6.750 
#    0.000    1.250    0.000   21.750    0.000    8.750 
#    0.000    0.000    0.000    0.000    0.000    0.000 
#
# Total GULP energy -178219.367935 kJ/mol
# GULP energy per Si atom -5569.355248 kJ/mol
# Density = 1.812417 g / cm^3
# Si number density = 18.165519 Si / 1000 Ang^3
#
#
#
# Elastic Constant Matrix: (Units=GPa)
#
#
# Indices 1 2 3 4 5 6 
#
# 1 119.0044 74.5557 61.9070 0.0000 0.0000 0.0000
# 2 74.5557 115.8786 53.7390 0.0000 0.0000 0.0000
# 3 61.9070 53.7390 94.5393 0.0000 0.0000 0.0000
# 4 0.0000 0.0000 0.0000 22.5709 0.0000 0.0000
# 5 0.0000 0.0000 0.0000 0.0000 29.7597 0.0000
# 6 0.0000 0.0000 0.0000 0.0000 0.0000 10.8331
#
#
#
# Elastic Compliance Matrix: (Units=1/GPa)
#
#
# Indices 1 2 3 4 5 6 
#
# 1 0.016582 -0.007650 -0.006510 0.000000 0.000000 0.000000
# 2 -0.007650 0.015248 -0.003658 0.000000 0.000000 0.000000
# 3 -0.006510 -0.003658 0.016920 0.000000 0.000000 0.000000
# 4 0.000000 0.000000 0.000000 0.044305 0.000000 0.000000
# 5 0.000000 0.000000 0.000000 0.000000 0.033602 0.000000
# 6 0.000000 0.000000 0.000000 0.000000 0.000000 0.092310
#
#
# Mechanical properties :
#
#
# Convention : Reuss Voigt Hill
#
# Bulk Modulus (GPa) = 76.25357 78.86951 77.56154
# Shear Modulus (GPa) = 19.30686 21.91411 20.61049
#
# Velocity S-wave (km/s) = 3.26364 3.47703 3.37203
# Velocity P-wave (km/s) = 7.50134 7.72212 7.61253
#
# Compressibility (1/GPa) = 0.01311414
#
# Stress axis : x y z
#
# Youngs Moduli (GPa) = 60.30537 65.58207 59.10170
#
# Poissons Ratio (x) = 0.50169 0.38476
# Poissons Ratio (y) = 0.46133 0.21620
# Poissons Ratio (z) = 0.39259 0.23991
#
# Static dielectric constant tensor:
#      x y z
#    x 1.655110 0.000000 0.000000 
#    y 0.000000 1.633430 0.000000 
#    z 0.000000 0.000000 1.676160 
# 
# From -- ./inp_files/7968.got.cif
#   From: 2010.05.17/outbox.cif.g08.bks.cpg/sg16_4_cif.got.tgz:7968.got - 2010.06.03 22:28:35.
