data_PCOD9310594
_publ_section_title
;
Structure prediction by ZEFSAII (Michael W. Deem and Ramdas Pophale) SiO2 
 PCOD9310594
Probable space group: P 2 2 21
;
_chemical_formula_sum "Si O2"
_cell_formula_units_Z 26
_cell_length_a 21.469699
_cell_length_b 13.658132
_cell_length_c 5.083240
_cell_angle_alpha 90.000000
_cell_angle_beta 90.000000
_cell_angle_gamma 90.000000
_cell_volume 1490.588878
_symmetry_space_group_name_H-M "P 2 2 21"
_symmetry_group_IT_number 17
_symmetry_cell_setting 'orthorhombic'
loop_
_space_group_symop_operation_xyz
x,y,z
-x,-y,1/2+z
x,-y,-z
-x,y,1/2-z
loop_
_atom_site_type_symbol
_atom_site_label
_atom_site_fract_x
_atom_site_fract_y
_atom_site_fract_z
Si Si1 0.042404 0.811222 0.502012
Si Si2 0.889228 0.393305 0.060068
Si Si3 0.500000 0.070953 0.250000
Si Si4 0.823020 0.109102 0.909708
Si Si5 0.636183 0.928421 0.748362
Si Si6 0.242983 0.192302 0.104685
Si Si7 0.198029 0.605521 0.057709
O O1 0.066393 0.699685 0.537351
O O2 0.103181 0.875684 0.436019
O O3 0.000000 0.841093 0.750000
O O4 0.000000 0.814745 0.250000
O O5 0.858862 0.390632 0.348528
O O6 0.918732 0.500000 0.000000
O O7 0.833450 0.386962 0.844005
O O8 0.432386 0.121238 0.269321
O O9 0.501615 0.000000 0.500000
O O10 0.793255 0.132283 0.625704
O O11 0.795878 0.182688 0.127495
O O12 0.805878 0.000000 0.000000
O O13 0.690804 0.852816 0.683680
O O14 0.634682 0.000000 0.500000
O O15 0.647101 0.000000 0.000000
O O16 0.242086 0.303131 0.002415
O O17 0.227954 0.500000 0.000000
#
# Coordination Sequence:
#
# PCOD9310594 Si02
#       7
#     4   4   2   4   4   4   4
#     4  12  24  38  56  73  99 129 172 212 265 325
#     4  10  20  37  56  76  99 126 162 213 269 321
#     4   8  16  30  46  70 112 148 174 208 244 294
#     4  12  25  39  55  76 102 135 174 219 260 303
#     4  10  19  31  50  79 111 146 178 208 251 301
#     4  12  20  36  57  79 105 135 173 218 258 304
#     4  10  19  34  56  77 102 131 163 208 269 316
#
# _framework density 17.442769999999999
#
# number of rings (size 3 to 8) (size 9 to 14) (size 15 to 20)
#    0.000    1.231    3.077    4.615    0.000    1.231 
#    0.000    0.000    0.000    0.000    0.000    0.000 
#    0.000   13.538    0.000    0.000    0.000   18.308 
#
# Total GULP energy -145081.722964 kJ/mol
# GULP energy per Si atom -5580.066268 kJ/mol
# Density = 1.740307 g / cm^3
# Si number density = 17.442770 Si / 1000 Ang^3
#
#
#
# Elastic Constant Matrix: (Units=GPa)
#
#
# Indices 1 2 3 4 5 6 
#
# 1 112.1642 30.9762 18.2130 0.0000 0.0000 0.0000
# 2 30.9762 57.6899 11.4080 0.0000 0.0000 0.0000
# 3 18.2130 11.4080 100.9196 0.0000 0.0000 0.0000
# 4 0.0000 0.0000 0.0000 21.4014 0.0000 0.0000
# 5 0.0000 0.0000 0.0000 0.0000 22.0479 0.0000
# 6 0.0000 0.0000 0.0000 0.0000 0.0000 12.8675
#
#
#
# Elastic Compliance Matrix: (Units=1/GPa)
#
#
# Indices 1 2 3 4 5 6 
#
# 1 0.010633 -0.005451 -0.001303 0.000000 0.000000 0.000000
# 2 -0.005451 0.020525 -0.001336 0.000000 0.000000 0.000000
# 3 -0.001303 -0.001336 0.010295 0.000000 0.000000 0.000000
# 4 0.000000 0.000000 0.000000 0.046726 0.000000 0.000000
# 5 0.000000 0.000000 0.000000 0.000000 0.045356 0.000000
# 6 0.000000 0.000000 0.000000 0.000000 0.000000 0.077715
#
#
# Mechanical properties :
#
#
# Convention : Reuss Voigt Hill
#
# Bulk Modulus (GPa) = 39.56937 43.55200 41.56069
# Shear Modulus (GPa) = 21.19949 25.27513 23.23731
#
# Velocity S-wave (km/s) = 3.49000 3.81075 3.65390
# Velocity P-wave (km/s) = 6.24297 6.66221 6.45600
#
# Compressibility (1/GPa) = 0.02527207
#
# Stress axis : x y z
#
# Youngs Moduli (GPa) = 94.05095 48.72001 97.13431
#
# Poissons Ratio (x) = 0.26560 0.12653
# Poissons Ratio (y) = 0.51272 0.12981
# Poissons Ratio (z) = 0.12251 0.06511
#
# Static dielectric constant tensor:
#      x y z
#    x 1.611500 0.000000 0.000000 
#    y 0.000000 1.636140 0.000000 
#    z 0.000000 0.000000 1.582800 
# 
# From -- ./inp_files/2679.got.cif
#   From: 2010.05.17/outbox.cif.g08.bks.cpg/sg17_2_cif.got.tgz:2679.got - 2010.06.03 22:34:06.
