data_PCOD9310489
_publ_section_title
;
Structure prediction by ZEFSAII (Michael W. Deem and Ramdas Pophale) SiO2 
 PCOD9310489
Probable space group: P 2 2 21
;
_chemical_formula_sum "Si O2"
_cell_formula_units_Z 30
_cell_length_a 12.974434
_cell_length_b 17.226045
_cell_length_c 5.391774
_cell_angle_alpha 90.000000
_cell_angle_beta 90.000000
_cell_angle_gamma 90.000000
_cell_volume 1205.051697
_symmetry_space_group_name_H-M "P 2 2 21"
_symmetry_group_IT_number 17
_symmetry_cell_setting 'orthorhombic'
loop_
_space_group_symop_operation_xyz
x,y,z
-x,-y,1/2+z
x,-y,-z
-x,y,1/2-z
loop_
_atom_site_type_symbol
_atom_site_label
_atom_site_fract_x
_atom_site_fract_y
_atom_site_fract_z
Si Si1 0.430869 0.000000 0.500000
Si Si2 0.118207 0.415515 0.901390
Si Si3 0.888507 0.841976 0.999426
Si Si4 0.888029 0.662434 0.899373
Si Si5 0.642659 0.335122 0.093945
Si Si6 0.568469 0.167191 0.999621
Si Si7 0.369317 0.585808 0.091177
Si Si8 0.121755 0.907686 0.999986
O O1 0.376009 0.916790 0.495864
O O2 0.500000 0.999921 0.750000
O O3 0.085569 0.396282 0.621975
O O4 0.243709 0.414225 0.896162
O O5 0.089988 0.500000 0.000000
O O6 0.082960 0.354194 0.113058
O O7 0.907653 0.750569 0.983050
O O8 0.834610 0.869728 0.748469
O O9 0.835879 0.867187 0.253942
O O10 0.999441 0.886177 0.999833
O O11 0.764316 0.651438 0.888783
O O12 0.631563 0.245944 0.016119
O O13 0.601826 0.354834 0.369463
O O14 0.600006 0.388494 0.869235
O O15 0.500000 0.167368 0.250000
O O16 0.500000 0.171384 0.750000
O O17 0.400299 0.500000 0.000000
O O18 0.134442 0.000000 0.000000
#
# Coordination Sequence:
#
# PCOD9310489 Si02
#       8
#     2   4   4   4   4   4   4   4
#     4   8  16  30  50  70  84 110 154 202 232 262
#     4   9  17  30  47  70  98 128 167 201 235 288
#     4  10  18  30  49  75  99 125 161 207 235 277
#     4  10  19  30  48  77 101 126 154 203 259 285
#     4  10  19  31  50  74 100 127 156 206 247 296
#     4  10  19  33  53  73  92 124 166 206 239 288
#     4   9  17  30  49  71  97 131 164 195 238 287
#     4  10  19  33  53  73  95 132 175 198 222 277
#
# _framework density 24.895199000000002
#
# number of rings (size 3 to 8) (size 9 to 14) (size 15 to 20)
#    0.000    2.400    0.000    4.400    0.000    3.200 
#    0.000    0.000    4.400    8.000    3.467   37.333 
#    0.000    0.000    0.000    0.000    0.000    0.000 
#
# Total GULP energy -167819.229680 kJ/mol
# GULP energy per Si atom -5593.974323 kJ/mol
# Density = 2.483854 g / cm^3
# Si number density = 24.895199 Si / 1000 Ang^3
#
#
#
# Elastic Constant Matrix: (Units=GPa)
#
#
# Indices 1 2 3 4 5 6 
#
# 1 43.1446 -5.1750 34.8170 0.0000 0.0000 0.0000
# 2 -5.1750 159.8732 90.5810 0.0000 0.0000 0.0000
# 3 34.8170 90.5810 244.3439 0.0000 0.0000 0.0000
# 4 0.0000 0.0000 0.0000 48.0202 0.0000 0.0000
# 5 0.0000 0.0000 0.0000 0.0000 38.0631 0.0000
# 6 0.0000 0.0000 0.0000 0.0000 0.0000 -52.5115
#
#
#
# Elastic Compliance Matrix: (Units=1/GPa)
#
#
# Indices 1 2 3 4 5 6 
#
# 1 0.028094 0.004022 -0.005494 0.000000 0.000000 0.000000
# 2 0.004022 0.008494 -0.003722 0.000000 0.000000 0.000000
# 3 -0.005494 -0.003722 0.006255 0.000000 0.000000 0.000000
# 4 0.000000 0.000000 0.000000 0.020825 0.000000 0.000000
# 5 0.000000 0.000000 0.000000 0.000000 0.026272 0.000000
# 6 0.000000 0.000000 0.000000 0.000000 0.000000 -0.019043
#
#
# Mechanical properties :
#
#
# Convention : Reuss Voigt Hill
#
# Bulk Modulus (GPa) = 30.81136 76.42307 53.61721
# Shear Modulus (GPa) = 54.28702 28.52360 41.40531
#
# Velocity S-wave (km/s) = 4.67478 3.38856 4.08264
# Velocity P-wave (km/s) = 6.44526 6.78781 6.61875
#
# Compressibility (1/GPa) = 0.03245556
#
# Stress axis : x y z
#
# Youngs Moduli (GPa) = 35.59456 117.73085 159.86536
#
# Poissons Ratio (x) = -0.47356 0.87835
# Poissons Ratio (y) = -0.14317 0.59501
# Poissons Ratio (z) = 0.19557 0.43819
#
# Static dielectric constant tensor:
#      x y z
#    x 2.033910 0.000000 0.000000 
#    y 0.000000 1.902630 0.000000 
#    z 0.000000 0.000000 2.118540 
# 
# From -- ./inp_files/2982.got.cif
#   From: 2010.05.17/outbox.cif.g08.bks.cpg/sg17_2_cif.got.tgz:2982.got - 2010.06.03 22:34:06.
