data_PCOD9310871
_publ_section_title
;
Structure prediction by ZEFSAII (Michael W. Deem and Ramdas Pophale) SiO2 
 PCOD9310871
Probable space group: P 2 2 21
;
_chemical_formula_sum "Si O2"
_cell_formula_units_Z 18
_cell_length_a 8.733549
_cell_length_b 5.316375
_cell_length_c 18.238757
_cell_angle_alpha 90.000000
_cell_angle_beta 90.000000
_cell_angle_gamma 90.000000
_cell_volume 846.840472
_symmetry_space_group_name_H-M "P 2 2 21"
_symmetry_group_IT_number 17
_symmetry_cell_setting 'orthorhombic'
loop_
_space_group_symop_operation_xyz
x,y,z
-x,-y,1/2+z
x,-y,-z
-x,y,1/2-z
loop_
_atom_site_type_symbol
_atom_site_label
_atom_site_fract_x
_atom_site_fract_y
_atom_site_fract_z
Si Si1 0.417076 0.267279 0.144540
Si Si2 0.489969 0.500000 0.000000
Si Si3 0.598876 0.753310 0.138511
Si Si4 0.074617 0.148459 0.169713
Si Si5 0.949428 0.349548 0.834645
O O1 0.397316 0.330233 0.057684
O O2 0.497869 0.523672 0.170911
O O3 0.251990 0.215118 0.177575
O O4 0.524916 0.024096 0.153786
O O5 0.588089 0.684446 0.051822
O O6 0.772949 0.726918 0.162790
O O7 0.000000 0.115884 0.250000
O O8 0.986799 0.379210 0.131433
O O9 0.048914 0.878308 0.132781
O O10 0.000000 0.383194 0.750000
#
# Coordination Sequence:
#
# PCOD9310871 Si02
#       5
#     4   2   4   4   4
#     4  10  20  38  64  86 117 157 204 242 289 349
#     4   8  22  36  68  82 118 152 212 246 274 348
#     4  10  20  38  64  86 117 157 204 242 289 349
#     4  10  21  39  59  87 127 153 190 247 302 357
#     4  10  21  39  59  87 127 153 190 247 302 357
#
# _framework density 21.255479999999999
#
# number of rings (size 3 to 8) (size 9 to 14) (size 15 to 20)
#    1.333    0.889    0.000    3.333    0.000    0.000 
#    0.000   27.778    0.000    0.000    0.000    0.000 
#    0.000    0.000    0.000    0.000    0.000    0.000 
#
# Total GULP energy -100301.946595 kJ/mol
# GULP energy per Si atom -5572.330366 kJ/mol
# Density = 2.120710 g / cm^3
# Si number density = 21.255480 Si / 1000 Ang^3
#
#
#
# Elastic Constant Matrix: (Units=GPa)
#
#
# Indices 1 2 3 4 5 6 
#
# 1 57.1310 -41.2371 11.8156 0.0000 0.0000 0.0000
# 2 -41.2371 135.4799 -20.1704 0.0000 0.0000 0.0000
# 3 11.8156 -20.1704 71.8643 0.0000 0.0000 0.0000
# 4 0.0000 0.0000 0.0000 -2.5425 0.0000 0.0000
# 5 0.0000 0.0000 0.0000 0.0000 118.9059 0.0000
# 6 0.0000 0.0000 0.0000 0.0000 0.0000 38.9730
#
#
#
# Elastic Compliance Matrix: (Units=1/GPa)
#
#
# Indices 1 2 3 4 5 6 
#
# 1 0.022670 0.006622 -0.001869 0.000000 0.000000 0.000000
# 2 0.006622 0.009637 0.001616 0.000000 0.000000 0.000000
# 3 -0.001869 0.001616 0.014676 0.000000 0.000000 0.000000
# 4 0.000000 0.000000 0.000000 -0.393314 0.000000 0.000000
# 5 0.000000 0.000000 0.000000 0.000000 0.008410 0.000000
# 6 0.000000 0.000000 0.000000 0.000000 0.000000 0.025659
#
#
# Mechanical properties :
#
#
# Convention : Reuss Voigt Hill
#
# Bulk Modulus (GPa) = 16.74416 18.36570 17.55493
# Shear Modulus (GPa) = -16.38841 52.00509 17.80834
#
# Velocity S-wave (km/s) = -2.77974 4.95175 2.89766
# Velocity P-wave (km/s) = 1.55175 6.43057 4.41273
#
# Compressibility (1/GPa) = 0.05972230
#
# Stress axis : x y z
#
# Youngs Moduli (GPa) = 44.11149 103.76260 68.13855
#
# Poissons Ratio (x) = -0.68712 0.12733
# Poissons Ratio (y) = -0.29211 -0.11013
# Poissons Ratio (z) = 0.08243 -0.16770
#
# Static dielectric constant tensor:
#      x y z
#    x 1.724660 0.000000 0.000000 
#    y 0.000000 1.867800 0.000000 
#    z 0.000000 0.000000 1.895850 
# 
# From -- ./inp_files/8878.got.cif
#   From: 2010.05.17/outbox.cif.g08.bks.cpg/sg17_5_cif.got.tgz:8878.got - 2010.06.03 22:34:06.
