data_PCOD9310054
_publ_section_title
;
Structure prediction by ZEFSAII (Michael W. Deem and Ramdas Pophale) SiO2 
 PCOD9310054
Probable space group: P 2 2 2
;
_chemical_formula_sum "Si O2"
_cell_formula_units_Z 24
_cell_length_a 5.282461
_cell_length_b 7.505798
_cell_length_c 28.384063
_cell_angle_alpha 90.000000
_cell_angle_beta 90.000000
_cell_angle_gamma 90.000000
_cell_volume 1125.402132
_symmetry_space_group_name_H-M "P 2 2 2"
_symmetry_group_IT_number 16
_symmetry_cell_setting 'orthorhombic'
loop_
_space_group_symop_operation_xyz
x,y,z
-x,-y,z
x,-y,-z
-x,y,-z
loop_
_atom_site_type_symbol
_atom_site_label
_atom_site_fract_x
_atom_site_fract_y
_atom_site_fract_z
Si Si1 0.869476 0.190387 0.130212
Si Si2 0.248642 0.624227 0.617013
Si Si3 0.369571 0.305579 0.177951
Si Si4 0.749610 0.797897 0.479189
Si Si5 0.751841 0.205132 0.020778
Si Si6 0.249269 0.377763 0.277780
O O1 0.610993 0.194536 0.160099
O O2 0.776365 0.214056 0.076636
O O3 0.111413 0.308058 0.147092
O O4 0.000000 0.000000 0.133162
O O5 0.500000 0.500000 0.613123
O O6 0.252663 0.773918 0.576686
O O7 0.232948 0.703277 0.669954
O O8 0.000000 0.500000 0.610968
O O9 0.500000 0.500000 0.177982
O O10 0.283361 0.259656 0.231199
O O11 0.500000 0.711171 0.500000
O O12 0.000000 0.712170 0.500000
O O13 0.749619 0.000000 0.500000
O O14 0.500000 0.286909 0.000000
O O15 0.000000 0.291412 0.000000
O O16 0.751246 0.000000 0.000000
O O17 0.500000 0.500000 0.279574
O O18 0.000000 0.500000 0.270816
#
# Coordination Sequence:
#
# PCOD9310054 Si02
#       6
#     4   4   4   4   4   4
#     4  12  23  38  65  98 123 154 214 265 293 361
#     4  10  20  34  59  90 112 145 209 260 277 333
#     4  11  23  40  63  91 130 167 195 245 328 384
#     4  10  21  36  54  78 116 161 192 232 310 369
#     4  10  19  34  58  88 110 155 204 248 294 348
#     4   9  18  36  60  86 115 158 201 239 298 368
#
# _framework density 21.325711999999999
#
# number of rings (size 3 to 8) (size 9 to 14) (size 15 to 20)
#    0.000    1.667    1.667    5.000    2.333    2.000 
#    0.000    0.000   11.000    7.500    0.000    0.000 
#    0.000    0.000    0.000    0.000    0.000    0.000 
#
# Total GULP energy -133780.390142 kJ/mol
# GULP energy per Si atom -5574.182923 kJ/mol
# Density = 2.127717 g / cm^3
# Si number density = 21.325712 Si / 1000 Ang^3
#
#
#
# Elastic Constant Matrix: (Units=GPa)
#
#
# Indices 1 2 3 4 5 6 
#
# 1 220.9212 24.0745 85.2646 0.0000 0.0000 0.0000
# 2 24.0745 50.3309 39.9377 0.0000 0.0000 0.0000
# 3 85.2646 39.9377 228.7394 0.0000 0.0000 0.0000
# 4 0.0000 0.0000 0.0000 27.3927 0.0000 0.0000
# 5 0.0000 0.0000 0.0000 0.0000 39.6026 0.0000
# 6 0.0000 0.0000 0.0000 0.0000 0.0000 17.4127
#
#
#
# Elastic Compliance Matrix: (Units=1/GPa)
#
#
# Indices 1 2 3 4 5 6 
#
# 1 0.005342 -0.001132 -0.001794 0.000000 0.000000 0.000000
# 2 -0.001132 0.023304 -0.003647 0.000000 0.000000 0.000000
# 3 -0.001794 -0.003647 0.005677 0.000000 0.000000 0.000000
# 4 0.000000 0.000000 0.000000 0.036506 0.000000 0.000000
# 5 0.000000 0.000000 0.000000 0.000000 0.025251 0.000000
# 6 0.000000 0.000000 0.000000 0.000000 0.000000 0.057429
#
#
# Mechanical properties :
#
#
# Convention : Reuss Voigt Hill
#
# Bulk Modulus (GPa) = 47.21889 88.72726 67.97307
# Shear Modulus (GPa) = 28.78300 40.26258 34.52279
#
# Velocity S-wave (km/s) = 3.67779 4.34981 4.02784
# Velocity P-wave (km/s) = 6.34229 8.18070 7.31944
#
# Compressibility (1/GPa) = 0.02117797
#
# Stress axis : x y z
#
# Youngs Moduli (GPa) = 187.19133 42.91156 176.14510
#
# Poissons Ratio (x) = 0.04857 0.31595
# Poissons Ratio (y) = 0.21190 0.64238
# Poissons Ratio (z) = 0.33576 0.15649
#
# Static dielectric constant tensor:
#      x y z
#    x 1.826410 0.000000 0.000000 
#    y 0.000000 1.795570 0.000000 
#    z 0.000000 0.000000 1.795440 
# 
# From -- ./inp_files/9466.got.cif
#   From: 2010.05.17/outbox.cif.g08.bks.cpg/sg16_5_cif.got.tgz:9466.got - 2010.06.03 22:28:35.
