data_PCOD9310821
_publ_section_title
;
Structure prediction by ZEFSAII (Michael W. Deem and Ramdas Pophale) SiO2 
 PCOD9310821
Probable space group: P 2 2 21
;
_chemical_formula_sum "Si O2"
_cell_formula_units_Z 26
_cell_length_a 12.074748
_cell_length_b 9.736560
_cell_length_c 12.128068
_cell_angle_alpha 90.000000
_cell_angle_beta 90.000000
_cell_angle_gamma 90.000000
_cell_volume 1425.854608
_symmetry_space_group_name_H-M "P 2 2 21"
_symmetry_group_IT_number 17
_symmetry_cell_setting 'orthorhombic'
loop_
_space_group_symop_operation_xyz
x,y,z
-x,-y,1/2+z
x,-y,-z
-x,y,1/2-z
loop_
_atom_site_type_symbol
_atom_site_label
_atom_site_fract_x
_atom_site_fract_y
_atom_site_fract_z
Si Si1 0.030378 0.745724 0.954214
Si Si2 0.730567 0.423741 0.781888
Si Si3 0.273782 0.624642 0.913666
Si Si4 0.000000 0.948668 0.750000
Si Si5 0.152661 0.834240 0.164356
Si Si6 0.618027 0.141354 0.546379
Si Si7 0.500000 0.719709 0.250000
Si Si8 0.138430 0.500000 0.500000
O O1 0.149184 0.680127 0.924249
O O2 0.000761 0.854270 0.859194
O O3 0.055968 0.809047 0.074589
O O4 0.939907 0.626678 0.964822
O O5 0.718359 0.558098 0.705919
O O6 0.807646 0.308439 0.720465
O O7 0.606985 0.364734 0.789020
O O8 0.786464 0.456855 0.897192
O O9 0.288997 0.500000 0.000000
O O10 0.357203 0.743907 0.953021
O O11 0.893794 0.049280 0.744381
O O12 0.260946 0.886197 0.099914
O O13 0.542448 0.196402 0.644626
O O14 0.573154 0.000000 0.500000
#
# Coordination Sequence:
#
# PCOD9310821 Si02
#       8
#     4   4   4   2   4   4   2   2
#     4  11  21  36  56  87 125 160 200 243 305 366
#     4  11  23  39  61  87 118 162 206 254 306 358
#     4  11  18  40  68  90 113 163 214 246 284 373
#     4  12  22  32  56  88 120 164 200 244 294 374
#     4  10  20  37  57  82 119 162 204 240 293 366
#     4  10  21  39  65  90 117 154 210 261 306 359
#     4  10  22  42  62  84 118 158 202 264 318 354
#     4  12  24  36  54  90 130 152 188 258 316 364
#
# _framework density 18.234677000000001
#
# number of rings (size 3 to 8) (size 9 to 14) (size 15 to 20)
#    0.000    1.231    5.385    4.154    0.000    2.462 
#    0.000    5.385    0.000    0.000    0.000    0.000 
#    0.000    0.000    0.000    0.000    0.000    0.000 
#
# Total GULP energy -145144.641926 kJ/mol
# GULP energy per Si atom -5582.486228 kJ/mol
# Density = 1.819317 g / cm^3
# Si number density = 18.234677 Si / 1000 Ang^3
#
#
#
# Elastic Constant Matrix: (Units=GPa)
#
#
# Indices 1 2 3 4 5 6 
#
# 1 84.4976 59.2799 62.5329 0.0000 0.0000 0.0000
# 2 59.2799 118.1259 69.1844 0.0000 0.0000 0.0000
# 3 62.5329 69.1844 121.2972 0.0000 0.0000 0.0000
# 4 0.0000 0.0000 0.0000 27.7647 0.0000 0.0000
# 5 0.0000 0.0000 0.0000 0.0000 103.6917 0.0000
# 6 0.0000 0.0000 0.0000 0.0000 0.0000 -7.7959
#
#
#
# Elastic Compliance Matrix: (Units=1/GPa)
#
#
# Indices 1 2 3 4 5 6 
#
# 1 0.022138 -0.006645 -0.007623 0.000000 0.000000 0.000000
# 2 -0.006645 0.014707 -0.004963 0.000000 0.000000 0.000000
# 3 -0.007623 -0.004963 0.015004 0.000000 0.000000 0.000000
# 4 0.000000 0.000000 0.000000 0.036017 0.000000 0.000000
# 5 0.000000 0.000000 0.000000 0.000000 0.009644 0.000000
# 6 0.000000 0.000000 0.000000 0.000000 0.000000 -0.128272
#
#
# Mechanical properties :
#
#
# Convention : Reuss Voigt Hill
#
# Bulk Modulus (GPa) = 74.69123 78.43501 76.56312
# Shear Modulus (GPa) = 411.16089 33.59366 222.37728
#
# Velocity S-wave (km/s) = 15.03238 4.29685 11.05521
# Velocity P-wave (km/s) = 18.50261 8.22951 14.31907
#
# Compressibility (1/GPa) = 0.01338845
#
# Stress axis : x y z
#
# Youngs Moduli (GPa) = 45.17186 67.99588 66.64717
#
# Poissons Ratio (x) = 0.45184 0.50802
# Poissons Ratio (y) = 0.30017 0.33074
# Poissons Ratio (z) = 0.34433 0.33743
#
# Static dielectric constant tensor:
#      x y z
#    x 1.602160 0.000000 0.000000 
#    y 0.000000 1.549190 0.000000 
#    z 0.000000 0.000000 1.656350 
# 
# From -- ./inp_files/6635.got.cif
#   From: 2010.05.17/outbox.cif.g08.bks.cpg/sg17_4_cif.got.tgz:6635.got - 2010.06.03 22:34:06.
