data_PCOD9310550
_publ_section_title
;
Structure prediction by ZEFSAII (Michael W. Deem and Ramdas Pophale) SiO2 
 PCOD9310550
Probable space group: P 2 2 21
;
_chemical_formula_sum "Si O2"
_cell_formula_units_Z 28
_cell_length_a 11.593507
_cell_length_b 20.423075
_cell_length_c 5.781577
_cell_angle_alpha 90.000000
_cell_angle_beta 90.000000
_cell_angle_gamma 90.000000
_cell_volume 1368.933258
_symmetry_space_group_name_H-M "P 2 2 21"
_symmetry_group_IT_number 17
_symmetry_cell_setting 'orthorhombic'
loop_
_space_group_symop_operation_xyz
x,y,z
-x,-y,1/2+z
x,-y,-z
-x,y,1/2-z
loop_
_atom_site_type_symbol
_atom_site_label
_atom_site_fract_x
_atom_site_fract_y
_atom_site_fract_z
Si Si1 0.000000 0.272245 0.250000
Si Si2 0.931788 0.500000 0.000000
Si Si3 0.779568 0.079264 0.760112
Si Si4 0.827271 0.640962 0.050659
Si Si5 0.190003 0.736839 0.069335
Si Si6 0.136154 0.931644 0.752550
Si Si7 0.624925 0.182839 0.851253
Si Si8 0.372361 0.707187 0.689939
O O1 0.918617 0.234192 0.429416
O O2 0.090882 0.318062 0.379848
O O3 0.856155 0.434480 0.973598
O O4 0.000000 0.505277 0.750000
O O5 0.825640 0.097875 0.501611
O O6 0.651413 0.107089 0.804165
O O7 0.797480 0.001185 0.758307
O O8 0.839628 0.102566 0.003628
O O9 0.855708 0.673103 0.296618
O O10 0.695586 0.661468 0.991711
O O11 0.260270 0.785116 0.235535
O O12 0.290871 0.710011 0.908366
O O13 0.000000 0.945309 0.750000
O O14 0.500000 0.200931 0.750000
O O15 0.623434 0.217744 0.098745
O O16 0.500000 0.685015 0.750000
#
# Coordination Sequence:
#
# PCOD9310550 Si02
#       8
#     2   2   4   4   4   4   4   4
#     4  10  18  38  56  90 124 164 196 262 312 396
#     4  12  24  40  68 100 132 172 216 268 338 406
#     4  10  21  36  64  90 121 159 215 262 314 382
#     4  10  22  37  63  93 129 166 212 263 326 395
#     4  10  21  38  61  87 125 164 212 258 328 383
#     4  10  20  42  62  89 127 172 208 254 329 404
#     4  11  23  39  60  91 119 164 218 274 320 393
#     4  10  21  40  66  86 122 175 219 266 324 393
#
# _framework density 20.453883000000001
#
# number of rings (size 3 to 8) (size 9 to 14) (size 15 to 20)
#    0.000    1.714    2.143    3.429    4.000    0.000 
#    1.286   11.429    3.143    0.000    0.000    0.000 
#    0.000    0.000    0.000    0.000    0.000    0.000 
#
# Total GULP energy -155872.523125 kJ/mol
# GULP energy per Si atom -5566.875826 kJ/mol
# Density = 2.040733 g / cm^3
# Si number density = 20.453883 Si / 1000 Ang^3
#
#
#
# Elastic Constant Matrix: (Units=GPa)
#
#
# Indices 1 2 3 4 5 6 
#
# 1 120.9844 36.0607 38.0438 0.0000 0.0000 0.0000
# 2 36.0607 82.0944 29.2245 0.0000 0.0000 0.0000
# 3 38.0438 29.2245 135.3884 0.0000 0.0000 0.0000
# 4 0.0000 0.0000 0.0000 578.3964 0.0000 0.0000
# 5 0.0000 0.0000 0.0000 0.0000 28.2972 0.0000
# 6 0.0000 0.0000 0.0000 0.0000 0.0000 27.8675
#
#
#
# Elastic Compliance Matrix: (Units=1/GPa)
#
#
# Indices 1 2 3 4 5 6 
#
# 1 0.009994 -0.003672 -0.002016 0.000000 0.000000 0.000000
# 2 -0.003672 0.014545 -0.002108 0.000000 0.000000 0.000000
# 3 -0.002016 -0.002108 0.008407 0.000000 0.000000 0.000000
# 4 0.000000 0.000000 0.000000 0.001729 0.000000 0.000000
# 5 0.000000 0.000000 0.000000 0.000000 0.035339 0.000000
# 6 0.000000 0.000000 0.000000 0.000000 0.000000 0.035884
#
#
# Mechanical properties :
#
#
# Convention : Reuss Voigt Hill
#
# Bulk Modulus (GPa) = 57.62099 60.56946 59.09523
# Shear Modulus (GPa) = 39.28526 142.58808 90.93667
#
# Velocity S-wave (km/s) = 4.38731 8.35843 6.67502
# Velocity P-wave (km/s) = 7.34145 11.08278 9.40013
#
# Compressibility (1/GPa) = 0.01735479
#
# Stress axis : x y z
#
# Youngs Moduli (GPa) = 100.06072 68.75441 118.94196
#
# Poissons Ratio (x) = 0.25249 0.23973
# Poissons Ratio (y) = 0.36746 0.25068
# Poissons Ratio (z) = 0.20168 0.14491
#
# Static dielectric constant tensor:
#      x y z
#    x 0.265060 0.000000 0.000000 
#    y 0.000000 1.772880 0.000000 
#    z 0.000000 0.000000 1.853260 
# 
# From -- ./inp_files/1820.got.cif
#   From: 2010.05.17/outbox.cif.g08.bks.cpg/sg17_1_cif.got.tgz:1820.got - 2010.06.03 22:34:06.
