data_PCOD9310733
_publ_section_title
;
Structure prediction by ZEFSAII (Michael W. Deem and Ramdas Pophale) SiO2 
 PCOD9310733
Probable space group: P 2 2 21
;
_chemical_formula_sum "Si O2"
_cell_formula_units_Z 20
_cell_length_a 9.721509
_cell_length_b 11.417465
_cell_length_c 8.371300
_cell_angle_alpha 90.000000
_cell_angle_beta 90.000000
_cell_angle_gamma 90.000000
_cell_volume 929.172349
_symmetry_space_group_name_H-M "P 2 2 21"
_symmetry_group_IT_number 17
_symmetry_cell_setting 'orthorhombic'
loop_
_space_group_symop_operation_xyz
x,y,z
-x,-y,1/2+z
x,-y,-z
-x,y,1/2-z
loop_
_atom_site_type_symbol
_atom_site_label
_atom_site_fract_x
_atom_site_fract_y
_atom_site_fract_z
Si Si1 0.308830 0.000000 0.500000
Si Si2 0.941779 0.133199 0.429869
Si Si3 0.500000 0.014068 0.750000
Si Si4 0.678639 0.784902 0.413018
Si Si5 0.556669 0.630495 0.930975
Si Si6 0.809048 0.240477 0.916469
O O1 0.406509 0.057800 0.368200
O O2 0.224471 0.898048 0.424078
O O3 0.785423 0.176305 0.450898
O O4 0.000000 0.128893 0.250000
O O5 0.034438 0.229963 0.525072
O O6 0.946258 0.000000 0.500000
O O7 0.400965 0.100038 0.849043
O O8 0.559105 0.699483 0.468884
O O9 0.764928 0.729932 0.264424
O O10 0.500000 0.630406 0.750000
O O11 0.566304 0.500000 0.000000
O O12 0.705106 0.690914 0.966526
#
# Coordination Sequence:
#
# PCOD9310733 Si02
#       6
#     2   4   2   4   4   4
#     4  10  20  32  60  86 134 162 212 262 322 398
#     4  12  26  40  63  98 141 186 223 270 341 415
#     4  10  22  36  60  92 130 170 222 270 334 384
#     4  11  22  43  63  94 131 174 223 281 332 401
#     4  12  25  44  71  98 130 176 232 288 340 398
#     4  11  22  42  62  96 135 174 221 273 336 405
#
# _framework density 21.524532000000001
#
# number of rings (size 3 to 8) (size 9 to 14) (size 15 to 20)
#    0.000    0.800    5.000    4.200    5.600    0.000 
#    0.000    1.000    0.000    0.000    0.000    0.000 
#    0.000    0.000    0.000    0.000    0.000    0.000 
#
# Total GULP energy -111693.370893 kJ/mol
# GULP energy per Si atom -5584.668545 kJ/mol
# Density = 2.147554 g / cm^3
# Si number density = 21.524532 Si / 1000 Ang^3
#
#
#
# Elastic Constant Matrix: (Units=GPa)
#
#
# Indices 1 2 3 4 5 6 
#
# 1 117.6183 26.2144 5.8827 0.0000 0.0000 0.0000
# 2 26.2144 65.6661 1.7176 0.0000 0.0000 0.0000
# 3 5.8827 1.7176 64.8608 0.0000 0.0000 0.0000
# 4 0.0000 0.0000 0.0000 28.9991 0.0000 0.0000
# 5 0.0000 0.0000 0.0000 0.0000 35.2611 0.0000
# 6 0.0000 0.0000 0.0000 0.0000 0.0000 10.6346
#
#
#
# Elastic Compliance Matrix: (Units=1/GPa)
#
#
# Indices 1 2 3 4 5 6 
#
# 1 0.009369 -0.003720 -0.000751 0.000000 0.000000 0.000000
# 2 -0.003720 0.016717 -0.000105 0.000000 0.000000 0.000000
# 3 -0.000751 -0.000105 0.015489 0.000000 0.000000 0.000000
# 4 0.000000 0.000000 0.000000 0.034484 0.000000 0.000000
# 5 0.000000 0.000000 0.000000 0.000000 0.028360 0.000000
# 6 0.000000 0.000000 0.000000 0.000000 0.000000 0.094032
#
#
# Mechanical properties :
#
#
# Convention : Reuss Voigt Hill
#
# Bulk Modulus (GPa) = 30.84502 35.08606 32.96554
# Shear Modulus (GPa) = 22.89267 29.26766 26.08017
#
# Velocity S-wave (km/s) = 3.26477 3.69146 3.48465
# Velocity P-wave (km/s) = 5.34536 5.87410 5.61596
#
# Compressibility (1/GPa) = 0.03242014
#
# Stress axis : x y z
#
# Youngs Moduli (GPa) = 106.73661 59.82099 64.56379
#
# Poissons Ratio (x) = 0.22256 0.04850
# Poissons Ratio (y) = 0.39711 0.00679
# Poissons Ratio (z) = 0.08018 0.00629
#
# Static dielectric constant tensor:
#      x y z
#    x 1.856810 0.000000 0.000000 
#    y 0.000000 1.720190 0.000000 
#    z 0.000000 0.000000 1.889590 
# 
# From -- ./inp_files/4085.got.cif
#   From: 2010.05.17/outbox.cif.g08.bks.cpg/sg17_3_cif.got.tgz:4085.got - 2010.06.03 22:34:06.
