data_PCOD9310730
_publ_section_title
;
Structure prediction by ZEFSAII (Michael W. Deem and Ramdas Pophale) SiO2 
 PCOD9310730
Probable space group: P 2 2 21
;
_chemical_formula_sum "Si O2"
_cell_formula_units_Z 24
_cell_length_a 11.001757
_cell_length_b 12.804933
_cell_length_c 8.492970
_cell_angle_alpha 90.000000
_cell_angle_beta 90.000000
_cell_angle_gamma 90.000000
_cell_volume 1196.462107
_symmetry_space_group_name_H-M "P 2 2 21"
_symmetry_group_IT_number 17
_symmetry_cell_setting 'orthorhombic'
loop_
_space_group_symop_operation_xyz
x,y,z
-x,-y,1/2+z
x,-y,-z
-x,y,1/2-z
loop_
_atom_site_type_symbol
_atom_site_label
_atom_site_fract_x
_atom_site_fract_y
_atom_site_fract_z
Si Si1 0.842059 0.000000 0.000000
Si Si2 0.000000 0.124343 0.250000
Si Si3 0.500000 0.124617 0.750000
Si Si4 0.651654 0.000000 0.500000
Si Si5 0.363272 0.615648 0.931279
Si Si6 0.748936 0.206830 0.850910
Si Si7 0.181843 0.200173 0.992725
Si Si8 0.645368 0.381787 0.054825
O O1 0.919118 0.046914 0.143853
O O2 0.767167 0.900979 0.057449
O O3 0.928215 0.193069 0.381932
O O4 0.561795 0.046278 0.628058
O O5 0.611413 0.198676 0.791683
O O6 0.739677 0.097106 0.462085
O O7 0.348400 0.618247 0.743210
O O8 0.502420 0.644989 0.976251
O O9 0.342165 0.500000 0.000000
O O10 0.265724 0.698743 0.988969
O O11 0.837631 0.201041 0.697869
O O12 0.741245 0.305107 0.968739
O O13 0.664988 0.500000 0.000000
#
# Coordination Sequence:
#
# PCOD9310730 Si02
#       8
#     2   2   2   2   4   4   4   4
#     4  12  24  40  62  86 116 156 202 252 306 356
#     4  12  24  42  62  84 114 154 210 264 310 356
#     4  10  20  32  52  82 126 160 188 232 290 366
#     4  10  20  34  52  84 120 156 192 236 296 362
#     4  10  21  37  60  90 124 161 197 241 295 361
#     4  11  22  37  58  89 124 160 197 242 299 366
#     4  11  23  38  59  84 117 156 204 256 303 353
#     4  10  20  35  59  91 127 162 196 232 290 369
#
# _framework density 20.059138000000001
#
# number of rings (size 3 to 8) (size 9 to 14) (size 15 to 20)
#    0.000    1.333    0.000    8.000    0.000    5.333 
#    0.000    0.000    0.000    6.000    0.000    1.167 
#    0.000    0.000    0.000    0.000    0.000    0.000 
#
# Total GULP energy -133825.626080 kJ/mol
# GULP energy per Si atom -5576.067753 kJ/mol
# Density = 2.001348 g / cm^3
# Si number density = 20.059138 Si / 1000 Ang^3
#
#
#
# Elastic Constant Matrix: (Units=GPa)
#
#
# Indices 1 2 3 4 5 6 
#
# 1 49.2034 20.5486 31.1500 0.0000 0.0000 0.0000
# 2 20.5486 90.9904 47.3219 0.0000 0.0000 0.0000
# 3 31.1500 47.3219 116.9262 0.0000 0.0000 0.0000
# 4 0.0000 0.0000 0.0000 44.4512 0.0000 0.0000
# 5 0.0000 0.0000 0.0000 0.0000 7.4534 0.0000
# 6 0.0000 0.0000 0.0000 0.0000 0.0000 15.5237
#
#
#
# Elastic Compliance Matrix: (Units=1/GPa)
#
#
# Indices 1 2 3 4 5 6 
#
# 1 0.024983 -0.002762 -0.005538 0.000000 0.000000 0.000000
# 2 -0.002762 0.014225 -0.005021 0.000000 0.000000 0.000000
# 3 -0.005538 -0.005021 0.012060 0.000000 0.000000 0.000000
# 4 0.000000 0.000000 0.000000 0.022497 0.000000 0.000000
# 5 0.000000 0.000000 0.000000 0.000000 0.134166 0.000000
# 6 0.000000 0.000000 0.000000 0.000000 0.000000 0.064418
#
#
# Mechanical properties :
#
#
# Convention : Reuss Voigt Hill
#
# Bulk Modulus (GPa) = 40.60733 50.57347 45.59040
# Shear Modulus (GPa) = 16.27601 24.02562 20.15082
#
# Velocity S-wave (km/s) = 2.85160 3.46459 3.17293
# Velocity P-wave (km/s) = 5.57942 6.42429 6.01670
#
# Compressibility (1/GPa) = 0.02462609
#
# Stress axis : x y z
#
# Youngs Moduli (GPa) = 40.02683 70.29657 82.91852
#
# Poissons Ratio (x) = 0.19415 0.45920
# Poissons Ratio (y) = 0.11055 0.41637
# Poissons Ratio (z) = 0.22167 0.35299
#
# Static dielectric constant tensor:
#      x y z
#    x 1.688050 0.000000 0.000000 
#    y 0.000000 1.826540 0.000000 
#    z 0.000000 0.000000 1.577850 
# 
# From -- ./inp_files/4852.got.cif
#   From: 2010.05.17/outbox.cif.g08.bks.cpg/sg17_3_cif.got.tgz:4852.got - 2010.06.03 22:34:06.
