data_PCOD9310766
_publ_section_title
;
Structure prediction by ZEFSAII (Michael W. Deem and Ramdas Pophale) SiO2 
 PCOD9310766
Probable space group: P 2 2 21
;
_chemical_formula_sum "Si O2"
_cell_formula_units_Z 32
_cell_length_a 9.760646
_cell_length_b 11.239028
_cell_length_c 15.573441
_cell_angle_alpha 90.000000
_cell_angle_beta 90.000000
_cell_angle_gamma 90.000000
_cell_volume 1708.409183
_symmetry_space_group_name_H-M "P 2 2 21"
_symmetry_group_IT_number 17
_symmetry_cell_setting 'orthorhombic'
loop_
_space_group_symop_operation_xyz
x,y,z
-x,-y,1/2+z
x,-y,-z
-x,y,1/2-z
loop_
_atom_site_type_symbol
_atom_site_label
_atom_site_fract_x
_atom_site_fract_y
_atom_site_fract_z
Si Si1 0.934301 0.103054 0.658457
Si Si2 0.150586 0.857331 0.494071
Si Si3 0.458165 0.526936 0.158329
Si Si4 0.777337 0.365318 0.426257
Si Si5 0.994355 0.531701 0.343577
Si Si6 0.244085 0.704075 0.124976
Si Si7 0.264382 0.607241 0.433499
Si Si8 0.953481 0.824573 0.654718
O O1 0.786705 0.159985 0.640796
O O2 0.000000 0.135469 0.750000
O O3 0.035420 0.138470 0.580570
O O4 0.918807 0.962594 0.658025
O O5 0.248957 0.743785 0.469054
O O6 0.074057 0.818511 0.582495
O O7 0.197717 0.000000 0.500000
O O8 0.500000 0.474434 0.250000
O O9 0.353503 0.437402 0.109791
O O10 0.369477 0.645644 0.173225
O O11 0.589250 0.571664 0.105980
O O12 0.915083 0.444877 0.409941
O O13 0.750556 0.331175 0.524646
O O14 0.821058 0.248539 0.375031
O O15 0.891765 0.641900 0.338866
O O16 0.000000 0.473588 0.250000
O O17 0.141178 0.582110 0.367749
O O18 0.238511 0.500000 0.500000
O O19 0.000000 0.789137 0.750000
#
# Coordination Sequence:
#
# PCOD9310766 Si02
#       8
#     4   4   4   4   4   4   4   4
#     4  10  20  34  62  95 121 151 204 262 308 366
#     4  10  21  37  61  94 128 158 197 259 318 368
#     4  11  26  40  57  85 120 163 207 257 310 370
#     4  11  21  38  58  85 122 160 202 252 308 379
#     4  11  20  31  56  90 115 149 197 252 307 357
#     4  11  20  37  59  83 117 157 204 251 305 363
#     4  12  22  37  59  86 120 161 203 250 308 370
#     4  10  20  36  59  97 126 159 198 256 319 375
#
# _framework density 18.730875000000001
#
# number of rings (size 3 to 8) (size 9 to 14) (size 15 to 20)
#    0.000    1.250    2.500    6.000    1.750    1.000 
#    0.000    0.000    5.500    0.750    0.000    0.000 
#    0.000    0.000    0.000    0.000    0.000    0.000 
#
# Total GULP energy -178312.077454 kJ/mol
# GULP energy per Si atom -5572.252420 kJ/mol
# Density = 1.868824 g / cm^3
# Si number density = 18.730875 Si / 1000 Ang^3
#
#
#
# Elastic Constant Matrix: (Units=GPa)
#
#
# Indices 1 2 3 4 5 6 
#
# 1 100.4416 42.3910 30.4878 0.0000 0.0000 0.0000
# 2 42.3910 107.3703 41.5109 0.0000 0.0000 0.0000
# 3 30.4878 41.5109 110.5984 0.0000 0.0000 0.0000
# 4 0.0000 0.0000 0.0000 8.1175 0.0000 0.0000
# 5 0.0000 0.0000 0.0000 0.0000 23.3091 0.0000
# 6 0.0000 0.0000 0.0000 0.0000 0.0000 17.6773
#
#
#
# Elastic Compliance Matrix: (Units=1/GPa)
#
#
# Indices 1 2 3 4 5 6 
#
# 1 0.012254 -0.004132 -0.001827 0.000000 0.000000 0.000000
# 2 -0.004132 0.012287 -0.003473 0.000000 0.000000 0.000000
# 3 -0.001827 -0.003473 0.010849 0.000000 0.000000 0.000000
# 4 0.000000 0.000000 0.000000 0.123191 0.000000 0.000000
# 5 0.000000 0.000000 0.000000 0.000000 0.042902 0.000000
# 6 0.000000 0.000000 0.000000 0.000000 0.000000 0.056570
#
#
# Mechanical properties :
#
#
# Convention : Reuss Voigt Hill
#
# Bulk Modulus (GPa) = 60.50719 60.79888 60.65304
# Shear Modulus (GPa) = 17.70374 23.42215 20.56294
#
# Velocity S-wave (km/s) = 3.07769 3.54002 3.31692
# Velocity P-wave (km/s) = 6.70844 7.01702 6.86446
#
# Compressibility (1/GPa) = 0.01652696
#
# Stress axis : x y z
#
# Youngs Moduli (GPa) = 81.60283 81.38358 92.17500
#
# Poissons Ratio (x) = 0.33626 0.16843
# Poissons Ratio (y) = 0.33716 0.32011
# Poissons Ratio (z) = 0.14912 0.28264
#
# Static dielectric constant tensor:
#      x y z
#    x 1.703970 0.000000 0.000000 
#    y 0.000000 1.746610 0.000000 
#    z 0.000000 0.000000 1.721310 
# 
# From -- ./inp_files/8291.got.cif
#   From: 2010.05.17/outbox.cif.g08.bks.cpg/sg17_5_cif.got.tgz:8291.got - 2010.06.03 22:34:06.
