data_PCOD9310856
_publ_section_title
;
Structure prediction by ZEFSAII (Michael W. Deem and Ramdas Pophale) SiO2 
 PCOD9310856
Probable space group: P 2 2 21
;
_chemical_formula_sum "Si O2"
_cell_formula_units_Z 32
_cell_length_a 8.541222
_cell_length_b 10.486088
_cell_length_c 18.228234
_cell_angle_alpha 90.000000
_cell_angle_beta 90.000000
_cell_angle_gamma 90.000000
_cell_volume 1632.593651
_symmetry_space_group_name_H-M "P 2 2 21"
_symmetry_group_IT_number 17
_symmetry_cell_setting 'orthorhombic'
loop_
_space_group_symop_operation_xyz
x,y,z
-x,-y,1/2+z
x,-y,-z
-x,y,1/2-z
loop_
_atom_site_type_symbol
_atom_site_label
_atom_site_fract_x
_atom_site_fract_y
_atom_site_fract_z
Si Si1 0.548870 0.256556 0.102781
Si Si2 0.556620 0.998384 0.171859
Si Si3 0.934647 0.988357 0.168232
Si Si4 0.915041 0.251126 0.928357
Si Si5 0.042065 0.482330 0.835029
Si Si6 0.927249 0.256368 0.097968
Si Si7 0.540583 0.219796 0.936895
Si Si8 0.630445 0.517992 0.412694
O O1 0.504891 0.144148 0.158372
O O2 0.737818 0.266564 0.102858
O O3 0.470437 0.394417 0.110902
O O4 0.500880 0.206962 0.022243
O O5 0.500000 0.951961 0.250000
O O6 0.745268 0.993085 0.170319
O O7 0.494978 0.903113 0.109723
O O8 0.981779 0.123501 0.133203
O O9 0.000000 0.972963 0.250000
O O10 0.980662 0.870316 0.116079
O O11 0.728274 0.232781 0.932554
O O12 0.951860 0.378888 0.884274
O O13 0.972594 0.259820 0.012117
O O14 0.222102 0.469381 0.859340
O O15 0.000000 0.461630 0.750000
O O16 0.994383 0.624151 0.858807
O O17 0.466822 0.351427 0.909182
O O18 0.673303 0.500000 0.500000
#
# Coordination Sequence:
#
# PCOD9310856 Si02
#       8
#     4   4   4   4   4   4   4   4
#     4   9  19  37  61  84 108 141 186 234 278 327
#     4  10  21  35  55  83 115 148 179 219 276 337
#     4  10  21  37  57  85 117 146 184 233 278 327
#     4  10  20  38  61  83 109 149 193 231 277 338
#     4  12  25  38  54  82 118 152 185 230 284 336
#     4  10  20  38  61  83 109 149 193 231 277 338
#     4   9  19  37  61  84 108 141 186 234 278 327
#     4  10  21  38  59  84 111 142 185 238 284 332
#
# _framework density 19.600714
#
# number of rings (size 3 to 8) (size 9 to 14) (size 15 to 20)
#    0.000    2.000    0.000    3.375    0.000   11.000 
#    0.000    1.875    0.000    4.500    0.000    0.000 
#    0.000    0.000    0.000    0.000    0.000    0.000 
#
# Total GULP energy -178692.595731 kJ/mol
# GULP energy per Si atom -5584.143617 kJ/mol
# Density = 1.955610 g / cm^3
# Si number density = 19.600714 Si / 1000 Ang^3
#
#
#
# Elastic Constant Matrix: (Units=GPa)
#
#
# Indices 1 2 3 4 5 6 
#
# 1 7.9949 -2.0915 7.7118 0.0000 0.0000 0.0000
# 2 -2.0915 65.6339 6.8726 0.0000 0.0000 0.0000
# 3 7.7118 6.8726 69.2734 0.0000 0.0000 0.0000
# 4 0.0000 0.0000 0.0000 21.8867 0.0000 0.0000
# 5 0.0000 0.0000 0.0000 0.0000 27.1260 0.0000
# 6 0.0000 0.0000 0.0000 0.0000 0.0000 3.9269
#
#
#
# Elastic Compliance Matrix: (Units=1/GPa)
#
#
# Indices 1 2 3 4 5 6 
#
# 1 0.142638 0.006273 -0.016501 0.000000 0.000000 0.000000
# 2 0.006273 0.015672 -0.002253 0.000000 0.000000 0.000000
# 3 -0.016501 -0.002253 0.016496 0.000000 0.000000 0.000000
# 4 0.000000 0.000000 0.000000 0.045690 0.000000 0.000000
# 5 0.000000 0.000000 0.000000 0.000000 0.036865 0.000000
# 6 0.000000 0.000000 0.000000 0.000000 0.000000 0.254652
#
#
# Mechanical properties :
#
#
# Convention : Reuss Voigt Hill
#
# Bulk Modulus (GPa) = 6.67362 18.65422 12.66392
# Shear Modulus (GPa) = 8.51899 19.28189 13.90044
#
# Velocity S-wave (km/s) = 2.08703 3.13986 2.66593
# Velocity P-wave (km/s) = 3.03641 4.76264 3.99390
#
# Compressibility (1/GPa) = 0.14984373
#
# Stress axis : x y z
#
# Youngs Moduli (GPa) = 7.01073 63.80865 60.62043
#
# Poissons Ratio (x) = -0.40029 1.00032
# Poissons Ratio (y) = -0.04398 0.13659
# Poissons Ratio (z) = 0.11569 0.14377
#
# Static dielectric constant tensor:
#      x y z
#    x 1.687940 0.000000 0.000000 
#    y 0.000000 1.663130 0.000000 
#    z 0.000000 0.000000 1.673490 
# 
# From -- ./inp_files/8271.got.cif
#   From: 2010.05.17/outbox.cif.g08.bks.cpg/sg17_5_cif.got.tgz:8271.got - 2010.06.03 22:34:06.
