data_PCOD9310424
_publ_section_title
;
Structure prediction by ZEFSAII (Michael W. Deem and Ramdas Pophale) SiO2 
 PCOD9310424
Probable space group: P 2 2 2
;
_chemical_formula_sum "Si O2"
_cell_formula_units_Z 21
_cell_length_a 7.148689
_cell_length_b 9.820401
_cell_length_c 14.394373
_cell_angle_alpha 90.000000
_cell_angle_beta 90.000000
_cell_angle_gamma 90.000000
_cell_volume 1010.528061
_symmetry_space_group_name_H-M "P 2 2 2"
_symmetry_group_IT_number 16
_symmetry_cell_setting 'orthorhombic'
loop_
_space_group_symop_operation_xyz
x,y,z
-x,-y,z
x,-y,-z
-x,y,-z
loop_
_atom_site_type_symbol
_atom_site_label
_atom_site_fract_x
_atom_site_fract_y
_atom_site_fract_z
Si Si1 0.226416 0.980666 0.606511
Si Si2 0.000000 0.500000 0.000000
Si Si3 0.701087 0.529373 0.844435
Si Si4 0.256026 0.203141 0.749705
Si Si5 0.808481 0.244387 0.755011
Si Si6 0.773991 0.015929 0.896340
O O1 0.262771 0.839353 0.663350
O O2 0.282275 0.000000 0.500000
O O3 0.306468 0.109750 0.662664
O O4 0.000000 0.000000 0.609695
O O5 0.854460 0.567051 0.924811
O O6 0.500000 0.500000 0.888830
O O7 0.663496 0.650458 0.771351
O O8 0.768097 0.399371 0.783720
O O9 0.301956 0.107012 0.836012
O O10 0.032532 0.228117 0.747766
O O11 0.739572 0.155633 0.842844
O O12 0.000000 0.000000 0.896271
O O13 0.708844 0.000000 0.000000
#
# Coordination Sequence:
#
# PCOD9310424 Si02
#       6
#     4   1   4   4   4   4
#     4   8  15  31  60  94 119 152 206 250 301 368
#     4  12  26  44  60  80 122 168 202 246 300 346
#     4  12  25  39  60  87 120 160 206 246 292 358
#     4   9  17  33  55  82 117 159 193 249 304 345
#     4   9  17  33  55  82 117 159 193 249 304 345
#     4   8  15  25  48  74 102 144 194 236 293 352
#
# _framework density 20.781213999999999
#
# number of rings (size 3 to 8) (size 9 to 14) (size 15 to 20)
#    0.000    2.667    1.905    2.571    2.667    0.000 
#    0.000    4.762    0.000    9.143    0.000    0.000 
#    0.000    0.000    0.000    0.000    0.000    0.000 
#
# Total GULP energy -117006.542123 kJ/mol
# GULP energy per Si atom -5571.740101 kJ/mol
# Density = 2.073391 g / cm^3
# Si number density = 20.781214 Si / 1000 Ang^3
#
#
#
# Elastic Constant Matrix: (Units=GPa)
#
#
# Indices 1 2 3 4 5 6 
#
# 1 84.8854 -22.0459 -2.3914 0.0000 0.0000 0.0000
# 2 -22.0459 145.4675 66.3327 0.0000 0.0000 0.0000
# 3 -2.3914 66.3327 175.8680 0.0000 0.0000 0.0000
# 4 0.0000 0.0000 0.0000 1.5804 0.0000 0.0000
# 5 0.0000 0.0000 0.0000 0.0000 -30.2891 0.0000
# 6 0.0000 0.0000 0.0000 0.0000 0.0000 -1.8578
#
#
#
# Elastic Compliance Matrix: (Units=1/GPa)
#
#
# Indices 1 2 3 4 5 6 
#
# 1 0.012324 0.002163 -0.000648 0.000000 0.000000 0.000000
# 2 0.002163 0.008682 -0.003245 0.000000 0.000000 0.000000
# 3 -0.000648 -0.003245 0.006901 0.000000 0.000000 0.000000
# 4 0.000000 0.000000 0.000000 0.632753 0.000000 0.000000
# 5 0.000000 0.000000 0.000000 0.000000 -0.033015 0.000000
# 6 0.000000 0.000000 0.000000 0.000000 0.000000 -0.538286
#
#
# Mechanical properties :
#
#
# Convention : Reuss Voigt Hill
#
# Bulk Modulus (GPa) = 40.90462 54.44576 47.67519
# Shear Modulus (GPa) = 49.51985 18.17507 33.84746
#
# Velocity S-wave (km/s) = 4.88681 2.96056 4.04016
# Velocity P-wave (km/s) = 7.18104 6.15978 6.68993
#
# Compressibility (1/GPa) = 0.02444712
#
# Stress axis : x y z
#
# Youngs Moduli (GPa) = 81.14127 115.17990 144.90067
#
# Poissons Ratio (x) = -0.24918 0.09395
# Poissons Ratio (y) = -0.17554 0.47024
# Poissons Ratio (z) = 0.05261 0.37378
#
# Static dielectric constant tensor:
#      x y z
#    x 1.818750 0.000000 0.000000 
#    y 0.000000 1.774210 0.000000 
#    z 0.000000 0.000000 1.765350 
# 
# From -- ./inp_files/7799.got.cif
#   From: 2010.05.17/outbox.cif.g08.bks.cpg/sg16_4_cif.got.tgz:7799.got - 2010.06.03 22:28:35.
