data_PCOD9310988
_publ_section_title
;
Structure prediction by ZEFSAII (Michael W. Deem and Ramdas Pophale) SiO2 
 PCOD9310988
Probable space group: P 2 2 21
;
_chemical_formula_sum "Si O2"
_cell_formula_units_Z 14
_cell_length_a 7.087532
_cell_length_b 16.559652
_cell_length_c 5.130187
_cell_angle_alpha 90.000000
_cell_angle_beta 90.000000
_cell_angle_gamma 90.000000
_cell_volume 602.114983
_symmetry_space_group_name_H-M "P 2 2 21"
_symmetry_group_IT_number 17
_symmetry_cell_setting 'orthorhombic'
loop_
_space_group_symop_operation_xyz
x,y,z
-x,-y,1/2+z
x,-y,-z
-x,y,1/2-z
loop_
_atom_site_type_symbol
_atom_site_label
_atom_site_fract_x
_atom_site_fract_y
_atom_site_fract_z
Si Si1 0.771646 0.752182 0.795786
Si Si2 0.777873 0.834053 0.293552
Si Si3 0.136854 0.587612 0.501874
Si Si4 0.373441 0.000000 0.000000
O O1 0.701804 0.770210 0.505809
O O2 0.739248 0.665798 0.931321
O O3 0.000000 0.757135 0.750000
O O4 0.703763 0.818844 0.002930
O O5 0.000000 0.821786 0.250000
O O6 0.744309 0.922246 0.409652
O O7 0.236008 0.500000 0.500000
O O8 0.000000 0.580302 0.750000
O O9 0.000000 0.600841 0.250000
O O10 0.500000 0.979630 0.750000
#
# Coordination Sequence:
#
# PCOD9310988 Si02
#       4
#     4   4   4   2
#     4   9  16  29  48  73 102 136 177 217 257 313
#     4  10  21  36  56  77 103 140 182 222 266 323
#     4   9  15  23  38  65 104 142 169 204 262 318
#     4  12  26  42  58  82 114 142 180 234 288 334
#
# _framework density 23.251373999999998
#
# number of rings (size 3 to 8) (size 9 to 14) (size 15 to 20)
#    0.000    2.286    0.000    6.000    0.000    4.571 
#    0.000    0.000    0.000    0.000    0.000    0.000 
#    0.000   22.857    0.000    0.000    0.000    0.000 
#
# Total GULP energy -78091.977684 kJ/mol
# GULP energy per Si atom -5577.998406 kJ/mol
# Density = 2.319845 g / cm^3
# Si number density = 23.251374 Si / 1000 Ang^3
#
#
#
# Elastic Constant Matrix: (Units=GPa)
#
#
# Indices 1 2 3 4 5 6 
#
# 1 50.4381 -5.9751 27.4931 0.0000 0.0000 0.0000
# 2 -5.9751 157.1689 73.9216 0.0000 0.0000 0.0000
# 3 27.4931 73.9216 178.9349 0.0000 0.0000 0.0000
# 4 0.0000 0.0000 0.0000 40.6014 0.0000 0.0000
# 5 0.0000 0.0000 0.0000 0.0000 2.8215 0.0000
# 6 0.0000 0.0000 0.0000 0.0000 0.0000 -8.9065
#
#
#
# Elastic Compliance Matrix: (Units=1/GPa)
#
#
# Indices 1 2 3 4 5 6 
#
# 1 0.022810 0.003122 -0.004794 0.000000 0.000000 0.000000
# 2 0.003122 0.008324 -0.003919 0.000000 0.000000 0.000000
# 3 -0.004794 -0.003919 0.007944 0.000000 0.000000 0.000000
# 4 0.000000 0.000000 0.000000 0.024630 0.000000 0.000000
# 5 0.000000 0.000000 0.000000 0.000000 0.354427 0.000000
# 6 0.000000 0.000000 0.000000 0.000000 0.000000 -0.112278
#
#
# Mechanical properties :
#
#
# Convention : Reuss Voigt Hill
#
# Bulk Modulus (GPa) = 35.84735 64.15789 50.00262
# Shear Modulus (GPa) = 15.32156 26.31011 20.81584
#
# Velocity S-wave (km/s) = 2.56979 3.36750 2.99532
# Velocity P-wave (km/s) = 4.92503 6.54012 5.78917
#
# Compressibility (1/GPa) = 0.02789607
#
# Stress axis : x y z
#
# Youngs Moduli (GPa) = 43.84132 120.12947 125.87852
#
# Poissons Ratio (x) = -0.37506 0.60352
# Poissons Ratio (y) = -0.13688 0.49328
# Poissons Ratio (z) = 0.21020 0.47075
#
# Static dielectric constant tensor:
#      x y z
#    x 1.882150 0.000000 0.000000 
#    y 0.000000 1.970410 0.000000 
#    z 0.000000 0.000000 1.857000 
# 
# From -- ./inp_files/637.got.cif
#   From: 2010.05.17/outbox.cif.g08.bks.cpg/sg17_1_cif.got.tgz:637.got - 2010.06.03 22:34:06.
