data_PCOD9310742
_publ_section_title
;
Structure prediction by ZEFSAII (Michael W. Deem and Ramdas Pophale) SiO2 
 PCOD9310742
Probable space group: P 2 2 21
;
_chemical_formula_sum "Si O2"
_cell_formula_units_Z 20
_cell_length_a 13.282903
_cell_length_b 15.479108
_cell_length_c 5.066141
_cell_angle_alpha 90.000000
_cell_angle_beta 90.000000
_cell_angle_gamma 90.000000
_cell_volume 1041.636535
_symmetry_space_group_name_H-M "P 2 2 21"
_symmetry_group_IT_number 17
_symmetry_cell_setting 'orthorhombic'
loop_
_space_group_symop_operation_xyz
x,y,z
-x,-y,1/2+z
x,-y,-z
-x,y,1/2-z
loop_
_atom_site_type_symbol
_atom_site_label
_atom_site_fract_x
_atom_site_fract_y
_atom_site_fract_z
Si Si1 0.072808 0.000000 0.000000
Si Si2 0.000000 0.715908 0.250000
Si Si3 0.107053 0.412830 0.383825
Si Si4 0.747335 0.271469 0.150172
Si Si5 0.175570 0.822406 0.121740
Si Si6 0.572537 0.401035 0.000503
O O1 0.144753 0.921655 0.092490
O O2 0.000000 0.022066 0.250000
O O3 0.932893 0.775780 0.435818
O O4 0.076729 0.651552 0.385178
O O5 0.150417 0.500000 0.500000
O O6 0.185446 0.352666 0.235078
O O7 0.000000 0.433808 0.250000
O O8 0.744085 0.209388 0.404713
O O9 0.653876 0.324762 0.030746
O O10 0.791845 0.211281 0.912645
O O11 0.500000 0.396218 0.250000
O O12 0.614711 0.500000 0.000000
O O13 0.500000 0.390391 0.750000
#
# Coordination Sequence:
#
# PCOD9310742 Si02
#       6
#     2   2   4   4   4   4
#     4  12  24  38  60  84 118 162 208 248 304 346
#     4  10  20  34  46  72 110 152 198 230 268 326
#     4  11  20  31  46  72 112 157 193 224 264 332
#     4  11  23  38  59  85 117 154 198 245 296 357
#     4  11  23  37  57  83 114 155 196 246 290 352
#     4  10  21  40  64  92 122 155 200 255 308 358
#
# _framework density 19.200554
#
# number of rings (size 3 to 8) (size 9 to 14) (size 15 to 20)
#    0.000    1.200    4.000    3.000    2.800    0.000 
#    0.000    3.000    0.000    0.000    0.000   14.000 
#    0.000    0.000    0.000    0.000    0.000    0.000 
#
# Total GULP energy -111350.410415 kJ/mol
# GULP energy per Si atom -5567.520521 kJ/mol
# Density = 1.915685 g / cm^3
# Si number density = 19.200554 Si / 1000 Ang^3
#
#
#
# Elastic Constant Matrix: (Units=GPa)
#
#
# Indices 1 2 3 4 5 6 
#
# 1 61.5878 31.9494 12.6865 0.0000 0.0000 0.0000
# 2 31.9494 125.7978 15.3588 0.0000 0.0000 0.0000
# 3 12.6865 15.3588 90.6623 0.0000 0.0000 0.0000
# 4 0.0000 0.0000 0.0000 24.1739 0.0000 0.0000
# 5 0.0000 0.0000 0.0000 0.0000 22.2379 0.0000
# 6 0.0000 0.0000 0.0000 0.0000 0.0000 30.3101
#
#
#
# Elastic Compliance Matrix: (Units=1/GPa)
#
#
# Indices 1 2 3 4 5 6 
#
# 1 0.019010 -0.004598 -0.001881 0.000000 0.000000 0.000000
# 2 -0.004598 0.009229 -0.000920 0.000000 0.000000 0.000000
# 3 -0.001881 -0.000920 0.011449 0.000000 0.000000 0.000000
# 4 0.000000 0.000000 0.000000 0.041367 0.000000 0.000000
# 5 0.000000 0.000000 0.000000 0.000000 0.044968 0.000000
# 6 0.000000 0.000000 0.000000 0.000000 0.000000 0.032992
#
#
# Mechanical properties :
#
#
# Convention : Reuss Voigt Hill
#
# Bulk Modulus (GPa) = 40.17784 44.22638 42.20211
# Shear Modulus (GPa) = 27.45570 29.88125 28.66848
#
# Velocity S-wave (km/s) = 3.78556 3.94924 3.86827
# Velocity P-wave (km/s) = 6.33073 6.62414 6.47909
#
# Compressibility (1/GPa) = 0.02488934
#
# Stress axis : x y z
#
# Youngs Moduli (GPa) = 52.60413 108.34867 87.34360
#
# Poissons Ratio (x) = 0.49823 0.16430
# Poissons Ratio (y) = 0.24189 0.08036
# Poissons Ratio (z) = 0.09895 0.09969
#
# Static dielectric constant tensor:
#      x y z
#    x 1.761200 0.000000 0.000000 
#    y 0.000000 1.655990 0.000000 
#    z 0.000000 0.000000 1.726130 
# 
# From -- ./inp_files/1569.got.cif
#   From: 2010.05.17/outbox.cif.g08.bks.cpg/sg17_1_cif.got.tgz:1569.got - 2010.06.03 22:34:06.
