data_PCOD9310318
_publ_section_title
;
Structure prediction by ZEFSAII (Michael W. Deem and Ramdas Pophale) SiO2 
 PCOD9310318
Probable space group: P 2 2 2
;
_chemical_formula_sum "Si O2"
_cell_formula_units_Z 18
_cell_length_a 10.844302
_cell_length_b 8.927142
_cell_length_c 9.189266
_cell_angle_alpha 90.000000
_cell_angle_beta 90.000000
_cell_angle_gamma 90.000000
_cell_volume 889.600196
_symmetry_space_group_name_H-M "P 2 2 2"
_symmetry_group_IT_number 16
_symmetry_cell_setting 'orthorhombic'
loop_
_space_group_symop_operation_xyz
x,y,z
-x,-y,z
x,-y,-z
-x,y,-z
loop_
_atom_site_type_symbol
_atom_site_label
_atom_site_fract_x
_atom_site_fract_y
_atom_site_fract_z
Si Si1 0.500000 0.000000 0.000000
Si Si2 0.873937 0.580066 0.156558
Si Si3 0.355324 0.528381 0.326346
Si Si4 0.500000 0.000000 0.500000
Si Si5 0.876199 0.934108 0.162459
Si Si6 0.341505 0.133770 0.746964
O O1 0.581274 0.102997 0.106236
O O2 0.748898 0.571251 0.250163
O O3 0.892711 0.757634 0.144153
O O4 0.000000 0.500000 0.215563
O O5 0.854169 0.500000 0.000000
O O6 0.500000 0.500000 0.284751
O O7 0.349018 0.500000 0.500000
O O8 0.310995 0.692668 0.271745
O O9 0.577634 0.897449 0.605950
O O10 0.763355 0.006760 0.249049
O O11 0.000000 0.000000 0.229861
O O12 0.863054 0.000000 0.000000
#
# Coordination Sequence:
#
# PCOD9310318 Si02
#       6
#     1   4   4   1   4   4
#     4  10  24  38  68  98 132 174 226 272 336 382
#     4  11  24  43  68  97 132 175 224 279 342 399
#     4  11  26  43  66  96 139 178 223 272 338 398
#     4  10  24  38  68  86 140 174 218 264 328 398
#     4  11  22  40  68  96 129 168 224 282 335 393
#     4  11  23  42  66  97 135 175 226 272 335 402
#
# _framework density 20.233808
#
# number of rings (size 3 to 8) (size 9 to 14) (size 15 to 20)
#    0.000    1.111    1.111    6.667    9.333    0.889 
#    0.000    0.556    0.000    0.000    0.000    0.000 
#    0.000    0.000    0.000    0.000    0.000    0.000 
#
# Total GULP energy -100421.019505 kJ/mol
# GULP energy per Si atom -5578.945528 kJ/mol
# Density = 2.018775 g / cm^3
# Si number density = 20.233808 Si / 1000 Ang^3
#
#
#
# Elastic Constant Matrix: (Units=GPa)
#
#
# Indices 1 2 3 4 5 6 
#
# 1 133.3874 32.9319 48.0463 0.0000 0.0000 0.0000
# 2 32.9319 174.2953 22.5508 0.0000 0.0000 0.0000
# 3 48.0463 22.5508 79.6913 0.0000 0.0000 0.0000
# 4 0.0000 0.0000 0.0000 -83.8883 0.0000 0.0000
# 5 0.0000 0.0000 0.0000 0.0000 4.8104 0.0000
# 6 0.0000 0.0000 0.0000 0.0000 0.0000 35.8772
#
#
#
# Elastic Compliance Matrix: (Units=1/GPa)
#
#
# Indices 1 2 3 4 5 6 
#
# 1 0.009785 -0.001127 -0.005581 0.000000 0.000000 0.000000
# 2 -0.001127 0.006085 -0.001043 0.000000 0.000000 0.000000
# 3 -0.005581 -0.001043 0.016208 0.000000 0.000000 0.000000
# 4 0.000000 0.000000 0.000000 -0.011921 0.000000 0.000000
# 5 0.000000 0.000000 0.000000 0.000000 0.207885 0.000000
# 6 0.000000 0.000000 0.000000 0.000000 0.000000 0.027873
#
#
# Mechanical properties :
#
#
# Convention : Reuss Voigt Hill
#
# Bulk Modulus (GPa) = 60.31987 66.04799 63.18393
# Shear Modulus (GPa) = 18.05431 10.28286 14.16859
#
# Velocity S-wave (km/s) = 2.99035 2.25678 2.64908
# Velocity P-wave (km/s) = 6.46522 6.28522 6.37586
#
# Compressibility (1/GPa) = 0.01657828
#
# Stress axis : x y z
#
# Youngs Moduli (GPa) = 102.19353 164.33346 61.69743
#
# Poissons Ratio (x) = 0.18517 0.34432
# Poissons Ratio (y) = 0.11515 0.06433
# Poissons Ratio (z) = 0.57032 0.17133
#
# Static dielectric constant tensor:
#      x y z
#    x 1.684210 0.000000 0.000000 
#    y 0.000000 1.921770 0.000000 
#    z 0.000000 0.000000 1.707070 
# 
# From -- ./inp_files/3834.got.cif
#   From: 2010.05.17/outbox.cif.g08.bks.cpg/sg16_2_cif.got.tgz:3834.got - 2010.06.03 22:28:35.
