data_PCOD9310883
_publ_section_title
;
Structure prediction by ZEFSAII (Michael W. Deem and Ramdas Pophale) SiO2 
 PCOD9310883
Probable space group: P 2 2 21
;
_chemical_formula_sum "Si O2"
_cell_formula_units_Z 26
_cell_length_a 8.755292
_cell_length_b 8.749004
_cell_length_c 16.218954
_cell_angle_alpha 90.000000
_cell_angle_beta 90.000000
_cell_angle_gamma 90.000000
_cell_volume 1242.373251
_symmetry_space_group_name_H-M "P 2 2 21"
_symmetry_group_IT_number 17
_symmetry_cell_setting 'orthorhombic'
loop_
_space_group_symop_operation_xyz
x,y,z
-x,-y,1/2+z
x,-y,-z
-x,y,1/2-z
loop_
_atom_site_type_symbol
_atom_site_label
_atom_site_fract_x
_atom_site_fract_y
_atom_site_fract_z
Si Si1 0.000000 0.382435 0.750000
Si Si2 0.517259 0.310762 0.109054
Si Si3 0.611540 0.009033 0.596068
Si Si4 0.711415 0.500000 0.500000
Si Si5 0.696349 0.447423 0.807868
Si Si6 0.500000 0.803049 0.250000
Si Si7 0.790472 0.325847 0.981024
Si Si8 0.901554 0.224171 0.582164
O O1 0.135823 0.488330 0.719719
O O2 0.046364 0.277880 0.827195
O O3 0.597231 0.403400 0.181552
O O4 0.416327 0.163006 0.126734
O O5 0.401264 0.428351 0.067034
O O6 0.661516 0.278788 0.047070
O O7 0.517385 0.103867 0.665097
O O8 0.782177 0.082991 0.589708
O O9 0.558128 0.000000 0.500000
O O10 0.808748 0.362818 0.539251
O O11 0.638482 0.316731 0.747396
O O12 0.705221 0.358131 0.894881
O O13 0.936900 0.216353 0.968065
O O14 0.847795 0.500000 0.000000
#
# Coordination Sequence:
#
# PCOD9310883 Si02
#       8
#     2   4   4   2   4   2   4   4
#     4  10  22  40  68 100 138 180 238 296 356 430
#     4  11  22  40  69 106 137 179 241 298 359 426
#     4  12  25  44  69 105 148 188 233 301 367 439
#     4  12  20  38  72 104 134 178 236 304 340 432
#     4  10  20  38  67  99 127 178 237 287 351 424
#     4  12  24  44  68 102 140 190 240 302 364 428
#     4   9  18  38  67 101 134 177 231 293 348 428
#     4  11  22  41  70 104 138 184 235 293 370 431
#
# _framework density 20.927688
#
# number of rings (size 3 to 8) (size 9 to 14) (size 15 to 20)
#    0.000    1.231    6.154    1.846    0.000    0.615 
#    0.000    3.846    0.000    0.923    0.000    0.000 
#    0.000    0.000    0.000    0.000    0.000    0.000 
#
# Total GULP energy -144899.318325 kJ/mol
# GULP energy per Si atom -5573.050705 kJ/mol
# Density = 2.088006 g / cm^3
# Si number density = 20.927688 Si / 1000 Ang^3
#
#
#
# Elastic Constant Matrix: (Units=GPa)
#
#
# Indices 1 2 3 4 5 6 
#
# 1 117.4029 45.7028 31.8935 0.0000 0.0000 0.0000
# 2 45.7028 98.2990 12.4821 0.0000 0.0000 0.0000
# 3 31.8935 12.4821 80.5150 0.0000 0.0000 0.0000
# 4 0.0000 0.0000 0.0000 -2.2722 0.0000 0.0000
# 5 0.0000 0.0000 0.0000 0.0000 36.1149 0.0000
# 6 0.0000 0.0000 0.0000 0.0000 0.0000 57.3846
#
#
#
# Elastic Compliance Matrix: (Units=1/GPa)
#
#
# Indices 1 2 3 4 5 6 
#
# 1 0.011425 -0.004832 -0.003776 0.000000 0.000000 0.000000
# 2 -0.004832 0.012421 -0.000012 0.000000 0.000000 0.000000
# 3 -0.003776 -0.000012 0.013918 0.000000 0.000000 0.000000
# 4 0.000000 0.000000 0.000000 -0.440111 0.000000 0.000000
# 5 0.000000 0.000000 0.000000 0.000000 0.027689 0.000000
# 6 0.000000 0.000000 0.000000 0.000000 0.000000 0.017426
#
#
# Mechanical properties :
#
#
# Convention : Reuss Voigt Hill
#
# Bulk Modulus (GPa) = 48.72497 52.93039 50.82768
# Shear Modulus (GPa) = -15.00821 31.98805 8.48992
#
# Velocity S-wave (km/s) = -2.68086 3.91385 2.01633
# Velocity P-wave (km/s) = 3.70815 6.76544 5.45535
#
# Compressibility (1/GPa) = 0.02052336
#
# Stress axis : x y z
#
# Youngs Moduli (GPa) = 87.52998 80.50764 71.85079
#
# Poissons Ratio (x) = 0.38903 0.27134
# Poissons Ratio (y) = 0.42296 0.00083
# Poissons Ratio (z) = 0.33055 0.00093
#
# Static dielectric constant tensor:
#      x y z
#    x 1.843800 0.000000 0.000000 
#    y 0.000000 1.755110 0.000000 
#    z 0.000000 0.000000 1.814790 
# 
# From -- ./inp_files/9492.got.cif
#   From: 2010.05.17/outbox.cif.g08.bks.cpg/sg17_5_cif.got.tgz:9492.got - 2010.06.03 22:34:06.
