data_PCOD9310656
_publ_section_title
;
Structure prediction by ZEFSAII (Michael W. Deem and Ramdas Pophale) SiO2 
 PCOD9310656
Probable space group: P 2 2 21
;
_chemical_formula_sum "Si O2"
_cell_formula_units_Z 16
_cell_length_a 11.902202
_cell_length_b 11.902192
_cell_length_c 5.769292
_cell_angle_alpha 90.000000
_cell_angle_beta 90.000000
_cell_angle_gamma 90.000000
_cell_volume 817.291136
_symmetry_space_group_name_H-M "P 2 2 21"
_symmetry_group_IT_number 17
_symmetry_cell_setting 'orthorhombic'
loop_
_space_group_symop_operation_xyz
x,y,z
-x,-y,1/2+z
x,-y,-z
-x,y,1/2-z
loop_
_atom_site_type_symbol
_atom_site_label
_atom_site_fract_x
_atom_site_fract_y
_atom_site_fract_z
Si Si1 0.000000 0.224660 0.750000
Si Si2 0.775339 0.000000 0.500000
Si Si3 0.178863 0.178863 0.375000
Si Si4 0.889919 0.391839 0.388121
Si Si5 0.608161 0.110083 0.861880
O O1 0.927205 0.306990 0.589624
O O2 0.086663 0.160792 0.579116
O O3 0.839207 0.913336 0.670884
O O4 0.693010 0.927205 0.339623
O O5 0.167462 0.306468 0.288902
O O6 0.306468 0.167465 0.461099
O O7 0.831536 0.500000 0.500000
O O8 0.000000 0.435541 0.250000
O O9 0.500000 0.168464 0.750000
O O10 0.564461 0.000000 0.000000
#
# Coordination Sequence:
#
# PCOD9310656 Si02
#       5
#     2   2   4   4   4
#     4  10  20  38  58  86 126 158 196 248 298 358
#     4  10  20  38  58  86 126 158 196 248 298 358
#     4  10  22  34  62  86 128 156 200 250 300 356
#     4  10  19  35  61  84 117 156 204 252 293 353
#     4  10  19  35  61  84 117 156 204 252 293 353
#
# _framework density 19.576865999999999
#
# number of rings (size 3 to 8) (size 9 to 14) (size 15 to 20)
#    0.000    2.000    2.500    1.500    0.000    0.000 
#    0.000    0.000  198.000    0.000    0.000    0.000 
#  105.000    0.000    0.000    0.000    0.000    0.000 
#
# Total GULP energy -89208.304961 kJ/mol
# GULP energy per Si atom -5575.519060 kJ/mol
# Density = 1.953231 g / cm^3
# Si number density = 19.576866 Si / 1000 Ang^3
#
#
#
# Elastic Constant Matrix: (Units=GPa)
#
#
# Indices 1 2 3 4 5 6 
#
# 1 80.9306 43.6064 30.7231 0.0000 0.0000 0.0000
# 2 43.6064 80.9299 30.7227 0.0000 0.0000 0.0000
# 3 30.7231 30.7227 94.4263 0.0000 0.0000 0.0000
# 4 0.0000 0.0000 0.0000 33.1195 0.0000 0.0000
# 5 0.0000 0.0000 0.0000 0.0000 33.1202 0.0000
# 6 0.0000 0.0000 0.0000 0.0000 0.0000 1.6175
#
#
#
# Elastic Compliance Matrix: (Units=1/GPa)
#
#
# Indices 1 2 3 4 5 6 
#
# 1 0.018179 -0.008614 -0.003112 0.000000 0.000000 0.000000
# 2 -0.008614 0.018179 -0.003112 0.000000 0.000000 0.000000
# 3 -0.003112 -0.003112 0.012615 0.000000 0.000000 0.000000
# 4 0.000000 0.000000 0.000000 0.030194 0.000000 0.000000
# 5 0.000000 0.000000 0.000000 0.000000 0.030193 0.000000
# 6 0.000000 0.000000 0.000000 0.000000 0.000000 0.618248
#
#
# Mechanical properties :
#
#
# Convention : Reuss Voigt Hill
#
# Bulk Modulus (GPa) = 51.82080 51.82123 51.82102
# Shear Modulus (GPa) = 6.54693 23.65374 15.10034
#
# Velocity S-wave (km/s) = 1.83070 3.47976 2.78031
# Velocity P-wave (km/s) = 5.56745 6.53246 6.06917
#
# Compressibility (1/GPa) = 0.01929727
#
# Stress axis : x y z
#
# Youngs Moduli (GPa) = 55.00896 55.00862 79.26771
#
# Poissons Ratio (x) = 0.47382 0.24670
# Poissons Ratio (y) = 0.47382 0.24670
# Poissons Ratio (z) = 0.17120 0.17120
#
# Static dielectric constant tensor:
#      x y z
#    x 1.678950 0.000000 0.000000 
#    y 0.000000 1.678940 0.000000 
#    z 0.000000 0.000000 1.786030 
# 
# From -- ./inp_files/1224.got.cif
#   From: 2010.05.17/outbox.cif.g08.bks.cpg/sg17_1_cif.got.tgz:1224.got - 2010.06.03 22:34:06.
