data_PCOD9310037
_publ_section_title
;
Structure prediction by ZEFSAII (Michael W. Deem and Ramdas Pophale) SiO2 
 PCOD9310037
Probable space group: P 2 2 2
;
_chemical_formula_sum "Si O2"
_cell_formula_units_Z 21
_cell_length_a 15.617006
_cell_length_b 7.404148
_cell_length_c 8.145168
_cell_angle_alpha 90.000000
_cell_angle_beta 90.000000
_cell_angle_gamma 90.000000
_cell_volume 941.830856
_symmetry_space_group_name_H-M "P 2 2 2"
_symmetry_group_IT_number 16
_symmetry_cell_setting 'orthorhombic'
loop_
_space_group_symop_operation_xyz
x,y,z
-x,-y,z
x,-y,-z
-x,y,-z
loop_
_atom_site_type_symbol
_atom_site_label
_atom_site_fract_x
_atom_site_fract_y
_atom_site_fract_z
Si Si1 0.093076 0.787366 0.960183
Si Si2 0.717778 0.294742 0.494040
Si Si3 0.500000 0.500000 0.000000
Si Si4 0.262231 0.295926 0.857928
Si Si5 0.092318 0.207234 0.432970
Si Si6 0.652718 0.690603 0.171222
O O1 0.101290 0.777478 0.763661
O O2 0.164324 0.707971 0.082596
O O3 0.000000 0.712380 0.000000
O O4 0.094170 0.000000 0.000000
O O5 0.683324 0.500000 0.500000
O O6 0.708730 0.210294 0.314053
O O7 0.820785 0.298921 0.506784
O O8 0.673181 0.215566 0.656488
O O9 0.559030 0.378312 0.880531
O O10 0.290253 0.504936 0.832203
O O11 0.311746 0.210264 0.011082
O O12 0.000000 0.274592 0.500000
O O13 0.096974 0.000000 0.500000
#
# Coordination Sequence:
#
# PCOD9310037 Si02
#       6
#     4   4   1   4   4   4
#     4  11  20  32  49  71 101 142 188 229 260 306
#     4  10  19  33  53  74 109 139 175 221 270 316
#     4   8  16  32  58  80 112 126 180 212 282 346
#     4   9  17  32  49  71 103 135 171 211 262 315
#     4  11  21  34  49  73 106 145 190 229 262 312
#     4   9  18  34  53  79 104 140 162 224 271 332
#
# _framework density 22.296996
#
# number of rings (size 3 to 8) (size 9 to 14) (size 15 to 20)
#    0.000    2.286    1.905    4.571    0.000    0.381 
#    0.000   13.810    0.000    0.000    0.000   10.667 
#    0.000   13.714    0.000    0.000    0.000    0.000 
#
# Total GULP energy -116968.923070 kJ/mol
# GULP energy per Si atom -5569.948718 kJ/mol
# Density = 2.224625 g / cm^3
# Si number density = 22.296996 Si / 1000 Ang^3
#
#
#
# Elastic Constant Matrix: (Units=GPa)
#
#
# Indices 1 2 3 4 5 6 
#
# 1 118.0978 10.0323 43.3937 0.0000 0.0000 0.0000
# 2 10.0323 64.6374 8.6811 0.0000 0.0000 0.0000
# 3 43.3937 8.6811 245.6069 0.0000 0.0000 0.0000
# 4 0.0000 0.0000 0.0000 6.0367 0.0000 0.0000
# 5 0.0000 0.0000 0.0000 0.0000 19.3438 0.0000
# 6 0.0000 0.0000 0.0000 0.0000 0.0000 42.9356
#
#
#
# Elastic Compliance Matrix: (Units=1/GPa)
#
#
# Indices 1 2 3 4 5 6 
#
# 1 0.009148 -0.001209 -0.001574 0.000000 0.000000 0.000000
# 2 -0.001209 0.015704 -0.000342 0.000000 0.000000 0.000000
# 3 -0.001574 -0.000342 0.004362 0.000000 0.000000 0.000000
# 4 0.000000 0.000000 0.000000 0.165652 0.000000 0.000000
# 5 0.000000 0.000000 0.000000 0.000000 0.051696 0.000000
# 6 0.000000 0.000000 0.000000 0.000000 0.000000 0.023291
#
#
# Mechanical properties :
#
#
# Convention : Reuss Voigt Hill
#
# Bulk Modulus (GPa) = 43.54081 61.39515 52.46798
# Shear Modulus (GPa) = 17.62074 38.07890 27.84982
#
# Velocity S-wave (km/s) = 2.81423 4.13704 3.53801
# Velocity P-wave (km/s) = 5.48907 7.10036 6.34606
#
# Compressibility (1/GPa) = 0.02296696
#
# Stress axis : x y z
#
# Youngs Moduli (GPa) = 109.30832 63.67657 229.27117
#
# Poissons Ratio (x) = 0.07696 0.36079
# Poissons Ratio (y) = 0.13211 0.07831
# Poissons Ratio (z) = 0.17201 0.02175
#
# Static dielectric constant tensor:
#      x y z
#    x 1.825840 0.000000 0.000000 
#    y 0.000000 1.884510 0.000000 
#    z 0.000000 0.000000 1.656440 
# 
# From -- ./inp_files/3988.got.cif
#   From: 2010.05.17/outbox.cif.g08.bks.cpg/sg16_2_cif.got.tgz:3988.got - 2010.06.03 22:28:35.
