data_PCOD9310880
_publ_section_title
;
Structure prediction by ZEFSAII (Michael W. Deem and Ramdas Pophale) SiO2 
 PCOD9310880
Probable space group: P 2 2 21
;
_chemical_formula_sum "Si O2"
_cell_formula_units_Z 20
_cell_length_a 11.441307
_cell_length_b 6.708353
_cell_length_c 13.994841
_cell_angle_alpha 90.000000
_cell_angle_beta 90.000000
_cell_angle_gamma 90.000000
_cell_volume 1074.136601
_symmetry_space_group_name_H-M "P 2 2 21"
_symmetry_group_IT_number 17
_symmetry_cell_setting 'orthorhombic'
loop_
_space_group_symop_operation_xyz
x,y,z
-x,-y,1/2+z
x,-y,-z
-x,y,1/2-z
loop_
_atom_site_type_symbol
_atom_site_label
_atom_site_fract_x
_atom_site_fract_y
_atom_site_fract_z
Si Si1 0.906150 0.719165 0.331484
Si Si2 0.101029 0.000000 0.000000
Si Si3 0.308252 0.983934 0.237519
Si Si4 0.241001 0.672989 0.878598
Si Si5 0.476945 0.878965 0.402741
Si Si6 0.550045 0.500000 0.500000
O O1 0.956532 0.859601 0.417754
O O2 0.803391 0.848223 0.282869
O O3 0.843070 0.517906 0.368845
O O4 0.000000 0.672724 0.250000
O O5 0.179561 0.159203 0.056846
O O6 0.368041 0.941896 0.338213
O O7 0.406591 0.924016 0.158921
O O8 0.272046 0.213064 0.219443
O O9 0.361258 0.614353 0.929610
O O10 0.476999 0.649795 0.435021
O O11 0.481257 0.000000 0.500000
#
# Coordination Sequence:
#
# PCOD9310880 Si02
#       6
#     4   2   4   4   4   2
#     4  11  23  40  65  96 125 169 218 263 315 374
#     4  10  20  38  66  92 120 156 212 266 308 370
#     4  10  23  40  60  94 130 158 210 262 320 380
#     4  11  19  37  66  92 121 159 215 265 302 377
#     4  11  22  38  62  94 124 164 206 257 323 382
#     4  12  18  34  66  88 118 164 214 258 302 382
#
# _framework density 18.619606000000001
#
# number of rings (size 3 to 8) (size 9 to 14) (size 15 to 20)
#    0.000    1.200    6.000    1.200    1.400    4.800 
#    1.800    0.000    4.400    0.000    0.000    0.000 
#    0.000    0.000    0.000    0.000    0.000    0.000 
#
# Total GULP energy -111581.912866 kJ/mol
# GULP energy per Si atom -5579.095643 kJ/mol
# Density = 1.857723 g / cm^3
# Si number density = 18.619606 Si / 1000 Ang^3
#
#
#
# Elastic Constant Matrix: (Units=GPa)
#
#
# Indices 1 2 3 4 5 6 
#
# 1 38.6918 13.7655 26.1133 0.0000 0.0000 0.0000
# 2 13.7655 106.9697 31.7044 0.0000 0.0000 0.0000
# 3 26.1133 31.7044 97.1516 0.0000 0.0000 0.0000
# 4 0.0000 0.0000 0.0000 34.0002 0.0000 0.0000
# 5 0.0000 0.0000 0.0000 0.0000 23.5962 0.0000
# 6 0.0000 0.0000 0.0000 0.0000 0.0000 11.5862
#
#
#
# Elastic Compliance Matrix: (Units=1/GPa)
#
#
# Indices 1 2 3 4 5 6 
#
# 1 0.031859 -0.001729 -0.007999 0.000000 0.000000 0.000000
# 2 -0.001729 0.010443 -0.002943 0.000000 0.000000 0.000000
# 3 -0.007999 -0.002943 0.013404 0.000000 0.000000 0.000000
# 4 0.000000 0.000000 0.000000 0.029412 0.000000 0.000000
# 5 0.000000 0.000000 0.000000 0.000000 0.042380 0.000000
# 6 0.000000 0.000000 0.000000 0.000000 0.000000 0.086309
#
#
# Mechanical properties :
#
#
# Convention : Reuss Voigt Hill
#
# Bulk Modulus (GPa) = 32.93455 42.88662 37.91058
# Shear Modulus (GPa) = 20.05852 25.25186 22.65519
#
# Velocity S-wave (km/s) = 3.28575 3.68665 3.49196
# Velocity P-wave (km/s) = 5.66758 6.41911 6.05501
#
# Compressibility (1/GPa) = 0.03036325
#
# Stress axis : x y z
#
# Youngs Moduli (GPa) = 31.38828 95.75520 74.60566
#
# Poissons Ratio (x) = 0.16556 0.59678
# Poissons Ratio (y) = 0.05427 0.21959
# Poissons Ratio (z) = 0.25108 0.28184
#
# Static dielectric constant tensor:
#      x y z
#    x 1.609000 0.000000 0.000000 
#    y 0.000000 1.684980 0.000000 
#    z 0.000000 0.000000 1.669920 
# 
# From -- ./inp_files/7653.got.cif
#   From: 2010.05.17/outbox.cif.g08.bks.cpg/sg17_4_cif.got.tgz:7653.got - 2010.06.03 22:34:06.
