data_PCOD9310364
_publ_section_title
;
Structure prediction by ZEFSAII (Michael W. Deem and Ramdas Pophale) SiO2 
 PCOD9310364
Probable space group: P 2 2 2
;
_chemical_formula_sum "Si O2"
_cell_formula_units_Z 24
_cell_length_a 12.208007
_cell_length_b 11.762377
_cell_length_c 8.314643
_cell_angle_alpha 90.000000
_cell_angle_beta 90.000000
_cell_angle_gamma 90.000000
_cell_volume 1193.942664
_symmetry_space_group_name_H-M "P 2 2 2"
_symmetry_group_IT_number 16
_symmetry_cell_setting 'orthorhombic'
loop_
_space_group_symop_operation_xyz
x,y,z
-x,-y,z
x,-y,-z
-x,y,-z
loop_
_atom_site_type_symbol
_atom_site_label
_atom_site_fract_x
_atom_site_fract_y
_atom_site_fract_z
Si Si1 0.661778 0.549741 0.322026
Si Si2 0.533106 0.659072 0.814799
Si Si3 0.255379 0.231557 0.852002
Si Si4 0.185064 0.000000 0.000000
Si Si5 0.859734 0.610640 0.111427
Si Si6 0.000000 0.000000 0.249980
Si Si7 0.036700 0.742323 0.326129
O O1 0.659299 0.500000 0.500000
O O2 0.606333 0.454147 0.209503
O O3 0.574333 0.651575 0.296167
O O4 0.782598 0.574408 0.260077
O O5 0.623981 0.753357 0.782579
O O6 0.500000 0.668471 0.000000
O O7 0.246574 0.105227 0.922803
O O8 0.164003 0.268090 0.721170
O O9 0.218878 0.310198 0.002428
O O10 0.102180 0.963038 0.860024
O O11 0.962594 0.680660 0.187507
O O12 0.884089 0.500000 0.000000
O O13 0.025579 0.880081 0.331326
O O14 0.000000 0.697245 0.500000
#
# Coordination Sequence:
#
# PCOD9310364 Si02
#       7
#     4   4   4   2   4   2   4
#     4  11  23  39  63  90 124 162 213 264 315 389
#     4  11  20  39  62  88 118 165 212 254 307 382
#     4  11  22  40  64  90 128 168 210 269 315 392
#     4   9  18  36  63  96 116 168 223 261 312 374
#     4  12  23  42  63  88 129 169 210 261 329 387
#     4   9  17  38  66  86 126 166 232 266 302 394
#     4  11  25  40  62  96 129 171 214 270 339 391
#
# _framework density 20.101468000000001
#
# number of rings (size 3 to 8) (size 9 to 14) (size 15 to 20)
#    0.000    1.167    5.000    2.750    2.333    1.333 
#    0.000    1.250    0.000    0.000    0.000    0.000 
#    5.000    0.000    0.000    0.000    0.000    0.000 
#
# Total GULP energy -133805.713315 kJ/mol
# GULP energy per Si atom -5575.238055 kJ/mol
# Density = 2.005572 g / cm^3
# Si number density = 20.101468 Si / 1000 Ang^3
#
#
#
# Elastic Constant Matrix: (Units=GPa)
#
#
# Indices 1 2 3 4 5 6 
#
# 1 119.9315 32.5650 49.3517 0.0000 0.0000 0.0000
# 2 32.5650 56.9160 13.2592 0.0000 0.0000 0.0000
# 3 49.3517 13.2592 109.6226 0.0000 0.0000 0.0000
# 4 0.0000 0.0000 0.0000 -11.8330 0.0000 0.0000
# 5 0.0000 0.0000 0.0000 0.0000 18.1721 0.0000
# 6 0.0000 0.0000 0.0000 0.0000 0.0000 26.3614
#
#
#
# Elastic Compliance Matrix: (Units=1/GPa)
#
#
# Indices 1 2 3 4 5 6 
#
# 1 0.011775 -0.005662 -0.004616 0.000000 0.000000 0.000000
# 2 -0.005662 0.020802 0.000033 0.000000 0.000000 0.000000
# 3 -0.004616 0.000033 0.011196 0.000000 0.000000 0.000000
# 4 0.000000 0.000000 0.000000 -0.084510 0.000000 0.000000
# 5 0.000000 0.000000 0.000000 0.000000 0.055029 0.000000
# 6 0.000000 0.000000 0.000000 0.000000 0.000000 0.037934
#
#
# Mechanical properties :
#
#
# Convention : Reuss Voigt Hill
#
# Bulk Modulus (GPa) = 42.95031 52.98021 47.96526
# Shear Modulus (GPa) = 62.12868 19.29306 40.71087
#
# Velocity S-wave (km/s) = 5.56549 3.10140 4.50518
# Velocity P-wave (km/s) = 7.91913 6.26406 7.13972
#
# Compressibility (1/GPa) = 0.02328272
#
# Stress axis : x y z
#
# Youngs Moduli (GPa) = 84.92553 48.07340 89.31393
#
# Poissons Ratio (x) = 0.27218 0.41230
# Poissons Ratio (y) = 0.48083 -0.00294
# Poissons Ratio (z) = 0.39204 -0.00158
#
# Static dielectric constant tensor:
#      x y z
#    x 1.761530 0.000000 0.000000 
#    y 0.000000 1.778140 0.000000 
#    z 0.000000 0.000000 1.739490 
# 
# From -- ./inp_files/4730.got.cif
#   From: 2010.05.17/outbox.cif.g08.bks.cpg/sg16_3_cif.got.tgz:4730.got - 2010.06.03 22:28:35.
