data_PCOD9310405
_publ_section_title
;
Structure prediction by ZEFSAII (Michael W. Deem and Ramdas Pophale) SiO2 
 PCOD9310405
Probable space group: P 2 2 2
;
_chemical_formula_sum "Si O2"
_cell_formula_units_Z 15
_cell_length_a 18.988834
_cell_length_b 5.111254
_cell_length_c 6.389493
_cell_angle_alpha 90.000000
_cell_angle_beta 90.000000
_cell_angle_gamma 90.000000
_cell_volume 620.143449
_symmetry_space_group_name_H-M "P 2 2 2"
_symmetry_group_IT_number 16
_symmetry_cell_setting 'orthorhombic'
loop_
_space_group_symop_operation_xyz
x,y,z
-x,-y,z
x,-y,-z
-x,y,-z
loop_
_atom_site_type_symbol
_atom_site_label
_atom_site_fract_x
_atom_site_fract_y
_atom_site_fract_z
Si Si1 0.109221 0.621547 0.218998
Si Si2 0.000000 0.500000 0.500000
Si Si3 0.500000 0.000000 0.000000
Si Si4 0.743850 0.251420 0.151542
Si Si5 0.407399 0.246355 0.644304
Si Si6 0.000000 0.000000 0.000000
O O1 0.184897 0.720781 0.292738
O O2 0.052510 0.840281 0.153867
O O3 0.062102 0.407336 0.342098
O O4 0.128965 0.500000 0.000000
O O5 0.452464 0.811148 0.146572
O O6 0.674484 0.236707 0.290683
O O7 0.731909 0.500000 0.000000
O O8 0.752361 0.000000 0.000000
O O9 0.420772 0.500000 0.500000
O O10 0.421829 0.000000 0.500000
#
# Coordination Sequence:
#
# PCOD9310405 Si02
#       6
#     4   1   1   4   4   1
#     4  11  24  42  65  96 142 187 244 308 377 440
#     4  12  22  42  60 102 134 192 252 322 364 440
#     4  12  30  56  84 120 168 208 250 334 404 462
#     4  11  24  49  77 103 151 204 245 312 388 453
#     4  12  29  53  82 122 156 202 261 313 386 479
#     4  12  18  44  60  90 138 178 242 302 358 434
#
# _framework density 24.187951000000002
#
# number of rings (size 3 to 8) (size 9 to 14) (size 15 to 20)
#    0.000    0.533    5.333    2.000    1.867    3.733 
#    4.800    0.000    0.000    0.000    0.000    0.000 
#    0.000    0.000    0.000    0.000    0.000    0.000 
#
# Total GULP energy -83595.293823 kJ/mol
# GULP energy per Si atom -5573.019588 kJ/mol
# Density = 2.413290 g / cm^3
# Si number density = 24.187951 Si / 1000 Ang^3
#
#
#
# Elastic Constant Matrix: (Units=GPa)
#
#
# Indices 1 2 3 4 5 6 
#
# 1 264.0095 38.0079 73.3339 0.0000 0.0000 0.0000
# 2 38.0079 148.2736 31.4972 0.0000 0.0000 0.0000
# 3 73.3339 31.4972 90.1277 0.0000 0.0000 0.0000
# 4 0.0000 0.0000 0.0000 17.1021 0.0000 0.0000
# 5 0.0000 0.0000 0.0000 0.0000 27.3844 0.0000
# 6 0.0000 0.0000 0.0000 0.0000 0.0000 36.4621
#
#
#
# Elastic Compliance Matrix: (Units=1/GPa)
#
#
# Indices 1 2 3 4 5 6 
#
# 1 0.004921 -0.000444 -0.003849 0.000000 0.000000 0.000000
# 2 -0.000444 0.007325 -0.002199 0.000000 0.000000 0.000000
# 3 -0.003849 -0.002199 0.014995 0.000000 0.000000 0.000000
# 4 0.000000 0.000000 0.000000 0.058472 0.000000 0.000000
# 5 0.000000 0.000000 0.000000 0.000000 0.036517 0.000000
# 6 0.000000 0.000000 0.000000 0.000000 0.000000 0.027426
#
#
# Mechanical properties :
#
#
# Convention : Reuss Voigt Hill
#
# Bulk Modulus (GPa) = 70.13350 87.56541 78.84946
# Shear Modulus (GPa) = 29.86999 40.16116 35.01557
#
# Velocity S-wave (km/s) = 3.51794 4.07919 3.80892
# Velocity P-wave (km/s) = 6.74977 7.64638 7.21202
#
# Compressibility (1/GPa) = 0.01425852
#
# Stress axis : x y z
#
# Youngs Moduli (GPa) = 203.22359 136.51620 66.68727
#
# Poissons Ratio (x) = 0.06058 0.25666
# Poissons Ratio (y) = 0.09019 0.14663
# Poissons Ratio (z) = 0.78215 0.30018
#
# Static dielectric constant tensor:
#      x y z
#    x 1.973940 0.000000 0.000000 
#    y 0.000000 1.961480 0.000000 
#    z 0.000000 0.000000 2.038020 
# 
# From -- ./inp_files/2564.got.cif
#   From: 2010.05.17/outbox.cif.g08.bks.cpg/sg16_2_cif.got.tgz:2564.got - 2010.06.03 22:28:35.
