data_PCOD9310794
_publ_section_title
;
Structure prediction by ZEFSAII (Michael W. Deem and Ramdas Pophale) SiO2 
 PCOD9310794
Probable space group: P 2 2 21
;
_chemical_formula_sum "Si O2"
_cell_formula_units_Z 16
_cell_length_a 5.380408
_cell_length_b 5.730406
_cell_length_c 20.409923
_cell_angle_alpha 90.000000
_cell_angle_beta 90.000000
_cell_angle_gamma 90.000000
_cell_volume 629.277160
_symmetry_space_group_name_H-M "P 2 2 21"
_symmetry_group_IT_number 17
_symmetry_cell_setting 'orthorhombic'
loop_
_space_group_symop_operation_xyz
x,y,z
-x,-y,1/2+z
x,-y,-z
-x,y,1/2-z
loop_
_atom_site_type_symbol
_atom_site_label
_atom_site_fract_x
_atom_site_fract_y
_atom_site_fract_z
Si Si1 0.404475 0.110559 0.062190
Si Si2 0.235791 0.272520 0.624137
Si Si3 0.390551 0.641591 0.813708
Si Si4 0.000000 0.710544 0.250000
Si Si5 0.768281 0.500000 0.000000
O O1 0.272936 0.219263 0.125557
O O2 0.587187 0.303780 0.030672
O O3 0.574229 0.911460 0.094344
O O4 0.261738 0.000000 0.000000
O O5 0.386859 0.489079 0.655151
O O6 0.090532 0.381202 0.561385
O O7 0.102836 0.157611 0.686594
O O8 0.500000 0.776415 0.750000
O O9 0.200041 0.456949 0.784305
#
# Coordination Sequence:
#
# PCOD9310794 Si02
#       5
#     4   4   4   2   2
#     4   9  17  34  61  83 109 151 190 230 283 334
#     4   9  18  35  56  81 112 149 191 235 281 334
#     4   9  19  35  55  81 114 150 189 235 284 335
#     4  10  20  36  58  84 118 152 186 230 282 338
#     4   8  16  34  58  80 110 150 188 232 284 330
#
# _framework density 25.425996000000001
#
# number of rings (size 3 to 8) (size 9 to 14) (size 15 to 20)
#    0.000    3.000    0.000    0.000    0.000    3.000 
#    0.000   27.500    0.000   27.000    0.000    0.000 
#    0.000    0.000    0.000    0.000    0.000    0.000 
#
# Total GULP energy -89247.649962 kJ/mol
# GULP energy per Si atom -5577.978123 kJ/mol
# Density = 2.536813 g / cm^3
# Si number density = 25.425996 Si / 1000 Ang^3
#
#
#
# Elastic Constant Matrix: (Units=GPa)
#
#
# Indices 1 2 3 4 5 6 
#
# 1 24.4382 -1.2784 41.6426 0.0000 0.0000 0.0000
# 2 -1.2784 51.9335 67.4339 0.0000 0.0000 0.0000
# 3 41.6426 67.4339 235.4064 0.0000 0.0000 0.0000
# 4 0.0000 0.0000 0.0000 46.6020 0.0000 0.0000
# 5 0.0000 0.0000 0.0000 0.0000 26.2917 0.0000
# 6 0.0000 0.0000 0.0000 0.0000 0.0000 107.4727
#
#
#
# Elastic Compliance Matrix: (Units=1/GPa)
#
#
# Indices 1 2 3 4 5 6 
#
# 1 0.085297 0.034539 -0.024983 0.000000 0.000000 0.000000
# 2 0.034539 0.044645 -0.018899 0.000000 0.000000 0.000000
# 3 -0.024983 -0.018899 0.014081 0.000000 0.000000 0.000000
# 4 0.000000 0.000000 0.000000 0.021458 0.000000 0.000000
# 5 0.000000 0.000000 0.000000 0.000000 0.038035 0.000000
# 6 0.000000 0.000000 0.000000 0.000000 0.000000 0.009305
#
#
# Mechanical properties :
#
#
# Convention : Reuss Voigt Hill
#
# Bulk Modulus (GPa) = 7.97847 58.59716 33.28782
# Shear Modulus (GPa) = 18.29596 49.67193 33.98395
#
# Velocity S-wave (km/s) = 2.68540 4.42474 3.65990
# Velocity P-wave (km/s) = 3.57210 7.01431 5.56599
#
# Compressibility (1/GPa) = 0.12533728
#
# Stress axis : x y z
#
# Youngs Moduli (GPa) = 11.72379 22.39904 71.01791
#
# Poissons Ratio (x) = -0.77363 1.77421
# Poissons Ratio (y) = -0.40492 1.34214
# Poissons Ratio (z) = 0.29289 0.42331
#
# Static dielectric constant tensor:
#      x y z
#    x 2.068620 0.000000 0.000000 
#    y 0.000000 2.020970 0.000000 
#    z 0.000000 0.000000 2.134080 
# 
# From -- ./inp_files/9810.got.cif
#   From: 2010.05.17/outbox.cif.g08.bks.cpg/sg17_5_cif.got.tgz:9810.got - 2010.06.03 22:34:06.
