data_PCOD9310628
_publ_section_title
;
Structure prediction by ZEFSAII (Michael W. Deem and Ramdas Pophale) SiO2 
 PCOD9310628
Probable space group: P 2 2 21
;
_chemical_formula_sum "Si O2"
_cell_formula_units_Z 26
_cell_length_a 14.000483
_cell_length_b 13.464013
_cell_length_c 7.690250
_cell_angle_alpha 90.000000
_cell_angle_beta 90.000000
_cell_angle_gamma 90.000000
_cell_volume 1449.632774
_symmetry_space_group_name_H-M "P 2 2 21"
_symmetry_group_IT_number 17
_symmetry_cell_setting 'orthorhombic'
loop_
_space_group_symop_operation_xyz
x,y,z
-x,-y,1/2+z
x,-y,-z
-x,y,1/2-z
loop_
_atom_site_type_symbol
_atom_site_label
_atom_site_fract_x
_atom_site_fract_y
_atom_site_fract_z
Si Si1 0.431273 0.892726 0.417437
Si Si2 0.392698 0.550110 0.185819
Si Si3 0.293079 0.730741 0.314588
Si Si4 0.108135 0.599754 0.715851
Si Si5 0.689265 0.358006 0.200286
Si Si6 0.500000 0.762985 0.750000
Si Si7 0.895317 0.373047 0.801387
O O1 0.500000 0.900142 0.250000
O O2 0.336060 0.839136 0.343138
O O3 0.477331 0.827519 0.576133
O O4 0.412172 0.000000 0.500000
O O5 0.500000 0.546474 0.250000
O O6 0.358414 0.662563 0.192163
O O7 0.329769 0.475816 0.301779
O O8 0.385096 0.500000 0.000000
O O9 0.305467 0.682465 0.505394
O O10 0.185931 0.706321 0.255796
O O11 0.204516 0.654319 0.782247
O O12 0.112921 0.607840 0.507215
O O13 0.114595 0.484477 0.777288
O O14 0.000000 0.635662 0.750000
O O15 0.594991 0.304658 0.278041
O O16 0.000000 0.337350 0.750000
#
# Coordination Sequence:
#
# PCOD9310628 Si02
#       7
#     4   4   4   4   4   2   4
#     4  11  23  41  63  84 113 144 192 249 306 356
#     4  12  23  31  46  74 113 151 187 223 269 338
#     4  10  21  36  55  77 107 149 189 232 286 340
#     4   9  17  30  47  70 108 154 189 225 258 314
#     4  10  19  34  52  74 112 152 192 223 270 336
#     4  10  22  38  58  86 112 154 188 238 294 358
#     4   9  17  31  49  72 106 145 188 225 270 324
#
# _framework density 17.935576999999999
#
# number of rings (size 3 to 8) (size 9 to 14) (size 15 to 20)
#    0.000    1.846    3.077    1.846    4.308    1.231 
#    0.000    0.000    0.000    0.000    0.000   10.769 
#    0.000    0.000    0.000    0.000    0.000    0.000 
#
# Total GULP energy -144880.008763 kJ/mol
# GULP energy per Si atom -5572.308029 kJ/mol
# Density = 1.789476 g / cm^3
# Si number density = 17.935577 Si / 1000 Ang^3
#
#
#
# Elastic Constant Matrix: (Units=GPa)
#
#
# Indices 1 2 3 4 5 6 
#
# 1 158.4117 52.6906 23.5062 0.0000 0.0000 0.0000
# 2 52.6906 86.6889 29.1515 0.0000 0.0000 0.0000
# 3 23.5062 29.1515 50.8533 0.0000 0.0000 0.0000
# 4 0.0000 0.0000 0.0000 26.9515 0.0000 0.0000
# 5 0.0000 0.0000 0.0000 0.0000 21.8512 0.0000
# 6 0.0000 0.0000 0.0000 0.0000 0.0000 12.7720
#
#
#
# Elastic Compliance Matrix: (Units=1/GPa)
#
#
# Indices 1 2 3 4 5 6 
#
# 1 0.007964 -0.004463 -0.001123 0.000000 0.000000 0.000000
# 2 -0.004463 0.016791 -0.007563 0.000000 0.000000 0.000000
# 3 -0.001123 -0.007563 0.024519 0.000000 0.000000 0.000000
# 4 0.000000 0.000000 0.000000 0.037104 0.000000 0.000000
# 5 0.000000 0.000000 0.000000 0.000000 0.045764 0.000000
# 6 0.000000 0.000000 0.000000 0.000000 0.000000 0.078297
#
#
# Mechanical properties :
#
#
# Convention : Reuss Voigt Hill
#
# Bulk Modulus (GPa) = 43.52174 56.29452 49.90813
# Shear Modulus (GPa) = 20.45881 25.02196 22.74039
#
# Velocity S-wave (km/s) = 3.38106 3.73916 3.56461
# Velocity P-wave (km/s) = 6.28971 7.07792 6.69542
#
# Compressibility (1/GPa) = 0.02297702
#
# Stress axis : x y z
#
# Youngs Moduli (GPa) = 125.56970 59.55490 40.78526
#
# Poissons Ratio (x) = 0.26579 0.04579
# Poissons Ratio (y) = 0.56040 0.30844
# Poissons Ratio (z) = 0.14099 0.45039
#
# Static dielectric constant tensor:
#      x y z
#    x 1.675390 0.000000 0.000000 
#    y 0.000000 1.601360 0.000000 
#    z 0.000000 0.000000 1.669800 
# 
# From -- ./inp_files/5211.got.cif
#   From: 2010.05.17/outbox.cif.g08.bks.cpg/sg17_3_cif.got.tgz:5211.got - 2010.06.03 22:34:06.
