data_PCOD9310508
_publ_section_title
;
Structure prediction by ZEFSAII (Michael W. Deem and Ramdas Pophale) SiO2 
 PCOD9310508
Probable space group: P 2 2 21
;
_chemical_formula_sum "Si O2"
_cell_formula_units_Z 32
_cell_length_a 15.981086
_cell_length_b 14.698834
_cell_length_c 8.621068
_cell_angle_alpha 90.000000
_cell_angle_beta 90.000000
_cell_angle_gamma 90.000000
_cell_volume 2025.117584
_symmetry_space_group_name_H-M "P 2 2 21"
_symmetry_group_IT_number 17
_symmetry_cell_setting 'orthorhombic'
loop_
_space_group_symop_operation_xyz
x,y,z
-x,-y,1/2+z
x,-y,-z
-x,y,1/2-z
loop_
_atom_site_type_symbol
_atom_site_label
_atom_site_fract_x
_atom_site_fract_y
_atom_site_fract_z
Si Si1 0.167127 0.289236 0.438096
Si Si2 0.674991 0.602850 0.434939
Si Si3 0.902741 0.902480 0.563175
Si Si4 1.000000 0.398380 0.436741
Si Si5 0.674991 0.602850 0.065061
Si Si6 0.097259 0.902480 0.563175
Si Si7 0.500000 0.603137 0.935305
Si Si8 0.167127 0.710764 0.938096
O O1 0.247690 0.335951 0.511549
O O2 0.151432 0.184576 0.484551
O O3 0.173912 0.293015 0.250000
O O4 0.083733 0.344949 0.483749
O O5 0.686407 0.500000 0.500000
O O6 0.669925 0.597358 0.250000
O O7 0.587410 0.641442 0.501648
O O8 0.752310 0.664049 0.488451
O O9 0.902512 0.905168 0.750000
O O10 0.848568 0.815424 0.515449
O O11 0.000000 0.888795 0.514433
O O12 0.874743 0.000000 0.500000
O O13 0.000000 0.500000 0.500000
O O14 0.916267 0.344949 0.483749
O O15 0.000000 0.401021 0.250000
O O16 0.686407 0.500000 0.000000
O O17 0.587410 0.641442 0.998352
O O18 0.125257 0.000000 0.500000
O O19 0.500000 0.602359 0.750000
O O20 0.500000 0.500000 0.000000
#
# Coordination Sequence:
#
# PCOD9310508 Si02
#       8
#     4   4   4   4   4   4   4   4
#     4  10  19  33  49  68  96 131 166 202 244 289
#     4  11  21  33  49  72 100 130 164 203 243 288
#     4   9  17  31  50  70  94 125 161 205 251 290
#     4  10  20  32  45  62  92 130 167 200 235 278
#     4  11  21  33  49  72 100 130 164 203 243 288
#     4   9  17  31  50  70  94 125 161 205 251 290
#     4  10  18  32  52  72  95 126 161 200 244 288
#     4  10  19  33  49  68  96 131 166 202 244 289
#
# _framework density 15.801551999999999
#
# number of rings (size 3 to 8) (size 9 to 14) (size 15 to 20)
#    0.000    2.000    1.250    5.625    0.000    4.000 
#    0.000    0.000    0.000    0.000    0.000    0.875 
#    0.000    0.000    0.000    0.000    0.000    0.000 
#
# Total GULP energy -178527.061098 kJ/mol
# GULP energy per Si atom -5578.970659 kJ/mol
# Density = 1.576559 g / cm^3
# Si number density = 15.801552 Si / 1000 Ang^3
#
#
#
# Elastic Constant Matrix: (Units=GPa)
#
#
# Indices 1 2 3 4 5 6 
#
# 1 150.7062 74.8414 52.8059 0.0000 0.0000 0.0000
# 2 74.8414 122.5032 39.7386 0.0000 0.0000 0.0000
# 3 52.8059 39.7386 76.3281 0.0000 0.0000 0.0000
# 4 0.0000 0.0000 0.0000 24.7683 0.0000 0.0000
# 5 0.0000 0.0000 0.0000 0.0000 25.8804 0.0000
# 6 0.0000 0.0000 0.0000 0.0000 0.0000 6.0183
#
#
#
# Elastic Compliance Matrix: (Units=1/GPa)
#
#
# Indices 1 2 3 4 5 6 
#
# 1 0.010851 -0.005047 -0.004880 0.000000 0.000000 0.000000
# 2 -0.005047 0.012169 -0.002844 0.000000 0.000000 0.000000
# 3 -0.004880 -0.002844 0.017958 0.000000 0.000000 0.000000
# 4 0.000000 0.000000 0.000000 0.040374 0.000000 0.000000
# 5 0.000000 0.000000 0.000000 0.000000 0.038639 0.000000
# 6 0.000000 0.000000 0.000000 0.000000 0.000000 0.166159
#
#
# Mechanical properties :
#
#
# Convention : Reuss Voigt Hill
#
# Bulk Modulus (GPa) = 64.77855 76.03434 70.40645
# Shear Modulus (GPa) = 15.78097 23.47684 19.62891
#
# Velocity S-wave (km/s) = 3.16365 3.85870 3.52833
# Velocity P-wave (km/s) = 7.37760 8.25079 7.82638
#
# Compressibility (1/GPa) = 0.01543721
#
# Stress axis : x y z
#
# Youngs Moduli (GPa) = 92.15373 82.17791 55.68503
#
# Poissons Ratio (x) = 0.41471 0.27174
# Poissons Ratio (y) = 0.46505 0.15837
# Poissons Ratio (z) = 0.44971 0.23372
#
# Static dielectric constant tensor:
#      x y z
#    x 1.536390 0.000000 0.000000 
#    y 0.000000 1.463600 0.000000 
#    z 0.000000 0.000000 1.534410 
# 
# From -- ./inp_files/5313.got.cif
#   From: 2010.05.17/outbox.cif.g08.bks.cpg/sg17_3_cif.got.tgz:5313.got - 2010.06.03 22:34:06.
