data_PCOD9310732
_publ_section_title
;
Structure prediction by ZEFSAII (Michael W. Deem and Ramdas Pophale) SiO2 
 PCOD9310732
Probable space group: P 2 2 21
;
_chemical_formula_sum "Si O2"
_cell_formula_units_Z 18
_cell_length_a 11.928554
_cell_length_b 9.335443
_cell_length_c 8.308395
_cell_angle_alpha 90.000000
_cell_angle_beta 90.000000
_cell_angle_gamma 90.000000
_cell_volume 925.209042
_symmetry_space_group_name_H-M "P 2 2 21"
_symmetry_group_IT_number 17
_symmetry_cell_setting 'orthorhombic'
loop_
_space_group_symop_operation_xyz
x,y,z
-x,-y,1/2+z
x,-y,-z
-x,y,1/2-z
loop_
_atom_site_type_symbol
_atom_site_label
_atom_site_fract_x
_atom_site_fract_y
_atom_site_fract_z
Si Si1 0.702250 0.756657 0.213787
Si Si2 0.686226 0.658657 0.844832
Si Si3 0.126178 0.461784 0.812451
Si Si4 0.625826 0.050731 0.316105
Si Si5 0.500000 0.435806 0.750000
O O1 0.815238 0.691410 0.285083
O O2 0.693347 0.925808 0.227057
O O3 0.597284 0.676664 0.305716
O O4 0.693962 0.715257 0.026181
O O5 0.794685 0.569715 0.789174
O O6 0.580086 0.551326 0.838315
O O7 0.670218 0.791415 0.723582
O O8 0.000000 0.465944 0.750000
O O9 0.131117 0.500000 0.000000
O O10 0.500000 0.047382 0.250000
O O11 0.626417 0.000000 0.500000
#
# Coordination Sequence:
#
# PCOD9310732 Si02
#       5
#     4   4   4   4   2
#     4  11  23  39  61  88 124 161 203 250 304 361
#     4  11  23  39  61  88 124 161 203 250 304 361
#     4  11  23  42  66  91 121 158 207 254 304 356
#     4  12  24  38  59  88 127 166 202 245 303 365
#     4  10  20  32  58  86 124 152 202 238 304 352
#
# _framework density 19.455062000000002
#
# number of rings (size 3 to 8) (size 9 to 14) (size 15 to 20)
#    0.000    0.889    2.222    7.333    0.000    8.889 
#    0.000    1.111    0.000    0.000    0.000    0.000 
#    0.000    0.000    0.000    0.000    0.000    0.000 
#
# Total GULP energy -100481.338282 kJ/mol
# GULP energy per Si atom -5582.296571 kJ/mol
# Density = 1.941078 g / cm^3
# Si number density = 19.455062 Si / 1000 Ang^3
#
#
#
# Elastic Constant Matrix: (Units=GPa)
#
#
# Indices 1 2 3 4 5 6 
#
# 1 134.8656 37.4813 34.6103 0.0000 0.0000 0.0000
# 2 37.4813 111.2819 -2.9176 0.0000 0.0000 0.0000
# 3 34.6103 -2.9176 45.1091 0.0000 0.0000 0.0000
# 4 0.0000 0.0000 0.0000 37.1866 0.0000 0.0000
# 5 0.0000 0.0000 0.0000 0.0000 17.3708 0.0000
# 6 0.0000 0.0000 0.0000 0.0000 0.0000 26.2392
#
#
#
# Elastic Compliance Matrix: (Units=1/GPa)
#
#
# Indices 1 2 3 4 5 6 
#
# 1 0.010626 -0.003799 -0.008399 0.000000 0.000000 0.000000
# 2 -0.003799 0.010360 0.003585 0.000000 0.000000 0.000000
# 3 -0.008399 0.003585 0.028844 0.000000 0.000000 0.000000
# 4 0.000000 0.000000 0.000000 0.026891 0.000000 0.000000
# 5 0.000000 0.000000 0.000000 0.000000 0.057568 0.000000
# 6 0.000000 0.000000 0.000000 0.000000 0.000000 0.038111
#
#
# Mechanical properties :
#
#
# Convention : Reuss Voigt Hill
#
# Bulk Modulus (GPa) = 30.67063 47.73382 39.20222
# Shear Modulus (GPa) = 24.93844 30.96485 27.95164
#
# Velocity S-wave (km/s) = 3.58418 3.99383 3.79453
# Velocity P-wave (km/s) = 5.73825 6.77172 6.27629
#
# Compressibility (1/GPa) = 0.03260449
#
# Stress axis : x y z
#
# Youngs Moduli (GPa) = 94.10934 96.52709 34.66902
#
# Poissons Ratio (x) = 0.36672 0.29117
# Poissons Ratio (y) = 0.35754 -0.12429
# Poissons Ratio (z) = 0.79038 -0.34605
#
# Static dielectric constant tensor:
#      x y z
#    x 1.616200 0.000000 0.000000 
#    y 0.000000 1.708190 0.000000 
#    z 0.000000 0.000000 1.727740 
# 
# From -- ./inp_files/3919.got.cif
#   From: 2010.05.17/outbox.cif.g08.bks.cpg/sg17_2_cif.got.tgz:3919.got - 2010.06.03 22:34:06.
