data_PCOD9310536
_publ_section_title
;
Structure prediction by ZEFSAII (Michael W. Deem and Ramdas Pophale) SiO2 
 PCOD9310536
Probable space group: P 2 2 21
;
_chemical_formula_sum "Si O2"
_cell_formula_units_Z 26
_cell_length_a 5.370988
_cell_length_b 16.390504
_cell_length_c 13.580697
_cell_angle_alpha 90.000000
_cell_angle_beta 90.000000
_cell_angle_gamma 90.000000
_cell_volume 1195.552219
_symmetry_space_group_name_H-M "P 2 2 21"
_symmetry_group_IT_number 17
_symmetry_cell_setting 'orthorhombic'
loop_
_space_group_symop_operation_xyz
x,y,z
-x,-y,1/2+z
x,-y,-z
-x,y,1/2-z
loop_
_atom_site_type_symbol
_atom_site_label
_atom_site_fract_x
_atom_site_fract_y
_atom_site_fract_z
Si Si1 0.846815 0.780763 0.110963
Si Si2 0.983753 0.438840 0.371194
Si Si3 0.435432 0.824527 0.571572
Si Si4 0.877708 0.622074 0.359679
Si Si5 0.500000 0.289719 0.750000
Si Si6 0.058688 0.094718 0.025220
Si Si7 0.485147 0.356719 0.364376
O O1 0.727513 0.767493 0.217502
O O2 0.985855 0.696556 0.086962
O O3 0.020790 0.854733 0.077044
O O4 0.609034 0.794918 0.040689
O O5 0.920920 0.531874 0.398026
O O6 0.752675 0.383032 0.405706
O O7 0.000000 0.434481 0.250000
O O8 0.249537 0.405342 0.407008
O O9 0.688641 0.875120 0.576367
O O10 0.443958 0.740145 0.629907
O O11 0.185451 0.877959 0.587954
O O12 0.595827 0.650701 0.336712
O O13 0.000000 0.618783 0.250000
O O14 0.061149 0.000000 0.000000
O O15 0.500000 0.380192 0.250000
#
# Coordination Sequence:
#
# PCOD9310536 Si02
#       7
#     4   4   4   4   2   4   4
#     4   9  21  34  60  83 119 149 193 233 300 347
#     4   9  19  31  54  82 110 152 201 235 276 327
#     4  10  21  38  62  83 116 147 195 235 294 348
#     4   9  18  31  53  82 116 152 190 238 278 336
#     4  10  18  34  60  86 116 158 192 238 296 342
#     4  10  21  39  64  85 109 149 194 233 293 368
#     4  10  20  36  58  83 114 156 199 241 278 336
#
# _framework density 21.747274000000001
#
# number of rings (size 3 to 8) (size 9 to 14) (size 15 to 20)
#    0.923    1.538    0.000    2.308    7.538    0.000 
#    0.000    0.769    1.692    1.846    0.000    0.000 
#    0.000    0.000    0.000    0.000    0.000    0.000 
#
# Total GULP energy -144911.739886 kJ/mol
# GULP energy per Si atom -5573.528457 kJ/mol
# Density = 2.169778 g / cm^3
# Si number density = 21.747274 Si / 1000 Ang^3
#
#
#
# Elastic Constant Matrix: (Units=GPa)
#
#
# Indices 1 2 3 4 5 6 
#
# 1 173.5513 64.9561 4.6649 0.0000 0.0000 0.0000
# 2 64.9561 101.9141 8.0879 0.0000 0.0000 0.0000
# 3 4.6649 8.0879 22.9254 0.0000 0.0000 0.0000
# 4 0.0000 0.0000 0.0000 28.9422 0.0000 0.0000
# 5 0.0000 0.0000 0.0000 0.0000 13.2576 0.0000
# 6 0.0000 0.0000 0.0000 0.0000 0.0000 29.7933
#
#
#
# Elastic Compliance Matrix: (Units=1/GPa)
#
#
# Indices 1 2 3 4 5 6 
#
# 1 0.007568 -0.004837 0.000166 0.000000 0.000000 0.000000
# 2 -0.004837 0.013186 -0.003668 0.000000 0.000000 0.000000
# 3 0.000166 -0.003668 0.044880 0.000000 0.000000 0.000000
# 4 0.000000 0.000000 0.000000 0.034552 0.000000 0.000000
# 5 0.000000 0.000000 0.000000 0.000000 0.075428 0.000000
# 6 0.000000 0.000000 0.000000 0.000000 0.000000 0.033565
#
#
# Mechanical properties :
#
#
# Convention : Reuss Voigt Hill
#
# Bulk Modulus (GPa) = 20.42579 50.42318 35.42449
# Shear Modulus (GPa) = 20.64639 29.11076 24.87858
#
# Velocity S-wave (km/s) = 3.08454 3.66265 3.38596
# Velocity P-wave (km/s) = 4.70091 6.41272 5.62235
#
# Compressibility (1/GPa) = 0.04895771
#
# Stress axis : x y z
#
# Youngs Moduli (GPa) = 132.14012 75.83858 22.28169
#
# Poissons Ratio (x) = 0.36680 -0.00371
# Poissons Ratio (y) = 0.63911 0.08172
# Poissons Ratio (z) = -0.02199 0.27816
#
# Static dielectric constant tensor:
#      x y z
#    x 1.852630 0.000000 0.000000 
#    y 0.000000 1.731820 0.000000 
#    z 0.000000 0.000000 1.923460 
# 
# From -- ./inp_files/9092.got.cif
#   From: 2010.05.17/outbox.cif.g08.bks.cpg/sg17_5_cif.got.tgz:9092.got - 2010.06.03 22:34:06.
