data_PCOD9310328
_publ_section_title
;
Structure prediction by ZEFSAII (Michael W. Deem and Ramdas Pophale) SiO2 
 PCOD9310328
Probable space group: P 2 2 2
;
_chemical_formula_sum "Si O2"
_cell_formula_units_Z 32
_cell_length_a 11.471515
_cell_length_b 15.128475
_cell_length_c 9.149970
_cell_angle_alpha 90.000000
_cell_angle_beta 90.000000
_cell_angle_gamma 90.000000
_cell_volume 1587.945524
_symmetry_space_group_name_H-M "P 2 2 2"
_symmetry_group_IT_number 16
_symmetry_cell_setting 'orthorhombic'
loop_
_space_group_symop_operation_xyz
x,y,z
-x,-y,z
x,-y,-z
-x,y,-z
loop_
_atom_site_type_symbol
_atom_site_label
_atom_site_fract_x
_atom_site_fract_y
_atom_site_fract_z
Si Si1 0.830325 0.724594 0.801007
Si Si2 0.382099 0.160502 0.184838
Si Si3 0.864093 0.595443 0.042512
Si Si4 0.867246 0.398082 0.456083
Si Si5 0.222980 0.022521 0.328199
Si Si6 0.965718 0.842141 0.327985
Si Si7 0.767945 0.694403 0.298085
Si Si8 0.344399 0.863053 0.156147
O O1 0.855796 0.636274 0.708313
O O2 0.709483 0.773811 0.777493
O O3 0.927487 0.798983 0.762405
O O4 0.826419 0.685813 0.963111
O O5 0.318479 0.098061 0.300738
O O6 0.346110 0.260558 0.229404
O O7 0.518128 0.137133 0.186085
O O8 0.334513 0.138917 0.021096
O O9 0.827252 0.615177 0.206997
O O10 0.813456 0.500000 0.000000
O O11 0.000000 0.591390 0.000000
O O12 0.856956 0.500000 0.500000
O O13 0.766887 0.343852 0.539650
O O14 0.000000 0.371491 0.500000
O O15 0.098240 0.066145 0.285693
O O16 0.216729 0.000000 0.500000
O O17 0.270872 0.941999 0.230064
O O18 0.864059 0.771054 0.305512
O O19 0.000000 0.847449 0.500000
#
# Coordination Sequence:
#
# PCOD9310328 Si02
#       8
#     4   4   4   4   4   4   4   4
#     4  12  21  37  62  92 126 165 207 242 304 371
#     4  10  24  44  65  85 119 163 208 260 308 358
#     4  11  21  34  57  93 129 157 200 259 304 360
#     4  11  21  36  61  94 130 166 202 245 307 375
#     4  11  25  41  65  93 120 154 204 258 306 364
#     4  11  21  38  60  88 130 165 188 240 314 373
#     4  11  19  38  60  88 124 162 203 249 304 362
#     4  11  24  43  65  88 119 164 210 254 309 364
#
# _framework density 20.151824999999999
#
# number of rings (size 3 to 8) (size 9 to 14) (size 15 to 20)
#    0.000    1.000    5.000    2.250    1.750    5.750 
#    0.000    0.000    0.000    7.500    0.000    0.000 
#    0.000    0.000    0.000    0.000    0.000    0.000 
#
# Total GULP energy -178347.155771 kJ/mol
# GULP energy per Si atom -5573.348618 kJ/mol
# Density = 2.010596 g / cm^3
# Si number density = 20.151825 Si / 1000 Ang^3
#
#
#
# Elastic Constant Matrix: (Units=GPa)
#
#
# Indices 1 2 3 4 5 6 
#
# 1 52.5477 55.0222 18.7349 0.0000 0.0000 0.0000
# 2 55.0222 98.7938 21.0743 0.0000 0.0000 0.0000
# 3 18.7349 21.0743 52.2166 0.0000 0.0000 0.0000
# 4 0.0000 0.0000 0.0000 24.2763 0.0000 0.0000
# 5 0.0000 0.0000 0.0000 0.0000 15.1155 0.0000
# 6 0.0000 0.0000 0.0000 0.0000 0.0000 7.5036
#
#
#
# Elastic Compliance Matrix: (Units=1/GPa)
#
#
# Indices 1 2 3 4 5 6 
#
# 1 0.047898 -0.025178 -0.007024 0.000000 0.000000 0.000000
# 2 -0.025178 0.024311 -0.000778 0.000000 0.000000 0.000000
# 3 -0.007024 -0.000778 0.021985 0.000000 0.000000 0.000000
# 4 0.000000 0.000000 0.000000 0.041192 0.000000 0.000000
# 5 0.000000 0.000000 0.000000 0.000000 0.066157 0.000000
# 6 0.000000 0.000000 0.000000 0.000000 0.000000 0.133269
#
#
# Mechanical properties :
#
#
# Convention : Reuss Voigt Hill
#
# Bulk Modulus (GPa) = 35.41786 43.69119 39.55453
# Shear Modulus (GPa) = 12.18964 16.62753 14.40858
#
# Velocity S-wave (km/s) = 2.46212 2.87559 2.67685
# Velocity P-wave (km/s) = 5.06916 5.72306 5.40601
#
# Compressibility (1/GPa) = 0.02823434
#
# Stress axis : x y z
#
# Youngs Moduli (GPa) = 20.87753 41.13396 45.48544
#
# Poissons Ratio (x) = 1.03568 0.31948
# Poissons Ratio (y) = 0.52566 0.03538
# Poissons Ratio (z) = 0.14664 0.03200
#
# Static dielectric constant tensor:
#      x y z
#    x 1.709310 0.000000 0.000000 
#    y 0.000000 1.768460 0.000000 
#    z 0.000000 0.000000 1.769890 
# 
# From -- ./inp_files/4864.got.cif
#   From: 2010.05.17/outbox.cif.g08.bks.cpg/sg16_3_cif.got.tgz:4864.got - 2010.06.03 22:28:35.
