data_PCOD9310739
_publ_section_title
;
Structure prediction by ZEFSAII (Michael W. Deem and Ramdas Pophale) SiO2 
 PCOD9310739
Probable space group: P 2 2 21
;
_chemical_formula_sum "Si O2"
_cell_formula_units_Z 20
_cell_length_a 8.262274
_cell_length_b 11.411975
_cell_length_c 9.646559
_cell_angle_alpha 90.000000
_cell_angle_beta 90.000000
_cell_angle_gamma 90.000000
_cell_volume 909.563093
_symmetry_space_group_name_H-M "P 2 2 21"
_symmetry_group_IT_number 17
_symmetry_cell_setting 'orthorhombic'
loop_
_space_group_symop_operation_xyz
x,y,z
-x,-y,1/2+z
x,-y,-z
-x,y,1/2-z
loop_
_atom_site_type_symbol
_atom_site_label
_atom_site_fract_x
_atom_site_fract_y
_atom_site_fract_z
Si Si1 0.650385 0.453038 0.343497
Si Si2 0.500000 0.839305 0.250000
Si Si3 0.725867 0.961879 0.851949
Si Si4 0.857207 0.602518 0.900224
Si Si5 0.530383 0.253675 0.043465
Si Si6 0.000000 0.805079 0.750000
O O1 0.659365 0.500000 0.500000
O O2 0.500000 0.500719 0.250000
O O3 0.806625 0.456582 0.246549
O O4 0.606675 0.316198 0.367237
O O5 0.526039 0.764190 0.386957
O O6 0.349162 0.924754 0.280639
O O7 0.585002 0.871612 0.898213
O O8 0.846955 0.890104 0.755801
O O9 0.803902 0.000000 0.000000
O O10 0.687123 0.659970 0.953612
O O11 0.972415 0.714006 0.876438
O O12 0.913839 0.500000 0.000000
#
# Coordination Sequence:
#
# PCOD9310739 Si02
#       6
#     4   2   4   4   4   2
#     4  10  20  33  57  91 124 159 201 252 313 382
#     4  10  20  34  64  90 122 160 206 270 310 376
#     4   9  20  39  57  89 122 163 210 262 312 367
#     4  10  22  39  62  88 128 168 203 260 317 380
#     4   9  19  33  59  88 126 157 197 258 324 363
#     4  10  22  42  66  78 126 174 210 256 322 364
#
# _framework density 21.988579999999999
#
# number of rings (size 3 to 8) (size 9 to 14) (size 15 to 20)
#    0.000    2.400    0.000    2.400   11.200    0.800 
#    3.600    0.000    0.000    2.400    0.000    0.000 
#    0.000    0.000    0.000    0.000    0.000    0.000 
#
# Total GULP energy -111682.774978 kJ/mol
# GULP energy per Si atom -5584.138749 kJ/mol
# Density = 2.193853 g / cm^3
# Si number density = 21.988580 Si / 1000 Ang^3
#
#
#
# Elastic Constant Matrix: (Units=GPa)
#
#
# Indices 1 2 3 4 5 6 
#
# 1 59.7700 14.5253 39.4697 0.0000 0.0000 0.0000
# 2 14.5253 80.7877 44.5242 0.0000 0.0000 0.0000
# 3 39.4697 44.5242 152.8776 0.0000 0.0000 0.0000
# 4 0.0000 0.0000 0.0000 49.3893 0.0000 0.0000
# 5 0.0000 0.0000 0.0000 0.0000 22.6041 0.0000
# 6 0.0000 0.0000 0.0000 0.0000 0.0000 26.3603
#
#
#
# Elastic Compliance Matrix: (Units=1/GPa)
#
#
# Indices 1 2 3 4 5 6 
#
# 1 0.020225 -0.000904 -0.004958 0.000000 0.000000 0.000000
# 2 -0.000904 0.014785 -0.004073 0.000000 0.000000 0.000000
# 3 -0.004958 -0.004073 0.009007 0.000000 0.000000 0.000000
# 4 0.000000 0.000000 0.000000 0.020247 0.000000 0.000000
# 5 0.000000 0.000000 0.000000 0.000000 0.044240 0.000000
# 6 0.000000 0.000000 0.000000 0.000000 0.000000 0.037936
#
#
# Mechanical properties :
#
#
# Convention : Reuss Voigt Hill
#
# Bulk Modulus (GPa) = 41.41157 54.49707 47.95432
# Shear Modulus (GPa) = 28.67646 32.66517 30.67081
#
# Velocity S-wave (km/s) = 3.61522 3.85847 3.73882
# Velocity P-wave (km/s) = 6.02499 6.68494 6.36353
#
# Compressibility (1/GPa) = 0.02414784
#
# Stress axis : x y z
#
# Youngs Moduli (GPa) = 49.44439 67.63524 111.01880
#
# Poissons Ratio (x) = 0.06112 0.55048
# Poissons Ratio (y) = 0.04468 0.45215
# Poissons Ratio (z) = 0.24517 0.27546
#
# Static dielectric constant tensor:
#      x y z
#    x 1.848020 0.000000 0.000000 
#    y 0.000000 1.803730 0.000000 
#    z 0.000000 0.000000 1.863320 
# 
# From -- ./inp_files/4066.got.cif
#   From: 2010.05.17/outbox.cif.g08.bks.cpg/sg17_3_cif.got.tgz:4066.got - 2010.06.03 22:34:06.
