data_PCOD9310641
_publ_section_title
;
Structure prediction by ZEFSAII (Michael W. Deem and Ramdas Pophale) SiO2 
 PCOD9310641
Probable space group: P 2 2 21
;
_chemical_formula_sum "Si O2"
_cell_formula_units_Z 30
_cell_length_a 16.676166
_cell_length_b 5.859112
_cell_length_c 13.091943
_cell_angle_alpha 90.000000
_cell_angle_beta 90.000000
_cell_angle_gamma 90.000000
_cell_volume 1279.181339
_symmetry_space_group_name_H-M "P 2 2 21"
_symmetry_group_IT_number 17
_symmetry_cell_setting 'orthorhombic'
loop_
_space_group_symop_operation_xyz
x,y,z
-x,-y,1/2+z
x,-y,-z
-x,y,1/2-z
loop_
_atom_site_type_symbol
_atom_site_label
_atom_site_fract_x
_atom_site_fract_y
_atom_site_fract_z
Si Si1 0.184075 0.554565 0.155498
Si Si2 0.506863 0.366872 0.626059
Si Si3 0.721173 0.161108 0.227254
Si Si4 0.323877 0.172425 0.909006
Si Si5 0.123658 0.062101 0.703214
Si Si6 0.549164 0.858322 0.857490
Si Si7 0.027289 0.079912 0.102681
Si Si8 0.038534 0.500000 0.000000
O O1 0.241266 0.358401 0.201156
O O2 0.241171 0.695570 0.079502
O O3 0.102517 0.526959 0.092651
O O4 0.155375 0.702390 0.252341
O O5 0.500000 0.380391 0.750000
O O6 0.600071 0.331766 0.602040
O O7 0.483427 0.624687 0.590127
O O8 0.463190 0.119932 0.600804
O O9 0.798241 0.070090 0.165097
O O10 0.642418 0.204199 0.161369
O O11 0.689890 0.967167 0.304914
O O12 0.338637 0.000000 0.000000
O O13 0.086646 0.922757 0.801631
O O14 0.046439 0.081495 0.632423
O O15 0.500000 0.869984 0.750000
O O16 0.987702 0.309931 0.059257
O O17 0.072579 0.000000 0.000000
#
# Coordination Sequence:
#
# PCOD9310641 Si02
#       8
#     4   4   4   4   4   4   4   2
#     4  11  22  36  60  94 128 167 205 264 337 397
#     4  10  19  37  56  85 120 168 212 248 300 382
#     4  11  21  38  60  94 124 164 213 269 315 402
#     4  11  23  35  57  92 133 162 202 262 328 394
#     4  10  24  40  63  93 126 165 219 267 331 403
#     4  10  19  34  61  86 118 163 217 255 309 370
#     4  11  23  44  62  91 129 167 213 271 333 406
#     4  12  22  38  66  90 132 168 202 268 346 408
#
# _framework density 23.452501000000002
#
# number of rings (size 3 to 8) (size 9 to 14) (size 15 to 20)
#    0.000    1.333    5.333    2.400    3.733    1.067 
#    0.000    0.000    0.000    0.800    3.467    0.000 
#    0.000    0.000    0.000    0.000    0.000    0.000 
#
# Total GULP energy -167211.537073 kJ/mol
# GULP energy per Si atom -5573.717902 kJ/mol
# Density = 2.339912 g / cm^3
# Si number density = 23.452501 Si / 1000 Ang^3
#
#
#
# Elastic Constant Matrix: (Units=GPa)
#
#
# Indices 1 2 3 4 5 6 
#
# 1 139.2061 26.0236 17.0532 0.0000 0.0000 0.0000
# 2 26.0236 119.7720 23.7134 0.0000 0.0000 0.0000
# 3 17.0532 23.7134 37.5991 0.0000 0.0000 0.0000
# 4 0.0000 0.0000 0.0000 38.6866 0.0000 0.0000
# 5 0.0000 0.0000 0.0000 0.0000 15.2961 0.0000
# 6 0.0000 0.0000 0.0000 0.0000 0.0000 15.1554
#
#
#
# Elastic Compliance Matrix: (Units=1/GPa)
#
#
# Indices 1 2 3 4 5 6 
#
# 1 0.007737 -0.001127 -0.002798 0.000000 0.000000 0.000000
# 2 -0.001127 0.009705 -0.005609 0.000000 0.000000 0.000000
# 3 -0.002798 -0.005609 0.031403 0.000000 0.000000 0.000000
# 4 0.000000 0.000000 0.000000 0.025849 0.000000 0.000000
# 5 0.000000 0.000000 0.000000 0.000000 0.065376 0.000000
# 6 0.000000 0.000000 0.000000 0.000000 0.000000 0.065983
#
#
# Mechanical properties :
#
#
# Convention : Reuss Voigt Hill
#
# Bulk Modulus (GPa) = 33.58472 47.79528 40.69000
# Shear Modulus (GPa) = 21.27225 29.14677 25.20951
#
# Velocity S-wave (km/s) = 3.01497 3.52916 3.28215
# Velocity P-wave (km/s) = 5.14504 6.08527 5.63480
#
# Compressibility (1/GPa) = 0.02977545
#
# Stress axis : x y z
#
# Youngs Moduli (GPa) = 129.24749 103.04304 31.84363
#
# Poissons Ratio (x) = 0.11613 0.08911
# Poissons Ratio (y) = 0.14567 0.17863
# Poissons Ratio (z) = 0.36168 0.57802
#
# Static dielectric constant tensor:
#      x y z
#    x 1.837510 0.000000 0.000000 
#    y 0.000000 2.158610 0.000000 
#    z 0.000000 0.000000 2.025170 
# 
# From -- ./inp_files/8670.got.cif
#   From: 2010.05.17/outbox.cif.g08.bks.cpg/sg17_5_cif.got.tgz:8670.got - 2010.06.03 22:34:06.
