data_PCOD9310169
_publ_section_title
;
Structure prediction by ZEFSAII (Michael W. Deem and Ramdas Pophale) SiO2 
 PCOD9310169
Probable space group: P 2 2 2
;
_chemical_formula_sum "Si O2"
_cell_formula_units_Z 26
_cell_length_a 17.031447
_cell_length_b 7.978536
_cell_length_c 9.101476
_cell_angle_alpha 90.000000
_cell_angle_beta 90.000000
_cell_angle_gamma 90.000000
_cell_volume 1236.763286
_symmetry_space_group_name_H-M "P 2 2 2"
_symmetry_group_IT_number 16
_symmetry_cell_setting 'orthorhombic'
loop_
_space_group_symop_operation_xyz
x,y,z
-x,-y,z
x,-y,-z
-x,y,-z
loop_
_atom_site_type_symbol
_atom_site_label
_atom_site_fract_x
_atom_site_fract_y
_atom_site_fract_z
Si Si1 0.815904 0.836996 0.804682
Si Si2 0.390244 0.753452 0.669976
Si Si3 0.500000 0.500000 0.500000
Si Si4 0.984623 0.202230 0.330627
Si Si5 0.235567 0.699715 0.487502
Si Si6 0.853034 0.779358 0.251998
Si Si7 0.719557 0.325171 0.929475
Si Si8 0.500000 0.000000 0.500000
O O1 0.901949 0.765913 0.752235
O O2 0.761462 0.774404 0.672960
O O3 0.831033 0.036408 0.806740
O O4 0.767125 0.779143 0.946966
O O5 0.442529 0.598135 0.611987
O O6 0.313209 0.752835 0.570689
O O7 0.353671 0.748485 0.834982
O O8 0.443843 0.903178 0.613377
O O9 0.000000 0.261391 0.500000
O O10 0.057147 0.268148 0.232487
O O11 0.000000 0.000000 0.333850
O O12 0.226663 0.500000 0.500000
O O13 0.163915 0.785260 0.574243
O O14 0.790729 0.648828 0.187002
O O15 0.694588 0.500000 0.000000
#
# Coordination Sequence:
#
# PCOD9310169 Si02
#       8
#     4   4   1   4   4   4   4   1
#     4  11  21  37  65  92 132 180 228 282 335 385
#     4  10  23  43  73 101 133 161 219 267 339 409
#     4  10  20  46  74  98 120 180 210 258 336 418
#     4   9  17  34  59  92 129 174 236 294 327 377
#     4  11  21  36  63  96 132 174 218 271 323 401
#     4  10  21  38  60  93 126 177 244 276 324 379
#     4  11  25  43  62  96 142 180 215 267 345 417
#     4  10  24  46  80 112 124 156 222 302 324 398
#
# _framework density 21.022617
#
# number of rings (size 3 to 8) (size 9 to 14) (size 15 to 20)
#    0.000    1.692    2.308    2.769    4.308    0.615 
#    0.000    7.308    0.000    0.923    0.000    0.000 
#    0.000    0.000    0.000    0.000    0.000    0.000 
#
# Total GULP energy -144784.196836 kJ/mol
# GULP energy per Si atom -5568.622955 kJ/mol
# Density = 2.097477 g / cm^3
# Si number density = 21.022617 Si / 1000 Ang^3
#
#
#
# Elastic Constant Matrix: (Units=GPa)
#
#
# Indices 1 2 3 4 5 6 
#
# 1 144.6143 41.6164 61.2319 0.0000 0.0000 0.0000
# 2 41.6164 54.0459 39.9550 0.0000 0.0000 0.0000
# 3 61.2319 39.9550 143.5057 0.0000 0.0000 0.0000
# 4 0.0000 0.0000 0.0000 25.4753 0.0000 0.0000
# 5 0.0000 0.0000 0.0000 0.0000 27.4502 0.0000
# 6 0.0000 0.0000 0.0000 0.0000 0.0000 15.2489
#
#
#
# Elastic Compliance Matrix: (Units=1/GPa)
#
#
# Indices 1 2 3 4 5 6 
#
# 1 0.009576 -0.005481 -0.002560 0.000000 0.000000 0.000000
# 2 -0.005481 0.026436 -0.005021 0.000000 0.000000 0.000000
# 3 -0.002560 -0.005021 0.009459 0.000000 0.000000 0.000000
# 4 0.000000 0.000000 0.000000 0.039254 0.000000 0.000000
# 5 0.000000 0.000000 0.000000 0.000000 0.036430 0.000000
# 6 0.000000 0.000000 0.000000 0.000000 0.000000 0.065579
#
#
# Mechanical properties :
#
#
# Convention : Reuss Voigt Hill
#
# Bulk Modulus (GPa) = 51.69226 69.75251 60.72239
# Shear Modulus (GPa) = 22.79910 26.92570 24.86240
#
# Velocity S-wave (km/s) = 3.29675 3.58270 3.44270
# Velocity P-wave (km/s) = 6.25569 7.09691 6.68954
#
# Compressibility (1/GPa) = 0.01934525
#
# Stress axis : x y z
#
# Youngs Moduli (GPa) = 104.42481 37.82744 105.72243
#
# Poissons Ratio (x) = 0.20735 0.27064
# Poissons Ratio (y) = 0.57240 0.53088
# Poissons Ratio (z) = 0.26732 0.18995
#
# Static dielectric constant tensor:
#      x y z
#    x 1.728910 0.000000 0.000000 
#    y 0.000000 1.899170 0.000000 
#    z 0.000000 0.000000 1.825070 
# 
# From -- ./inp_files/5520.got.cif
#   From: 2010.05.17/outbox.cif.g08.bks.cpg/sg16_3_cif.got.tgz:5520.got - 2010.06.03 22:28:35.
