data_PCOD9310979
_publ_section_title
;
Structure prediction by ZEFSAII (Michael W. Deem and Ramdas Pophale) SiO2 
 PCOD9310979
Probable space group: P 2 2 21
;
_chemical_formula_sum "Si O2"
_cell_formula_units_Z 32
_cell_length_a 5.240723
_cell_length_b 9.903820
_cell_length_c 29.448668
_cell_angle_alpha 90.000000
_cell_angle_beta 90.000000
_cell_angle_gamma 90.000000
_cell_volume 1528.479435
_symmetry_space_group_name_H-M "P 2 2 21"
_symmetry_group_IT_number 17
_symmetry_cell_setting 'orthorhombic'
loop_
_space_group_symop_operation_xyz
x,y,z
-x,-y,1/2+z
x,-y,-z
-x,y,1/2-z
loop_
_atom_site_type_symbol
_atom_site_label
_atom_site_fract_x
_atom_site_fract_y
_atom_site_fract_z
Si Si1 0.152920 0.919797 0.404159
Si Si2 0.734526 0.613342 0.961178
Si Si3 0.467243 0.104159 0.825058
Si Si4 0.238898 0.413293 0.100347
Si Si5 0.454071 0.091533 0.464595
Si Si6 0.933071 0.686487 0.358334
Si Si7 0.257345 0.685563 0.277470
Si Si8 0.755879 0.871454 0.631023
O O1 0.397812 0.882222 0.374070
O O2 0.995440 0.782131 0.401455
O O3 0.233674 0.985403 0.450701
O O4 0.008560 0.040149 0.377495
O O5 0.008131 0.610187 0.935870
O O6 0.659669 0.763905 0.978663
O O7 0.509478 0.583951 0.925147
O O8 0.731830 0.500000 0.000000
O O9 0.664790 0.157724 0.787841
O O10 0.236503 0.212075 0.827103
O O11 0.378041 0.949991 0.827441
O O12 0.203857 0.553875 0.125495
O O13 0.215756 0.287683 0.135042
O O14 0.605231 0.115546 0.417346
O O15 0.611481 0.000000 0.500000
O O16 0.179505 0.641775 0.328597
O O17 0.500000 0.627436 0.250000
O O18 0.000000 0.664358 0.250000
#
# Coordination Sequence:
#
# PCOD9310979 Si02
#       8
#     4   4   4   4   4   4   4   4
#     4   9  18  35  56  84 115 145 208 253 294 362
#     4  11  25  41  56  86 124 165 211 265 323 369
#     4   9  19  36  60  95 117 154 199 248 300 357
#     4  11  24  41  63  86 123 167 212 255 313 367
#     4  10  21  35  55  80 116 161 206 261 323 354
#     4  10  22  36  64  95 120 160 210 247 305 369
#     4  11  21  37  62 100 131 155 192 256 311 364
#     4   9  19  39  56  86 119 156 209 256 299 370
#
# _framework density 20.935839000000001
#
# number of rings (size 3 to 8) (size 9 to 14) (size 15 to 20)
#    0.000    2.000    2.500    0.375    5.250    2.500 
#    0.000    0.000    0.000    0.000   13.000    0.000 
#    0.000    0.000    0.000    0.000    0.000    0.000 
#
# Total GULP energy -178165.476192 kJ/mol
# GULP energy per Si atom -5567.671131 kJ/mol
# Density = 2.088819 g / cm^3
# Si number density = 20.935839 Si / 1000 Ang^3
#
#
#
# Elastic Constant Matrix: (Units=GPa)
#
#
# Indices 1 2 3 4 5 6 
#
# 1 68.8585 2.5581 -1.2356 0.0000 0.0000 0.0000
# 2 2.5581 117.7902 9.8437 0.0000 0.0000 0.0000
# 3 -1.2356 9.8437 16.0628 0.0000 0.0000 0.0000
# 4 0.0000 0.0000 0.0000 11.4964 0.0000 0.0000
# 5 0.0000 0.0000 0.0000 0.0000 23.7134 0.0000
# 6 0.0000 0.0000 0.0000 0.0000 0.0000 18.3433
#
#
#
# Elastic Compliance Matrix: (Units=1/GPa)
#
#
# Indices 1 2 3 4 5 6 
#
# 1 0.014563 -0.000432 0.001385 0.000000 0.000000 0.000000
# 2 -0.000432 0.008961 -0.005525 0.000000 0.000000 0.000000
# 3 0.001385 -0.005525 0.065748 0.000000 0.000000 0.000000
# 4 0.000000 0.000000 0.000000 0.086984 0.000000 0.000000
# 5 0.000000 0.000000 0.000000 0.000000 0.042170 0.000000
# 6 0.000000 0.000000 0.000000 0.000000 0.000000 0.054516
#
#
# Mechanical properties :
#
#
# Convention : Reuss Voigt Hill
#
# Bulk Modulus (GPa) = 12.47991 25.00488 18.74239
# Shear Modulus (GPa) = 16.19198 23.48030 19.83614
#
# Velocity S-wave (km/s) = 2.78404 3.35257 3.08144
# Velocity P-wave (km/s) = 4.03838 5.19190 4.65104
#
# Compressibility (1/GPa) = 0.08012881
#
# Stress axis : x y z
#
# Youngs Moduli (GPa) = 68.66516 111.59787 15.20960
#
# Poissons Ratio (x) = 0.04821 -0.02106
# Poissons Ratio (y) = 0.02966 0.08403
# Poissons Ratio (z) = -0.09510 0.61654
#
# Static dielectric constant tensor:
#      x y z
#    x 1.865170 0.000000 0.000000 
#    y 0.000000 1.761570 0.000000 
#    z 0.000000 0.000000 1.863000 
# 
# From -- ./inp_files/11168.got.cif
#   From: 2010.05.17/outbox.cif.g08.bks.cpg/sg17_6_cif.got.tgz:11168.got - 2010.06.03 22:34:06.
