data_PCOD9310734
_publ_section_title
;
Structure prediction by ZEFSAII (Michael W. Deem and Ramdas Pophale) SiO2 
 PCOD9310734
Probable space group: P 2 2 21
;
_chemical_formula_sum "Si O2"
_cell_formula_units_Z 20
_cell_length_a 10.161102
_cell_length_b 8.749348
_cell_length_c 10.431949
_cell_angle_alpha 90.000000
_cell_angle_beta 90.000000
_cell_angle_gamma 90.000000
_cell_volume 927.431744
_symmetry_space_group_name_H-M "P 2 2 21"
_symmetry_group_IT_number 17
_symmetry_cell_setting 'orthorhombic'
loop_
_space_group_symop_operation_xyz
x,y,z
-x,-y,1/2+z
x,-y,-z
-x,y,1/2-z
loop_
_atom_site_type_symbol
_atom_site_label
_atom_site_fract_x
_atom_site_fract_y
_atom_site_fract_z
Si Si1 0.593869 0.251469 0.138934
Si Si2 0.358863 0.238331 0.816383
Si Si3 0.564008 0.500000 0.500000
Si Si4 0.111153 0.685719 0.350181
Si Si5 0.452546 0.000000 0.000000
Si Si6 0.108268 0.684961 0.645687
O O1 0.500000 0.193874 0.250000
O O2 0.533950 0.413503 0.096660
O O3 0.744429 0.259446 0.176272
O O4 0.554129 0.136507 0.028161
O O5 0.500000 0.254609 0.750000
O O6 0.247539 0.255831 0.709350
O O7 0.361168 0.076719 0.891245
O O8 0.350309 0.375997 0.921809
O O9 0.083895 0.731588 0.497424
O O10 0.113784 0.500251 0.350702
O O11 0.000000 0.735213 0.250000
O O12 0.000000 0.734174 0.750000
#
# Coordination Sequence:
#
# PCOD9310734 Si02
#       6
#     4   4   2   4   2   4
#     4  11  21  37  61  90 122 161 205 253 306 367
#     4  11  21  38  62  90 127 169 212 264 319 377
#     4  10  20  32  60  98 124 156 210 262 310 370
#     4  10  21  37  61  93 129 165 204 257 317 374
#     4  10  24  38  60  90 124 164 214 262 310 370
#     4  10  21  37  60  94 129 162 205 259 317 375
#
# _framework density 21.56493
#
# number of rings (size 3 to 8) (size 9 to 14) (size 15 to 20)
#    0.000    1.600    0.000    7.200    0.000    6.400 
#    0.000    0.000    0.000   19.200    0.000    1.400 
#    0.000    0.000    0.000    0.000    0.000    0.000 
#
# Total GULP energy -111678.410626 kJ/mol
# GULP energy per Si atom -5583.920531 kJ/mol
# Density = 2.151585 g / cm^3
# Si number density = 21.564930 Si / 1000 Ang^3
#
#
#
# Elastic Constant Matrix: (Units=GPa)
#
#
# Indices 1 2 3 4 5 6 
#
# 1 135.7321 7.2588 92.9512 0.0000 0.0000 0.0000
# 2 7.2588 57.3789 29.6422 0.0000 0.0000 0.0000
# 3 92.9512 29.6422 152.5474 0.0000 0.0000 0.0000
# 4 0.0000 0.0000 0.0000 13.9325 0.0000 0.0000
# 5 0.0000 0.0000 0.0000 0.0000 41.1349 0.0000
# 6 0.0000 0.0000 0.0000 0.0000 0.0000 113.4930
#
#
#
# Elastic Compliance Matrix: (Units=1/GPa)
#
#
# Indices 1 2 3 4 5 6 
#
# 1 0.013015 0.002724 -0.008460 0.000000 0.000000 0.000000
# 2 0.002724 0.019943 -0.005535 0.000000 0.000000 0.000000
# 3 -0.008460 -0.005535 0.012786 0.000000 0.000000 0.000000
# 4 0.000000 0.000000 0.000000 0.071775 0.000000 0.000000
# 5 0.000000 0.000000 0.000000 0.000000 0.024310 0.000000
# 6 0.000000 0.000000 0.000000 0.000000 0.000000 0.008811
#
#
# Mechanical properties :
#
#
# Convention : Reuss Voigt Hill
#
# Bulk Modulus (GPa) = 43.09988 67.26253 55.18120
# Shear Modulus (GPa) = 27.63725 48.09916 37.86821
#
# Velocity S-wave (km/s) = 3.58380 4.72787 4.19502
# Velocity P-wave (km/s) = 6.09544 7.81422 7.00773
#
# Compressibility (1/GPa) = 0.02320192
#
# Stress axis : x y z
#
# Youngs Moduli (GPa) = 76.83353 50.14354 78.21296
#
# Poissons Ratio (x) = -0.13658 0.66166
# Poissons Ratio (y) = -0.20928 0.43290
# Poissons Ratio (z) = 0.64999 0.27754
#
# Static dielectric constant tensor:
#      x y z
#    x 1.750530 0.000000 0.000000 
#    y 0.000000 1.825440 0.000000 
#    z 0.000000 0.000000 1.460710 
# 
# From -- ./inp_files/6431.got.cif
#   From: 2010.05.17/outbox.cif.g08.bks.cpg/sg17_4_cif.got.tgz:6431.got - 2010.06.03 22:34:06.
