data_PCOD9310810
_publ_section_title
;
Structure prediction by ZEFSAII (Michael W. Deem and Ramdas Pophale) SiO2 
 PCOD9310810
Probable space group: P 2 2 21
;
_chemical_formula_sum "Si O2"
_cell_formula_units_Z 32
_cell_length_a 14.032405
_cell_length_b 7.520146
_cell_length_c 13.494478
_cell_angle_alpha 90.000000
_cell_angle_beta 90.000000
_cell_angle_gamma 90.000000
_cell_volume 1424.014700
_symmetry_space_group_name_H-M "P 2 2 21"
_symmetry_group_IT_number 17
_symmetry_cell_setting 'orthorhombic'
loop_
_space_group_symop_operation_xyz
x,y,z
-x,-y,1/2+z
x,-y,-z
-x,y,1/2-z
loop_
_atom_site_type_symbol
_atom_site_label
_atom_site_fract_x
_atom_site_fract_y
_atom_site_fract_z
Si Si1 0.601600 0.296869 0.724772
Si Si2 0.591059 0.287700 0.309887
Si Si3 0.313467 0.206696 0.987463
Si Si4 0.897201 0.215268 0.511095
Si Si5 0.897838 0.042682 0.706742
Si Si6 0.212440 0.681867 0.329784
Si Si7 0.892418 0.787880 0.975409
Si Si8 0.799749 0.714872 0.764592
O O1 0.500000 0.212012 0.750000
O O2 0.583183 0.500736 0.696892
O O3 0.651530 0.226508 0.625130
O O4 0.673709 0.297655 0.817582
O O5 0.500000 0.213478 0.250000
O O6 0.611004 0.252951 0.426487
O O7 0.689237 0.240418 0.253985
O O8 0.208724 0.294434 0.003410
O O9 0.296054 0.000000 0.000000
O O10 0.912838 0.202996 0.629337
O O11 0.997643 0.279324 0.467186
O O12 0.895016 0.000000 0.500000
O O13 0.828130 0.138804 0.782304
O O14 0.000000 0.002811 0.750000
O O15 0.854487 0.845308 0.687030
O O16 0.165343 0.684696 0.438369
O O17 0.189771 0.500190 0.267957
O O18 0.838979 0.767223 0.871966
O O19 0.896590 0.000000 0.000000
#
# Coordination Sequence:
#
# PCOD9310810 Si02
#       8
#     4   4   4   4   4   4   4   4
#     4  10  23  44  67  93 129 174 216 269 332 388
#     4  10  24  45  66  92 128 170 220 270 331 391
#     4  11  22  39  65  96 129 160 214 275 324 387
#     4  10  20  36  64  90 126 177 210 261 333 385
#     4  12  21  41  64  91 136 170 214 271 325 386
#     4  11  23  41  65  95 131 173 222 270 320 389
#     4  11  21  41  65  93 136 179 216 266 327 388
#     4  11  24  41  66  94 128 173 222 272 322 387
#
# _framework density 22.471679000000002
#
# number of rings (size 3 to 8) (size 9 to 14) (size 15 to 20)
#    0.000    1.250    3.750    3.000    0.000    2.000 
#    0.000    8.750    0.000    0.000    0.000    0.000 
#    0.000    0.000    0.000    0.000    0.000    0.000 
#
# Total GULP energy -178345.162410 kJ/mol
# GULP energy per Si atom -5573.286325 kJ/mol
# Density = 2.242053 g / cm^3
# Si number density = 22.471679 Si / 1000 Ang^3
#
#
#
# Elastic Constant Matrix: (Units=GPa)
#
#
# Indices 1 2 3 4 5 6 
#
# 1 128.8705 35.4889 42.3570 0.0000 0.0000 0.0000
# 2 35.4889 76.2655 -12.7158 0.0000 0.0000 0.0000
# 3 42.3570 -12.7158 64.3067 0.0000 0.0000 0.0000
# 4 0.0000 0.0000 0.0000 58.4305 0.0000 0.0000
# 5 0.0000 0.0000 0.0000 0.0000 34.1401 0.0000
# 6 0.0000 0.0000 0.0000 0.0000 0.0000 50.5950
#
#
#
# Elastic Compliance Matrix: (Units=1/GPa)
#
#
# Indices 1 2 3 4 5 6 
#
# 1 0.013354 -0.007943 -0.010367 0.000000 0.000000 0.000000
# 2 -0.007943 0.018283 0.008847 0.000000 0.000000 0.000000
# 3 -0.010367 0.008847 0.024128 0.000000 0.000000 0.000000
# 4 0.000000 0.000000 0.000000 0.017114 0.000000 0.000000
# 5 0.000000 0.000000 0.000000 0.000000 0.029291 0.000000
# 6 0.000000 0.000000 0.000000 0.000000 0.000000 0.019765
#
#
# Mechanical properties :
#
#
# Convention : Reuss Voigt Hill
#
# Bulk Modulus (GPa) = 27.14400 44.41144 35.77772
# Shear Modulus (GPa) = 32.64968 42.25396 37.45182
#
# Velocity S-wave (km/s) = 3.81586 4.34097 4.08686
# Velocity P-wave (km/s) = 5.61425 6.70310 6.18269
#
# Compressibility (1/GPa) = 0.03684055
#
# Stress axis : x y z
#
# Youngs Moduli (GPa) = 74.88209 54.69524 41.44552
#
# Poissons Ratio (x) = 0.43443 0.42965
# Poissons Ratio (y) = 0.59476 -0.36666
# Poissons Ratio (z) = 0.77628 -0.48388
#
# Static dielectric constant tensor:
#      x y z
#    x 1.849110 0.000000 0.000000 
#    y 0.000000 1.839040 0.000000 
#    z 0.000000 0.000000 1.078810 
# 
# From -- ./inp_files/8537.got.cif
#   From: 2010.05.17/outbox.cif.g08.bks.cpg/sg17_5_cif.got.tgz:8537.got - 2010.06.03 22:34:06.
