data_PCOD9310764
_publ_section_title
;
Structure prediction by ZEFSAII (Michael W. Deem and Ramdas Pophale) SiO2 
 PCOD9310764
Probable space group: P 2 2 21
;
_chemical_formula_sum "Si O2"
_cell_formula_units_Z 22
_cell_length_a 5.706340
_cell_length_b 11.657301
_cell_length_c 15.165488
_cell_angle_alpha 90.000000
_cell_angle_beta 90.000000
_cell_angle_gamma 90.000000
_cell_volume 1008.816193
_symmetry_space_group_name_H-M "P 2 2 21"
_symmetry_group_IT_number 17
_symmetry_cell_setting 'orthorhombic'
loop_
_space_group_symop_operation_xyz
x,y,z
-x,-y,1/2+z
x,-y,-z
-x,y,1/2-z
loop_
_atom_site_type_symbol
_atom_site_label
_atom_site_fract_x
_atom_site_fract_y
_atom_site_fract_z
Si Si1 0.068314 0.112959 0.143478
Si Si2 0.699005 0.683575 0.825312
Si Si3 0.294598 0.720636 0.176173
Si Si4 0.000000 0.482657 0.750000
Si Si5 0.546390 0.222247 0.485241
Si Si6 0.232548 0.000000 0.500000
Si Si7 0.000000 0.075832 0.750000
O O1 0.891690 0.214871 0.170713
O O2 0.248736 0.168759 0.075347
O O3 0.918645 0.020129 0.087539
O O4 0.179709 0.029837 0.218476
O O5 0.500000 0.702832 0.750000
O O6 0.832863 0.566475 0.805247
O O7 0.580403 0.689040 0.920541
O O8 0.500000 0.734532 0.250000
O O9 0.161903 0.602008 0.193948
O O10 0.114792 0.826510 0.186564
O O11 0.383629 0.722941 0.076884
O O12 0.383487 0.114153 0.509109
#
# Coordination Sequence:
#
# PCOD9310764 Si02
#       7
#     4   4   4   2   4   2   2
#     4  11  22  38  65 100 137 173 215 269 332 404
#     4  11  24  45  69  96 129 172 224 287 352 411
#     4  11  25  44  66  95 134 180 227 280 343 412
#     4  11  25  48  68  88 129 175 230 294 350 411
#     4  11  23  41  67 101 138 178 228 280 341 417
#     4  10  20  34  60  96 138 172 204 256 320 400
#     4  11  21  36  64  98 137 177 212 260 328 405
#
# _framework density 21.807738000000001
#
# number of rings (size 3 to 8) (size 9 to 14) (size 15 to 20)
#    0.000    1.091    0.000    7.091    0.000    8.000 
#    0.000   13.636    0.000    0.000    0.000    0.000 
#    0.000    0.000    0.000    0.000    0.000    0.000 
#
# Total GULP energy -122545.087393 kJ/mol
# GULP energy per Si atom -5570.231245 kJ/mol
# Density = 2.175810 g / cm^3
# Si number density = 21.807738 Si / 1000 Ang^3
#
#
#
# Elastic Constant Matrix: (Units=GPa)
#
#
# Indices 1 2 3 4 5 6 
#
# 1 78.5033 61.5203 61.1144 0.0000 0.0000 0.0000
# 2 61.5203 184.6142 79.7797 0.0000 0.0000 0.0000
# 3 61.1144 79.7797 172.2978 0.0000 0.0000 0.0000
# 4 0.0000 0.0000 0.0000 98.5377 0.0000 0.0000
# 5 0.0000 0.0000 0.0000 0.0000 36.4791 0.0000
# 6 0.0000 0.0000 0.0000 0.0000 0.0000 14.8776
#
#
#
# Elastic Compliance Matrix: (Units=1/GPa)
#
#
# Indices 1 2 3 4 5 6 
#
# 1 0.020263 -0.004559 -0.005076 0.000000 0.000000 0.000000
# 2 -0.004559 0.007797 -0.001993 0.000000 0.000000 0.000000
# 3 -0.005076 -0.001993 0.008528 0.000000 0.000000 0.000000
# 4 0.000000 0.000000 0.000000 0.010148 0.000000 0.000000
# 5 0.000000 0.000000 0.000000 0.000000 0.027413 0.000000
# 6 0.000000 0.000000 0.000000 0.000000 0.000000 0.067215
#
#
# Mechanical properties :
#
#
# Convention : Reuss Voigt Hill
#
# Bulk Modulus (GPa) = 75.01545 93.36045 84.18795
# Shear Modulus (GPa) = 29.57450 45.51226 37.54338
#
# Velocity S-wave (km/s) = 3.68659 4.57330 4.15367
# Velocity P-wave (km/s) = 7.25220 8.41370 7.85445
#
# Compressibility (1/GPa) = 0.01333059
#
# Stress axis : x y z
#
# Youngs Moduli (GPa) = 49.35184 128.25078 117.26656
#
# Poissons Ratio (x) = 0.58463 0.59530
# Poissons Ratio (y) = 0.22497 0.23377
# Poissons Ratio (z) = 0.25053 0.25566
#
# Static dielectric constant tensor:
#      x y z
#    x 0.715000 0.000000 0.000000 
#    y 0.000000 1.744130 0.000000 
#    z 0.000000 0.000000 1.892960 
# 
# From -- ./inp_files/7678.got.cif
#   From: 2010.05.17/outbox.cif.g08.bks.cpg/sg17_4_cif.got.tgz:7678.got - 2010.06.03 22:34:06.
