data_PCOD9310129
_publ_section_title
;
Structure prediction by ZEFSAII (Michael W. Deem and Ramdas Pophale) SiO2 
 PCOD9310129
Probable space group: P 2 2 2
;
_chemical_formula_sum "Si O2"
_cell_formula_units_Z 30
_cell_length_a 8.438678
_cell_length_b 12.767619
_cell_length_c 14.103357
_cell_angle_alpha 90.000000
_cell_angle_beta 90.000000
_cell_angle_gamma 90.000000
_cell_volume 1519.521430
_symmetry_space_group_name_H-M "P 2 2 2"
_symmetry_group_IT_number 16
_symmetry_cell_setting 'orthorhombic'
loop_
_space_group_symop_operation_xyz
x,y,z
-x,-y,z
x,-y,-z
-x,y,-z
loop_
_atom_site_type_symbol
_atom_site_label
_atom_site_fract_x
_atom_site_fract_y
_atom_site_fract_z
Si Si1 0.527795 0.875623 0.692491
Si Si2 0.762755 0.756309 0.208197
Si Si3 0.815352 0.885269 0.022196
Si Si4 0.960510 0.376635 0.265706
Si Si5 0.270866 0.764446 0.161959
Si Si6 0.178299 0.621678 0.468832
Si Si7 0.500000 0.749592 0.500000
Si Si8 0.461120 0.614779 0.888874
O O1 0.374284 0.816921 0.736040
O O2 0.683219 0.849363 0.757604
O O3 0.537463 0.823739 0.589407
O O4 0.500000 0.000000 0.690096
O O5 0.808614 0.842399 0.128707
O O6 0.707100 0.658726 0.141709
O O7 0.885047 0.697901 0.278576
O O8 0.738528 0.811944 0.942677
O O9 0.000000 0.889276 0.000000
O O10 0.746298 0.000000 0.000000
O O11 0.876422 0.311350 0.181985
O O12 0.840125 0.373150 0.354637
O O13 0.000000 0.500000 0.249525
O O14 0.419585 0.689438 0.163805
O O15 0.188543 0.500000 0.500000
O O16 0.337189 0.679801 0.506018
O O17 0.000000 0.658745 0.500000
O O18 0.500000 0.500000 0.855079
O O19 0.500000 0.619179 0.000000
#
# Coordination Sequence:
#
# PCOD9310129 Si02
#       8
#     4   4   4   4   4   4   2   4
#     4  11  25  43  67  94 129 171 219 282 337 398
#     4  11  23  41  64  96 130 172 224 269 333 396
#     4  11  22  39  63  89 126 174 223 272 319 379
#     4  12  23  41  66  98 131 171 211 274 338 406
#     4  11  22  41  61  93 130 165 221 266 326 391
#     4  11  23  44  70  99 135 174 224 281 341 413
#     4  12  24  46  72 100 134 174 224 282 360 414
#     4  10  20  36  57  86 128 172 207 257 320 387
#
# _framework density 19.74306
#
# number of rings (size 3 to 8) (size 9 to 14) (size 15 to 20)
#    0.000    0.933    5.333    2.800    0.000    0.000 
#    0.000    2.667    0.000    0.800    0.000    0.000 
#    0.000    0.000    0.000    0.000    0.000    0.000 
#
# Total GULP energy -167047.091039 kJ/mol
# GULP energy per Si atom -5568.236368 kJ/mol
# Density = 1.969812 g / cm^3
# Si number density = 19.743060 Si / 1000 Ang^3
#
#
#
# Elastic Constant Matrix: (Units=GPa)
#
#
# Indices 1 2 3 4 5 6 
#
# 1 66.4932 33.7748 3.0970 0.0000 0.0000 0.0000
# 2 33.7748 129.1580 19.0570 0.0000 0.0000 0.0000
# 3 3.0970 19.0570 55.5958 0.0000 0.0000 0.0000
# 4 0.0000 0.0000 0.0000 19.8247 0.0000 0.0000
# 5 0.0000 0.0000 0.0000 0.0000 80.0264 0.0000
# 6 0.0000 0.0000 0.0000 0.0000 0.0000 22.9746
#
#
#
# Elastic Compliance Matrix: (Units=1/GPa)
#
#
# Indices 1 2 3 4 5 6 
#
# 1 0.017363 -0.004632 0.000621 0.000000 0.000000 0.000000
# 2 -0.004632 0.009391 -0.002961 0.000000 0.000000 0.000000
# 3 0.000621 -0.002961 0.018967 0.000000 0.000000 0.000000
# 4 0.000000 0.000000 0.000000 0.050442 0.000000 0.000000
# 5 0.000000 0.000000 0.000000 0.000000 0.012496 0.000000
# 6 0.000000 0.000000 0.000000 0.000000 0.000000 0.043526
#
#
# Mechanical properties :
#
#
# Convention : Reuss Voigt Hill
#
# Bulk Modulus (GPa) = 31.47000 40.34494 35.90747
# Shear Modulus (GPa) = 28.29303 37.58635 32.93969
#
# Velocity S-wave (km/s) = 3.78969 4.36796 4.08906
# Velocity P-wave (km/s) = 5.92650 6.77629 6.36559
#
# Compressibility (1/GPa) = 0.03177630
#
# Stress axis : x y z
#
# Youngs Moduli (GPa) = 57.59374 106.48962 52.72226
#
# Poissons Ratio (x) = 0.49326 -0.03272
# Poissons Ratio (y) = 0.26677 0.15610
# Poissons Ratio (z) = -0.03574 0.31530
#
# Static dielectric constant tensor:
#      x y z
#    x 1.728440 0.000000 0.000000 
#    y 0.000000 1.627200 0.000000 
#    z 0.000000 0.000000 1.821360 
# 
# From -- ./inp_files/7953.got.cif
#   From: 2010.05.17/outbox.cif.g08.bks.cpg/sg16_4_cif.got.tgz:7953.got - 2010.06.03 22:28:35.
