data_PCOD9310548
_publ_section_title
;
Structure prediction by ZEFSAII (Michael W. Deem and Ramdas Pophale) SiO2 
 PCOD9310548
Probable space group: P 2 2 21
;
_chemical_formula_sum "Si O2"
_cell_formula_units_Z 18
_cell_length_a 8.778078
_cell_length_b 8.653222
_cell_length_c 13.000618
_cell_angle_alpha 90.000000
_cell_angle_beta 90.000000
_cell_angle_gamma 90.000000
_cell_volume 987.509492
_symmetry_space_group_name_H-M "P 2 2 21"
_symmetry_group_IT_number 17
_symmetry_cell_setting 'orthorhombic'
loop_
_space_group_symop_operation_xyz
x,y,z
-x,-y,1/2+z
x,-y,-z
-x,y,1/2-z
loop_
_atom_site_type_symbol
_atom_site_label
_atom_site_fract_x
_atom_site_fract_y
_atom_site_fract_z
Si Si1 0.259127 0.038655 0.620925
Si Si2 0.765312 0.358627 0.314432
Si Si3 0.053507 0.500000 0.000000
Si Si4 0.500000 0.834370 0.750000
Si Si5 0.000000 0.899737 0.750000
Si Si6 0.859294 0.355797 0.826612
O O1 0.261032 0.219388 0.653108
O O2 0.271668 0.000000 0.500000
O O3 0.387477 0.941028 0.682108
O O4 0.090787 0.991213 0.662353
O O5 0.834014 0.426944 0.417421
O O6 0.599983 0.283017 0.318549
O O7 0.787482 0.489149 0.225266
O O8 0.873735 0.213915 0.293608
O O9 0.941186 0.608963 0.065158
O O10 0.000000 0.313408 0.750000
#
# Coordination Sequence:
#
# PCOD9310548 Si02
#       6
#     4   4   2   2   2   4
#     4  11  23  41  63  91 126 167 205 251 318 362
#     4  10  20  40  61  88 127 159 199 254 304 361
#     4  10  18  36  68  94 112 148 222 254 302 342
#     4  10  26  44  52  92 136 170 188 250 314 378
#     4  10  18  38  64  90 124 152 204 272 296 352
#     4  10  20  37  66  97 113 154 209 266 296 355
#
# _framework density 18.227672999999999
#
# number of rings (size 3 to 8) (size 9 to 14) (size 15 to 20)
#    0.000    1.778    4.444    1.333    3.111    0.889 
#   12.000    2.222    0.000    0.000    0.000    0.000 
#    0.000    0.000    0.000    0.000    0.000    0.000 
#
# Total GULP energy -100204.822153 kJ/mol
# GULP energy per Si atom -5566.934564 kJ/mol
# Density = 1.818619 g / cm^3
# Si number density = 18.227673 Si / 1000 Ang^3
#
#
#
# Elastic Constant Matrix: (Units=GPa)
#
#
# Indices 1 2 3 4 5 6 
#
# 1 82.3384 50.5419 31.6539 0.0000 0.0000 0.0000
# 2 50.5419 85.6600 28.7302 0.0000 0.0000 0.0000
# 3 31.6539 28.7302 77.9417 0.0000 0.0000 0.0000
# 4 0.0000 0.0000 0.0000 5.9955 0.0000 0.0000
# 5 0.0000 0.0000 0.0000 0.0000 18.6440 0.0000
# 6 0.0000 0.0000 0.0000 0.0000 0.0000 48.6886
#
#
#
# Elastic Compliance Matrix: (Units=1/GPa)
#
#
# Indices 1 2 3 4 5 6 
#
# 1 0.020262 -0.010493 -0.004361 0.000000 0.000000 0.000000
# 2 -0.010493 0.018754 -0.002652 0.000000 0.000000 0.000000
# 3 -0.004361 -0.002652 0.015579 0.000000 0.000000 0.000000
# 4 0.000000 0.000000 0.000000 0.166791 0.000000 0.000000
# 5 0.000000 0.000000 0.000000 0.000000 0.053637 0.000000
# 6 0.000000 0.000000 0.000000 0.000000 0.000000 0.020539
#
#
# Mechanical properties :
#
#
# Convention : Reuss Voigt Hill
#
# Bulk Modulus (GPa) = 51.06173 51.97690 51.51932
# Shear Modulus (GPa) = 14.83235 23.66657 19.24946
#
# Velocity S-wave (km/s) = 2.85568 3.60722 3.25323
# Velocity P-wave (km/s) = 6.24078 6.77692 6.51437
#
# Compressibility (1/GPa) = 0.01958414
#
# Stress axis : x y z
#
# Youngs Moduli (GPa) = 49.35271 53.32087 64.18975
#
# Poissons Ratio (x) = 0.55947 0.27995
# Poissons Ratio (y) = 0.51784 0.17022
# Poissons Ratio (z) = 0.21524 0.14140
#
# Static dielectric constant tensor:
#      x y z
#    x 1.669780 0.000000 0.000000 
#    y 0.000000 1.691070 0.000000 
#    z 0.000000 0.000000 1.611750 
# 
# From -- ./inp_files/6334.got.cif
#   From: 2010.05.17/outbox.cif.g08.bks.cpg/sg17_4_cif.got.tgz:6334.got - 2010.06.03 22:34:06.
