data_PCOD9310338
_publ_section_title
;
Structure prediction by ZEFSAII (Michael W. Deem and Ramdas Pophale) SiO2 
 PCOD9310338
Probable space group: P 2 2 2
;
_chemical_formula_sum "Si O2"
_cell_formula_units_Z 10
_cell_length_a 10.867656
_cell_length_b 7.128666
_cell_length_c 5.541718
_cell_angle_alpha 90.000000
_cell_angle_beta 90.000000
_cell_angle_gamma 90.000000
_cell_volume 429.327366
_symmetry_space_group_name_H-M "P 2 2 2"
_symmetry_group_IT_number 16
_symmetry_cell_setting 'orthorhombic'
loop_
_space_group_symop_operation_xyz
x,y,z
-x,-y,z
x,-y,-z
-x,y,-z
loop_
_atom_site_type_symbol
_atom_site_label
_atom_site_fract_x
_atom_site_fract_y
_atom_site_fract_z
Si Si1 0.320380 0.194798 0.128432
Si Si2 0.500000 0.000000 0.500000
Si Si3 0.949631 0.287663 0.749430
Si Si4 0.500000 0.500000 0.000000
O O1 0.413998 0.132659 0.338099
O O2 0.197377 0.283057 0.236481
O O3 0.393300 0.338509 0.954276
O O4 0.287737 0.000000 0.000000
O O5 0.000000 0.500000 0.748997
O O6 0.000000 0.203916 0.500000
O O7 0.000000 0.204769 0.000000
#
# Coordination Sequence:
#
# PCOD9310338 Si02
#       4
#     4   1   4   1
#     4  12  27  49  75 111 157 196 261 321 386 465
#     4  12  26  50  74 114 150 204 254 328 390 448
#     4  10  24  47  75 111 149 200 255 311 383 457
#     4  12  22  50  78 106 154 208 250 320 392 464
#
# _framework density 23.292249000000002
#
# number of rings (size 3 to 8) (size 9 to 14) (size 15 to 20)
#    0.000    0.800    4.000    2.400    5.600    8.000 
#    0.000    0.000    0.000    0.000    0.000    0.000 
#    0.000    0.000    0.000    0.000    0.000    0.000 
#
# Total GULP energy -55668.575509 kJ/mol
# GULP energy per Si atom -5566.857551 kJ/mol
# Density = 2.323924 g / cm^3
# Si number density = 23.292249 Si / 1000 Ang^3
#
#
#
# Elastic Constant Matrix: (Units=GPa)
#
#
# Indices 1 2 3 4 5 6 
#
# 1 214.4031 48.9879 41.4516 0.0000 0.0000 0.0000
# 2 48.9879 156.7133 1.2101 0.0000 0.0000 0.0000
# 3 41.4516 1.2101 136.9141 0.0000 0.0000 0.0000
# 4 0.0000 0.0000 0.0000 -15.5250 0.0000 0.0000
# 5 0.0000 0.0000 0.0000 0.0000 33.9492 0.0000
# 6 0.0000 0.0000 0.0000 0.0000 0.0000 78.8501
#
#
#
# Elastic Compliance Matrix: (Units=1/GPa)
#
#
# Indices 1 2 3 4 5 6 
#
# 1 0.005354 -0.001661 -0.001606 0.000000 0.000000 0.000000
# 2 -0.001661 0.006897 0.000442 0.000000 0.000000 0.000000
# 3 -0.001606 0.000442 0.007786 0.000000 0.000000 0.000000
# 4 0.000000 0.000000 0.000000 -0.064412 0.000000 0.000000
# 5 0.000000 0.000000 0.000000 0.000000 0.029456 0.000000
# 6 0.000000 0.000000 0.000000 0.000000 0.000000 0.012682
#
#
# Mechanical properties :
#
#
# Convention : Reuss Voigt Hill
#
# Bulk Modulus (GPa) = 69.51096 76.81440 73.16268
# Shear Modulus (GPa) = 608.99854 47.21359 328.10606
#
# Velocity S-wave (km/s) = 16.18726 4.50712 11.88153
# Velocity P-wave (km/s) = 19.47505 7.75471 14.82250
#
# Compressibility (1/GPa) = 0.01438622
#
# Stress axis : x y z
#
# Youngs Moduli (GPa) = 186.76715 144.99087 128.43107
#
# Poissons Ratio (x) = 0.24088 0.20631
# Poissons Ratio (y) = 0.31028 -0.05677
# Poissons Ratio (z) = 0.30001 -0.06409
#
# Static dielectric constant tensor:
#      x y z
#    x 1.830280 0.000000 0.000000 
#    y 0.000000 1.849260 0.000000 
#    z 0.000000 0.000000 1.930660 
# 
# From -- ./inp_files/1062.got.cif
#   From: 2010.05.17/outbox.cif.g08.bks.cpg/sg16_1_cif.got.tgz:1062.got - 2010.06.03 22:28:35.
