data_PCOD9310449
_publ_section_title
;
Structure prediction by ZEFSAII (Michael W. Deem and Ramdas Pophale) SiO2 
 PCOD9310449
Probable space group: P 2 2 21
;
_chemical_formula_sum "Si O2"
_cell_formula_units_Z 22
_cell_length_a 8.813754
_cell_length_b 7.973522
_cell_length_c 17.356387
_cell_angle_alpha 90.000000
_cell_angle_beta 90.000000
_cell_angle_gamma 90.000000
_cell_volume 1219.748933
_symmetry_space_group_name_H-M "P 2 2 21"
_symmetry_group_IT_number 17
_symmetry_cell_setting 'orthorhombic'
loop_
_space_group_symop_operation_xyz
x,y,z
-x,-y,1/2+z
x,-y,-z
-x,y,1/2-z
loop_
_atom_site_type_symbol
_atom_site_label
_atom_site_fract_x
_atom_site_fract_y
_atom_site_fract_z
Si Si1 0.364748 0.000000 0.000000
Si Si2 0.523228 0.341062 0.058279
Si Si3 0.241425 0.734678 0.677220
Si Si4 0.254563 0.141302 0.846967
Si Si5 0.500000 0.968492 0.750000
Si Si6 0.000000 0.953517 0.750000
Si Si7 0.350809 0.505342 0.198869
O O1 0.466259 0.163576 0.023258
O O2 0.257900 0.935462 0.068608
O O3 0.692227 0.322894 0.095150
O O4 0.413575 0.386606 0.130742
O O5 0.517121 0.500000 0.000000
O O6 0.374403 0.856226 0.708925
O O7 0.243197 0.585797 0.739672
O O8 0.087415 0.837180 0.687858
O O9 0.265849 0.340192 0.840178
O O10 0.413908 0.078576 0.811895
O O11 0.121583 0.066039 0.794907
O O12 0.500000 0.553465 0.250000
#
# Coordination Sequence:
#
# PCOD9310449 Si02
#       7
#     2   4   4   4   2   2   4
#     4  12  22  36  64  94 130 158 202 268 324 360
#     4  11  20  34  60  99 118 154 196 266 311 354
#     4  10  19  38  59  86 118 159 201 254 298 358
#     4  11  21  36  61  91 119 165 203 254 308 375
#     4  10  16  32  60  86 108 150 210 238 286 350
#     4  10  24  40  62  80 126 168 210 236 310 390
#     4  10  19  35  63  93 118 149 213 264 296 352
#
# _framework density 18.0365
#
# number of rings (size 3 to 8) (size 9 to 14) (size 15 to 20)
#    0.000    1.455    7.273    1.091    0.000    0.727 
#    0.000    0.909    4.000    0.000    0.000    0.000 
#    0.000    0.000    0.000    0.000    0.000    0.000 
#
# Total GULP energy -122608.366133 kJ/mol
# GULP energy per Si atom -5573.107551 kJ/mol
# Density = 1.799545 g / cm^3
# Si number density = 18.036500 Si / 1000 Ang^3
#
#
#
# Elastic Constant Matrix: (Units=GPa)
#
#
# Indices 1 2 3 4 5 6 
#
# 1 49.9499 28.5001 15.4542 0.0000 0.0000 0.0000
# 2 28.5001 121.8088 42.2600 0.0000 0.0000 0.0000
# 3 15.4542 42.2600 93.4650 0.0000 0.0000 0.0000
# 4 0.0000 0.0000 0.0000 30.8950 0.0000 0.0000
# 5 0.0000 0.0000 0.0000 0.0000 20.3841 0.0000
# 6 0.0000 0.0000 0.0000 0.0000 0.0000 15.7498
#
#
#
# Elastic Compliance Matrix: (Units=1/GPa)
#
#
# Indices 1 2 3 4 5 6 
#
# 1 0.023316 -0.004884 -0.001647 0.000000 0.000000 0.000000
# 2 -0.004884 0.010760 -0.004058 0.000000 0.000000 0.000000
# 3 -0.001647 -0.004058 0.012806 0.000000 0.000000 0.000000
# 4 0.000000 0.000000 0.000000 0.032368 0.000000 0.000000
# 5 0.000000 0.000000 0.000000 0.000000 0.049058 0.000000
# 6 0.000000 0.000000 0.000000 0.000000 0.000000 0.063493
#
#
# Mechanical properties :
#
#
# Convention : Reuss Voigt Hill
#
# Bulk Modulus (GPa) = 38.90244 48.62805 43.76524
# Shear Modulus (GPa) = 22.56864 25.33975 23.95419
#
# Velocity S-wave (km/s) = 3.54118 3.75229 3.64826
# Velocity P-wave (km/s) = 6.19156 6.76700 6.48567
#
# Compressibility (1/GPa) = 0.02570533
#
# Stress axis : x y z
#
# Youngs Moduli (GPa) = 42.88845 92.93649 78.08755
#
# Poissons Ratio (x) = 0.45390 0.12861
# Poissons Ratio (y) = 0.20947 0.31685
# Poissons Ratio (z) = 0.07064 0.37710
#
# Static dielectric constant tensor:
#      x y z
#    x 1.607620 0.000000 0.000000 
#    y 0.000000 1.662980 0.000000 
#    z 0.000000 0.000000 1.655980 
# 
# From -- ./inp_files/8051.got.cif
#   From: 2010.05.17/outbox.cif.g08.bks.cpg/sg17_5_cif.got.tgz:8051.got - 2010.06.03 22:34:06.
