data_PCOD9310638
_publ_section_title
;
Structure prediction by ZEFSAII (Michael W. Deem and Ramdas Pophale) SiO2 
 PCOD9310638
Probable space group: P 2 2 21
;
_chemical_formula_sum "Si O2"
_cell_formula_units_Z 32
_cell_length_a 12.427879
_cell_length_b 8.199797
_cell_length_c 15.846384
_cell_angle_alpha 90.000000
_cell_angle_beta 90.000000
_cell_angle_gamma 90.000000
_cell_volume 1614.842954
_symmetry_space_group_name_H-M "P 2 2 21"
_symmetry_group_IT_number 17
_symmetry_cell_setting 'orthorhombic'
loop_
_space_group_symop_operation_xyz
x,y,z
-x,-y,1/2+z
x,-y,-z
-x,y,1/2-z
loop_
_atom_site_type_symbol
_atom_site_label
_atom_site_fract_x
_atom_site_fract_y
_atom_site_fract_z
Si Si1 0.463574 0.300595 0.342494
Si Si2 0.610749 0.699822 0.500000
Si Si3 0.997047 0.809826 0.844834
Si Si4 0.231161 0.309800 0.399701
Si Si5 0.231161 0.690201 0.399702
Si Si6 0.463574 0.300594 0.657506
Si Si7 0.857107 0.693440 0.500000
Si Si8 0.997047 0.809826 0.155166
O O1 0.500000 0.249204 0.250000
O O2 0.544416 0.249123 0.416847
O O3 0.341467 0.247784 0.359460
O O4 0.462186 0.500000 0.344757
O O5 0.611833 0.500000 0.500000
O O6 0.544417 0.750878 0.416847
O O7 0.734378 0.757742 0.500000
O O8 0.076619 0.740153 0.915975
O O9 0.000000 0.737828 0.750000
O O10 0.875404 0.786273 0.876172
O O11 0.024096 1.000000 0.838487
O O12 0.214776 0.500000 0.375038
O O13 0.246352 0.306600 0.500000
O O14 0.341467 0.752217 0.359461
O O15 0.124596 0.786273 0.376172
O O16 0.500000 0.249203 0.750000
O O17 0.849203 0.500000 0.500000
O O18 0.923381 0.740153 0.415975
O O19 0.000000 0.737829 0.250000
#
# Coordination Sequence:
#
# PCOD9310638 Si02
#       8
#     4   4   4   4   4   4   4   4
#     4   9  17  30  51  81 116 149 179 226 289 340
#     4   9  18  32  49  80 118 145 178 225 284 345
#     4  11  25  42  59  81 116 160 198 237 290 348
#     4  10  19  34  59  87 113 145 192 244 284 331
#     4  10  19  34  59  87 113 145 192 244 284 331
#     4   9  17  30  51  81 116 149 179 226 289 340
#     4  11  23  38  61  90 118 149 192 245 290 339
#     4  11  25  42  59  81 116 160 198 237 290 348
#
# _framework density 19.816168000000001
#
# number of rings (size 3 to 8) (size 9 to 14) (size 15 to 20)
#    0.000    2.000    2.500    1.125    3.500    2.000 
#    0.000    0.000    0.000    3.750    0.000    0.000 
#    0.000    0.000    0.000    0.000    0.000    0.000 
#
# Total GULP energy -178616.348789 kJ/mol
# GULP energy per Si atom -5581.760900 kJ/mol
# Density = 1.977107 g / cm^3
# Si number density = 19.816168 Si / 1000 Ang^3
#
#
#
# Elastic Constant Matrix: (Units=GPa)
#
#
# Indices 1 2 3 4 5 6 
#
# 1 117.8525 -9.5154 37.6327 0.0000 0.0000 0.0000
# 2 -9.5154 8.9599 1.5930 0.0000 0.0000 0.0000
# 3 37.6327 1.5930 110.6106 0.0000 0.0000 0.0000
# 4 0.0000 0.0000 0.0000 73.7822 0.0000 0.0000
# 5 0.0000 0.0000 0.0000 0.0000 34.3793 0.0000
# 6 0.0000 0.0000 0.0000 0.0000 0.0000 -20.7184
#
#
#
# Elastic Compliance Matrix: (Units=1/GPa)
#
#
# Indices 1 2 3 4 5 6 
#
# 1 0.010669 0.012006 -0.003803 0.000000 0.000000 0.000000
# 2 0.012006 0.125406 -0.005891 0.000000 0.000000 0.000000
# 3 -0.003803 -0.005891 0.010419 0.000000 0.000000 0.000000
# 4 0.000000 0.000000 0.000000 0.013553 0.000000 0.000000
# 5 0.000000 0.000000 0.000000 0.000000 0.029087 0.000000
# 6 0.000000 0.000000 0.000000 0.000000 0.000000 -0.048266
#
#
# Mechanical properties :
#
#
# Convention : Reuss Voigt Hill
#
# Bulk Modulus (GPa) = 6.61727 32.98264 19.79995
# Shear Modulus (GPa) = 26.79286 31.33612 29.06449
#
# Velocity S-wave (km/s) = 3.68104 3.98092 3.83391
# Velocity P-wave (km/s) = 4.62745 6.14905 5.44169
#
# Compressibility (1/GPa) = 0.15111978
#
# Stress axis : x y z
#
# Youngs Moduli (GPa) = 93.73076 7.97409 95.97523
#
# Poissons Ratio (x) = -0.09574 0.36497
# Poissons Ratio (y) = -1.12536 0.56538
# Poissons Ratio (z) = 0.35643 0.04697
#
# Static dielectric constant tensor:
#      x y z
#    x 1.821390 0.000000 0.000000 
#    y 0.000000 1.698980 0.000000 
#    z 0.000000 0.000000 1.703420 
# 
# From -- ./inp_files/8558.got.cif
#   From: 2010.05.17/outbox.cif.g08.bks.cpg/sg17_5_cif.got.tgz:8558.got - 2010.06.03 22:34:06.
