data_PCOD9310472
_publ_section_title
;
Structure prediction by ZEFSAII (Michael W. Deem and Ramdas Pophale) SiO2 
 PCOD9310472
Probable space group: P 2 2 21
;
_chemical_formula_sum "Si O2"
_cell_formula_units_Z 24
_cell_length_a 9.706077
_cell_length_b 16.059004
_cell_length_c 8.227074
_cell_angle_alpha 90.000000
_cell_angle_beta 90.000000
_cell_angle_gamma 90.000000
_cell_volume 1282.353443
_symmetry_space_group_name_H-M "P 2 2 21"
_symmetry_group_IT_number 17
_symmetry_cell_setting 'orthorhombic'
loop_
_space_group_symop_operation_xyz
x,y,z
-x,-y,1/2+z
x,-y,-z
-x,y,1/2-z
loop_
_atom_site_type_symbol
_atom_site_label
_atom_site_fract_x
_atom_site_fract_y
_atom_site_fract_z
Si Si1 0.846319 0.150166 0.403844
Si Si2 0.843715 0.390562 0.688301
Si Si3 0.348624 0.534814 0.679317
Si Si4 0.147052 0.655685 0.816871
Si Si5 0.831625 0.798419 0.242921
Si Si6 0.835996 0.907192 0.936777
O O1 0.855087 0.245279 0.341330
O O2 0.785697 0.157679 0.587092
O O3 0.780718 0.104036 0.247653
O O4 0.999298 0.111691 0.424739
O O5 0.743999 0.464941 0.734138
O O6 0.839531 0.381726 0.495320
O O7 0.797643 0.299764 0.756061
O O8 0.000000 0.405207 0.750000
O O9 0.500000 0.543653 0.750000
O O10 0.265425 0.620706 0.700985
O O11 0.639240 0.500000 0.000000
O O12 0.000000 0.629148 0.750000
O O13 0.000000 0.801089 0.250000
O O14 0.785915 0.844003 0.077992
O O15 0.815254 0.000000 0.000000
#
# Coordination Sequence:
#
# PCOD9310472 Si02
#       6
#     4   4   4   4   4   4
#     4   9  19  29  44  72 105 148 180 220 270 335
#     4  10  20  36  57  82 109 150 193 233 281 338
#     4  12  26  40  58  81 111 146 191 246 290 337
#     4  11  20  37  58  79 113 152 192 233 279 342
#     4   8  17  29  45  67 104 143 183 223 267 327
#     4  10  18  26  44  71 110 145 182 221 281 329
#
# _framework density 18.715589000000001
#
# number of rings (size 3 to 8) (size 9 to 14) (size 15 to 20)
#    0.000    2.000    1.667    4.000    9.333    0.000 
#    0.000    0.000    0.000    0.000    0.000    0.000 
#    0.000    2.667    0.333    0.000    0.000    0.000 
#
# Total GULP energy -133814.384666 kJ/mol
# GULP energy per Si atom -5575.599361 kJ/mol
# Density = 1.867299 g / cm^3
# Si number density = 18.715589 Si / 1000 Ang^3
#
#
#
# Elastic Constant Matrix: (Units=GPa)
#
#
# Indices 1 2 3 4 5 6 
#
# 1 51.0800 15.3800 9.4637 0.0000 0.0000 0.0000
# 2 15.3800 60.7181 24.2972 0.0000 0.0000 0.0000
# 3 9.4637 24.2972 93.3465 0.0000 0.0000 0.0000
# 4 0.0000 0.0000 0.0000 31.2318 0.0000 0.0000
# 5 0.0000 0.0000 0.0000 0.0000 16.7358 0.0000
# 6 0.0000 0.0000 0.0000 0.0000 0.0000 -4.5029
#
#
#
# Elastic Compliance Matrix: (Units=1/GPa)
#
#
# Indices 1 2 3 4 5 6 
#
# 1 0.021253 -0.005047 -0.000841 0.000000 0.000000 0.000000
# 2 -0.005047 0.019583 -0.004586 0.000000 0.000000 0.000000
# 3 -0.000841 -0.004586 0.011992 0.000000 0.000000 0.000000
# 4 0.000000 0.000000 0.000000 0.032019 0.000000 0.000000
# 5 0.000000 0.000000 0.000000 0.000000 0.059752 0.000000
# 6 0.000000 0.000000 0.000000 0.000000 0.000000 -0.222080
#
#
# Mechanical properties :
#
#
# Convention : Reuss Voigt Hill
#
# Bulk Modulus (GPa) = 31.36729 33.71402 32.54066
# Shear Modulus (GPa) = -108.91134 19.09319 -44.90907
#
# Velocity S-wave (km/s) = -7.63670 3.19748 -4.90384
# Velocity P-wave (km/s) = 7.80785 5.62893 3.82607
#
# Compressibility (1/GPa) = 0.03188034
#
# Stress axis : x y z
#
# Youngs Moduli (GPa) = 47.05325 51.06500 83.39160
#
# Poissons Ratio (x) = 0.25771 0.07013
# Poissons Ratio (y) = 0.23747 0.38240
# Poissons Ratio (z) = 0.03957 0.23416
#
# Static dielectric constant tensor:
#      x y z
#    x 1.609870 0.000000 0.000000 
#    y 0.000000 1.662490 0.000000 
#    z 0.000000 0.000000 1.701670 
# 
# From -- ./inp_files/4353.got.cif
#   From: 2010.05.17/outbox.cif.g08.bks.cpg/sg17_3_cif.got.tgz:4353.got - 2010.06.03 22:34:06.
