data_PCOD9310547
_publ_section_title
;
Structure prediction by ZEFSAII (Michael W. Deem and Ramdas Pophale) SiO2 
 PCOD9310547
Probable space group: P 2 2 21
;
_chemical_formula_sum "Si O2"
_cell_formula_units_Z 18
_cell_length_a 8.492375
_cell_length_b 8.338030
_cell_length_c 12.684176
_cell_angle_alpha 90.000000
_cell_angle_beta 90.000000
_cell_angle_gamma 90.000000
_cell_volume 898.162412
_symmetry_space_group_name_H-M "P 2 2 21"
_symmetry_group_IT_number 17
_symmetry_cell_setting 'orthorhombic'
loop_
_space_group_symop_operation_xyz
x,y,z
-x,-y,1/2+z
x,-y,-z
-x,y,1/2-z
loop_
_atom_site_type_symbol
_atom_site_label
_atom_site_fract_x
_atom_site_fract_y
_atom_site_fract_z
Si Si1 0.877437 0.500000 0.000000
Si Si2 0.883478 0.610163 0.669937
Si Si3 0.315584 0.681378 0.234525
Si Si4 0.181732 0.163073 0.558985
Si Si5 0.806340 0.825418 0.478088
O O1 0.782646 0.666378 0.000794
O O2 0.996944 0.496154 0.098958
O O3 0.769275 0.492139 0.733013
O O4 0.801124 0.722583 0.585034
O O5 0.000000 0.702015 0.750000
O O6 0.500000 0.663985 0.250000
O O7 0.244076 0.801152 0.323246
O O8 0.282478 0.746747 0.118289
O O9 0.990837 0.155822 0.554604
O O10 0.237173 0.000000 0.500000
O O11 0.740568 0.000000 0.500000
#
# Coordination Sequence:
#
# PCOD9310547 Si02
#       5
#     2   4   4   4   4
#     4  10  18  36  68  92 118 152 212 282 308 366
#     4  11  19  39  66  91 123 164 216 273 325 379
#     4  12  23  39  59  88 132 174 207 260 332 397
#     4  10  21  39  66  91 119 161 218 268 324 377
#     4  10  22  40  65  93 121 162 216 279 326 383
#
# _framework density 20.040918000000001
#
# number of rings (size 3 to 8) (size 9 to 14) (size 15 to 20)
#    0.000    1.333    6.667    0.667    0.000    6.222 
#    4.000    1.111    0.000    0.000    0.000    0.000 
#    0.000    0.000    0.000    0.000    0.000    0.000 
#
# Total GULP energy -100357.456436 kJ/mol
# GULP energy per Si atom -5575.414246 kJ/mol
# Density = 1.999530 g / cm^3
# Si number density = 20.040918 Si / 1000 Ang^3
#
#
#
# Elastic Constant Matrix: (Units=GPa)
#
#
# Indices 1 2 3 4 5 6 
#
# 1 51.0959 27.3704 52.7899 0.0000 0.0000 0.0000
# 2 27.3704 147.6010 52.9716 0.0000 0.0000 0.0000
# 3 52.7899 52.9716 110.7271 0.0000 0.0000 0.0000
# 4 0.0000 0.0000 0.0000 38.9532 0.0000 0.0000
# 5 0.0000 0.0000 0.0000 0.0000 14.3359 0.0000
# 6 0.0000 0.0000 0.0000 0.0000 0.0000 8.3333
#
#
#
# Elastic Compliance Matrix: (Units=1/GPa)
#
#
# Indices 1 2 3 4 5 6 
#
# 1 0.038623 -0.000668 -0.018094 0.000000 0.000000 0.000000
# 2 -0.000668 0.008191 -0.003600 0.000000 0.000000 0.000000
# 3 -0.018094 -0.003600 0.019380 0.000000 0.000000 0.000000
# 4 0.000000 0.000000 0.000000 0.025672 0.000000 0.000000
# 5 0.000000 0.000000 0.000000 0.000000 0.069755 0.000000
# 6 0.000000 0.000000 0.000000 0.000000 0.000000 0.120000
#
#
# Mechanical properties :
#
#
# Convention : Reuss Voigt Hill
#
# Bulk Modulus (GPa) = 46.57839 63.96531 55.27185
# Shear Modulus (GPa) = 14.99244 24.07730 19.53487
#
# Velocity S-wave (km/s) = 2.73809 3.46989 3.12548
# Velocity P-wave (km/s) = 5.76960 6.93110 6.37685
#
# Compressibility (1/GPa) = 0.02146918
#
# Stress axis : x y z
#
# Youngs Moduli (GPa) = 25.89128 122.08687 51.60006
#
# Poissons Ratio (x) = 0.08160 0.93365
# Poissons Ratio (y) = 0.01731 0.18575
# Poissons Ratio (z) = 0.46848 0.43949
#
# Static dielectric constant tensor:
#      x y z
#    x 1.684990 0.000000 0.000000 
#    y 0.000000 1.761740 0.000000 
#    z 0.000000 0.000000 1.759470 
# 
# From -- ./inp_files/6316.got.cif
#   From: 2010.05.17/outbox.cif.g08.bks.cpg/sg17_4_cif.got.tgz:6316.got - 2010.06.03 22:34:06.
