data_PCOD9310238
_publ_section_title
;
Structure prediction by ZEFSAII (Michael W. Deem and Ramdas Pophale) SiO2 
 PCOD9310238
Probable space group: P 2 2 2
;
_chemical_formula_sum "Si O2"
_cell_formula_units_Z 14
_cell_length_a 19.023351
_cell_length_b 5.164960
_cell_length_c 6.155895
_cell_angle_alpha 90.000000
_cell_angle_beta 90.000000
_cell_angle_gamma 90.000000
_cell_volume 604.846521
_symmetry_space_group_name_H-M "P 2 2 2"
_symmetry_group_IT_number 16
_symmetry_cell_setting 'orthorhombic'
loop_
_space_group_symop_operation_xyz
x,y,z
-x,-y,z
x,-y,-z
-x,y,-z
loop_
_atom_site_type_symbol
_atom_site_label
_atom_site_fract_x
_atom_site_fract_y
_atom_site_fract_z
Si Si1 0.000000 0.500000 0.500000
Si Si2 0.906874 0.250720 0.858913
Si Si3 0.400040 0.751150 0.654756
Si Si4 0.500000 0.500000 0.000000
Si Si5 0.241516 0.752395 0.651937
O O1 0.949994 0.309967 0.640349
O O2 0.823569 0.247977 0.812786
O O3 0.922216 0.500000 0.000000
O O4 0.924381 0.000000 0.000000
O O5 0.402469 0.500000 0.500000
O O6 0.320331 0.770667 0.745359
O O7 0.413859 0.000000 0.500000
O O8 0.453115 0.685705 0.847464
O O9 0.237711 0.500000 0.500000
O O10 0.232229 0.000000 0.500000
#
# Coordination Sequence:
#
# PCOD9310238 Si02
#       5
#     1   4   4   1   4
#     4  12  30  54  72 112 164 188 234 318 372 432
#     4  12  28  48  79 111 145 195 250 294 368 444
#     4  10  25  46  73 109 151 190 250 303 365 443
#     4  12  26  46  80 108 148 208 234 310 380 432
#     4  10  21  47  75 104 146 193 237 311 362 422
#
# _framework density 23.146369
#
# number of rings (size 3 to 8) (size 9 to 14) (size 15 to 20)
#    0.000    1.143    1.429    2.571    2.000    8.000 
#    0.000    0.000    0.000    0.000    0.000    0.000 
#    0.000    0.000    0.000    0.000    0.000    0.000 
#
# Total GULP energy -78433.052987 kJ/mol
# GULP energy per Si atom -5602.360928 kJ/mol
# Density = 2.309369 g / cm^3
# Si number density = 23.146369 Si / 1000 Ang^3
#
#
#
# Elastic Constant Matrix: (Units=GPa)
#
#
# Indices 1 2 3 4 5 6 
#
# 1 216.0987 63.2047 104.4916 0.0000 0.0000 0.0000
# 2 63.2047 216.6646 69.6345 0.0000 0.0000 0.0000
# 3 104.4916 69.6345 114.2912 0.0000 0.0000 0.0000
# 4 0.0000 0.0000 0.0000 33.9119 0.0000 0.0000
# 5 0.0000 0.0000 0.0000 0.0000 33.5200 0.0000
# 6 0.0000 0.0000 0.0000 0.0000 0.0000 7.9652
#
#
#
# Elastic Compliance Matrix: (Units=1/GPa)
#
#
# Indices 1 2 3 4 5 6 
#
# 1 0.008294 0.000022 -0.007596 0.000000 0.000000 0.000000
# 2 0.000022 0.005739 -0.003517 0.000000 0.000000 0.000000
# 3 -0.007596 -0.003517 0.017837 0.000000 0.000000 0.000000
# 4 0.000000 0.000000 0.000000 0.029488 0.000000 0.000000
# 5 0.000000 0.000000 0.000000 0.000000 0.029833 0.000000
# 6 0.000000 0.000000 0.000000 0.000000 0.000000 0.125546
#
#
# Mechanical properties :
#
#
# Convention : Reuss Voigt Hill
#
# Bulk Modulus (GPa) = 103.21799 113.52401 108.37100
# Shear Modulus (GPa) = 20.64832 35.72767 28.18800
#
# Velocity S-wave (km/s) = 2.99000 3.93307 3.49351
# Velocity P-wave (km/s) = 7.52400 8.35332 7.94948
#
# Compressibility (1/GPa) = 0.00968823
#
# Stress axis : x y z
#
# Youngs Moduli (GPa) = 120.56521 174.23656 56.06216
#
# Poissons Ratio (x) = -0.00381 0.42587
# Poissons Ratio (y) = -0.00264 0.19716
# Poissons Ratio (z) = 0.91586 0.61275
#
# Static dielectric constant tensor:
#      x y z
#    x 1.930830 0.000000 0.000000 
#    y 0.000000 1.808640 0.000000 
#    z 0.000000 0.000000 1.871070 
# 
# From -- ./inp_files/2554.got.cif
#   From: 2010.05.17/outbox.cif.g08.bks.cpg/sg16_2_cif.got.tgz:2554.got - 2010.06.03 22:28:35.
