data_PCOD9310909
_publ_section_title
;
Structure prediction by ZEFSAII (Michael W. Deem and Ramdas Pophale) SiO2 
 PCOD9310909
Probable space group: P 2 2 21
;
_chemical_formula_sum "Si O2"
_cell_formula_units_Z 32
_cell_length_a 7.178433
_cell_length_b 8.158875
_cell_length_c 23.788511
_cell_angle_alpha 90.000000
_cell_angle_beta 90.000000
_cell_angle_gamma 90.000000
_cell_volume 1393.244026
_symmetry_space_group_name_H-M "P 2 2 21"
_symmetry_group_IT_number 17
_symmetry_cell_setting 'orthorhombic'
loop_
_space_group_symop_operation_xyz
x,y,z
-x,-y,1/2+z
x,-y,-z
-x,y,1/2-z
loop_
_atom_site_type_symbol
_atom_site_label
_atom_site_fract_x
_atom_site_fract_y
_atom_site_fract_z
Si Si1 0.215351 0.246408 0.204654
Si Si2 0.771986 0.946344 0.595892
Si Si3 0.140752 0.452173 0.858376
Si Si4 0.383759 0.082869 0.618863
Si Si5 0.448943 0.392377 0.683727
Si Si6 0.807241 0.354681 0.468818
Si Si7 0.338966 0.255219 0.324504
Si Si8 0.048059 0.206050 0.565256
O O1 0.158069 0.118997 0.156519
O O2 0.119966 0.422087 0.193154
O O3 0.438953 0.254981 0.190530
O O4 0.783905 0.208079 0.229846
O O5 0.701685 0.801813 0.554838
O O6 0.599325 0.065018 0.604253
O O7 0.940268 0.035321 0.566129
O O8 0.357866 0.403941 0.851135
O O9 0.114154 0.569895 0.911812
O O10 0.020482 0.296972 0.876981
O O11 0.369760 0.211566 0.670794
O O12 0.263945 0.167724 0.570277
O O13 0.317149 0.896982 0.633043
O O14 0.500000 0.408850 0.750000
O O15 0.320091 0.548096 0.664772
O O16 0.696853 0.500000 0.500000
O O17 0.968208 0.303094 0.512138
#
# Coordination Sequence:
#
# PCOD9310909 Si02
#       8
#     4   4   4   4   4   4   4   4
#     4   8  15  32  61  88 122 176 216 262 332 393
#     4  10  20  39  68  90 130 174 217 287 342 414
#     4   9  17  37  67  90 127 180 220 272 344 406
#     4  11  25  38  66 102 139 176 228 284 344 417
#     4  11  20  37  70 102 139 187 229 278 346 419
#     4   9  20  40  72  90 122 182 230 281 358 406
#     4   9  17  35  58  94 133 176 224 268 331 408
#     4  11  22  41  62  96 134 170 229 287 346 410
#
# _framework density 22.967979
#
# number of rings (size 3 to 8) (size 9 to 14) (size 15 to 20)
#    0.000    2.250    3.750    1.125    3.500    0.000 
#    6.750    5.000    8.250    0.000    0.000    0.000 
#    0.000    0.000    0.000    0.000    0.000    0.000 
#
# Total GULP energy -178259.731804 kJ/mol
# GULP energy per Si atom -5570.616619 kJ/mol
# Density = 2.291570 g / cm^3
# Si number density = 22.967979 Si / 1000 Ang^3
#
#
#
# Elastic Constant Matrix: (Units=GPa)
#
#
# Indices 1 2 3 4 5 6 
#
# 1 54.3991 24.0339 23.3211 0.0000 0.0000 0.0000
# 2 24.0339 112.7291 27.8845 0.0000 0.0000 0.0000
# 3 23.3211 27.8845 73.5006 0.0000 0.0000 0.0000
# 4 0.0000 0.0000 0.0000 32.8523 0.0000 0.0000
# 5 0.0000 0.0000 0.0000 0.0000 18.6174 0.0000
# 6 0.0000 0.0000 0.0000 0.0000 0.0000 10.5122
#
#
#
# Elastic Compliance Matrix: (Units=1/GPa)
#
#
# Indices 1 2 3 4 5 6 
#
# 1 0.022350 -0.003323 -0.005831 0.000000 0.000000 0.000000
# 2 -0.003323 0.010283 -0.002847 0.000000 0.000000 0.000000
# 3 -0.005831 -0.002847 0.016536 0.000000 0.000000 0.000000
# 4 0.000000 0.000000 0.000000 0.030439 0.000000 0.000000
# 5 0.000000 0.000000 0.000000 0.000000 0.053713 0.000000
# 6 0.000000 0.000000 0.000000 0.000000 0.000000 0.095128
#
#
# Mechanical properties :
#
#
# Convention : Reuss Voigt Hill
#
# Bulk Modulus (GPa) = 39.73323 43.45642 41.59482
# Shear Modulus (GPa) = 19.16880 23.42234 21.29557
#
# Velocity S-wave (km/s) = 2.89206 3.19687 3.04827
# Velocity P-wave (km/s) = 5.33750 5.70860 5.52617
#
# Compressibility (1/GPa) = 0.02516785
#
# Stress axis : x y z
#
# Youngs Moduli (GPa) = 44.74180 97.24337 60.47574
#
# Poissons Ratio (x) = 0.32312 0.35263
# Poissons Ratio (y) = 0.14867 0.17218
# Poissons Ratio (z) = 0.26089 0.27686
#
# Static dielectric constant tensor:
#      x y z
#    x 1.881630 0.000000 0.000000 
#    y 0.000000 1.969620 0.000000 
#    z 0.000000 0.000000 1.887400 
# 
# From -- ./inp_files/11190.got.cif
#   From: 2010.05.17/outbox.cif.g08.bks.cpg/sg17_6_cif.got.tgz:11190.got - 2010.06.03 22:34:06.
