data_PCOD9310173
_publ_section_title
;
Structure prediction by ZEFSAII (Michael W. Deem and Ramdas Pophale) SiO2 
 PCOD9310173
Probable space group: P 2 2 2
;
_chemical_formula_sum "Si O2"
_cell_formula_units_Z 20
_cell_length_a 5.127814
_cell_length_b 14.941560
_cell_length_c 12.725318
_cell_angle_alpha 90.000000
_cell_angle_beta 90.000000
_cell_angle_gamma 90.000000
_cell_volume 974.982568
_symmetry_space_group_name_H-M "P 2 2 2"
_symmetry_group_IT_number 16
_symmetry_cell_setting 'orthorhombic'
loop_
_space_group_symop_operation_xyz
x,y,z
-x,-y,z
x,-y,-z
-x,y,-z
loop_
_atom_site_type_symbol
_atom_site_label
_atom_site_fract_x
_atom_site_fract_y
_atom_site_fract_z
Si Si1 0.974639 0.844070 0.884987
Si Si2 0.525210 0.733130 0.160254
Si Si3 0.258135 0.458512 0.118140
Si Si4 0.915936 0.902056 0.656020
Si Si5 0.571515 0.789230 0.389462
O O1 0.756571 0.763136 0.885311
O O2 0.895897 0.900450 0.783323
O O3 0.265689 0.810139 0.861945
O O4 0.000000 0.885720 0.000000
O O5 0.668281 0.645277 0.115024
O O6 0.509581 0.729481 0.286881
O O7 0.500000 0.500000 0.178234
O O8 0.000000 0.500000 0.167001
O O9 0.254332 0.500000 0.000000
O O10 0.635595 0.870880 0.616008
O O11 0.137697 0.829979 0.621871
O O12 0.000000 0.000000 0.621747
O O13 0.500000 0.744115 0.500000
#
# Coordination Sequence:
#
# PCOD9310173 Si02
#       5
#     4   4   4   4   4
#     4  10  21  33  54  76 108 155 182 215 269 335
#     4  10  21  36  52  79 113 140 182 225 266 330
#     4  10  21  32  50  80 110 139 167 216 271 324
#     4  10  21  36  53  82 113 139 187 239 276 324
#     4  10  21  37  57  80 105 146 188 228 283 326
#
# _framework density 20.513186999999999
#
# number of rings (size 3 to 8) (size 9 to 14) (size 15 to 20)
#    0.000    2.000    0.000    3.000    8.400    2.800 
#    0.000    0.000    0.000    7.800    0.000    1.400 
#    0.000    0.000    0.000    0.000    0.000    0.000 
#
# Total GULP energy -111413.894379 kJ/mol
# GULP energy per Si atom -5570.694719 kJ/mol
# Density = 2.046650 g / cm^3
# Si number density = 20.513187 Si / 1000 Ang^3
#
#
#
# Elastic Constant Matrix: (Units=GPa)
#
#
# Indices 1 2 3 4 5 6 
#
# 1 133.1022 -4.0942 4.8473 0.0000 0.0000 0.0000
# 2 -4.0942 44.4802 7.7935 0.0000 0.0000 0.0000
# 3 4.8473 7.7935 136.1345 0.0000 0.0000 0.0000
# 4 0.0000 0.0000 0.0000 -3.1224 0.0000 0.0000
# 5 0.0000 0.0000 0.0000 0.0000 8.0764 0.0000
# 6 0.0000 0.0000 0.0000 0.0000 0.0000 22.7242
#
#
#
# Elastic Compliance Matrix: (Units=1/GPa)
#
#
# Indices 1 2 3 4 5 6 
#
# 1 0.007547 0.000749 -0.000312 0.000000 0.000000 0.000000
# 2 0.000749 0.022784 -0.001331 0.000000 0.000000 0.000000
# 3 -0.000312 -0.001331 0.007433 0.000000 0.000000 0.000000
# 4 0.000000 0.000000 0.000000 -0.320266 0.000000 0.000000
# 5 0.000000 0.000000 0.000000 0.000000 0.123818 0.000000
# 6 0.000000 0.000000 0.000000 0.000000 0.000000 0.044006
#
#
# Mechanical properties :
#
#
# Convention : Reuss Voigt Hill
#
# Bulk Modulus (GPa) = 27.79495 36.75669 32.27582
# Shear Modulus (GPa) = -49.55477 25.88033 -11.83722
#
# Velocity S-wave (km/s) = -4.92036 3.55582 -2.40480
# Velocity P-wave (km/s) = 4.32443 5.90050 2.83859
#
# Compressibility (1/GPa) = 0.03597775
#
# Stress axis : x y z
#
# Youngs Moduli (GPa) = 132.49561 43.89028 134.53573
#
# Poissons Ratio (x) = -0.03289 0.04193
# Poissons Ratio (y) = -0.09928 0.17907
# Poissons Ratio (z) = 0.04129 0.05842
#
# Static dielectric constant tensor:
#      x y z
#    x 1.755130 0.000000 0.000000 
#    y 0.000000 1.836940 0.000000 
#    z 0.000000 0.000000 1.811070 
# 
# From -- ./inp_files/1426.got.cif
#   From: 2010.05.17/outbox.cif.g08.bks.cpg/sg16_1_cif.got.tgz:1426.got - 2010.06.03 22:28:35.
