data_PCOD9310177
_publ_section_title
;
Structure prediction by ZEFSAII (Michael W. Deem and Ramdas Pophale) SiO2 
 PCOD9310177
Probable space group: P 2 2 2
;
_chemical_formula_sum "Si O2"
_cell_formula_units_Z 24
_cell_length_a 6.703014
_cell_length_b 9.222133
_cell_length_c 17.734024
_cell_angle_alpha 90.000000
_cell_angle_beta 90.000000
_cell_angle_gamma 90.000000
_cell_volume 1096.247964
_symmetry_space_group_name_H-M "P 2 2 2"
_symmetry_group_IT_number 16
_symmetry_cell_setting 'orthorhombic'
loop_
_space_group_symop_operation_xyz
x,y,z
-x,-y,z
x,-y,-z
-x,y,-z
loop_
_atom_site_type_symbol
_atom_site_label
_atom_site_fract_x
_atom_site_fract_y
_atom_site_fract_z
Si Si1 0.035242 0.175633 0.087733
Si Si2 0.860250 0.123382 0.688659
Si Si3 0.199163 0.695517 0.222882
Si Si4 0.408815 0.140877 0.172014
Si Si5 0.463287 0.735354 0.585880
Si Si6 0.222060 0.538472 0.358016
O O1 0.259755 0.214854 0.113705
O O2 0.893930 0.273481 0.140843
O O3 0.000000 0.000000 0.101125
O O4 0.000000 0.200548 0.000000
O O5 0.736971 0.078829 0.762805
O O6 0.685125 0.160426 0.630531
O O7 0.021325 0.238665 0.722669
O O8 0.000000 0.000000 0.656475
O O9 0.418723 0.766983 0.212641
O O10 0.236023 0.542886 0.266338
O O11 0.500000 0.000000 0.132728
O O12 0.500000 0.775132 0.500000
O O13 0.343705 0.585825 0.599727
O O14 0.679284 0.691901 0.619064
O O15 0.000000 0.500000 0.380658
#
# Coordination Sequence:
#
# PCOD9310177 Si02
#       6
#     4   4   4   4   4   4
#     4  10  21  34  52  91 135 172 225 283 346 419
#     4  11  21  37  64  94 125 168 224 278 339 431
#     4  11  20  36  61  91 123 170 225 272 345 408
#     4  11  18  34  60  87 127 174 222 275 332 413
#     4  11  25  41  62  99 131 164 220 287 355 424
#     4  11  22  40  66  94 121 168 221 285 342 408
#
# _framework density 21.892856999999999
#
# number of rings (size 3 to 8) (size 9 to 14) (size 15 to 20)
#    0.000    1.167    6.667    2.000    0.000    2.000 
#    0.000    0.000    0.000   12.000    0.000    0.000 
#    0.000    0.000    0.000    0.000    0.000    0.000 
#
# Total GULP energy -133616.257278 kJ/mol
# GULP energy per Si atom -5567.344053 kJ/mol
# Density = 2.184303 g / cm^3
# Si number density = 21.892857 Si / 1000 Ang^3
#
#
#
# Elastic Constant Matrix: (Units=GPa)
#
#
# Indices 1 2 3 4 5 6 
#
# 1 155.8704 21.7506 48.7728 0.0000 0.0000 0.0000
# 2 21.7506 15.6502 17.5581 0.0000 0.0000 0.0000
# 3 48.7728 17.5581 151.6058 0.0000 0.0000 0.0000
# 4 0.0000 0.0000 0.0000 22.8832 0.0000 0.0000
# 5 0.0000 0.0000 0.0000 0.0000 29.2215 0.0000
# 6 0.0000 0.0000 0.0000 0.0000 0.0000 36.0930
#
#
#
# Elastic Compliance Matrix: (Units=1/GPa)
#
#
# Indices 1 2 3 4 5 6 
#
# 1 0.008255 -0.009762 -0.001525 0.000000 0.000000 0.000000
# 2 -0.009762 0.084982 -0.006702 0.000000 0.000000 0.000000
# 3 -0.001525 -0.006702 0.007863 0.000000 0.000000 0.000000
# 4 0.000000 0.000000 0.000000 0.043700 0.000000 0.000000
# 5 0.000000 0.000000 0.000000 0.000000 0.034221 0.000000
# 6 0.000000 0.000000 0.000000 0.000000 0.000000 0.027706
#
#
# Mechanical properties :
#
#
# Convention : Reuss Voigt Hill
#
# Bulk Modulus (GPa) = 15.35553 55.47661 35.41607
# Shear Modulus (GPa) = 18.90981 33.30920 26.10951
#
# Velocity S-wave (km/s) = 2.94214 3.90483 3.45716
# Velocity P-wave (km/s) = 4.30938 6.76205 5.66992
#
# Compressibility (1/GPa) = 0.06512312
#
# Stress axis : x y z
#
# Youngs Moduli (GPa) = 121.13895 11.76713 127.18001
#
# Poissons Ratio (x) = 0.11487 0.19397
# Poissons Ratio (y) = 1.18252 0.85233
# Poissons Ratio (z) = 0.18476 0.07886
#
# Static dielectric constant tensor:
#      x y z
#    x 1.922880 0.000000 0.000000 
#    y 0.000000 1.902470 0.000000 
#    z 0.000000 0.000000 1.805140 
# 
# From -- ./inp_files/8617.got.cif
#   From: 2010.05.17/outbox.cif.g08.bks.cpg/sg16_5_cif.got.tgz:8617.got - 2010.06.03 22:28:35.
