data_PCOD9310553
_publ_section_title
;
Structure prediction by ZEFSAII (Michael W. Deem and Ramdas Pophale) SiO2 
 PCOD9310553
Probable space group: P 2 2 21
;
_chemical_formula_sum "Si O2"
_cell_formula_units_Z 20
_cell_length_a 10.680963
_cell_length_b 9.231707
_cell_length_c 10.945389
_cell_angle_alpha 90.000000
_cell_angle_beta 90.000000
_cell_angle_gamma 90.000000
_cell_volume 1079.253893
_symmetry_space_group_name_H-M "P 2 2 21"
_symmetry_group_IT_number 17
_symmetry_cell_setting 'orthorhombic'
loop_
_space_group_symop_operation_xyz
x,y,z
-x,-y,1/2+z
x,-y,-z
-x,y,1/2-z
loop_
_atom_site_type_symbol
_atom_site_label
_atom_site_fract_x
_atom_site_fract_y
_atom_site_fract_z
Si Si1 0.171622 0.257080 0.145999
Si Si2 0.378999 0.250526 0.830984
Si Si3 0.674499 0.500000 0.500000
Si Si4 0.132642 0.658383 0.323255
Si Si5 0.288194 0.000000 0.000000
Si Si6 0.119130 0.680811 0.601577
O O1 0.243310 0.393484 0.085613
O O2 0.193907 0.239583 0.290694
O O3 0.027031 0.289339 0.121570
O O4 0.207351 0.110338 0.079469
O O5 0.500000 0.233256 0.750000
O O6 0.248836 0.287025 0.758961
O O7 0.363011 0.106841 0.911398
O O8 0.401422 0.389985 0.916782
O O9 0.143102 0.722037 0.461002
O O10 0.138658 0.487492 0.358826
O O11 0.000000 0.682349 0.250000
#
# Coordination Sequence:
#
# PCOD9310553 Si02
#       6
#     4   4   2   4   2   4
#     4  10  18  38  60  94 128 171 202 255 319 379
#     4  11  24  44  65  93 124 170 213 261 319 381
#     4  10  18  38  66  86 120 158 212 258 324 364
#     4  11  19  36  66  98 127 158 205 273 320 361
#     4  10  24  44  62  82 136 180 208 240 330 394
#     4  10  19  32  62  98 129 153 211 264 312 364
#
# _framework density 18.531319
#
# number of rings (size 3 to 8) (size 9 to 14) (size 15 to 20)
#    0.000    1.600    4.000    3.600    0.000    1.600 
#   14.400    2.000    0.000    0.000    0.000    0.000 
#    0.000    0.000    0.000    0.000    0.000    0.000 
#
# Total GULP energy -111430.961102 kJ/mol
# GULP energy per Si atom -5571.548055 kJ/mol
# Density = 1.848914 g / cm^3
# Si number density = 18.531319 Si / 1000 Ang^3
#
#
#
# Elastic Constant Matrix: (Units=GPa)
#
#
# Indices 1 2 3 4 5 6 
#
# 1 72.3566 40.6844 43.9064 0.0000 0.0000 0.0000
# 2 40.6844 119.5401 56.7926 0.0000 0.0000 0.0000
# 3 43.9064 56.7926 155.5828 0.0000 0.0000 0.0000
# 4 0.0000 0.0000 0.0000 23.5832 0.0000 0.0000
# 5 0.0000 0.0000 0.0000 0.0000 17.2162 0.0000
# 6 0.0000 0.0000 0.0000 0.0000 0.0000 0.3104
#
#
#
# Elastic Compliance Matrix: (Units=1/GPa)
#
#
# Indices 1 2 3 4 5 6 
#
# 1 0.018583 -0.004637 -0.003551 0.000000 0.000000 0.000000
# 2 -0.004637 0.011278 -0.002808 0.000000 0.000000 0.000000
# 3 -0.003551 -0.002808 0.008455 0.000000 0.000000 0.000000
# 4 0.000000 0.000000 0.000000 0.042403 0.000000 0.000000
# 5 0.000000 0.000000 0.000000 0.000000 0.058085 0.000000
# 6 0.000000 0.000000 0.000000 0.000000 0.000000 3.222143
#
#
# Mechanical properties :
#
#
# Convention : Reuss Voigt Hill
#
# Bulk Modulus (GPa) = 61.26777 70.02735 65.64756
# Shear Modulus (GPa) = 1.47563 21.96171 11.71867
#
# Velocity S-wave (km/s) = 0.89332 3.44628 2.51743
# Velocity P-wave (km/s) = 5.84787 7.32847 6.62963
#
# Compressibility (1/GPa) = 0.01632180
#
# Stress axis : x y z
#
# Youngs Moduli (GPa) = 53.81297 88.67036 118.27719
#
# Poissons Ratio (x) = 0.41119 0.42006
# Poissons Ratio (y) = 0.24954 0.33213
# Poissons Ratio (z) = 0.19111 0.24899
#
# Static dielectric constant tensor:
#      x y z
#    x 1.614050 0.000000 0.000000 
#    y 0.000000 1.652010 0.000000 
#    z 0.000000 0.000000 1.739960 
# 
# From -- ./inp_files/6446.got.cif
#   From: 2010.05.17/outbox.cif.g08.bks.cpg/sg17_4_cif.got.tgz:6446.got - 2010.06.03 22:34:06.
