data_PCOD9310191
_publ_section_title
;
Structure prediction by ZEFSAII (Michael W. Deem and Ramdas Pophale) SiO2 
 PCOD9310191
Probable space group: P 2 2 2
;
_chemical_formula_sum "Si O2"
_cell_formula_units_Z 19
_cell_length_a 15.156771
_cell_length_b 9.198853
_cell_length_c 5.819853
_cell_angle_alpha 90.000000
_cell_angle_beta 90.000000
_cell_angle_gamma 90.000000
_cell_volume 811.432471
_symmetry_space_group_name_H-M "P 2 2 2"
_symmetry_group_IT_number 16
_symmetry_cell_setting 'orthorhombic'
loop_
_space_group_symop_operation_xyz
x,y,z
-x,-y,z
x,-y,-z
-x,y,-z
loop_
_atom_site_type_symbol
_atom_site_label
_atom_site_fract_x
_atom_site_fract_y
_atom_site_fract_z
Si Si1 0.754641 0.638247 0.630251
Si Si2 0.198975 0.833710 0.978701
Si Si3 0.378479 0.500000 0.000000
Si Si4 0.031441 0.171590 0.254452
Si Si5 0.500000 0.000000 0.500000
Si Si6 0.375213 0.773536 0.744746
O O1 0.796593 0.500000 0.500000
O O2 0.687329 0.565705 0.811709
O O3 0.688332 0.724859 0.463929
O O4 0.814176 0.742717 0.788326
O O5 0.135934 0.790307 0.767818
O O6 0.302456 0.829084 0.924498
O O7 0.172900 0.000000 0.000000
O O8 0.422024 0.632603 0.858471
O O9 0.000000 0.231252 0.500000
O O10 0.000000 0.000000 0.260138
O O11 0.000000 0.222685 0.000000
O O12 0.440907 0.895451 0.658049
#
# Coordination Sequence:
#
# PCOD9310191 Si02
#       6
#     4   4   2   4   1   4
#     4   9  19  38  63  91 125 174 235 285 342 435
#     4  11  21  36  62  96 133 181 226 289 366 436
#     4   8  18  42  63  88 117 172 240 272 349 434
#     4  10  21  36  56  95 149 174 219 283 367 452
#     4  12  24  40  60 100 142 176 220 316 370 408
#     4  10  22  39  63  91 134 177 229 291 361 427
#
# _framework density 23.415379000000001
#
# number of rings (size 3 to 8) (size 9 to 14) (size 15 to 20)
#    0.000    2.105    2.105    1.263    2.947    1.684 
#    0.000   18.947    0.000    0.000    0.000   33.895 
#    0.000    0.000    0.000    0.000    0.000    0.000 
#
# Total GULP energy -105916.133728 kJ/mol
# GULP energy per Si atom -5574.533354 kJ/mol
# Density = 2.336208 g / cm^3
# Si number density = 23.415379 Si / 1000 Ang^3
#
#
#
# Elastic Constant Matrix: (Units=GPa)
#
#
# Indices 1 2 3 4 5 6 
#
# 1 103.9727 49.7841 48.7824 0.0000 0.0000 0.0000
# 2 49.7841 137.9267 66.5174 0.0000 0.0000 0.0000
# 3 48.7824 66.5174 158.0686 0.0000 0.0000 0.0000
# 4 0.0000 0.0000 0.0000 44.4859 0.0000 0.0000
# 5 0.0000 0.0000 0.0000 0.0000 39.6656 0.0000
# 6 0.0000 0.0000 0.0000 0.0000 0.0000 -13.4419
#
#
#
# Elastic Compliance Matrix: (Units=1/GPa)
#
#
# Indices 1 2 3 4 5 6 
#
# 1 0.012326 -0.003280 -0.002424 0.000000 0.000000 0.000000
# 2 -0.003280 0.009969 -0.003183 0.000000 0.000000 0.000000
# 3 -0.002424 -0.003183 0.008414 0.000000 0.000000 0.000000
# 4 0.000000 0.000000 0.000000 0.022479 0.000000 0.000000
# 5 0.000000 0.000000 0.000000 0.000000 0.025211 0.000000
# 6 0.000000 0.000000 0.000000 0.000000 0.000000 -0.074394
#
#
# Mechanical properties :
#
#
# Convention : Reuss Voigt Hill
#
# Bulk Modulus (GPa) = 77.30712 81.12623 79.21667
# Shear Modulus (GPa) = 191.65501 29.80087 110.72794
#
# Velocity S-wave (km/s) = 9.05692 3.57137 6.88413
# Velocity P-wave (km/s) = 11.93556 7.19222 9.85357
#
# Compressibility (1/GPa) = 0.01293542
#
# Stress axis : x y z
#
# Youngs Moduli (GPa) = 81.13220 100.30946 118.85360
#
# Poissons Ratio (x) = 0.32902 0.28805
# Poissons Ratio (y) = 0.26612 0.37830
# Poissons Ratio (z) = 0.19663 0.31927
#
# Static dielectric constant tensor:
#      x y z
#    x 1.927810 0.000000 0.000000 
#    y 0.000000 1.925620 0.000000 
#    z 0.000000 0.000000 2.021420 
# 
# From -- ./inp_files/2294.got.cif
#   From: 2010.05.17/outbox.cif.g08.bks.cpg/sg16_2_cif.got.tgz:2294.got - 2010.06.03 22:28:35.
