data_PCOD9310294
_publ_section_title
;
Structure prediction by ZEFSAII (Michael W. Deem and Ramdas Pophale) SiO2 
 PCOD9310294
Probable space group: P 2 2 2
;
_chemical_formula_sum "Si O2"
_cell_formula_units_Z 24
_cell_length_a 16.104827
_cell_length_b 15.163981
_cell_length_c 5.213830
_cell_angle_alpha 90.000000
_cell_angle_beta 90.000000
_cell_angle_gamma 90.000000
_cell_volume 1273.286581
_symmetry_space_group_name_H-M "P 2 2 2"
_symmetry_group_IT_number 16
_symmetry_cell_setting 'orthorhombic'
loop_
_space_group_symop_operation_xyz
x,y,z
-x,-y,z
x,-y,-z
-x,y,-z
loop_
_atom_site_type_symbol
_atom_site_label
_atom_site_fract_x
_atom_site_fract_y
_atom_site_fract_z
Si Si1 0.095640 0.040365 0.753311
Si Si2 0.311054 0.668337 0.964212
Si Si3 0.155741 0.237919 0.840731
Si Si4 0.893895 0.500000 0.500000
Si Si5 0.080695 0.309561 0.358328
Si Si6 0.799207 0.500000 0.000000
Si Si7 0.599340 0.605027 0.522219
O O1 0.114107 0.143135 0.781506
O O2 0.133583 0.000000 0.500000
O O3 0.000000 0.000000 0.753058
O O4 0.137394 0.000000 0.000000
O O5 0.248856 0.747879 0.045185
O O6 0.367407 0.640891 0.206671
O O7 0.251703 0.584352 0.912206
O O8 0.364332 0.666749 0.704570
O O9 0.152305 0.284874 0.561955
O O10 0.099530 0.278012 0.072462
O O11 0.932725 0.585377 0.361962
O O12 0.845617 0.534869 0.748010
O O13 0.000000 0.269933 0.500000
O O14 0.623680 0.500000 0.500000
O O15 0.500000 0.606801 0.500000
#
# Coordination Sequence:
#
# PCOD9310294 Si02
#       7
#     4   4   4   2   4   2   4
#     4  10  23  41  63  84 113 146 190 252 323 388
#     4  12  21  36  57  81 121 155 206 259 287 355
#     4  12  25  39  60  90 108 156 209 252 310 373
#     4  12  21  40  48  76 113 162 206 256 299 338
#     4  12  25  36  55  79 117 152 208 258 290 353
#     4  12  20  34  56  78 112 160 210 254 308 330
#     4  11  22  35  56  86 121 167 209 242 293 352
#
# _framework density 18.848860999999999
#
# number of rings (size 3 to 8) (size 9 to 14) (size 15 to 20)
#    0.000    0.500    5.000    4.250    7.000    1.333 
#    0.000    2.500    0.000    0.000    0.000    0.000 
#    0.000   10.000    0.000    0.000    0.000    0.000 
#
# Total GULP energy -133628.436585 kJ/mol
# GULP energy per Si atom -5567.851524 kJ/mol
# Density = 1.880596 g / cm^3
# Si number density = 18.848861 Si / 1000 Ang^3
#
#
#
# Elastic Constant Matrix: (Units=GPa)
#
#
# Indices 1 2 3 4 5 6 
#
# 1 60.3063 17.0244 12.8161 0.0000 0.0000 0.0000
# 2 17.0244 120.4672 29.8833 0.0000 0.0000 0.0000
# 3 12.8161 29.8833 137.1601 0.0000 0.0000 0.0000
# 4 0.0000 0.0000 0.0000 29.8637 0.0000 0.0000
# 5 0.0000 0.0000 0.0000 0.0000 -59.4187 0.0000
# 6 0.0000 0.0000 0.0000 0.0000 0.0000 -4.3901
#
#
#
# Elastic Compliance Matrix: (Units=1/GPa)
#
#
# Indices 1 2 3 4 5 6 
#
# 1 0.017442 -0.002178 -0.001155 0.000000 0.000000 0.000000
# 2 -0.002178 0.009047 -0.001768 0.000000 0.000000 0.000000
# 3 -0.001155 -0.001768 0.007784 0.000000 0.000000 0.000000
# 4 0.000000 0.000000 0.000000 0.033485 0.000000 0.000000
# 5 0.000000 0.000000 0.000000 0.000000 -0.016830 0.000000
# 6 0.000000 0.000000 0.000000 0.000000 0.000000 -0.227787
#
#
# Mechanical properties :
#
#
# Convention : Reuss Voigt Hill
#
# Bulk Modulus (GPa) = 41.54342 48.59790 45.07066
# Shear Modulus (GPa) = -31.51949 10.42499 -10.54725
#
# Velocity S-wave (km/s) = -4.09372 2.35432 -2.36809
# Velocity P-wave (km/s) = 0.50653 5.76449 4.06034
#
# Compressibility (1/GPa) = 0.02407120
#
# Stress axis : x y z
#
# Youngs Moduli (GPa) = 57.33132 110.52971 128.47196
#
# Poissons Ratio (x) = 0.24078 0.14841
# Poissons Ratio (y) = 0.12489 0.22709
# Poissons Ratio (z) = 0.06623 0.19537
#
# Static dielectric constant tensor:
#      x y z
#    x 1.744750 0.000000 0.000000 
#    y 0.000000 2.646500 0.000000 
#    z 0.000000 0.000000 1.682370 
# 
# From -- ./inp_files/2032.got.cif
#   From: 2010.05.17/outbox.cif.g08.bks.cpg/sg16_2_cif.got.tgz:2032.got - 2010.06.03 22:28:35.
