data_PCOD9310303
_publ_section_title
;
Structure prediction by ZEFSAII (Michael W. Deem and Ramdas Pophale) SiO2 
 PCOD9310303
Probable space group: P 2 2 2
;
_chemical_formula_sum "Si O2"
_cell_formula_units_Z 19
_cell_length_a 8.707164
_cell_length_b 11.389203
_cell_length_c 9.227898
_cell_angle_alpha 90.000000
_cell_angle_beta 90.000000
_cell_angle_gamma 90.000000
_cell_volume 915.109036
_symmetry_space_group_name_H-M "P 2 2 2"
_symmetry_group_IT_number 16
_symmetry_cell_setting 'orthorhombic'
loop_
_space_group_symop_operation_xyz
x,y,z
-x,-y,z
x,-y,-z
-x,y,-z
loop_
_atom_site_type_symbol
_atom_site_label
_atom_site_fract_x
_atom_site_fract_y
_atom_site_fract_z
Si Si1 0.655101 0.793185 0.332413
Si Si2 0.199300 0.500000 0.000000
Si Si3 0.065005 0.277416 0.151579
Si Si4 0.853691 0.667276 0.582774
Si Si5 0.396470 0.611200 0.228017
Si Si6 0.500000 0.000000 0.500000
O O1 0.782498 0.787407 0.206738
O O2 0.750461 0.739281 0.468675
O O3 0.505195 0.718905 0.277520
O O4 0.598162 0.916625 0.394167
O O5 0.110456 0.585440 0.885202
O O6 0.301313 0.399178 0.921087
O O7 0.934153 0.270379 0.277009
O O8 0.000000 0.230945 0.000000
O O9 0.730518 0.582625 0.651581
O O10 0.000000 0.620963 0.500000
O O11 0.500000 0.500000 0.217985
#
# Coordination Sequence:
#
# PCOD9310303 Si02
#       6
#     4   2   4   4   4   1
#     4  11  25  45  74 100 135 187 238 302 350 415
#     4  12  24  38  68 104 152 194 212 274 348 432
#     4  11  23  42  68 103 146 188 226 277 354 435
#     4  10  23  43  61  99 145 184 235 285 340 423
#     4  12  23  40  64 105 145 185 231 280 352 423
#     4  12  24  52  76  98 128 180 246 312 364 396
#
# _framework density 20.762553
#
# number of rings (size 3 to 8) (size 9 to 14) (size 15 to 20)
#    0.000    0.842    6.316    0.632    0.000    1.684 
#    3.789    4.737    0.000   13.895    0.000    0.000 
#    0.000    0.000    0.000    0.000    0.000    0.000 
#
# Total GULP energy -105786.123343 kJ/mol
# GULP energy per Si atom -5567.690702 kJ/mol
# Density = 2.071530 g / cm^3
# Si number density = 20.762553 Si / 1000 Ang^3
#
#
#
# Elastic Constant Matrix: (Units=GPa)
#
#
# Indices 1 2 3 4 5 6 
#
# 1 63.6704 5.2537 47.7525 0.0000 0.0000 0.0000
# 2 5.2537 69.5347 26.9097 0.0000 0.0000 0.0000
# 3 47.7525 26.9097 138.8979 0.0000 0.0000 0.0000
# 4 0.0000 0.0000 0.0000 -11.1557 0.0000 0.0000
# 5 0.0000 0.0000 0.0000 0.0000 64.4409 0.0000
# 6 0.0000 0.0000 0.0000 0.0000 0.0000 8.3225
#
#
#
# Elastic Compliance Matrix: (Units=1/GPa)
#
#
# Indices 1 2 3 4 5 6 
#
# 1 0.021274 0.001322 -0.007570 0.000000 0.000000 0.000000
# 2 0.001322 0.015629 -0.003483 0.000000 0.000000 0.000000
# 3 -0.007570 -0.003483 0.010477 0.000000 0.000000 0.000000
# 4 0.000000 0.000000 0.000000 -0.089641 0.000000 0.000000
# 5 0.000000 0.000000 0.000000 0.000000 0.015518 0.000000
# 6 0.000000 0.000000 0.000000 0.000000 0.000000 0.120157
#
#
# Mechanical properties :
#
#
# Convention : Reuss Voigt Hill
#
# Bulk Modulus (GPa) = 35.81742 47.99277 41.90509
# Shear Modulus (GPa) = 40.92252 25.13402 33.02827
#
# Velocity S-wave (km/s) = 4.44439 3.48306 3.99276
# Velocity P-wave (km/s) = 6.60493 6.27223 6.44073
#
# Compressibility (1/GPa) = 0.02791938
#
# Stress axis : x y z
#
# Youngs Moduli (GPa) = 47.00488 63.98304 95.44875
#
# Poissons Ratio (x) = -0.08460 0.72257
# Poissons Ratio (y) = -0.06215 0.33240
# Poissons Ratio (z) = 0.35584 0.22282
#
# Static dielectric constant tensor:
#      x y z
#    x 2.023830 0.000000 0.000000 
#    y 0.000000 1.711370 0.000000 
#    z 0.000000 0.000000 1.865780 
# 
# From -- ./inp_files/3842.got.cif
#   From: 2010.05.17/outbox.cif.g08.bks.cpg/sg16_2_cif.got.tgz:3842.got - 2010.06.03 22:28:35.
