data_PCOD9310062
_publ_section_title
;
Structure prediction by ZEFSAII (Michael W. Deem and Ramdas Pophale) SiO2 
 PCOD9310062
Probable space group: P 2 2 2
;
_chemical_formula_sum "Si O2"
_cell_formula_units_Z 32
_cell_length_a 14.025278
_cell_length_b 8.930657
_cell_length_c 11.972190
_cell_angle_alpha 90.000000
_cell_angle_beta 90.000000
_cell_angle_gamma 90.000000
_cell_volume 1499.576026
_symmetry_space_group_name_H-M "P 2 2 2"
_symmetry_group_IT_number 16
_symmetry_cell_setting 'orthorhombic'
loop_
_space_group_symop_operation_xyz
x,y,z
-x,-y,z
x,-y,-z
-x,y,-z
loop_
_atom_site_type_symbol
_atom_site_label
_atom_site_fract_x
_atom_site_fract_y
_atom_site_fract_z
Si Si1 0.899980 0.921471 0.777399
Si Si2 0.023878 0.331492 0.311384
Si Si3 0.799856 0.623773 0.158999
Si Si4 0.230989 0.281621 0.906752
Si Si5 0.404188 0.304840 0.757439
Si Si6 0.606405 0.345177 0.725702
Si Si7 0.839069 0.876060 0.417439
Si Si8 0.324426 0.328933 0.508342
O O1 0.840055 0.852178 0.876973
O O2 0.933994 0.774799 0.708573
O O3 0.839307 0.034456 0.700487
O O4 0.000000 0.000000 0.807632
O O5 0.095542 0.333585 0.203442
O O6 0.087963 0.258469 0.405527
O O7 0.000000 0.500000 0.336110
O O8 0.797689 0.442021 0.150090
O O9 0.715855 0.685379 0.239926
O O10 0.773423 0.686121 0.037643
O O11 0.332514 0.243769 0.850467
O O12 0.514322 0.255564 0.768502
O O13 0.403866 0.485311 0.769546
O O14 0.362603 0.289403 0.631401
O O15 0.598503 0.340309 0.591397
O O16 0.745079 0.803940 0.469817
O O17 0.878177 0.000000 0.500000
O O18 0.281545 0.500000 0.500000
#
# Coordination Sequence:
#
# PCOD9310062 Si02
#       8
#     4   4   4   4   4   4   4   4
#     4  10  23  41  61  87 132 169 216 268 322 385
#     4  11  22  41  66  87 121 168 220 270 326 381
#     4  10  20  36  64  95 128 165 212 275 315 380
#     4  10  20  37  60  94 133 167 211 264 327 378
#     4   9  18  31  59  96 133 163 201 264 325 396
#     4   9  17  33  57  95 132 163 207 258 329 387
#     4  11  24  41  61  90 130 170 209 269 324 390
#     4  10  19  35  65  92 126 168 213 260 317 382
#
# _framework density 21.339365999999998
#
# number of rings (size 3 to 8) (size 9 to 14) (size 15 to 20)
#    0.000    2.000    2.500    1.125    0.000    5.750 
#    0.000    7.500    0.000    5.250    0.000    0.000 
#   11.250    0.000    0.000    0.000    0.000    0.000 
#
# Total GULP energy -178423.794230 kJ/mol
# GULP energy per Si atom -5575.743570 kJ/mol
# Density = 2.129080 g / cm^3
# Si number density = 21.339366 Si / 1000 Ang^3
#
#
#
# Elastic Constant Matrix: (Units=GPa)
#
#
# Indices 1 2 3 4 5 6 
#
# 1 51.9186 42.0901 19.8390 0.0000 0.0000 0.0000
# 2 42.0901 93.8968 29.0742 0.0000 0.0000 0.0000
# 3 19.8390 29.0742 65.7976 0.0000 0.0000 0.0000
# 4 0.0000 0.0000 0.0000 26.8432 0.0000 0.0000
# 5 0.0000 0.0000 0.0000 0.0000 9.6375 0.0000
# 6 0.0000 0.0000 0.0000 0.0000 0.0000 20.0649
#
#
#
# Elastic Compliance Matrix: (Units=1/GPa)
#
#
# Indices 1 2 3 4 5 6 
#
# 1 0.031021 -0.012755 -0.003718 0.000000 0.000000 0.000000
# 2 -0.012755 0.017582 -0.003923 0.000000 0.000000 0.000000
# 3 -0.003718 -0.003923 0.018053 0.000000 0.000000 0.000000
# 4 0.000000 0.000000 0.000000 0.037253 0.000000 0.000000
# 5 0.000000 0.000000 0.000000 0.000000 0.103762 0.000000
# 6 0.000000 0.000000 0.000000 0.000000 0.000000 0.049838
#
#
# Mechanical properties :
#
#
# Convention : Reuss Voigt Hill
#
# Bulk Modulus (GPa) = 38.66184 43.73551 41.19867
# Shear Modulus (GPa) = 16.29077 19.34977 17.82027
#
# Velocity S-wave (km/s) = 2.76599 3.01452 2.89293
# Velocity P-wave (km/s) = 5.32521 5.71456 5.52332
#
# Compressibility (1/GPa) = 0.02586530
#
# Stress axis : x y z
#
# Youngs Moduli (GPa) = 32.23575 56.87587 55.39351
#
# Poissons Ratio (x) = 0.72542 0.20593
# Poissons Ratio (y) = 0.41115 0.21733
# Poissons Ratio (z) = 0.11984 0.22315
#
# Static dielectric constant tensor:
#      x y z
#    x 1.852230 0.000000 0.000000 
#    y 0.000000 1.776280 0.000000 
#    z 0.000000 0.000000 1.787930 
# 
# From -- ./inp_files/7181.got.cif
#   From: 2010.05.17/outbox.cif.g08.bks.cpg/sg16_4_cif.got.tgz:7181.got - 2010.06.03 22:28:35.
