data_PCOD9310530
_publ_section_title
;
Structure prediction by ZEFSAII (Michael W. Deem and Ramdas Pophale) SiO2 
 PCOD9310530
Probable space group: P 2 2 21
;
_chemical_formula_sum "Si O2"
_cell_formula_units_Z 26
_cell_length_a 8.742355
_cell_length_b 17.431424
_cell_length_c 7.981116
_cell_angle_alpha 90.000000
_cell_angle_beta 90.000000
_cell_angle_gamma 90.000000
_cell_volume 1216.255809
_symmetry_space_group_name_H-M "P 2 2 21"
_symmetry_group_IT_number 17
_symmetry_cell_setting 'orthorhombic'
loop_
_space_group_symop_operation_xyz
x,y,z
-x,-y,1/2+z
x,-y,-z
-x,y,1/2-z
loop_
_atom_site_type_symbol
_atom_site_label
_atom_site_fract_x
_atom_site_fract_y
_atom_site_fract_z
Si Si1 0.688500 0.317372 0.084254
Si Si2 0.772264 0.000000 0.000000
Si Si3 0.341279 0.140395 0.321566
Si Si4 0.133816 0.823615 0.990439
Si Si5 0.000000 0.058436 0.750000
Si Si6 0.577350 0.414449 0.564599
Si Si7 0.000000 0.298964 0.250000
Si Si8 0.819019 0.308686 0.713494
O O1 0.647011 0.229813 0.128878
O O2 0.837148 0.339303 0.201966
O O3 0.536911 0.369877 0.063886
O O4 0.747468 0.316060 0.894994
O O5 0.694414 0.917499 0.972484
O O6 0.868023 0.991984 0.170450
O O7 0.500000 0.112123 0.250000
O O8 0.225798 0.142198 0.164253
O O9 0.221959 0.772880 0.128418
O O10 0.050351 0.888399 0.095512
O O11 0.026791 0.758796 0.905849
O O12 0.599925 0.500000 0.500000
O O13 0.500000 0.416682 0.750000
O O14 0.738140 0.370827 0.593570
O O15 0.000000 0.315637 0.750000
#
# Coordination Sequence:
#
# PCOD9310530 Si02
#       8
#     4   2   4   4   2   4   2   4
#     4  10  21  42  67  96 129 176 225 276 334 403
#     4  12  26  40  62  88 132 172 218 282 336 388
#     4  11  25  42  61  94 130 172 222 273 337 404
#     4  11  20  36  65  92 125 165 220 281 323 397
#     4  12  22  41  60  92 123 168 218 272 341 388
#     4  10  24  43  67  95 138 178 221 271 340 416
#     4  10  18  33  62 100 127 160 224 284 323 386
#     4  11  20  39  68 101 131 169 224 281 337 401
#
# _framework density 21.377082000000001
#
# number of rings (size 3 to 8) (size 9 to 14) (size 15 to 20)
#    0.000    1.231    2.308    4.615    0.000    4.923 
#    0.000    6.923    3.385    0.000    0.000    0.000 
#    0.000    0.000    0.000    0.000    0.000    0.000 
#
# Total GULP energy -145040.958148 kJ/mol
# GULP energy per Si atom -5578.498390 kJ/mol
# Density = 2.132843 g / cm^3
# Si number density = 21.377082 Si / 1000 Ang^3
#
#
#
# Elastic Constant Matrix: (Units=GPa)
#
#
# Indices 1 2 3 4 5 6 
#
# 1 75.8178 37.5257 35.5793 0.0000 0.0000 0.0000
# 2 37.5257 108.2484 31.8271 0.0000 0.0000 0.0000
# 3 35.5793 31.8271 99.2040 0.0000 0.0000 0.0000
# 4 0.0000 0.0000 0.0000 47.5969 0.0000 0.0000
# 5 0.0000 0.0000 0.0000 0.0000 29.1615 0.0000
# 6 0.0000 0.0000 0.0000 0.0000 0.0000 45.1014
#
#
#
# Elastic Compliance Matrix: (Units=1/GPa)
#
#
# Indices 1 2 3 4 5 6 
#
# 1 0.017824 -0.004747 -0.004870 0.000000 0.000000 0.000000
# 2 -0.004747 0.011465 -0.001976 0.000000 0.000000 0.000000
# 3 -0.004870 -0.001976 0.012461 0.000000 0.000000 0.000000
# 4 0.000000 0.000000 0.000000 0.021010 0.000000 0.000000
# 5 0.000000 0.000000 0.000000 0.000000 0.034292 0.000000
# 6 0.000000 0.000000 0.000000 0.000000 0.000000 0.022172
#
#
# Mechanical properties :
#
#
# Convention : Reuss Voigt Hill
#
# Bulk Modulus (GPa) = 53.86599 54.79272 54.32935
# Shear Modulus (GPa) = 33.64822 36.26116 34.95469
#
# Velocity S-wave (km/s) = 3.97171 4.12304 4.04808
# Velocity P-wave (km/s) = 6.80334 6.95364 6.87890
#
# Compressibility (1/GPa) = 0.01856459
#
# Stress axis : x y z
#
# Youngs Moduli (GPa) = 56.10305 87.22539 80.25348
#
# Poissons Ratio (x) = 0.41408 0.39080
# Poissons Ratio (y) = 0.26634 0.15854
# Poissons Ratio (z) = 0.27320 0.17231
#
# Static dielectric constant tensor:
#      x y z
#    x 1.845720 0.000000 0.000000 
#    y 0.000000 1.754600 0.000000 
#    z 0.000000 0.000000 1.840780 
# 
# From -- ./inp_files/4416.got.cif
#   From: 2010.05.17/outbox.cif.g08.bks.cpg/sg17_3_cif.got.tgz:4416.got - 2010.06.03 22:34:06.
