data_PCOD9310935
_publ_section_title
;
Structure prediction by ZEFSAII (Michael W. Deem and Ramdas Pophale) SiO2 
 PCOD9310935
Probable space group: P 2 2 21
;
_chemical_formula_sum "Si O2"
_cell_formula_units_Z 20
_cell_length_a 5.392931
_cell_length_b 11.802650
_cell_length_c 14.955757
_cell_angle_alpha 90.000000
_cell_angle_beta 90.000000
_cell_angle_gamma 90.000000
_cell_volume 951.947050
_symmetry_space_group_name_H-M "P 2 2 21"
_symmetry_group_IT_number 17
_symmetry_cell_setting 'orthorhombic'
loop_
_space_group_symop_operation_xyz
x,y,z
-x,-y,1/2+z
x,-y,-z
-x,y,1/2-z
loop_
_atom_site_type_symbol
_atom_site_label
_atom_site_fract_x
_atom_site_fract_y
_atom_site_fract_z
Si Si1 0.737462 0.908144 0.803750
Si Si2 0.803484 0.842801 0.171767
Si Si3 0.167784 0.240171 0.477761
Si Si4 0.739178 0.389995 0.726754
Si Si5 0.684655 0.632603 0.482181
O O1 0.500000 0.860581 0.750000
O O2 0.787501 0.841505 0.894875
O O3 0.000000 0.903225 0.750000
O O4 0.658890 0.038676 0.827265
O O5 0.714203 0.718926 0.206140
O O6 0.000000 0.863595 0.250000
O O7 0.885155 0.827109 0.070073
O O8 0.425110 0.307581 0.494273
O O9 0.924058 0.317988 0.466397
O O10 0.500000 0.463605 0.750000
O O11 0.741015 0.354304 0.623811
O O12 0.000000 0.444988 0.750000
O O13 0.660638 0.500000 0.500000
#
# Coordination Sequence:
#
# PCOD9310935 Si02
#       5
#     4   4   4   4   4
#     4  11  25  43  65  99 141 183 218 265 339 412
#     4  10  20  40  71 103 130 167 221 277 332 404
#     4  12  24  43  70  97 139 172 225 280 338 396
#     4  11  19  38  64  94 128 162 214 279 322 383
#     4  12  25  43  67  99 133 174 230 283 332 389
#
# _framework density 21.009571000000001
#
# number of rings (size 3 to 8) (size 9 to 14) (size 15 to 20)
#    0.000    0.800    6.000    3.000    0.000    0.000 
#    0.000   10.000    0.000    0.000    0.000    0.000 
#    0.000    0.000    0.000    0.000    0.000    0.000 
#
# Total GULP energy -111435.688556 kJ/mol
# GULP energy per Si atom -5571.784428 kJ/mol
# Density = 2.096175 g / cm^3
# Si number density = 21.009571 Si / 1000 Ang^3
#
#
#
# Elastic Constant Matrix: (Units=GPa)
#
#
# Indices 1 2 3 4 5 6 
#
# 1 155.4742 22.1321 25.8174 0.0000 0.0000 0.0000
# 2 22.1321 63.1986 46.9022 0.0000 0.0000 0.0000
# 3 25.8174 46.9022 125.3201 0.0000 0.0000 0.0000
# 4 0.0000 0.0000 0.0000 8.2409 0.0000 0.0000
# 5 0.0000 0.0000 0.0000 0.0000 29.5188 0.0000
# 6 0.0000 0.0000 0.0000 0.0000 0.0000 16.1125
#
#
#
# Elastic Compliance Matrix: (Units=1/GPa)
#
#
# Indices 1 2 3 4 5 6 
#
# 1 0.006814 -0.001862 -0.000707 0.000000 0.000000 0.000000
# 2 -0.001862 0.022417 -0.008006 0.000000 0.000000 0.000000
# 3 -0.000707 -0.008006 0.011122 0.000000 0.000000 0.000000
# 4 0.000000 0.000000 0.000000 0.121346 0.000000 0.000000
# 5 0.000000 0.000000 0.000000 0.000000 0.033877 0.000000
# 6 0.000000 0.000000 0.000000 0.000000 0.000000 0.062064
#
#
# Mechanical properties :
#
#
# Convention : Reuss Voigt Hill
#
# Bulk Modulus (GPa) = 52.07526 59.29959 55.68743
# Shear Modulus (GPa) = 17.53217 27.38385 22.45801
#
# Velocity S-wave (km/s) = 2.89188 3.61418 3.27301
# Velocity P-wave (km/s) = 5.99924 6.76038 6.39115
#
# Compressibility (1/GPa) = 0.01920298
#
# Stress axis : x y z
#
# Youngs Moduli (GPa) = 146.74894 44.60943 89.91488
#
# Poissons Ratio (x) = 0.08305 0.06358
# Poissons Ratio (y) = 0.27319 0.71987
# Poissons Ratio (z) = 0.10377 0.35715
#
# Static dielectric constant tensor:
#      x y z
#    x 1.931510 0.000000 0.000000 
#    y 0.000000 1.777860 0.000000 
#    z 0.000000 0.000000 1.690580 
# 
# From -- ./inp_files/7591.got.cif
#   From: 2010.05.17/outbox.cif.g08.bks.cpg/sg17_4_cif.got.tgz:7591.got - 2010.06.03 22:34:06.
