data_PCOD9310444
_publ_section_title
;
Structure prediction by ZEFSAII (Michael W. Deem and Ramdas Pophale) SiO2 
 PCOD9310444
Probable space group: P 2 2 21
;
_chemical_formula_sum "Si O2"
_cell_formula_units_Z 26
_cell_length_a 9.535267
_cell_length_b 12.087377
_cell_length_c 13.236934
_cell_angle_alpha 90.000000
_cell_angle_beta 90.000000
_cell_angle_gamma 90.000000
_cell_volume 1525.640923
_symmetry_space_group_name_H-M "P 2 2 21"
_symmetry_group_IT_number 17
_symmetry_cell_setting 'orthorhombic'
loop_
_space_group_symop_operation_xyz
x,y,z
-x,-y,1/2+z
x,-y,-z
-x,y,1/2-z
loop_
_atom_site_type_symbol
_atom_site_label
_atom_site_fract_x
_atom_site_fract_y
_atom_site_fract_z
Si Si1 0.827602 0.808784 0.528725
Si Si2 0.500000 0.936927 0.250000
Si Si3 0.733677 0.876342 0.751581
Si Si4 0.642236 0.000000 0.500000
Si Si5 0.126205 0.122396 0.462448
Si Si6 0.500000 0.305326 0.250000
Si Si7 0.434354 0.825341 0.462898
Si Si8 0.400202 0.624226 0.962771
O O1 0.802344 0.851766 0.643529
O O2 0.752741 0.905605 0.462297
O O3 0.742535 0.694731 0.520901
O O4 0.992711 0.802483 0.512200
O O5 0.476841 0.866416 0.351362
O O6 0.363473 0.015282 0.241191
O O7 0.841534 0.884067 0.843199
O O8 0.628464 0.775645 0.777979
O O9 0.524803 0.908276 0.537119
O O10 0.271617 0.157677 0.514896
O O11 0.090891 0.000000 0.500000
O O12 0.553421 0.372975 0.345802
O O13 0.484852 0.701346 0.481680
O O14 0.390636 0.500000 0.000000
#
# Coordination Sequence:
#
# PCOD9310444 Si02
#       8
#     4   2   4   2   4   2   4   4
#     4  10  21  33  53  80 116 152 192 229 289 354
#     4  11  18  29  54  88 120 151 181 236 296 348
#     4  10  18  32  52  85 120 152 182 232 290 353
#     4  10  16  32  48  74 110 146 174 230 282 336
#     4  12  20  31  53  88 120 149 186 232 293 355
#     4   9  18  35  62  84 106 137 201 244 282 340
#     4  11  20  33  54  82 115 144 191 237 286 338
#     4  10  22  40  60  79 108 154 199 247 285 333
#
# _framework density 17.042019
#
# number of rings (size 3 to 8) (size 9 to 14) (size 15 to 20)
#    0.000    1.538    6.154    0.462    0.000    0.615 
#    0.000    0.769    0.000    0.000    8.000    0.000 
#    0.000    0.000    0.000    0.000    0.000    0.000 
#
# Total GULP energy -144808.196829 kJ/mol
# GULP energy per Si atom -5569.546032 kJ/mol
# Density = 1.700323 g / cm^3
# Si number density = 17.042019 Si / 1000 Ang^3
#
#
#
# Elastic Constant Matrix: (Units=GPa)
#
#
# Indices 1 2 3 4 5 6 
#
# 1 126.6939 38.5530 22.0106 0.0000 0.0000 0.0000
# 2 38.5530 130.7465 42.3720 0.0000 0.0000 0.0000
# 3 22.0106 42.3720 80.4331 0.0000 0.0000 0.0000
# 4 0.0000 0.0000 0.0000 25.2424 0.0000 0.0000
# 5 0.0000 0.0000 0.0000 0.0000 18.4294 0.0000
# 6 0.0000 0.0000 0.0000 0.0000 0.0000 12.5273
#
#
#
# Elastic Compliance Matrix: (Units=1/GPa)
#
#
# Indices 1 2 3 4 5 6 
#
# 1 0.008774 -0.002182 -0.001252 0.000000 0.000000 0.000000
# 2 -0.002182 0.009765 -0.004547 0.000000 0.000000 0.000000
# 3 -0.001252 -0.004547 0.015171 0.000000 0.000000 0.000000
# 4 0.000000 0.000000 0.000000 0.039616 0.000000 0.000000
# 5 0.000000 0.000000 0.000000 0.000000 0.054261 0.000000
# 6 0.000000 0.000000 0.000000 0.000000 0.000000 0.079826
#
#
# Mechanical properties :
#
#
# Convention : Reuss Voigt Hill
#
# Bulk Modulus (GPa) = 56.34150 60.41607 58.37878
# Shear Modulus (GPa) = 21.80631 26.90233 24.35432
#
# Velocity S-wave (km/s) = 3.58098 3.97746 3.78441
# Velocity P-wave (km/s) = 7.08731 7.52474 7.30930
#
# Compressibility (1/GPa) = 0.01774891
#
# Stress axis : x y z
#
# Youngs Moduli (GPa) = 113.96806 102.40265 65.91600
#
# Poissons Ratio (x) = 0.22340 0.08252
# Poissons Ratio (y) = 0.24863 0.29975
# Poissons Ratio (z) = 0.14267 0.46566
#
# Static dielectric constant tensor:
#      x y z
#    x 1.601800 0.000000 0.000000 
#    y 0.000000 1.550760 0.000000 
#    z 0.000000 0.000000 1.699430 
# 
# From -- ./inp_files/8217.got.cif
#   From: 2010.05.17/outbox.cif.g08.bks.cpg/sg17_5_cif.got.tgz:8217.got - 2010.06.03 22:34:06.
