data_PCOD9310431
_publ_section_title
;
Structure prediction by ZEFSAII (Michael W. Deem and Ramdas Pophale) SiO2 
 PCOD9310431
Probable space group: P 2 2 21
;
_chemical_formula_sum "Si O2"
_cell_formula_units_Z 24
_cell_length_a 5.394556
_cell_length_b 28.156633
_cell_length_c 7.028312
_cell_angle_alpha 90.000000
_cell_angle_beta 90.000000
_cell_angle_gamma 90.000000
_cell_volume 1067.548116
_symmetry_space_group_name_H-M "P 2 2 21"
_symmetry_group_IT_number 17
_symmetry_cell_setting 'orthorhombic'
loop_
_space_group_symop_operation_xyz
x,y,z
-x,-y,1/2+z
x,-y,-z
-x,y,1/2-z
loop_
_atom_site_type_symbol
_atom_site_label
_atom_site_fract_x
_atom_site_fract_y
_atom_site_fract_z
Si Si1 0.248530 0.943961 0.033134
Si Si2 0.449823 0.403797 0.521599
Si Si3 0.748797 0.693030 0.121458
Si Si4 0.954477 0.445747 0.526203
Si Si5 0.251251 0.097086 0.528892
Si Si6 0.750567 0.796906 0.123688
O O1 0.501547 0.924967 0.949075
O O2 0.250001 0.923386 0.251306
O O3 0.002454 0.921982 0.948976
O O4 0.239235 0.000000 0.000000
O O5 0.500000 0.409101 0.750000
O O6 0.318814 0.352512 0.494843
O O7 0.729933 0.412742 0.450798
O O8 0.235376 0.439375 0.450827
O O9 0.500000 0.696224 0.250000
O O10 0.768742 0.745046 0.026213
O O11 0.000000 0.685485 0.250000
O O12 0.873785 0.500000 0.500000
O O13 0.000000 0.435810 0.750000
O O14 0.258596 0.153779 0.513418
O O15 0.500000 0.797379 0.250000
O O16 0.000000 0.799889 0.250000
#
# Coordination Sequence:
#
# PCOD9310431 Si02
#       6
#     4   4   4   4   4   4
#     4  10  18  27  41  56  77 113 140 166 206 251
#     4   9  16  28  41  61  89 116 147 176 213 259
#     4   9  16  23  39  60  82 115 143 163 211 268
#     4  10  19  30  46  63  89 126 153 185 222 261
#     4  10  17  29  40  56  84 108 137 173 214 247
#     4  10  15  25  39  56  81 114 134 165 213 266
#
# _framework density 22.481421999999998
#
# number of rings (size 3 to 8) (size 9 to 14) (size 15 to 20)
#    0.000    2.333    3.333    3.500    0.000    0.000 
#    0.000    0.000    0.000    0.000    0.000    0.000 
#    0.000    0.000   56.667    2.000    0.000    0.000 
#
# Total GULP energy -133650.526686 kJ/mol
# GULP energy per Si atom -5568.771945 kJ/mol
# Density = 2.243025 g / cm^3
# Si number density = 22.481422 Si / 1000 Ang^3
#
#
#
# Elastic Constant Matrix: (Units=GPa)
#
#
# Indices 1 2 3 4 5 6 
#
# 1 228.9818 60.8678 8.4673 0.0000 0.0000 0.0000
# 2 60.8678 183.0293 -10.2506 0.0000 0.0000 0.0000
# 3 8.4673 -10.2506 78.4249 0.0000 0.0000 0.0000
# 4 0.0000 0.0000 0.0000 29.9468 0.0000 0.0000
# 5 0.0000 0.0000 0.0000 0.0000 -31.7652 0.0000
# 6 0.0000 0.0000 0.0000 0.0000 0.0000 45.3565
#
#
#
# Elastic Compliance Matrix: (Units=1/GPa)
#
#
# Indices 1 2 3 4 5 6 
#
# 1 0.004833 -0.001648 -0.000737 0.000000 0.000000 0.000000
# 2 -0.001648 0.006066 0.000971 0.000000 0.000000 0.000000
# 3 -0.000737 0.000971 0.012958 0.000000 0.000000 0.000000
# 4 0.000000 0.000000 0.000000 0.033393 0.000000 0.000000
# 5 0.000000 0.000000 0.000000 0.000000 -0.031481 0.000000
# 6 0.000000 0.000000 0.000000 0.000000 0.000000 0.022048
#
#
# Mechanical properties :
#
#
# Convention : Reuss Voigt Hill
#
# Bulk Modulus (GPa) = 47.55839 67.62277 57.59058
# Shear Modulus (GPa) = 86.72450 37.46439 62.09445
#
# Velocity S-wave (km/s) = 6.21770 4.08666 5.26121
# Velocity P-wave (km/s) = 8.52918 7.23964 7.91073
#
# Compressibility (1/GPa) = 0.02102678
#
# Stress axis : x y z
#
# Youngs Moduli (GPa) = 206.92796 164.84861 77.17514
#
# Poissons Ratio (x) = 0.27174 0.05689
# Poissons Ratio (y) = 0.34110 -0.07493
# Poissons Ratio (z) = 0.15255 -0.16004
#
# Static dielectric constant tensor:
#      x y z
#    x 1.844350 0.000000 0.000000 
#    y 0.000000 1.881370 0.000000 
#    z 0.000000 0.000000 1.841210 
# 
# From -- ./inp_files/6094.got.cif
#   From: 2010.05.17/outbox.cif.g08.bks.cpg/sg17_4_cif.got.tgz:6094.got - 2010.06.03 22:34:06.
