data_PCOD9310229
_publ_section_title
;
Structure prediction by ZEFSAII (Michael W. Deem and Ramdas Pophale) SiO2 
 PCOD9310229
Probable space group: P 2 2 2
;
_chemical_formula_sum "Si O2"
_cell_formula_units_Z 17
_cell_length_a 17.105039
_cell_length_b 6.166438
_cell_length_c 7.737435
_cell_angle_alpha 90.000000
_cell_angle_beta 90.000000
_cell_angle_gamma 90.000000
_cell_volume 816.122689
_symmetry_space_group_name_H-M "P 2 2 2"
_symmetry_group_IT_number 16
_symmetry_cell_setting 'orthorhombic'
loop_
_space_group_symop_operation_xyz
x,y,z
-x,-y,z
x,-y,-z
-x,y,-z
loop_
_atom_site_type_symbol
_atom_site_label
_atom_site_fract_x
_atom_site_fract_y
_atom_site_fract_z
Si Si1 0.896395 0.648592 0.821593
Si Si2 0.000000 0.500000 0.500000
Si Si3 0.574356 0.655898 0.254580
Si Si4 0.000000 0.000000 0.000000
Si Si5 0.500000 0.000000 0.500000
Si Si6 0.714699 0.634080 0.820075
Si Si7 0.631818 0.000000 0.000000
O O1 0.805106 0.652404 0.772257
O O2 0.940583 0.595537 0.643649
O O3 0.940838 0.862691 0.883552
O O4 0.903754 0.500000 0.000000
O O5 0.500000 0.500000 0.241460
O O6 0.555006 0.837463 0.394707
O O7 0.650961 0.507076 0.285001
O O8 0.584963 0.802899 0.084007
O O9 0.716056 0.500000 0.000000
O O10 0.683337 0.876454 0.856723
#
# Coordination Sequence:
#
# PCOD9310229 Si02
#       7
#     4   1   4   1   1   4   2
#     4  11  23  45  70 101 144 180 229 290 350 416
#     4  12  22  46  68 102 136 180 226 282 340 418
#     4  11  24  42  66  93 133 176 220 276 339 397
#     4  12  20  42  78  94 142 194 222 288 364 412
#     4  12  26  42  60  86 140 180 230 260 340 404
#     4   9  21  40  67  96 131 173 220 278 341 399
#     4  10  21  41  67  99 122 168 230 272 326 413
#
# _framework density 20.830202
#
# number of rings (size 3 to 8) (size 9 to 14) (size 15 to 20)
#    0.000    1.412    2.353    2.471    0.000   11.765 
#    8.471    0.000    0.000    0.000    0.000    0.000 
#    0.000    0.000    0.000    0.000    0.000    0.000 
#
# Total GULP energy -94690.356039 kJ/mol
# GULP energy per Si atom -5570.020943 kJ/mol
# Density = 2.078279 g / cm^3
# Si number density = 20.830202 Si / 1000 Ang^3
#
#
#
# Elastic Constant Matrix: (Units=GPa)
#
#
# Indices 1 2 3 4 5 6 
#
# 1 228.4788 105.3460 75.1507 0.0000 0.0000 0.0000
# 2 105.3460 139.5592 54.6061 0.0000 0.0000 0.0000
# 3 75.1507 54.6061 115.4077 0.0000 0.0000 0.0000
# 4 0.0000 0.0000 0.0000 40.1583 0.0000 0.0000
# 5 0.0000 0.0000 0.0000 0.0000 -25.8248 0.0000
# 6 0.0000 0.0000 0.0000 0.0000 0.0000 22.7547
#
#
#
# Elastic Compliance Matrix: (Units=1/GPa)
#
#
# Indices 1 2 3 4 5 6 
#
# 1 0.007314 -0.004489 -0.002639 0.000000 0.000000 0.000000
# 2 -0.004489 0.011548 -0.002541 0.000000 0.000000 0.000000
# 3 -0.002639 -0.002541 0.011586 0.000000 0.000000 0.000000
# 4 0.000000 0.000000 0.000000 0.024901 0.000000 0.000000
# 5 0.000000 0.000000 0.000000 0.000000 -0.038722 0.000000
# 6 0.000000 0.000000 0.000000 0.000000 0.000000 0.043947
#
#
# Mechanical properties :
#
#
# Convention : Reuss Voigt Hill
#
# Bulk Modulus (GPa) = 90.00572 105.96128 97.98350
# Shear Modulus (GPa) = 59.79753 23.97382 41.88568
#
# Velocity S-wave (km/s) = 5.36372 3.39620 4.48908
# Velocity P-wave (km/s) = 9.03672 8.14606 8.60293
#
# Compressibility (1/GPa) = 0.01111041
#
# Stress axis : x y z
#
# Youngs Moduli (GPa) = 136.71568 86.59542 86.31236
#
# Poissons Ratio (x) = 0.38870 0.22779
# Poissons Ratio (y) = 0.61367 0.21933
# Poissons Ratio (z) = 0.36081 0.22005
#
# Static dielectric constant tensor:
#      x y z
#    x 1.881220 0.000000 0.000000 
#    y 0.000000 1.773560 0.000000 
#    z 0.000000 0.000000 1.814610 
# 
# From -- ./inp_files/5343.got.cif
#   From: 2010.05.17/outbox.cif.g08.bks.cpg/sg16_3_cif.got.tgz:5343.got - 2010.06.03 22:28:35.
