data_PCOD9310895
_publ_section_title
;
Structure prediction by ZEFSAII (Michael W. Deem and Ramdas Pophale) SiO2 
 PCOD9310895
Probable space group: P 2 2 21
;
_chemical_formula_sum "Si O2"
_cell_formula_units_Z 22
_cell_length_a 6.995585
_cell_length_b 13.735084
_cell_length_c 8.242486
_cell_angle_alpha 90.000000
_cell_angle_beta 90.000000
_cell_angle_gamma 90.000000
_cell_volume 791.978835
_symmetry_space_group_name_H-M "P 2 2 21"
_symmetry_group_IT_number 17
_symmetry_cell_setting 'orthorhombic'
loop_
_space_group_symop_operation_xyz
x,y,z
-x,-y,1/2+z
x,-y,-z
-x,y,1/2-z
loop_
_atom_site_type_symbol
_atom_site_label
_atom_site_fract_x
_atom_site_fract_y
_atom_site_fract_z
Si Si1 0.500000 0.926824 0.250000
Si Si2 0.191828 0.075189 0.185867
Si Si3 0.727975 0.377226 0.192071
Si Si4 0.346105 0.203200 0.488308
Si Si5 0.205578 0.255209 0.007219
Si Si6 0.292799 0.435380 0.827619
O O1 0.351016 0.860922 0.351127
O O2 0.358950 0.999148 0.156540
O O3 0.276562 0.141385 0.333730
O O4 0.120837 0.148915 0.042808
O O5 0.000000 0.025860 0.250000
O O6 0.500000 0.379743 0.250000
O O7 0.746674 0.309697 0.034341
O O8 0.831509 0.320817 0.336140
O O9 0.790677 0.488345 0.197960
O O10 0.571078 0.226568 0.480246
O O11 0.190503 0.333306 0.864129
O O12 0.500000 0.410509 0.750000
O O13 0.310209 0.500000 0.000000
#
# Coordination Sequence:
#
# PCOD9310895 Si02
#       6
#     2   4   4   4   4   4
#     4  12  24  42  64  96 140 184 238 300 360 422
#     4  11  23  43  67  95 134 189 241 296 361 429
#     4   7  13  29  54  86 127 160 220 273 330 411
#     4  10  20  39  62  92 135 181 229 291 357 419
#     4   9  17  33  58  89 129 173 223 276 350 407
#     4   9  16  28  54  97 136 169 224 286 336 425
#
# _framework density 27.77852
#
# number of rings (size 3 to 8) (size 9 to 14) (size 15 to 20)
#    0.000    2.545    1.818    2.727    1.273    0.000 
#    6.545    0.000    0.000    0.000    0.000   95.455 
#    0.000    0.000    0.000    0.000    0.000    0.000 
#
# Total GULP energy -122785.083749 kJ/mol
# GULP energy per Si atom -5581.140170 kJ/mol
# Density = 2.771529 g / cm^3
# Si number density = 27.778520 Si / 1000 Ang^3
#
#
#
# Elastic Constant Matrix: (Units=GPa)
#
#
# Indices 1 2 3 4 5 6 
#
# 1 91.5083 32.9777 18.8194 0.0000 0.0000 0.0000
# 2 32.9777 189.5215 96.7226 0.0000 0.0000 0.0000
# 3 18.8194 96.7226 130.1224 0.0000 0.0000 0.0000
# 4 0.0000 0.0000 0.0000 49.3368 0.0000 0.0000
# 5 0.0000 0.0000 0.0000 0.0000 22.4038 0.0000
# 6 0.0000 0.0000 0.0000 0.0000 0.0000 -14.5984
#
#
#
# Elastic Compliance Matrix: (Units=1/GPa)
#
#
# Indices 1 2 3 4 5 6 
#
# 1 0.011666 -0.001883 -0.000287 0.000000 0.000000 0.000000
# 2 -0.001883 0.008806 -0.006273 0.000000 0.000000 0.000000
# 3 -0.000287 -0.006273 0.012389 0.000000 0.000000 0.000000
# 4 0.000000 0.000000 0.000000 0.020269 0.000000 0.000000
# 5 0.000000 0.000000 0.000000 0.000000 0.044635 0.000000
# 6 0.000000 0.000000 0.000000 0.000000 0.000000 -0.068501
#
#
# Mechanical properties :
#
#
# Convention : Reuss Voigt Hill
#
# Bulk Modulus (GPa) = 62.60321 78.68796 70.64559
# Shear Modulus (GPa) = 97.13296 28.93728 63.03512
#
# Velocity S-wave (km/s) = 5.91970 3.23106 4.76878
# Velocity P-wave (km/s) = 8.32522 6.50447 7.47052
#
# Compressibility (1/GPa) = 0.01597362
#
# Stress axis : x y z
#
# Youngs Moduli (GPa) = 85.72105 113.56448 80.71371
#
# Poissons Ratio (x) = 0.21387 0.02319
# Poissons Ratio (y) = 0.16143 0.50632
# Poissons Ratio (z) = 0.02463 0.71239
#
# Static dielectric constant tensor:
#      x y z
#    x 2.205660 0.000000 0.000000 
#    y 0.000000 2.246070 0.000000 
#    z 0.000000 0.000000 2.331200 
# 
# From -- ./inp_files/4255.got.cif
#   From: 2010.05.17/outbox.cif.g08.bks.cpg/sg17_3_cif.got.tgz:4255.got - 2010.06.03 22:34:06.
