data_PCOD9310941
_publ_section_title
;
Structure prediction by ZEFSAII (Michael W. Deem and Ramdas Pophale) SiO2 
 PCOD9310941
Probable space group: P 2 2 21
;
_chemical_formula_sum "Si O2"
_cell_formula_units_Z 20
_cell_length_a 8.651165
_cell_length_b 7.289641
_cell_length_c 13.099368
_cell_angle_alpha 90.000000
_cell_angle_beta 90.000000
_cell_angle_gamma 90.000000
_cell_volume 826.097064
_symmetry_space_group_name_H-M "P 2 2 21"
_symmetry_group_IT_number 17
_symmetry_cell_setting 'orthorhombic'
loop_
_space_group_symop_operation_xyz
x,y,z
-x,-y,1/2+z
x,-y,-z
-x,y,1/2-z
loop_
_atom_site_type_symbol
_atom_site_label
_atom_site_fract_x
_atom_site_fract_y
_atom_site_fract_z
Si Si1 0.679328 0.672635 0.781302
Si Si2 0.353350 0.173040 0.881718
Si Si3 0.692500 0.282404 0.855168
Si Si4 0.798894 0.218960 0.419892
Si Si5 0.905041 0.976876 0.854911
O O1 0.500000 0.688767 0.750000
O O2 0.701412 0.500826 0.855869
O O3 0.770718 0.645873 0.674190
O O4 0.756600 0.850797 0.830713
O O5 0.532208 0.214445 0.903123
O O6 0.320173 0.233947 0.766310
O O7 0.309720 0.958613 0.892551
O O8 0.252229 0.273986 0.967697
O O9 0.836205 0.166484 0.895407
O O10 0.970826 0.140194 0.416757
O O11 0.000000 0.014736 0.750000
#
# Coordination Sequence:
#
# PCOD9310941 Si02
#       5
#     4   4   4   4   4
#     4  11  21  37  65  95 128 173 223 265 327 396
#     4  10  20  41  67  98 129 175 225 273 332 391
#     4  11  21  40  70  99 125 176 224 273 335 396
#     4  10  22  40  64  96 135 177 214 275 339 395
#     4  10  21  38  63  95 130 171 215 267 338 405
#
# _framework density 24.210232999999999
#
# number of rings (size 3 to 8) (size 9 to 14) (size 15 to 20)
#    0.000    1.600    6.000    1.200    0.000    3.200 
#    0.000    8.000    0.000    0.000    0.000    0.000 
#    0.000    0.000    0.000    0.000    0.000    0.000 
#
# Total GULP energy -111897.332398 kJ/mol
# GULP energy per Si atom -5594.866620 kJ/mol
# Density = 2.415513 g / cm^3
# Si number density = 24.210233 Si / 1000 Ang^3
#
#
#
# Elastic Constant Matrix: (Units=GPa)
#
#
# Indices 1 2 3 4 5 6 
#
# 1 163.0074 53.2032 33.7410 0.0000 0.0000 0.0000
# 2 53.2032 103.1114 -16.0313 0.0000 0.0000 0.0000
# 3 33.7410 -16.0313 63.7112 0.0000 0.0000 0.0000
# 4 0.0000 0.0000 0.0000 21.2508 0.0000 0.0000
# 5 0.0000 0.0000 0.0000 0.0000 41.1940 0.0000
# 6 0.0000 0.0000 0.0000 0.0000 0.0000 2.6325
#
#
#
# Elastic Compliance Matrix: (Units=1/GPa)
#
#
# Indices 1 2 3 4 5 6 
#
# 1 0.009370 -0.005834 -0.006430 0.000000 0.000000 0.000000
# 2 -0.005834 0.013726 0.006544 0.000000 0.000000 0.000000
# 3 -0.006430 0.006544 0.020748 0.000000 0.000000 0.000000
# 4 0.000000 0.000000 0.000000 0.047057 0.000000 0.000000
# 5 0.000000 0.000000 0.000000 0.000000 0.024275 0.000000
# 6 0.000000 0.000000 0.000000 0.000000 0.000000 0.379867
#
#
# Mechanical properties :
#
#
# Convention : Reuss Voigt Hill
#
# Bulk Modulus (GPa) = 30.86259 52.40620 41.63440
# Shear Modulus (GPa) = 9.66584 30.27661 19.97122
#
# Velocity S-wave (km/s) = 2.00028 3.54018 2.87524
# Velocity P-wave (km/s) = 4.25561 6.19708 5.31573
#
# Compressibility (1/GPa) = 0.03240168
#
# Stress axis : x y z
#
# Youngs Moduli (GPa) = 106.72355 72.85395 48.19770
#
# Poissons Ratio (x) = 0.42506 0.30993
# Poissons Ratio (y) = 0.62268 -0.31539
# Poissons Ratio (z) = 0.68627 -0.47674
#
# Static dielectric constant tensor:
#      x y z
#    x 1.885500 0.000000 0.000000 
#    y 0.000000 1.950370 0.000000 
#    z 0.000000 0.000000 2.035860 
# 
# From -- ./inp_files/8004.got.cif
#   From: 2010.05.17/outbox.cif.g08.bks.cpg/sg17_5_cif.got.tgz:8004.got - 2010.06.03 22:34:06.
