data_PCOD9310380
_publ_section_title
;
Structure prediction by ZEFSAII (Michael W. Deem and Ramdas Pophale) SiO2 
 PCOD9310380
Probable space group: P 2 2 2
;
_chemical_formula_sum "Si O2"
_cell_formula_units_Z 20
_cell_length_a 4.885142
_cell_length_b 16.260078
_cell_length_c 11.671625
_cell_angle_alpha 90.000000
_cell_angle_beta 90.000000
_cell_angle_gamma 90.000000
_cell_volume 927.109737
_symmetry_space_group_name_H-M "P 2 2 2"
_symmetry_group_IT_number 16
_symmetry_cell_setting 'orthorhombic'
loop_
_space_group_symop_operation_xyz
x,y,z
-x,-y,z
x,-y,-z
-x,y,-z
loop_
_atom_site_type_symbol
_atom_site_label
_atom_site_fract_x
_atom_site_fract_y
_atom_site_fract_z
Si Si1 0.898217 0.086780 0.231883
Si Si2 0.598910 0.130859 0.626223
Si Si3 0.439990 0.686007 0.716937
Si Si4 0.753095 0.764422 0.925174
Si Si5 0.060647 0.404374 0.632560
O O1 0.594337 0.086718 0.281625
O O2 0.901771 0.162049 0.143593
O O3 0.093861 0.108122 0.339723
O O4 0.000000 0.000000 0.184129
O O5 0.500000 0.109222 0.500000
O O6 0.559414 0.228182 0.648090
O O7 0.588988 0.705905 0.836926
O O8 0.133702 0.651222 0.713285
O O9 0.627544 0.618692 0.655662
O O10 0.500000 0.798892 0.000000
O O11 0.000000 0.726023 0.000000
O O12 0.000000 0.500000 0.651323
O O13 0.000000 0.384205 0.500000
#
# Coordination Sequence:
#
# PCOD9310380 Si02
#       5
#     4   4   4   4   4
#     4  11  24  40  58  88 122 153 201 255 303 360
#     4  11  22  37  60  88 122 164 199 235 294 365
#     4  11  22  39  61  88 122 157 203 249 287 354
#     4  11  23  42  65  87 113 157 211 260 308 347
#     4  11  22  37  62  96 130 160 188 230 295 361
#
# _framework density 21.572417999999999
#
# number of rings (size 3 to 8) (size 9 to 14) (size 15 to 20)
#    0.000    1.000    0.000    9.600    0.000    4.400 
#    0.000    3.000    0.000    9.000    0.000    0.000 
#    0.000    0.000    0.000    0.000    0.000    0.000 
#
# Total GULP energy -111830.565292 kJ/mol
# GULP energy per Si atom -5591.528265 kJ/mol
# Density = 2.152332 g / cm^3
# Si number density = 21.572418 Si / 1000 Ang^3
#
#
#
# Elastic Constant Matrix: (Units=GPa)
#
#
# Indices 1 2 3 4 5 6 
#
# 1 79.9511 8.2656 2.8543 0.0000 0.0000 0.0000
# 2 8.2656 74.1300 5.1722 0.0000 0.0000 0.0000
# 3 2.8543 5.1722 70.4216 0.0000 0.0000 0.0000
# 4 0.0000 0.0000 0.0000 -54.3055 0.0000 0.0000
# 5 0.0000 0.0000 0.0000 0.0000 43.5878 0.0000
# 6 0.0000 0.0000 0.0000 0.0000 0.0000 34.3462
#
#
#
# Elastic Compliance Matrix: (Units=1/GPa)
#
#
# Indices 1 2 3 4 5 6 
#
# 1 0.012665 -0.001383 -0.000412 0.000000 0.000000 0.000000
# 2 -0.001383 0.013710 -0.000951 0.000000 0.000000 0.000000
# 3 -0.000412 -0.000951 0.014287 0.000000 0.000000 0.000000
# 4 0.000000 0.000000 0.000000 -0.018414 0.000000 0.000000
# 5 0.000000 0.000000 0.000000 0.000000 0.022942 0.000000
# 6 0.000000 0.000000 0.000000 0.000000 0.000000 0.029115
#
#
# Mechanical properties :
#
#
# Convention : Reuss Voigt Hill
#
# Bulk Modulus (GPa) = 28.43309 28.56520 28.49914
# Shear Modulus (GPa) = 54.63203 18.60639 36.61921
#
# Velocity S-wave (km/s) = 5.03785 2.94004 4.12454
# Velocity P-wave (km/s) = 6.85921 4.97949 5.99350
#
# Compressibility (1/GPa) = 0.03517029
#
# Stress axis : x y z
#
# Youngs Moduli (GPa) = 78.95544 72.93718 69.99507
#
# Poissons Ratio (x) = 0.10091 0.02882
# Poissons Ratio (y) = 0.10923 0.06656
# Poissons Ratio (z) = 0.03251 0.06936
#
# Static dielectric constant tensor:
#      x y z
#    x 1.741540 0.000000 0.000000 
#    y 0.000000 1.783320 0.000000 
#    z 0.000000 0.000000 1.809510 
# 
# From -- ./inp_files/1901.got.cif
#   From: 2010.05.17/outbox.cif.g08.bks.cpg/sg16_1_cif.got.tgz:1901.got - 2010.06.03 22:28:35.
