data_PCOD9310637
_publ_section_title
;
Structure prediction by ZEFSAII (Michael W. Deem and Ramdas Pophale) SiO2 
 PCOD9310637
Probable space group: P 2 2 21
;
_chemical_formula_sum "Si O2"
_cell_formula_units_Z 20
_cell_length_a 11.240286
_cell_length_b 15.617736
_cell_length_c 5.981299
_cell_angle_alpha 90.000000
_cell_angle_beta 90.000000
_cell_angle_gamma 90.000000
_cell_volume 1050.003996
_symmetry_space_group_name_H-M "P 2 2 21"
_symmetry_group_IT_number 17
_symmetry_cell_setting 'orthorhombic'
loop_
_space_group_symop_operation_xyz
x,y,z
-x,-y,1/2+z
x,-y,-z
-x,y,1/2-z
loop_
_atom_site_type_symbol
_atom_site_label
_atom_site_fract_x
_atom_site_fract_y
_atom_site_fract_z
Si Si1 0.124333 0.684506 0.884782
Si Si2 0.697400 0.218065 0.069784
Si Si3 0.872252 0.153772 0.695320
Si Si4 0.500000 0.777786 0.250000
Si Si5 0.933276 0.500000 0.500000
Si Si6 0.348108 0.905056 0.949722
O O1 0.234527 0.717073 0.734552
O O2 0.137978 0.588663 0.976552
O O3 0.000000 0.685823 0.750000
O O4 0.109846 0.754628 0.076918
O O5 0.643704 0.137180 0.206047
O O6 0.797629 0.175276 0.915428
O O7 0.593951 0.263351 0.923195
O O8 0.789303 0.099725 0.529580
O O9 0.000000 0.115107 0.750000
O O10 0.584383 0.838058 0.395182
O O11 0.000000 0.493178 0.750000
O O12 0.392873 0.000000 0.000000
#
# Coordination Sequence:
#
# PCOD9310637 Si02
#       6
#     4   4   4   2   2   4
#     4  10  19  34  59  85 131 164 198 245 307 376
#     4  10  21  37  58  84 121 158 202 254 309 369
#     4  10  19  35  55  82 118 162 197 234 302 371
#     4  10  22  36  60  82 114 150 214 254 320 360
#     4  10  22  34  58  98 138 170 202 250 308 376
#     4  10  23  37  55  82 113 153 201 263 309 359
#
# _framework density 19.047547000000002
#
# number of rings (size 3 to 8) (size 9 to 14) (size 15 to 20)
#    0.000    2.000    2.000    1.200    5.600    2.400 
#    3.600    0.000    0.000    0.000    0.000    0.000 
#  216.000    0.000    0.000    0.000    0.000    0.000 
#
# Total GULP energy -111390.551839 kJ/mol
# GULP energy per Si atom -5569.527592 kJ/mol
# Density = 1.900419 g / cm^3
# Si number density = 19.047547 Si / 1000 Ang^3
#
#
#
# Elastic Constant Matrix: (Units=GPa)
#
#
# Indices 1 2 3 4 5 6 
#
# 1 91.3598 -5.9540 25.2758 0.0000 0.0000 0.0000
# 2 -5.9540 70.8053 16.2091 0.0000 0.0000 0.0000
# 3 25.2758 16.2091 90.3022 0.0000 0.0000 0.0000
# 4 0.0000 0.0000 0.0000 -5.9436 0.0000 0.0000
# 5 0.0000 0.0000 0.0000 0.0000 46.4189 0.0000
# 6 0.0000 0.0000 0.0000 0.0000 0.0000 15.0009
#
#
#
# Elastic Compliance Matrix: (Units=1/GPa)
#
#
# Indices 1 2 3 4 5 6 
#
# 1 0.012097 0.001869 -0.003722 0.000000 0.000000 0.000000
# 2 0.001869 0.015017 -0.003219 0.000000 0.000000 0.000000
# 3 -0.003722 -0.003219 0.012693 0.000000 0.000000 0.000000
# 4 0.000000 0.000000 0.000000 -0.168247 0.000000 0.000000
# 5 0.000000 0.000000 0.000000 0.000000 0.021543 0.000000
# 6 0.000000 0.000000 0.000000 0.000000 0.000000 0.066663
#
#
# Mechanical properties :
#
#
# Convention : Reuss Voigt Hill
#
# Bulk Modulus (GPa) = 33.70909 35.94766 34.82837
# Shear Modulus (GPa) = -247.49059 25.55766 -110.96646
#
# Velocity S-wave (km/s) = -11.41118 3.66701 -7.64095
# Velocity P-wave (km/s) = 12.48537 6.06983 7.71497
#
# Compressibility (1/GPa) = 0.02966559
#
# Stress axis : x y z
#
# Youngs Moduli (GPa) = 82.66402 66.59001 78.78133
#
# Poissons Ratio (x) = -0.12447 0.29319
# Poissons Ratio (y) = -0.15452 0.25358
# Poissons Ratio (z) = 0.30764 0.21434
#
# Static dielectric constant tensor:
#      x y z
#    x 1.748660 0.000000 0.000000 
#    y 0.000000 1.623590 0.000000 
#    z 0.000000 0.000000 1.687050 
# 
# From -- ./inp_files/1543.got.cif
#   From: 2010.05.17/outbox.cif.g08.bks.cpg/sg17_1_cif.got.tgz:1543.got - 2010.06.03 22:34:06.
