data_PCOD9310889
_publ_section_title
;
Structure prediction by ZEFSAII (Michael W. Deem and Ramdas Pophale) SiO2 
 PCOD9310889
Probable space group: P 2 2 21
;
_chemical_formula_sum "Si O2"
_cell_formula_units_Z 22
_cell_length_a 12.882747
_cell_length_b 9.292529
_cell_length_c 8.114526
_cell_angle_alpha 90.000000
_cell_angle_beta 90.000000
_cell_angle_gamma 90.000000
_cell_volume 971.416686
_symmetry_space_group_name_H-M "P 2 2 21"
_symmetry_group_IT_number 17
_symmetry_cell_setting 'orthorhombic'
loop_
_space_group_symop_operation_xyz
x,y,z
-x,-y,1/2+z
x,-y,-z
-x,y,1/2-z
loop_
_atom_site_type_symbol
_atom_site_label
_atom_site_fract_x
_atom_site_fract_y
_atom_site_fract_z
Si Si1 0.500000 0.248287 0.250000
Si Si2 0.300168 0.500000 0.000000
Si Si3 0.525575 0.000000 0.500000
Si Si4 0.318328 0.795251 0.136420
Si Si5 0.000000 0.897145 0.250000
Si Si6 0.715692 0.398953 0.163555
Si Si7 0.841602 0.000000 0.500000
Si Si8 0.183946 0.832149 0.457079
O O1 0.481693 0.136702 0.402796
O O2 0.601289 0.348576 0.225481
O O3 0.357881 0.355798 0.934704
O O4 0.238159 0.534071 0.831976
O O5 0.596409 0.081387 0.635247
O O6 0.231190 0.860310 0.012995
O O7 0.264674 0.789837 0.312736
O O8 0.084125 0.993002 0.156290
O O9 0.068533 0.810687 0.382482
O O10 0.708582 0.500000 0.000000
O O11 0.785107 0.264960 0.109415
O O12 0.195068 0.000000 0.500000
#
# Coordination Sequence:
#
# PCOD9310889 Si02
#       8
#     2   2   2   4   2   4   2   4
#     4  12  28  42  74 104 144 188 254 310 364 438
#     4  12  24  46  68 102 144 200 238 290 376 450
#     4  11  24  42  63 102 134 184 249 306 366 427
#     4  10  22  41  67  94 139 185 235 300 368 430
#     4  10  20  38  70 108 138 176 238 314 362 432
#     4  12  28  48  71 105 149 202 245 306 372 450
#     4   9  20  36  63 100 128 176 231 292 350 425
#     4  11  23  43  74 104 142 187 247 309 377 435
#
# _framework density 22.647335000000002
#
# number of rings (size 3 to 8) (size 9 to 14) (size 15 to 20)
#    0.000    1.091    4.545    1.091   10.182    0.000 
#    0.000    0.000    8.000    2.182    0.000    0.000 
#    0.000    0.000    0.000    0.000    0.000    0.000 
#
# Total GULP energy -122642.096115 kJ/mol
# GULP energy per Si atom -5574.640733 kJ/mol
# Density = 2.259579 g / cm^3
# Si number density = 22.647335 Si / 1000 Ang^3
#
#
#
# Elastic Constant Matrix: (Units=GPa)
#
#
# Indices 1 2 3 4 5 6 
#
# 1 64.5288 26.4906 27.3750 0.0000 0.0000 0.0000
# 2 26.4906 119.6734 40.9603 0.0000 0.0000 0.0000
# 3 27.3750 40.9603 141.9689 0.0000 0.0000 0.0000
# 4 0.0000 0.0000 0.0000 47.0514 0.0000 0.0000
# 5 0.0000 0.0000 0.0000 0.0000 30.2803 0.0000
# 6 0.0000 0.0000 0.0000 0.0000 0.0000 2.2110
#
#
#
# Elastic Compliance Matrix: (Units=1/GPa)
#
#
# Indices 1 2 3 4 5 6 
#
# 1 0.017843 -0.003076 -0.002553 0.000000 0.000000 0.000000
# 2 -0.003076 0.009802 -0.002235 0.000000 0.000000 0.000000
# 3 -0.002553 -0.002235 0.008181 0.000000 0.000000 0.000000
# 4 0.000000 0.000000 0.000000 0.021253 0.000000 0.000000
# 5 0.000000 0.000000 0.000000 0.000000 0.033025 0.000000
# 6 0.000000 0.000000 0.000000 0.000000 0.000000 0.452279
#
#
# Mechanical properties :
#
#
# Convention : Reuss Voigt Hill
#
# Bulk Modulus (GPa) = 49.75637 57.31364 53.53501
# Shear Modulus (GPa) = 8.85254 31.33156 20.09205
#
# Velocity S-wave (km/s) = 1.97923 3.72352 2.98177
# Velocity P-wave (km/s) = 5.21928 6.62179 5.96192
#
# Compressibility (1/GPa) = 0.02009793
#
# Stress axis : x y z
#
# Youngs Moduli (GPa) = 56.04519 102.02144 122.23589
#
# Poissons Ratio (x) = 0.31380 0.31208
# Poissons Ratio (y) = 0.17238 0.27319
# Poissons Ratio (z) = 0.14309 0.22801
#
# Static dielectric constant tensor:
#      x y z
#    x 1.833970 0.000000 0.000000 
#    y 0.000000 1.858580 0.000000 
#    z 0.000000 0.000000 1.971530 
# 
# From -- ./inp_files/5104.got.cif
#   From: 2010.05.17/outbox.cif.g08.bks.cpg/sg17_3_cif.got.tgz:5104.got - 2010.06.03 22:34:06.
