data_PCOD9310572
_publ_section_title
;
Structure prediction by ZEFSAII (Michael W. Deem and Ramdas Pophale) SiO2 
 PCOD9310572
Probable space group: P 2 2 21
;
_chemical_formula_sum "Si O2"
_cell_formula_units_Z 32
_cell_length_a 13.356005
_cell_length_b 5.526965
_cell_length_c 20.436634
_cell_angle_alpha 90.000000
_cell_angle_beta 90.000000
_cell_angle_gamma 90.000000
_cell_volume 1508.594967
_symmetry_space_group_name_H-M "P 2 2 21"
_symmetry_group_IT_number 17
_symmetry_cell_setting 'orthorhombic'
loop_
_space_group_symop_operation_xyz
x,y,z
-x,-y,1/2+z
x,-y,-z
-x,y,1/2-z
loop_
_atom_site_type_symbol
_atom_site_label
_atom_site_fract_x
_atom_site_fract_y
_atom_site_fract_z
Si Si1 0.722474 0.945552 0.683476
Si Si2 0.341162 0.551566 0.240778
Si Si3 0.095641 0.904138 0.099481
Si Si4 0.084277 0.145622 0.693175
Si Si5 0.544076 0.973818 0.577663
Si Si6 0.045533 0.591153 0.934882
Si Si7 0.086620 0.355636 0.305308
Si Si8 0.473757 0.477109 0.638511
O O1 0.723374 0.675856 0.713489
O O2 0.689134 0.169179 0.728938
O O3 0.831264 0.017538 0.657269
O O4 0.646052 0.956180 0.621133
O O5 0.436576 0.522227 0.191654
O O6 0.376162 0.512838 0.315355
O O7 0.983353 0.866082 0.127742
O O8 0.122261 0.631411 0.077441
O O9 0.093703 0.145495 0.055654
O O10 0.143598 0.392990 0.699653
O O11 0.000000 0.152032 0.750000
O O12 0.142221 0.896720 0.695835
O O13 0.486785 0.220249 0.600835
O O14 0.563383 0.000000 0.500000
O O15 0.486881 0.720902 0.595041
O O16 0.975112 0.625891 0.872690
O O17 0.990329 0.500000 0.000000
O O18 0.000000 0.348737 0.250000
#
# Coordination Sequence:
#
# PCOD9310572 Si02
#       8
#     4   4   4   4   4   4   4   4
#     4  10  19  30  43  62  86 117 151 183 216 257
#     4   9  17  30  47  62  79 108 148 187 224 254
#     4  10  19  30  42  60  87 119 151 181 215 257
#     4   8  14  25  41  58  77 106 141 175 213 248
#     4  10  19  29  42  62  88 116 146 175 210 263
#     4  10  19  29  41  58  83 118 152 178 211 257
#     4   8  14  25  40  56  74 101 139 180 217 250
#     4   9  17  30  46  62  80 109 145 183 221 254
#
# _framework density 21.211790000000001
#
# number of rings (size 3 to 8) (size 9 to 14) (size 15 to 20)
#    0.000    2.750    0.000    2.250    0.000    4.000 
#    0.000    0.000    0.000    0.000    0.000    0.000 
#    0.000    0.000    0.000  360.000    0.000    0.000 
#
# Total GULP energy -178171.649065 kJ/mol
# GULP energy per Si atom -5567.864033 kJ/mol
# Density = 2.116351 g / cm^3
# Si number density = 21.211790 Si / 1000 Ang^3
#
#
#
# Elastic Constant Matrix: (Units=GPa)
#
#
# Indices 1 2 3 4 5 6 
#
# 1 23.7653 23.8468 25.1429 0.0000 0.0000 0.0000
# 2 23.8468 247.9702 43.4779 0.0000 0.0000 0.0000
# 3 25.1429 43.4779 100.0106 0.0000 0.0000 0.0000
# 4 0.0000 0.0000 0.0000 37.8193 0.0000 0.0000
# 5 0.0000 0.0000 0.0000 0.0000 15.8213 0.0000
# 6 0.0000 0.0000 0.0000 0.0000 0.0000 20.1727
#
#
#
# Elastic Compliance Matrix: (Units=1/GPa)
#
#
# Indices 1 2 3 4 5 6 
#
# 1 0.059823 -0.003373 -0.013573 0.000000 0.000000 0.000000
# 2 -0.003373 0.004556 -0.001132 0.000000 0.000000 0.000000
# 3 -0.013573 -0.001132 0.013904 0.000000 0.000000 0.000000
# 4 0.000000 0.000000 0.000000 0.026442 0.000000 0.000000
# 5 0.000000 0.000000 0.000000 0.000000 0.063206 0.000000
# 6 0.000000 0.000000 0.000000 0.000000 0.000000 0.049572
#
#
# Mechanical properties :
#
#
# Convention : Reuss Voigt Hill
#
# Bulk Modulus (GPa) = 23.73920 61.85346 42.79633
# Shear Modulus (GPa) = 18.67761 33.38125 26.02943
#
# Velocity S-wave (km/s) = 2.97059 3.97131 3.50683
# Velocity P-wave (km/s) = 4.79392 7.08884 6.05117
#
# Compressibility (1/GPa) = 0.04212443
#
# Stress axis : x y z
#
# Youngs Moduli (GPa) = 16.71606 219.50524 71.92396
#
# Poissons Ratio (x) = 0.74043 0.97623
# Poissons Ratio (y) = 0.05639 0.08145
# Poissons Ratio (z) = 0.22689 0.24859
#
# Static dielectric constant tensor:
#      x y z
#    x 1.702750 0.000000 0.000000 
#    y 0.000000 1.889710 0.000000 
#    z 0.000000 0.000000 1.825370 
# 
# From -- ./inp_files/9156.got.cif
#   From: 2010.05.17/outbox.cif.g08.bks.cpg/sg17_5_cif.got.tgz:9156.got - 2010.06.03 22:34:06.
