data_PCOD9310744
_publ_section_title
;
Structure prediction by ZEFSAII (Michael W. Deem and Ramdas Pophale) SiO2 
 PCOD9310744
Probable space group: P 2 2 21
;
_chemical_formula_sum "Si O2"
_cell_formula_units_Z 18
_cell_length_a 3.895701
_cell_length_b 12.033825
_cell_length_c 12.069296
_cell_angle_alpha 90.000000
_cell_angle_beta 90.000000
_cell_angle_gamma 90.000000
_cell_volume 565.810818
_symmetry_space_group_name_H-M "P 2 2 21"
_symmetry_group_IT_number 17
_symmetry_cell_setting 'orthorhombic'
loop_
_space_group_symop_operation_xyz
x,y,z
-x,-y,1/2+z
x,-y,-z
-x,y,1/2-z
loop_
_atom_site_type_symbol
_atom_site_label
_atom_site_fract_x
_atom_site_fract_y
_atom_site_fract_z
Si Si1 0.452295 0.085712 0.915127
Si Si2 0.042373 0.585416 0.086445
Si Si3 0.000000 0.411123 0.250000
Si Si4 0.000000 0.932890 0.750000
Si Si5 0.500000 0.738160 0.250000
Si Si6 0.019042 0.240512 0.080307
O O1 0.657412 0.171968 0.837100
O O2 0.242569 0.164031 0.999414
O O3 0.230107 0.009880 0.830223
O O4 0.632038 0.000000 0.000000
O O5 0.265377 0.661681 0.170532
O O6 0.833895 0.499431 0.164610
O O7 0.220343 0.500000 0.000000
O O8 0.850204 0.671772 0.005103
O O9 0.195065 0.326333 0.167783
O O10 0.169628 0.845814 0.662634
#
# Coordination Sequence:
#
# PCOD9310744 Si02
#       6
#     4   4   2   2   2   4
#     4   9  18  34  53  74 103 134 164 207 254 296
#     4   9  18  34  53  74 103 134 164 207 254 296
#     4   9  16  31  54  74  96 131 170 207 248 290
#     4   9  16  31  54  74  96 131 170 207 248 290
#     4  10  20  34  52  74 108 140 164 198 252 310
#     4   8  16  30  52  74  98 126 162 208 252 287
#
# _framework density 31.812753000000001
#
# number of rings (size 3 to 8) (size 9 to 14) (size 15 to 20)
#    0.000    3.111    0.000    0.000    0.000    3.556 
#    0.000   11.111    0.000   45.333    0.000    0.000 
#    0.000    0.000    0.000    0.000    0.000    0.000 
#
# Total GULP energy -100357.903886 kJ/mol
# GULP energy per Si atom -5575.439105 kJ/mol
# Density = 3.174035 g / cm^3
# Si number density = 31.812753 Si / 1000 Ang^3
#
#
#
# Elastic Constant Matrix: (Units=GPa)
#
#
# Indices 1 2 3 4 5 6 
#
# 1 67.7019 85.0129 87.1966 0.0000 0.0000 0.0000
# 2 85.0129 280.2953 187.8665 0.0000 0.0000 0.0000
# 3 87.1966 187.8665 296.1170 0.0000 0.0000 0.0000
# 4 0.0000 0.0000 0.0000 227.9153 0.0000 0.0000
# 5 0.0000 0.0000 0.0000 0.0000 74.0007 0.0000
# 6 0.0000 0.0000 0.0000 0.0000 0.0000 46.0782
#
#
#
# Elastic Compliance Matrix: (Units=1/GPa)
#
#
# Indices 1 2 3 4 5 6 
#
# 1 0.027358 -0.005042 -0.004857 0.000000 0.000000 0.000000
# 2 -0.005042 0.007136 -0.003043 0.000000 0.000000 0.000000
# 3 -0.004857 -0.003043 0.006738 0.000000 0.000000 0.000000
# 4 0.000000 0.000000 0.000000 0.004388 0.000000 0.000000
# 5 0.000000 0.000000 0.000000 0.000000 0.013513 0.000000
# 6 0.000000 0.000000 0.000000 0.000000 0.000000 0.021702
#
#
# Mechanical properties :
#
#
# Convention : Reuss Voigt Hill
#
# Bulk Modulus (GPa) = 65.15590 151.58513 108.37052
# Shear Modulus (GPa) = 44.70885 88.53470 66.62177
#
# Velocity S-wave (km/s) = 3.75290 5.28113 4.58119
# Velocity P-wave (km/s) = 6.26933 9.21628 7.88176
#
# Compressibility (1/GPa) = 0.01534780
#
# Stress axis : x y z
#
# Youngs Moduli (GPa) = 36.55294 140.12768 148.41788
#
# Poissons Ratio (x) = 0.70654 0.72087
# Poissons Ratio (y) = 0.18430 0.45161
# Poissons Ratio (z) = 0.17754 0.42638
#
# Static dielectric constant tensor:
#      x y z
#    x 2.560550 0.000000 0.000000 
#    y 0.000000 2.353530 0.000000 
#    z 0.000000 0.000000 2.384690 
# 
# From -- ./inp_files/3963.got.cif
#   From: 2010.05.17/outbox.cif.g08.bks.cpg/sg17_2_cif.got.tgz:3963.got - 2010.06.03 22:34:06.
