data_PCOD9310783
_publ_section_title
;
Structure prediction by ZEFSAII (Michael W. Deem and Ramdas Pophale) SiO2 
 PCOD9310783
Probable space group: P 2 2 21
;
_chemical_formula_sum "Si O2"
_cell_formula_units_Z 18
_cell_length_a 5.074627
_cell_length_b 10.238592
_cell_length_c 19.767227
_cell_angle_alpha 90.000000
_cell_angle_beta 90.000000
_cell_angle_gamma 90.000000
_cell_volume 1027.046513
_symmetry_space_group_name_H-M "P 2 2 21"
_symmetry_group_IT_number 17
_symmetry_cell_setting 'orthorhombic'
loop_
_space_group_symop_operation_xyz
x,y,z
-x,-y,1/2+z
x,-y,-z
-x,y,1/2-z
loop_
_atom_site_type_symbol
_atom_site_label
_atom_site_fract_x
_atom_site_fract_y
_atom_site_fract_z
Si Si1 0.831634 0.000000 0.500000
Si Si2 0.046588 0.583904 0.174802
Si Si3 0.405442 0.746383 0.957587
Si Si4 0.547760 0.407685 0.174871
Si Si5 0.922547 0.256717 0.957675
O O1 0.654299 0.901715 0.544112
O O2 0.008224 0.897942 0.458062
O O3 0.842927 0.462622 0.170159
O O4 0.974828 0.680317 0.114405
O O5 0.000000 0.640323 0.250000
O O6 0.342105 0.528573 0.169229
O O7 0.484841 0.688798 0.886094
O O8 0.634724 0.721930 0.012123
O O9 0.135695 0.687545 0.988218
O O10 0.500000 0.351591 0.250000
#
# Coordination Sequence:
#
# PCOD9310783 Si02
#       5
#     2   4   4   4   4
#     4   8  22  36  56  76 114 132 192 218 266 296
#     4  10  21  36  55  82 114 140 172 221 274 323
#     4  10  20  35  58  77 110 141 180 222 264 310
#     4  10  21  36  55  82 114 140 172 221 274 323
#     4  10  20  35  58  77 110 141 180 222 264 310
#
# _framework density 17.525984999999999
#
# number of rings (size 3 to 8) (size 9 to 14) (size 15 to 20)
#    1.333    0.889    0.000    3.333    0.000    5.333 
#    0.000    0.000    9.778    0.000    0.000    0.000 
#    0.000    0.000    0.000    0.000    0.000    0.000 
#
# Total GULP energy -100241.765291 kJ/mol
# GULP energy per Si atom -5568.986961 kJ/mol
# Density = 1.748610 g / cm^3
# Si number density = 17.525985 Si / 1000 Ang^3
#
#
#
# Elastic Constant Matrix: (Units=GPa)
#
#
# Indices 1 2 3 4 5 6 
#
# 1 55.1397 -16.1360 -20.8314 0.0000 0.0000 0.0000
# 2 -16.1360 33.4478 39.3506 0.0000 0.0000 0.0000
# 3 -20.8314 39.3506 99.4056 0.0000 0.0000 0.0000
# 4 0.0000 0.0000 0.0000 -12.7127 0.0000 0.0000
# 5 0.0000 0.0000 0.0000 0.0000 20.7056 0.0000
# 6 0.0000 0.0000 0.0000 0.0000 0.0000 10.9077
#
#
#
# Elastic Compliance Matrix: (Units=1/GPa)
#
#
# Indices 1 2 3 4 5 6 
#
# 1 0.021146 0.009336 0.000736 0.000000 0.000000 0.000000
# 2 0.009336 0.060080 -0.021827 0.000000 0.000000 0.000000
# 3 0.000736 -0.021827 0.018854 0.000000 0.000000 0.000000
# 4 0.000000 0.000000 0.000000 -0.078661 0.000000 0.000000
# 5 0.000000 0.000000 0.000000 0.000000 0.048296 0.000000
# 6 0.000000 0.000000 0.000000 0.000000 0.000000 0.091678
#
#
# Mechanical properties :
#
#
# Convention : Reuss Voigt Hill
#
# Bulk Modulus (GPa) = 13.06016 21.41772 17.23894
# Shear Modulus (GPa) = 23.76132 16.15411 19.95771
#
# Velocity S-wave (km/s) = 3.68608 3.03928 3.37820
# Velocity P-wave (km/s) = 5.05810 4.95615 5.00738
#
# Compressibility (1/GPa) = 0.07656871
#
# Stress axis : x y z
#
# Youngs Moduli (GPa) = 47.29103 16.64461 53.03847
#
# Poissons Ratio (x) = -0.15539 -0.03902
# Poissons Ratio (y) = -0.44149 1.15765
# Poissons Ratio (z) = -0.03479 0.36330
#
# Static dielectric constant tensor:
#      x y z
#    x 1.617420 0.000000 0.000000 
#    y 0.000000 1.587070 0.000000 
#    z 0.000000 0.000000 1.577690 
# 
# From -- ./inp_files/7532.got.cif
#   From: 2010.05.17/outbox.cif.g08.bks.cpg/sg17_4_cif.got.tgz:7532.got - 2010.06.03 22:34:06.
