data_PCOD9310967
_publ_section_title
;
Structure prediction by ZEFSAII (Michael W. Deem and Ramdas Pophale) SiO2 
 PCOD9310967
Probable space group: P 2 2 21
;
_chemical_formula_sum "Si O2"
_cell_formula_units_Z 20
_cell_length_a 8.558087
_cell_length_b 5.263243
_cell_length_c 18.231198
_cell_angle_alpha 90.000000
_cell_angle_beta 90.000000
_cell_angle_gamma 90.000000
_cell_volume 821.193166
_symmetry_space_group_name_H-M "P 2 2 21"
_symmetry_group_IT_number 17
_symmetry_cell_setting 'orthorhombic'
loop_
_space_group_symop_operation_xyz
x,y,z
-x,-y,1/2+z
x,-y,-z
-x,y,1/2-z
loop_
_atom_site_type_symbol
_atom_site_label
_atom_site_fract_x
_atom_site_fract_y
_atom_site_fract_z
Si Si1 0.405361 0.680856 0.594099
Si Si2 0.221957 0.845412 0.397059
Si Si3 0.873109 0.842404 0.425221
Si Si4 0.822886 0.245472 0.734599
Si Si5 0.342329 0.500000 0.000000
Si Si6 0.500000 0.429366 0.250000
O O1 0.337464 0.393629 0.593621
O O2 0.544954 0.702367 0.537137
O O3 0.466951 0.725456 0.676134
O O4 0.278835 0.887038 0.572828
O O5 0.200312 0.902004 0.310357
O O6 0.054042 0.771731 0.427116
O O7 0.836624 0.917484 0.340670
O O8 0.765324 0.599471 0.435834
O O9 0.843725 0.000000 0.500000
O O10 0.662631 0.414509 0.733637
O O11 0.000000 0.367004 0.750000
#
# Coordination Sequence:
#
# PCOD9310967 Si02
#       6
#     4   4   4   4   2   2
#     4  11  26  45  75 108 144 192 247 307 365 450
#     4  10  26  48  75 102 144 197 251 301 364 446
#     4  11  26  45  70 106 148 196 237 311 378 443
#     4   9  20  46  69 105 145 190 254 303 369 445
#     4  12  28  42  72 110 156 184 246 312 380 448
#     4  10  20  44  76 102 144 196 244 304 376 430
#
# _framework density 24.354807000000001
#
# number of rings (size 3 to 8) (size 9 to 14) (size 15 to 20)
#    0.000    1.600    2.000    0.000    8.400    4.800 
#    0.000    8.000    0.000    0.000    0.000    0.000 
#    0.000    0.000    0.000    0.000    0.000    0.000 
#
# Total GULP energy -111567.908531 kJ/mol
# GULP energy per Si atom -5578.395427 kJ/mol
# Density = 2.429937 g / cm^3
# Si number density = 24.354807 Si / 1000 Ang^3
#
#
#
# Elastic Constant Matrix: (Units=GPa)
#
#
# Indices 1 2 3 4 5 6 
#
# 1 163.4942 26.9952 48.2516 0.0000 0.0000 0.0000
# 2 26.9952 43.0243 24.2289 0.0000 0.0000 0.0000
# 3 48.2516 24.2289 150.2341 0.0000 0.0000 0.0000
# 4 0.0000 0.0000 0.0000 25.4219 0.0000 0.0000
# 5 0.0000 0.0000 0.0000 0.0000 15.8188 0.0000
# 6 0.0000 0.0000 0.0000 0.0000 0.0000 5.1951
#
#
#
# Elastic Compliance Matrix: (Units=1/GPa)
#
#
# Indices 1 2 3 4 5 6 
#
# 1 0.007217 -0.003545 -0.001746 0.000000 0.000000 0.000000
# 2 -0.003545 0.027306 -0.003265 0.000000 0.000000 0.000000
# 3 -0.001746 -0.003265 0.007744 0.000000 0.000000 0.000000
# 4 0.000000 0.000000 0.000000 0.039336 0.000000 0.000000
# 5 0.000000 0.000000 0.000000 0.000000 0.063216 0.000000
# 6 0.000000 0.000000 0.000000 0.000000 0.000000 0.192488
#
#
# Mechanical properties :
#
#
# Convention : Reuss Voigt Hill
#
# Bulk Modulus (GPa) = 39.75539 61.74490 50.75014
# Shear Modulus (GPa) = 13.78153 26.43894 20.11023
#
# Velocity S-wave (km/s) = 2.38137 3.29838 2.87665
# Velocity P-wave (km/s) = 4.89082 6.31768 5.64947
#
# Compressibility (1/GPa) = 0.02515382
#
# Stress axis : x y z
#
# Youngs Moduli (GPa) = 138.55958 36.62242 129.13679
#
# Poissons Ratio (x) = 0.12982 0.22551
# Poissons Ratio (y) = 0.49118 0.42165
# Poissons Ratio (z) = 0.24196 0.11958
#
# Static dielectric constant tensor:
#      x y z
#    x 1.928380 0.000000 0.000000 
#    y 0.000000 2.378850 0.000000 
#    z 0.000000 0.000000 2.030620 
# 
# From -- ./inp_files/9293.got.cif
#   From: 2010.05.17/outbox.cif.g08.bks.cpg/sg17_5_cif.got.tgz:9293.got - 2010.06.03 22:34:06.
