data_PCOD9310519
_publ_section_title
;
Structure prediction by ZEFSAII (Michael W. Deem and Ramdas Pophale) SiO2 
 PCOD9310519
Probable space group: P 2 2 21
;
_chemical_formula_sum "Si O2"
_cell_formula_units_Z 24
_cell_length_a 18.416615
_cell_length_b 12.560020
_cell_length_c 5.677295
_cell_angle_alpha 90.000000
_cell_angle_beta 90.000000
_cell_angle_gamma 90.000000
_cell_volume 1313.232438
_symmetry_space_group_name_H-M "P 2 2 21"
_symmetry_group_IT_number 17
_symmetry_cell_setting 'orthorhombic'
loop_
_space_group_symop_operation_xyz
x,y,z
-x,-y,1/2+z
x,-y,-z
-x,y,1/2-z
loop_
_atom_site_type_symbol
_atom_site_label
_atom_site_fract_x
_atom_site_fract_y
_atom_site_fract_z
Si Si1 0.500000 0.931980 0.750000
Si Si2 0.000000 0.662142 0.250000
Si Si3 0.850319 0.615528 0.036101
Si Si4 0.654265 0.885434 0.624731
Si Si5 0.905786 0.234677 0.354698
Si Si6 0.000000 0.943236 0.750000
Si Si7 0.776409 0.192759 0.694430
Si Si8 0.250321 0.000000 0.500000
O O1 0.572121 0.862255 0.702345
O O2 0.488138 0.000000 0.500000
O O3 0.970771 0.732265 0.468268
O O4 0.074253 0.601519 0.316022
O O5 0.880450 0.665837 0.796729
O O6 0.816535 0.500000 0.000000
O O7 0.796448 0.703864 0.147770
O O8 0.698640 0.812611 0.440183
O O9 0.647922 0.000000 0.500000
O O10 0.701626 0.914820 0.853060
O O11 0.836842 0.198067 0.496985
O O12 0.931490 0.133838 0.207441
O O13 0.987018 0.000000 0.500000
O O14 0.789088 0.080176 0.824784
#
# Coordination Sequence:
#
# PCOD9310519 Si02
#       8
#     2   2   4   4   4   2   4   2
#     4  10  18  32  56  90 132 176 220 252 294 366
#     4  10  21  37  62  76 106 142 200 270 330 376
#     4  11  24  39  64  83 108 152 207 275 330 381
#     4   9  18  33  53  85 123 172 205 243 290 360
#     4  11  23  44  53  82 114 150 205 261 314 376
#     4  12  27  41  60  82 116 156 202 254 308 374
#     4  10  23  37  58  83 121 164 206 245 312 378
#     4  10  18  38  56  84 120 172 196 234 294 366
#
# _framework density 18.275514999999999
#
# number of rings (size 3 to 8) (size 9 to 14) (size 15 to 20)
#    0.000    1.667    2.500    1.500    4.667    5.333 
#    1.500    0.000    0.000    0.000    0.000    0.000 
#    0.000    0.000   79.333    0.250    0.000    0.000 
#
# Total GULP energy -133647.213946 kJ/mol
# GULP energy per Si atom -5568.633914 kJ/mol
# Density = 1.823392 g / cm^3
# Si number density = 18.275515 Si / 1000 Ang^3
#
#
#
# Elastic Constant Matrix: (Units=GPa)
#
#
# Indices 1 2 3 4 5 6 
#
# 1 85.3033 49.1712 32.2828 0.0000 0.0000 0.0000
# 2 49.1712 97.1474 37.6987 0.0000 0.0000 0.0000
# 3 32.2828 37.6987 87.6244 0.0000 0.0000 0.0000
# 4 0.0000 0.0000 0.0000 -38.3037 0.0000 0.0000
# 5 0.0000 0.0000 0.0000 0.0000 28.3373 0.0000
# 6 0.0000 0.0000 0.0000 0.0000 0.0000 13.3563
#
#
#
# Elastic Compliance Matrix: (Units=1/GPa)
#
#
# Indices 1 2 3 4 5 6 
#
# 1 0.017233 -0.007513 -0.003117 0.000000 0.000000 0.000000
# 2 -0.007513 0.015632 -0.003957 0.000000 0.000000 0.000000
# 3 -0.003117 -0.003957 0.014263 0.000000 0.000000 0.000000
# 4 0.000000 0.000000 0.000000 -0.026107 0.000000 0.000000
# 5 0.000000 0.000000 0.000000 0.000000 0.035289 0.000000
# 6 0.000000 0.000000 0.000000 0.000000 0.000000 0.074871
#
#
# Mechanical properties :
#
#
# Convention : Reuss Voigt Hill
#
# Bulk Modulus (GPa) = 55.69789 56.48673 56.09231
# Shear Modulus (GPa) = 30.05883 10.73948 20.39915
#
# Velocity S-wave (km/s) = 4.05996 2.42676 3.34458
# Velocity P-wave (km/s) = 7.24712 6.23119 6.75827
#
# Compressibility (1/GPa) = 0.01795400
#
# Stress axis : x y z
#
# Youngs Moduli (GPa) = 58.02772 63.97096 70.11050
#
# Poissons Ratio (x) = 0.48062 0.21851
# Poissons Ratio (y) = 0.43597 0.27746
# Poissons Ratio (z) = 0.18086 0.25316
#
# Static dielectric constant tensor:
#      x y z
#    x 1.844000 0.000000 0.000000 
#    y 0.000000 1.621510 0.000000 
#    z 0.000000 0.000000 1.775790 
# 
# From -- ./inp_files/1723.got.cif
#   From: 2010.05.17/outbox.cif.g08.bks.cpg/sg17_1_cif.got.tgz:1723.got - 2010.06.03 22:34:06.
