data_PCOD9310360
_publ_section_title
;
Structure prediction by ZEFSAII (Michael W. Deem and Ramdas Pophale) SiO2 
 PCOD9310360
Probable space group: P 2 2 2
;
_chemical_formula_sum "Si O2"
_cell_formula_units_Z 24
_cell_length_a 13.201483
_cell_length_b 8.497917
_cell_length_c 10.811344
_cell_angle_alpha 90.000000
_cell_angle_beta 90.000000
_cell_angle_gamma 90.000000
_cell_volume 1212.871781
_symmetry_space_group_name_H-M "P 2 2 2"
_symmetry_group_IT_number 16
_symmetry_cell_setting 'orthorhombic'
loop_
_space_group_symop_operation_xyz
x,y,z
-x,-y,z
x,-y,-z
-x,y,-z
loop_
_atom_site_type_symbol
_atom_site_label
_atom_site_fract_x
_atom_site_fract_y
_atom_site_fract_z
Si Si1 0.387026 0.483590 0.210442
Si Si2 0.804554 0.419462 0.367822
Si Si3 0.000000 0.500000 0.795046
Si Si4 0.888057 0.182257 0.524265
Si Si5 0.074392 0.154066 0.197383
Si Si6 0.386612 0.751563 0.001747
Si Si7 0.777171 0.000000 0.000000
O O1 0.500000 0.500000 0.266276
O O2 0.298080 0.525281 0.304254
O O3 0.368193 0.321040 0.135414
O O4 0.388176 0.611377 0.100549
O O5 0.820547 0.500000 0.500000
O O6 0.898951 0.456313 0.280430
O O7 0.811736 0.242273 0.418519
O O8 0.973050 0.322805 0.849695
O O9 0.873058 0.198148 0.671370
O O10 0.000000 0.255178 0.500000
O O11 0.895610 0.000000 0.500000
O O12 0.000000 0.000000 0.218456
O O13 0.152996 0.085830 0.099471
O O14 0.299872 0.867471 0.047009
O O15 0.500000 0.819349 0.000000
#
# Coordination Sequence:
#
# PCOD9310360 Si02
#       7
#     4   4   2   4   4   4   2
#     4   9  21  41  64  94 124 165 217 275 336 393
#     4  12  21  35  63  95 126 167 216 267 320 394
#     4  12  23  40  67  92 136 179 225 254 322 400
#     4  11  20  37  61  86 131 176 218 259 315 401
#     4  12  25  43  59  94 139 177 215 267 322 397
#     4   9  20  42  67  87 119 165 222 272 328 404
#     4  12  26  40  62  96 126 162 226 276 336 372
#
# _framework density 19.787745999999999
#
# number of rings (size 3 to 8) (size 9 to 14) (size 15 to 20)
#    0.000    1.167    5.000    2.750    4.667    0.333 
#    0.000    0.833    0.000    0.000    0.000    1.167 
#    0.000    0.000    0.000    0.000    0.000    0.000 
#
# Total GULP energy -133624.939030 kJ/mol
# GULP energy per Si atom -5567.705793 kJ/mol
# Density = 1.974271 g / cm^3
# Si number density = 19.787746 Si / 1000 Ang^3
#
#
#
# Elastic Constant Matrix: (Units=GPa)
#
#
# Indices 1 2 3 4 5 6 
#
# 1 138.0446 47.7120 57.5283 0.0000 0.0000 0.0000
# 2 47.7120 119.1885 25.2160 0.0000 0.0000 0.0000
# 3 57.5283 25.2160 77.6396 0.0000 0.0000 0.0000
# 4 0.0000 0.0000 0.0000 18.7120 0.0000 0.0000
# 5 0.0000 0.0000 0.0000 0.0000 9.7133 0.0000
# 6 0.0000 0.0000 0.0000 0.0000 0.0000 30.8131
#
#
#
# Elastic Compliance Matrix: (Units=1/GPa)
#
#
# Indices 1 2 3 4 5 6 
#
# 1 0.011386 -0.002978 -0.007470 0.000000 0.000000 0.000000
# 2 -0.002978 0.009788 -0.000973 0.000000 0.000000 0.000000
# 3 -0.007470 -0.000973 0.018731 0.000000 0.000000 0.000000
# 4 0.000000 0.000000 0.000000 0.053442 0.000000 0.000000
# 5 0.000000 0.000000 0.000000 0.000000 0.102951 0.000000
# 6 0.000000 0.000000 0.000000 0.000000 0.000000 0.032454
#
#
# Mechanical properties :
#
#
# Convention : Reuss Voigt Hill
#
# Bulk Modulus (GPa) = 58.59999 66.19838 62.39918
# Shear Modulus (GPa) = 19.43416 25.47544 22.45480
#
# Velocity S-wave (km/s) = 3.13730 3.59198 3.37231
# Velocity P-wave (km/s) = 6.54233 7.12249 6.83857
#
# Compressibility (1/GPa) = 0.01706485
#
# Stress axis : x y z
#
# Youngs Moduli (GPa) = 87.82697 102.16800 53.38855
#
# Poissons Ratio (x) = 0.30422 0.39879
# Poissons Ratio (y) = 0.26151 0.05193
# Poissons Ratio (z) = 0.65603 0.09937
#
# Static dielectric constant tensor:
#      x y z
#    x 1.697570 0.000000 0.000000 
#    y 0.000000 1.822490 0.000000 
#    z 0.000000 0.000000 1.675790 
# 
# From -- ./inp_files/6848.got.cif
#   From: 2010.05.17/outbox.cif.g08.bks.cpg/sg16_4_cif.got.tgz:6848.got - 2010.06.03 22:28:35.
