data_PCOD9310960
_publ_section_title
;
Structure prediction by ZEFSAII (Michael W. Deem and Ramdas Pophale) SiO2 
 PCOD9310960
Probable space group: P 2 2 21
;
_chemical_formula_sum "Si O2"
_cell_formula_units_Z 22
_cell_length_a 11.942662
_cell_length_b 9.389987
_cell_length_c 9.364402
_cell_angle_alpha 90.000000
_cell_angle_beta 90.000000
_cell_angle_gamma 90.000000
_cell_volume 1050.137534
_symmetry_space_group_name_H-M "P 2 2 21"
_symmetry_group_IT_number 17
_symmetry_cell_setting 'orthorhombic'
loop_
_space_group_symop_operation_xyz
x,y,z
-x,-y,1/2+z
x,-y,-z
-x,y,1/2-z
loop_
_atom_site_type_symbol
_atom_site_label
_atom_site_fract_x
_atom_site_fract_y
_atom_site_fract_z
Si Si1 0.693915 0.500000 0.500000
Si Si2 0.064719 0.168450 0.979952
Si Si3 0.713922 0.738541 0.300182
Si Si4 0.206544 0.725976 0.790067
Si Si5 0.847701 0.339620 0.969895
Si Si6 0.392747 0.966389 0.835166
O O1 0.645458 0.631180 0.405462
O O2 0.760285 0.417225 0.375010
O O3 0.172468 0.214040 0.885385
O O4 0.951201 0.239564 0.925908
O O5 0.091161 0.229636 0.136458
O O6 0.056094 0.000000 0.000000
O O7 0.755042 0.667345 0.153808
O O8 0.648022 0.883488 0.270296
O O9 0.199857 0.711473 0.621477
O O10 0.295030 0.850035 0.826840
O O11 0.888118 0.500000 0.000000
O O12 0.500000 0.913154 0.750000
O O13 0.417754 0.000000 0.000000
#
# Coordination Sequence:
#
# PCOD9310960 Si02
#       6
#     2   4   4   4   4   4
#     4  10  20  42  74  84 134 188 196 266 344 382
#     4  11  23  42  64  93 135 184 223 264 324 394
#     4  11  23  45  67  95 139 174 218 277 331 387
#     4  11  23  45  67  95 139 174 218 277 331 387
#     4  12  27  37  63 107 137 176 229 261 317 398
#     4  12  26  48  75  99 124 172 229 279 341 394
#
# _framework density 20.949635000000001
#
# number of rings (size 3 to 8) (size 9 to 14) (size 15 to 20)
#    0.000    0.727    7.273    1.091   10.182    2.909 
#    0.000    0.909    4.000    0.000    0.000    0.000 
#    0.000    0.000    0.000    0.000    0.000    0.000 
#
# Total GULP energy -122814.696481 kJ/mol
# GULP energy per Si atom -5582.486204 kJ/mol
# Density = 2.090195 g / cm^3
# Si number density = 20.949635 Si / 1000 Ang^3
#
#
#
# Elastic Constant Matrix: (Units=GPa)
#
#
# Indices 1 2 3 4 5 6 
#
# 1 24.5018 -15.6521 4.8466 0.0000 0.0000 0.0000
# 2 -15.6521 91.1513 0.0325 0.0000 0.0000 0.0000
# 3 4.8466 0.0325 107.6888 0.0000 0.0000 0.0000
# 4 0.0000 0.0000 0.0000 23.8929 0.0000 0.0000
# 5 0.0000 0.0000 0.0000 0.0000 17.0381 0.0000
# 6 0.0000 0.0000 0.0000 0.0000 0.0000 -12.0812
#
#
#
# Elastic Compliance Matrix: (Units=1/GPa)
#
#
# Indices 1 2 3 4 5 6 
#
# 1 0.046306 0.007952 -0.002086 0.000000 0.000000 0.000000
# 2 0.007952 0.012336 -0.000362 0.000000 0.000000 0.000000
# 3 -0.002086 -0.000362 0.009380 0.000000 0.000000 0.000000
# 4 0.000000 0.000000 0.000000 0.041853 0.000000 0.000000
# 5 0.000000 0.000000 0.000000 0.000000 0.058692 0.000000
# 6 0.000000 0.000000 0.000000 0.000000 0.000000 -0.082773
#
#
# Mechanical properties :
#
#
# Convention : Reuss Voigt Hill
#
# Bulk Modulus (GPa) = 12.65330 22.42177 17.53753
# Shear Modulus (GPa) = 49.44139 21.37763 35.40951
#
# Velocity S-wave (km/s) = 4.86327 3.19788 4.11569
# Velocity P-wave (km/s) = 6.13091 4.93571 5.56549
#
# Compressibility (1/GPa) = 0.07903078
#
# Stress axis : x y z
#
# Youngs Moduli (GPa) = 21.59545 81.06086 106.60954
#
# Poissons Ratio (x) = -0.64461 0.22243
# Poissons Ratio (y) = -0.17173 0.03855
# Poissons Ratio (z) = 0.04506 0.02931
#
# Static dielectric constant tensor:
#      x y z
#    x 1.708680 0.000000 0.000000 
#    y 0.000000 1.776880 0.000000 
#    z 0.000000 0.000000 1.764110 
# 
# From -- ./inp_files/5106.got.cif
#   From: 2010.05.17/outbox.cif.g08.bks.cpg/sg17_3_cif.got.tgz:5106.got - 2010.06.03 22:34:06.
