data_PCOD9310053
_publ_section_title
;
Structure prediction by ZEFSAII (Michael W. Deem and Ramdas Pophale) SiO2 
 PCOD9310053
Probable space group: P 2 2 2
;
_chemical_formula_sum "Si O2"
_cell_formula_units_Z 32
_cell_length_a 12.052893
_cell_length_b 15.206029
_cell_length_c 7.677468
_cell_angle_alpha 90.000000
_cell_angle_beta 90.000000
_cell_angle_gamma 90.000000
_cell_volume 1407.100543
_symmetry_space_group_name_H-M "P 2 2 2"
_symmetry_group_IT_number 16
_symmetry_cell_setting 'orthorhombic'
loop_
_space_group_symop_operation_xyz
x,y,z
-x,-y,z
x,-y,-z
-x,y,-z
loop_
_atom_site_type_symbol
_atom_site_label
_atom_site_fract_x
_atom_site_fract_y
_atom_site_fract_z
Si Si1 0.148202 0.684949 0.820720
Si Si2 0.243915 0.813079 0.320475
Si Si3 0.767842 0.498152 0.790380
Si Si4 0.547105 0.586283 0.696840
Si Si5 0.488879 0.782765 0.286799
Si Si6 0.903598 0.346521 0.229375
Si Si7 0.721940 0.855513 0.277418
Si Si8 0.122843 0.016847 0.796324
O O1 0.223300 0.604952 0.746822
O O2 0.206484 0.778683 0.812060
O O3 0.028503 0.681833 0.729276
O O4 0.121091 0.665412 0.022561
O O5 0.366170 0.814842 0.235461
O O6 0.183766 0.719434 0.315669
O O7 0.267244 0.836080 0.518967
O O8 0.162573 0.884931 0.239965
O O9 0.675278 0.558922 0.700658
O O10 0.879513 0.550747 0.742379
O O11 0.750524 0.500000 0.000000
O O12 0.500000 0.500000 0.790462
O O13 0.500000 0.588130 0.500000
O O14 0.512198 0.680362 0.771144
O O15 0.500000 0.782151 0.500000
O O16 0.593659 0.839760 0.224534
O O17 0.780221 0.949421 0.257549
O O18 0.000000 0.000000 0.718041
O O19 0.112745 0.000000 0.000000
#
# Coordination Sequence:
#
# PCOD9310053 Si02
#       8
#     4   4   4   4   4   4   4   4
#     4  10  21  37  59  88 126 165 207 256 311 365
#     4  11  22  40  67  90 125 161 206 256 307 372
#     4  10  20  36  59  89 121 163 218 259 301 365
#     4  10  19  34  58  83 119 166 210 250 304 362
#     4   9  20  38  59  89 122 165 199 244 312 363
#     4  10  20  38  60  86 124 168 205 255 315 364
#     4  11  23  40  63  94 125 157 209 255 304 374
#     4  11  25  45  67  91 122 161 202 250 316 378
#
# _framework density 22.741800000000001
#
# number of rings (size 3 to 8) (size 9 to 14) (size 15 to 20)
#    0.000    1.750    1.250    3.000    0.000    7.750 
#    0.000    5.000    0.000    1.500    0.000    0.000 
#    0.000    0.000    0.000    0.000    0.000    0.250 
#
# Total GULP energy -178664.630115 kJ/mol
# GULP energy per Si atom -5583.269691 kJ/mol
# Density = 2.269004 g / cm^3
# Si number density = 22.741800 Si / 1000 Ang^3
#
#
#
# Elastic Constant Matrix: (Units=GPa)
#
#
# Indices 1 2 3 4 5 6 
#
# 1 122.7564 20.1101 8.0132 0.0000 0.0000 0.0000
# 2 20.1101 92.2431 -0.0072 0.0000 0.0000 0.0000
# 3 8.0132 -0.0072 40.8042 0.0000 0.0000 0.0000
# 4 0.0000 0.0000 0.0000 16.7186 0.0000 0.0000
# 5 0.0000 0.0000 0.0000 0.0000 10.1280 0.0000
# 6 0.0000 0.0000 0.0000 0.0000 0.0000 30.5551
#
#
#
# Elastic Compliance Matrix: (Units=1/GPa)
#
#
# Indices 1 2 3 4 5 6 
#
# 1 0.008562 -0.001867 -0.001682 0.000000 0.000000 0.000000
# 2 -0.001867 0.011248 0.000369 0.000000 0.000000 0.000000
# 3 -0.001682 0.000369 0.024838 0.000000 0.000000 0.000000
# 4 0.000000 0.000000 0.000000 0.059814 0.000000 0.000000
# 5 0.000000 0.000000 0.000000 0.000000 0.098736 0.000000
# 6 0.000000 0.000000 0.000000 0.000000 0.000000 0.032728
#
#
# Mechanical properties :
#
#
# Convention : Reuss Voigt Hill
#
# Bulk Modulus (GPa) = 26.11808 34.67065 30.39437
# Shear Modulus (GPa) = 19.60424 26.65952 23.13188
#
# Velocity S-wave (km/s) = 2.93923 3.42756 3.19274
# Velocity P-wave (km/s) = 4.79878 5.56261 5.19475
#
# Compressibility (1/GPa) = 0.03828765
#
# Stress axis : x y z
#
# Youngs Moduli (GPa) = 116.79788 88.90536 40.26151
#
# Poissons Ratio (x) = 0.16596 0.06771
# Poissons Ratio (y) = 0.21803 -0.01484
# Poissons Ratio (z) = 0.19642 -0.03277
#
# Static dielectric constant tensor:
#      x y z
#    x 1.939610 0.000000 0.000000 
#    y 0.000000 1.957340 0.000000 
#    z 0.000000 0.000000 1.877400 
# 
# From -- ./inp_files/4873.got.cif
#   From: 2010.05.17/outbox.cif.g08.bks.cpg/sg16_3_cif.got.tgz:4873.got - 2010.06.03 22:28:35.
