data_PCOD9310478
_publ_section_title
;
Structure prediction by ZEFSAII (Michael W. Deem and Ramdas Pophale) SiO2 
 PCOD9310478
Probable space group: P 2 2 21
;
_chemical_formula_sum "Si O2"
_cell_formula_units_Z 24
_cell_length_a 8.907927
_cell_length_b 9.049419
_cell_length_c 16.288560
_cell_angle_alpha 90.000000
_cell_angle_beta 90.000000
_cell_angle_gamma 90.000000
_cell_volume 1313.046294
_symmetry_space_group_name_H-M "P 2 2 21"
_symmetry_group_IT_number 17
_symmetry_cell_setting 'orthorhombic'
loop_
_space_group_symop_operation_xyz
x,y,z
-x,-y,1/2+z
x,-y,-z
-x,y,1/2-z
loop_
_atom_site_type_symbol
_atom_site_label
_atom_site_fract_x
_atom_site_fract_y
_atom_site_fract_z
Si Si1 0.082345 0.359846 0.835584
Si Si2 0.874138 0.401798 0.078478
Si Si3 0.426096 0.355693 0.334321
Si Si4 0.436560 0.321203 0.830615
Si Si5 0.389095 0.319803 0.008762
Si Si6 0.928903 0.173694 0.509315
O O1 0.261397 0.366412 0.822391
O O2 0.000000 0.343037 0.750000
O O3 0.007946 0.499988 0.882009
O O4 0.054518 0.222833 0.896168
O O5 0.750501 0.360364 0.146467
O O6 0.940037 0.252760 0.040868
O O7 0.814087 0.500000 0.000000
O O8 0.500000 0.296003 0.250000
O O9 0.468896 0.528693 0.334114
O O10 0.506741 0.287955 0.413949
O O11 0.500000 0.238877 0.750000
O O12 0.449597 0.256248 0.922058
O O13 0.225538 0.250731 0.019880
O O14 0.376276 0.500000 0.000000
O O15 0.923886 0.000000 0.500000
#
# Coordination Sequence:
#
# PCOD9310478 Si02
#       6
#     4   4   4   4   4   4
#     4  10  19  33  55  83 108 135 177 229 272 318
#     4  10  19  33  55  80 106 138 179 226 273 321
#     4  10  18  29  49  80 108 133 171 223 273 318
#     4   9  16  27  48  78 105 129 165 217 273 318
#     4   9  17  33  54  76 103 136 177 224 269 318
#     4  10  21  37  54  75 108 149 184 217 270 329
#
# _framework density 18.278108
#
# number of rings (size 3 to 8) (size 9 to 14) (size 15 to 20)
#    0.000    2.333    0.000    7.000    0.000    1.333 
#    0.000    3.333    0.000    4.000    0.000    4.667 
#    0.000    0.000    0.000    0.000    0.000    0.000 
#
# Total GULP energy -133687.187555 kJ/mol
# GULP energy per Si atom -5570.299481 kJ/mol
# Density = 1.823651 g / cm^3
# Si number density = 18.278108 Si / 1000 Ang^3
#
#
#
# Elastic Constant Matrix: (Units=GPa)
#
#
# Indices 1 2 3 4 5 6 
#
# 1 71.8191 20.2287 56.6343 0.0000 0.0000 0.0000
# 2 20.2287 66.5122 26.2372 0.0000 0.0000 0.0000
# 3 56.6343 26.2372 117.9960 0.0000 0.0000 0.0000
# 4 0.0000 0.0000 0.0000 6.5701 0.0000 0.0000
# 5 0.0000 0.0000 0.0000 0.0000 38.7821 0.0000
# 6 0.0000 0.0000 0.0000 0.0000 0.0000 1.5672
#
#
#
# Elastic Compliance Matrix: (Units=1/GPa)
#
#
# Indices 1 2 3 4 5 6 
#
# 1 0.022896 -0.002881 -0.010349 0.000000 0.000000 0.000000
# 2 -0.002881 0.016843 -0.002362 0.000000 0.000000 0.000000
# 3 -0.010349 -0.002362 0.013967 0.000000 0.000000 0.000000
# 4 0.000000 0.000000 0.000000 0.152205 0.000000 0.000000
# 5 0.000000 0.000000 0.000000 0.000000 0.025785 0.000000
# 6 0.000000 0.000000 0.000000 0.000000 0.000000 0.638093
#
#
# Mechanical properties :
#
#
# Convention : Reuss Voigt Hill
#
# Bulk Modulus (GPa) = 44.40136 51.39195 47.89666
# Shear Modulus (GPa) = 5.50369 19.59901 12.55135
#
# Velocity S-wave (km/s) = 1.73713 3.27810 2.62332
# Velocity P-wave (km/s) = 5.32619 6.51963 5.95290
#
# Compressibility (1/GPa) = 0.02252183
#
# Stress axis : x y z
#
# Youngs Moduli (GPa) = 43.67562 59.37201 71.59637
#
# Poissons Ratio (x) = 0.17106 0.74093
# Poissons Ratio (y) = 0.12584 0.16913
# Poissons Ratio (z) = 0.45199 0.14025
#
# Static dielectric constant tensor:
#      x y z
#    x 1.671480 0.000000 0.000000 
#    y 0.000000 1.576310 0.000000 
#    z 0.000000 0.000000 1.718380 
# 
# From -- ./inp_files/9405.got.cif
#   From: 2010.05.17/outbox.cif.g08.bks.cpg/sg17_5_cif.got.tgz:9405.got - 2010.06.03 22:34:06.
