data_PCOD9310945
_publ_section_title
;
Structure prediction by ZEFSAII (Michael W. Deem and Ramdas Pophale) SiO2 
 PCOD9310945
Probable space group: P 2 2 21
;
_chemical_formula_sum "Si O2"
_cell_formula_units_Z 32
_cell_length_a 5.395173
_cell_length_b 8.606176
_cell_length_c 28.765211
_cell_angle_alpha 90.000000
_cell_angle_beta 90.000000
_cell_angle_gamma 90.000000
_cell_volume 1335.620765
_symmetry_space_group_name_H-M "P 2 2 21"
_symmetry_group_IT_number 17
_symmetry_cell_setting 'orthorhombic'
loop_
_space_group_symop_operation_xyz
x,y,z
-x,-y,1/2+z
x,-y,-z
-x,y,1/2-z
loop_
_atom_site_type_symbol
_atom_site_label
_atom_site_fract_x
_atom_site_fract_y
_atom_site_fract_z
Si Si1 0.106708 0.574476 0.050439
Si Si2 0.258514 0.520997 0.368763
Si Si3 0.875559 0.067606 0.378049
Si Si4 0.247924 0.805133 0.776072
Si Si5 0.552756 0.788863 0.405051
Si Si6 0.753867 0.541092 0.238649
Si Si7 0.773472 0.157655 0.985474
Si Si8 0.397861 0.787512 0.586198
O O1 0.368827 0.636238 0.066051
O O2 0.974204 0.504214 0.095794
O O3 0.950224 0.728053 0.040522
O O4 0.116332 0.500000 0.000000
O O5 0.365552 0.698691 0.370724
O O6 0.219929 0.491525 0.314577
O O7 0.415199 0.374000 0.386155
O O8 0.790703 0.134175 0.328081
O O9 0.678865 0.149887 0.412237
O O10 0.162705 0.113932 0.390298
O O11 0.775407 0.887737 0.382160
O O12 0.500000 0.857379 0.750000
O O13 0.252760 0.616002 0.770410
O O14 0.000000 0.857292 0.750000
O O15 0.427815 0.887609 0.446495
O O16 0.500000 0.625800 0.250000
O O17 0.000000 0.634543 0.250000
O O18 0.672378 0.234621 0.032255
O O19 0.906962 0.000000 0.000000
#
# Coordination Sequence:
#
# PCOD9310945 Si02
#       8
#     4   4   4   4   4   4   4   4
#     4  11  25  44  67 101 147 198 245 302 364 448
#     4  11  26  44  71 106 147 191 248 309 377 442
#     4  12  26  47  73 107 147 190 246 307 375 443
#     4  10  20  41  70 103 135 171 233 307 361 428
#     4  11  28  43  68 101 157 198 240 303 385 441
#     4  10  21  40  70 104 135 171 236 309 364 427
#     4  11  23  43  64 102 138 192 245 301 350 428
#     4  12  25  42  74 107 138 194 251 301 355 433
#
# _framework density 23.958895999999999
#
# number of rings (size 3 to 8) (size 9 to 14) (size 15 to 20)
#    0.000    1.000    2.500    4.500    8.750    0.500 
#    0.000    0.625    0.000    0.000    0.000    0.000 
#    0.000    0.000    0.000    0.000    0.000    0.000 
#
# Total GULP energy -178458.742714 kJ/mol
# GULP energy per Si atom -5576.835710 kJ/mol
# Density = 2.390436 g / cm^3
# Si number density = 23.958896 Si / 1000 Ang^3
#
#
#
# Elastic Constant Matrix: (Units=GPa)
#
#
# Indices 1 2 3 4 5 6 
#
# 1 116.0372 11.9067 23.9900 0.0000 0.0000 0.0000
# 2 11.9067 49.7186 9.3397 0.0000 0.0000 0.0000
# 3 23.9900 9.3397 96.9428 0.0000 0.0000 0.0000
# 4 0.0000 0.0000 0.0000 24.1023 0.0000 0.0000
# 5 0.0000 0.0000 0.0000 0.0000 15.4680 0.0000
# 6 0.0000 0.0000 0.0000 0.0000 0.0000 37.4430
#
#
#
# Elastic Compliance Matrix: (Units=1/GPa)
#
#
# Indices 1 2 3 4 5 6 
#
# 1 0.009241 -0.001816 -0.002112 0.000000 0.000000 0.000000
# 2 -0.001816 0.020841 -0.001558 0.000000 0.000000 0.000000
# 3 -0.002112 -0.001558 0.010988 0.000000 0.000000 0.000000
# 4 0.000000 0.000000 0.000000 0.041490 0.000000 0.000000
# 5 0.000000 0.000000 0.000000 0.000000 0.064650 0.000000
# 6 0.000000 0.000000 0.000000 0.000000 0.000000 0.026707
#
#
# Mechanical properties :
#
#
# Convention : Reuss Voigt Hill
#
# Bulk Modulus (GPa) = 33.22603 39.24125 36.23364
# Shear Modulus (GPa) = 25.65129 29.90013 27.77571
#
# Velocity S-wave (km/s) = 3.27561 3.53650 3.40855
# Velocity P-wave (km/s) = 5.31076 5.75239 5.53598
#
# Compressibility (1/GPa) = 0.03009688
#
# Stress axis : x y z
#
# Youngs Moduli (GPa) = 108.21450 47.98256 91.00749
#
# Poissons Ratio (x) = 0.08715 0.19219
# Poissons Ratio (y) = 0.19655 0.14182
# Poissons Ratio (z) = 0.22853 0.07478
#
# Static dielectric constant tensor:
#      x y z
#    x 2.046710 0.000000 0.000000 
#    y 0.000000 2.090700 0.000000 
#    z 0.000000 0.000000 1.713760 
# 
# From -- ./inp_files/11175.got.cif
#   From: 2010.05.17/outbox.cif.g08.bks.cpg/sg17_6_cif.got.tgz:11175.got - 2010.06.03 22:34:06.
