data_PCOD9310192
_publ_section_title
;
Structure prediction by ZEFSAII (Michael W. Deem and Ramdas Pophale) SiO2 
 PCOD9310192
Probable space group: P 2 2 2
;
_chemical_formula_sum "Si O2"
_cell_formula_units_Z 30
_cell_length_a 13.874241
_cell_length_b 7.919862
_cell_length_c 12.771576
_cell_angle_alpha 90.000000
_cell_angle_beta 90.000000
_cell_angle_gamma 90.000000
_cell_volume 1403.367260
_symmetry_space_group_name_H-M "P 2 2 2"
_symmetry_group_IT_number 16
_symmetry_cell_setting 'orthorhombic'
loop_
_space_group_symop_operation_xyz
x,y,z
-x,-y,z
x,-y,-z
-x,y,-z
loop_
_atom_site_type_symbol
_atom_site_label
_atom_site_fract_x
_atom_site_fract_y
_atom_site_fract_z
Si Si1 0.894600 0.439338 0.169704
Si Si2 0.808811 0.950399 0.620206
Si Si3 0.394122 0.576579 0.308725
Si Si4 0.401639 0.057674 0.619473
Si Si5 0.807724 0.457489 0.382145
Si Si6 0.745534 0.000000 0.000000
Si Si7 0.690110 0.369834 0.079991
Si Si8 0.103981 0.035232 0.826248
O O1 0.875374 0.514102 0.286129
O O2 0.794826 0.458521 0.105596
O O3 0.893216 0.237107 0.175712
O O4 0.000000 0.500000 0.131617
O O5 0.701827 0.003079 0.659778
O O6 0.807447 0.746779 0.623353
O O7 0.881876 0.021170 0.706164
O O8 0.825008 0.000000 0.500000
O O9 0.500000 0.500000 0.306107
O O10 0.402778 0.742198 0.378964
O O11 0.301464 0.478968 0.356759
O O12 0.361907 0.633008 0.192399
O O13 0.500000 0.000000 0.674110
O O14 0.402871 0.000000 0.500000
O O15 0.836660 0.500000 0.500000
O O16 0.696047 0.821352 0.966657
O O17 0.814298 0.038085 0.900810
O O18 0.641329 0.500000 0.000000
O O19 0.000000 0.000000 0.870061
#
# Coordination Sequence:
#
# PCOD9310192 Si02
#       8
#     4   4   4   4   4   2   4   4
#     4   9  20  37  57  85 123 160 203 260 313 377
#     4   9  19  36  53  79 121 157 198 257 305 377
#     4  10  22  41  61  90 130 163 207 275 321 380
#     4   9  18  35  59  89 119 158 208 253 307 379
#     4   9  19  35  55  82 117 163 207 240 309 378
#     4  10  21  42  66  91 122 164 213 276 328 381
#     4  10  23  44  67  92 125 167 218 269 332 394
#     4  10  21  36  57  86 119 156 208 258 315 383
#
# _framework density 21.377154999999998
#
# number of rings (size 3 to 8) (size 9 to 14) (size 15 to 20)
#    0.000    2.533    0.000    2.600    1.867    7.733 
#    7.200    2.667    0.000    0.000    0.000    0.000 
#    0.000    0.000    0.000    0.000    0.000    0.000 
#
# Total GULP energy -167081.153640 kJ/mol
# GULP energy per Si atom -5569.371788 kJ/mol
# Density = 2.132850 g / cm^3
# Si number density = 21.377155 Si / 1000 Ang^3
#
#
#
# Elastic Constant Matrix: (Units=GPa)
#
#
# Indices 1 2 3 4 5 6 
#
# 1 56.5455 11.5867 13.2384 0.0000 0.0000 0.0000
# 2 11.5867 41.8616 31.5030 0.0000 0.0000 0.0000
# 3 13.2384 31.5030 113.9479 0.0000 0.0000 0.0000
# 4 0.0000 0.0000 0.0000 22.8189 0.0000 0.0000
# 5 0.0000 0.0000 0.0000 0.0000 -9.9843 0.0000
# 6 0.0000 0.0000 0.0000 0.0000 0.0000 18.2100
#
#
#
# Elastic Compliance Matrix: (Units=1/GPa)
#
#
# Indices 1 2 3 4 5 6 
#
# 1 0.018828 -0.004502 -0.000943 0.000000 0.000000 0.000000
# 2 -0.004502 0.031240 -0.008114 0.000000 0.000000 0.000000
# 3 -0.000943 -0.008114 0.011129 0.000000 0.000000 0.000000
# 4 0.000000 0.000000 0.000000 0.043823 0.000000 0.000000
# 5 0.000000 0.000000 0.000000 0.000000 -0.100157 0.000000
# 6 0.000000 0.000000 0.000000 0.000000 0.000000 0.054915
#
#
# Mechanical properties :
#
#
# Convention : Reuss Voigt Hill
#
# Bulk Modulus (GPa) = 29.34271 36.11236 32.72753
# Shear Modulus (GPa) = 50.88755 16.61070 33.74913
#
# Velocity S-wave (km/s) = 4.88429 2.79055 3.97766
# Velocity P-wave (km/s) = 6.75014 5.22614 6.03643
#
# Compressibility (1/GPa) = 0.03408001
#
# Stress axis : x y z
#
# Youngs Moduli (GPa) = 53.11217 32.00979 89.85745
#
# Poissons Ratio (x) = 0.14410 0.08472
# Poissons Ratio (y) = 0.23910 0.72910
# Poissons Ratio (z) = 0.05008 0.25973
#
# Static dielectric constant tensor:
#      x y z
#    x 1.885480 0.000000 0.000000 
#    y 0.000000 1.780620 0.000000 
#    z 0.000000 0.000000 1.777920 
# 
# From -- ./inp_files/7133.got.cif
#   From: 2010.05.17/outbox.cif.g08.bks.cpg/sg16_4_cif.got.tgz:7133.got - 2010.06.03 22:28:35.
