data_PCOD9310412
_publ_section_title
;
Structure prediction by ZEFSAII (Michael W. Deem and Ramdas Pophale) SiO2 
 PCOD9310412
Probable space group: P 2 2 2
;
_chemical_formula_sum "Si O2"
_cell_formula_units_Z 17
_cell_length_a 7.454259
_cell_length_b 16.722338
_cell_length_c 6.875153
_cell_angle_alpha 90.000000
_cell_angle_beta 90.000000
_cell_angle_gamma 90.000000
_cell_volume 857.005962
_symmetry_space_group_name_H-M "P 2 2 2"
_symmetry_group_IT_number 16
_symmetry_cell_setting 'orthorhombic'
loop_
_space_group_symop_operation_xyz
x,y,z
-x,-y,z
x,-y,-z
-x,y,-z
loop_
_atom_site_type_symbol
_atom_site_label
_atom_site_fract_x
_atom_site_fract_y
_atom_site_fract_z
Si Si1 0.162797 0.416302 0.615369
Si Si2 0.670789 0.750982 0.132437
Si Si3 0.182204 0.926713 0.876826
Si Si4 0.500000 0.680625 0.500000
Si Si5 0.000000 0.000000 0.500000
Si Si6 0.000000 0.638354 0.000000
O O1 0.183384 0.500000 0.500000
O O2 0.352673 0.373369 0.607252
O O3 0.089793 0.415564 0.833356
O O4 0.000000 0.372652 0.500000
O O5 0.712299 0.844554 0.115080
O O6 0.611325 0.732576 0.350186
O O7 0.500000 0.730033 0.000000
O O8 0.841693 0.696373 0.078138
O O9 0.123894 0.951036 0.655799
O O10 0.000000 0.912234 0.000000
O O11 0.268367 0.000000 0.000000
#
# Coordination Sequence:
#
# PCOD9310412 Si02
#       6
#     4   4   4   2   1   2
#     4  11  25  45  72 101 138 175 226 283 347 413
#     4  12  25  42  69 101 139 183 228 290 348 399
#     4   9  20  39  65  97 135 179 236 283 338 401
#     4  12  25  44  68 107 140 174 234 288 339 422
#     4   8  18  36  64  96 128 180 234 280 332 400
#     4  12  24  47  73 100 134 180 234 278 345 426
#
# _framework density 19.836500000000001
#
# number of rings (size 3 to 8) (size 9 to 14) (size 15 to 20)
#    0.000    1.412    5.882    0.353    0.000    8.000 
#    0.000    0.000    0.000    0.000    0.000    0.000 
#    0.000    0.000    0.000    0.000    0.000    0.000 
#
# Total GULP energy -94803.430968 kJ/mol
# GULP energy per Si atom -5576.672410 kJ/mol
# Density = 1.979135 g / cm^3
# Si number density = 19.836500 Si / 1000 Ang^3
#
#
#
# Elastic Constant Matrix: (Units=GPa)
#
#
# Indices 1 2 3 4 5 6 
#
# 1 114.6115 51.1964 45.3818 0.0000 0.0000 0.0000
# 2 51.1964 126.6055 59.6049 0.0000 0.0000 0.0000
# 3 45.3818 59.6049 155.1553 0.0000 0.0000 0.0000
# 4 0.0000 0.0000 0.0000 -33.0139 0.0000 0.0000
# 5 0.0000 0.0000 0.0000 0.0000 35.0224 0.0000
# 6 0.0000 0.0000 0.0000 0.0000 0.0000 22.6949
#
#
#
# Elastic Compliance Matrix: (Units=1/GPa)
#
#
# Indices 1 2 3 4 5 6 
#
# 1 0.011069 -0.003603 -0.001853 0.000000 0.000000 0.000000
# 2 -0.003603 0.010816 -0.003101 0.000000 0.000000 0.000000
# 3 -0.001853 -0.003101 0.008178 0.000000 0.000000 0.000000
# 4 0.000000 0.000000 0.000000 -0.030290 0.000000 0.000000
# 5 0.000000 0.000000 0.000000 0.000000 0.028553 0.000000
# 6 0.000000 0.000000 0.000000 0.000000 0.000000 0.044063
#
#
# Mechanical properties :
#
#
# Convention : Reuss Voigt Hill
#
# Bulk Modulus (GPa) = 77.23501 78.74872 77.99187
# Shear Modulus (GPa) = 53.29400 20.95329 37.12364
#
# Velocity S-wave (km/s) = 5.18893 3.25360 4.33076
# Velocity P-wave (km/s) = 8.65565 7.34164 8.02558
#
# Compressibility (1/GPa) = 0.01294750
#
# Stress axis : x y z
#
# Youngs Moduli (GPa) = 90.34612 92.45902 122.27211
#
# Poissons Ratio (x) = 0.33317 0.22659
# Poissons Ratio (y) = 0.32555 0.37916
# Poissons Ratio (z) = 0.16743 0.28671
#
# Static dielectric constant tensor:
#      x y z
#    x 1.701150 0.000000 0.000000 
#    y 0.000000 1.715590 0.000000 
#    z 0.000000 0.000000 1.729390 
# 
# From -- ./inp_files/780.got.cif
#   From: 2010.05.17/outbox.cif.g08.bks.cpg/sg16_1_cif.got.tgz:780.got - 2010.06.03 22:28:35.
