data_PCOD9310625
_publ_section_title
;
Structure prediction by ZEFSAII (Michael W. Deem and Ramdas Pophale) SiO2 
 PCOD9310625
Probable space group: P 2 2 21
;
_chemical_formula_sum "Si O2"
_cell_formula_units_Z 20
_cell_length_a 10.541258
_cell_length_b 11.599462
_cell_length_c 8.977123
_cell_angle_alpha 90.000000
_cell_angle_beta 90.000000
_cell_angle_gamma 90.000000
_cell_volume 1097.659057
_symmetry_space_group_name_H-M "P 2 2 21"
_symmetry_group_IT_number 17
_symmetry_cell_setting 'orthorhombic'
loop_
_space_group_symop_operation_xyz
x,y,z
-x,-y,1/2+z
x,-y,-z
-x,y,1/2-z
loop_
_atom_site_type_symbol
_atom_site_label
_atom_site_fract_x
_atom_site_fract_y
_atom_site_fract_z
Si Si1 0.722017 0.000000 0.000000
Si Si2 0.859438 0.353016 0.323702
Si Si3 0.150677 0.149165 0.749478
Si Si4 0.638044 0.171767 0.251222
Si Si5 0.720301 0.000000 0.500000
Si Si6 0.139345 0.610458 0.179208
O O1 0.650198 0.909212 0.894366
O O2 0.805864 0.076518 0.890436
O O3 0.758079 0.257735 0.270077
O O4 0.872786 0.357405 0.503958
O O5 0.807854 0.482823 0.292371
O O6 0.000000 0.336123 0.250000
O O7 0.205590 0.278846 0.748263
O O8 0.000000 0.157908 0.750000
O O9 0.195777 0.081492 0.895142
O O10 0.500000 0.230591 0.250000
O O11 0.643764 0.083428 0.390459
O O12 0.000000 0.601853 0.250000
#
# Coordination Sequence:
#
# PCOD9310625 Si02
#       6
#     2   4   4   4   2   4
#     4  10  24  36  56  82 117 152 199 228 293 352
#     4  10  21  37  63  88 114 152 195 238 288 341
#     4  10  19  33  56  88 118 146 186 244 286 341
#     4  11  23  40  60  82 117 154 196 239 289 345
#     4  10  20  36  56  80 113 160 189 232 293 342
#     4   9  19  36  60  86 120 149 188 234 293 343
#
# _framework density 18.220593999999998
#
# number of rings (size 3 to 8) (size 9 to 14) (size 15 to 20)
#    0.000    2.000    2.000    1.200    5.600    3.200 
#    0.000    0.000    8.800    0.000    0.000    0.000 
#    0.000    0.000    0.000    0.000    0.000    0.000 
#
# Total GULP energy -111400.375586 kJ/mol
# GULP energy per Si atom -5570.018779 kJ/mol
# Density = 1.817912 g / cm^3
# Si number density = 18.220594 Si / 1000 Ang^3
#
#
#
# Elastic Constant Matrix: (Units=GPa)
#
#
# Indices 1 2 3 4 5 6 
#
# 1 94.7677 50.5688 30.1849 0.0000 0.0000 0.0000
# 2 50.5688 139.2036 39.1398 0.0000 0.0000 0.0000
# 3 30.1849 39.1398 83.7131 0.0000 0.0000 0.0000
# 4 0.0000 0.0000 0.0000 19.2421 0.0000 0.0000
# 5 0.0000 0.0000 0.0000 0.0000 -11.3860 0.0000
# 6 0.0000 0.0000 0.0000 0.0000 0.0000 -0.8047
#
#
#
# Elastic Compliance Matrix: (Units=1/GPa)
#
#
# Indices 1 2 3 4 5 6 
#
# 1 0.013719 -0.004137 -0.003013 0.000000 0.000000 0.000000
# 2 -0.004137 0.009518 -0.002959 0.000000 0.000000 0.000000
# 3 -0.003013 -0.002959 0.014415 0.000000 0.000000 0.000000
# 4 0.000000 0.000000 0.000000 0.051969 0.000000 0.000000
# 5 0.000000 0.000000 0.000000 0.000000 -0.087827 0.000000
# 6 0.000000 0.000000 0.000000 0.000000 0.000000 -1.242626
#
#
# Mechanical properties :
#
#
# Convention : Reuss Voigt Hill
#
# Bulk Modulus (GPa) = 57.35090 61.94127 59.64608
# Shear Modulus (GPa) = -4.11590 14.59633 5.24022
#
# Velocity S-wave (km/s) = -1.50460 2.83342 1.69771
# Velocity P-wave (km/s) = 5.34095 6.69129 6.05389
#
# Compressibility (1/GPa) = 0.01743652
#
# Stress axis : x y z
#
# Youngs Moduli (GPa) = 72.89131 105.06014 69.37126
#
# Poissons Ratio (x) = 0.43460 0.20899
# Poissons Ratio (y) = 0.30153 0.20525
# Poissons Ratio (z) = 0.21960 0.31084
#
# Static dielectric constant tensor:
#      x y z
#    x 1.595470 0.000000 0.000000 
#    y 0.000000 1.671040 0.000000 
#    z 0.000000 0.000000 1.650100 
# 
# From -- ./inp_files/4095.got.cif
#   From: 2010.05.17/outbox.cif.g08.bks.cpg/sg17_3_cif.got.tgz:4095.got - 2010.06.03 22:34:06.
