data_PCOD9310036
_publ_section_title
;
Structure prediction by ZEFSAII (Michael W. Deem and Ramdas Pophale) SiO2 
 PCOD9310036
Probable space group: P 2 2 2
;
_chemical_formula_sum "Si O2"
_cell_formula_units_Z 20
_cell_length_a 21.901544
_cell_length_b 7.236310
_cell_length_c 5.316212
_cell_angle_alpha 90.000000
_cell_angle_beta 90.000000
_cell_angle_gamma 90.000000
_cell_volume 842.547099
_symmetry_space_group_name_H-M "P 2 2 2"
_symmetry_group_IT_number 16
_symmetry_cell_setting 'orthorhombic'
loop_
_space_group_symop_operation_xyz
x,y,z
-x,-y,z
x,-y,-z
-x,y,-z
loop_
_atom_site_type_symbol
_atom_site_label
_atom_site_fract_x
_atom_site_fract_y
_atom_site_fract_z
Si Si1 0.472932 0.791458 0.255843
Si Si2 0.281518 0.286638 0.023414
Si Si3 0.140643 0.777106 0.993520
Si Si4 0.070577 0.225178 0.500551
Si Si5 0.659435 0.723619 0.534505
O O1 0.500000 0.696660 0.500000
O O2 0.401699 0.790153 0.321976
O O3 0.500000 0.000000 0.252505
O O4 0.500000 0.709536 0.000000
O O5 0.209719 0.279700 0.070110
O O6 0.321983 0.207873 0.254699
O O7 0.300967 0.500000 0.000000
O O8 0.290255 0.216543 0.738915
O O9 0.099691 0.714674 0.761286
O O10 0.111166 0.717330 0.258900
O O11 0.140929 0.000000 0.000000
O O12 0.000000 0.282049 0.500000
O O13 0.070887 0.000000 0.500000
O O14 0.655589 0.500000 0.500000
#
# Coordination Sequence:
#
# PCOD9310036 Si02
#       5
#     4   4   4   4   4
#     4  10  21  39  59  85 116 142 180 229 285 345
#     4  10  21  38  58  81 112 151 186 230 281 331
#     4  10  19  33  52  82 111 140 192 234 280 333
#     4   9  17  30  52  78 111 148 186 234 282 331
#     4  10  21  39  60  82 110 147 193 225 270 341
#
# _framework density 23.737545000000001
#
# number of rings (size 3 to 8) (size 9 to 14) (size 15 to 20)
#    0.000    2.200    0.000    3.000    0.000    2.800 
#   10.800    1.000    0.000    3.600    0.000    0.000 
#    0.000    0.000    0.000    0.000    0.000    0.000 
#
# Total GULP energy -111598.433321 kJ/mol
# GULP energy per Si atom -5579.921666 kJ/mol
# Density = 2.368352 g / cm^3
# Si number density = 23.737545 Si / 1000 Ang^3
#
#
#
# Elastic Constant Matrix: (Units=GPa)
#
#
# Indices 1 2 3 4 5 6 
#
# 1 132.2160 -16.1718 65.1698 0.0000 0.0000 0.0000
# 2 -16.1718 103.6936 9.5306 0.0000 0.0000 0.0000
# 3 65.1698 9.5306 229.0916 0.0000 0.0000 0.0000
# 4 0.0000 0.0000 0.0000 -27.4505 0.0000 0.0000
# 5 0.0000 0.0000 0.0000 0.0000 50.0480 0.0000
# 6 0.0000 0.0000 0.0000 0.0000 0.0000 30.4836
#
#
#
# Elastic Compliance Matrix: (Units=1/GPa)
#
#
# Indices 1 2 3 4 5 6 
#
# 1 0.009072 0.001658 -0.002650 0.000000 0.000000 0.000000
# 2 0.001658 0.009984 -0.000887 0.000000 0.000000 0.000000
# 3 -0.002650 -0.000887 0.005156 0.000000 0.000000 0.000000
# 4 0.000000 0.000000 0.000000 -0.036429 0.000000 0.000000
# 5 0.000000 0.000000 0.000000 0.000000 0.019981 0.000000
# 6 0.000000 0.000000 0.000000 0.000000 0.000000 0.032805
#
#
# Mechanical properties :
#
#
# Convention : Reuss Voigt Hill
#
# Bulk Modulus (GPa) = 48.88759 64.67317 56.78038
# Shear Modulus (GPa) = 97.76397 37.71439 67.73918
#
# Velocity S-wave (km/s) = 6.42455 3.99031 5.34777
# Velocity P-wave (km/s) = 8.69901 6.96666 7.88058
#
# Compressibility (1/GPa) = 0.02045509
#
# Stress axis : x y z
#
# Youngs Moduli (GPa) = 110.22534 100.16044 193.95778
#
# Poissons Ratio (x) = -0.16611 0.51395
# Poissons Ratio (y) = -0.18280 0.17207
# Poissons Ratio (z) = 0.29208 0.08886
#
# Static dielectric constant tensor:
#      x y z
#    x 2.004960 0.000000 0.000000 
#    y 0.000000 1.949960 0.000000 
#    z 0.000000 0.000000 2.019500 
# 
# From -- ./inp_files/2281.got.cif
#   From: 2010.05.17/outbox.cif.g08.bks.cpg/sg16_2_cif.got.tgz:2281.got - 2010.06.03 22:28:35.
