data_PCOD9310278
_publ_section_title
;
Structure prediction by ZEFSAII (Michael W. Deem and Ramdas Pophale) SiO2 
 PCOD9310278
Probable space group: P 2 2 2
;
_chemical_formula_sum "Si O2"
_cell_formula_units_Z 18
_cell_length_a 9.394654
_cell_length_b 8.309177
_cell_length_c 9.098903
_cell_angle_alpha 90.000000
_cell_angle_beta 90.000000
_cell_angle_gamma 90.000000
_cell_volume 710.277137
_symmetry_space_group_name_H-M "P 2 2 2"
_symmetry_group_IT_number 16
_symmetry_cell_setting 'orthorhombic'
loop_
_space_group_symop_operation_xyz
x,y,z
-x,-y,z
x,-y,-z
-x,y,-z
loop_
_atom_site_type_symbol
_atom_site_label
_atom_site_fract_x
_atom_site_fract_y
_atom_site_fract_z
Si Si1 0.500000 0.292743 0.500000
Si Si2 0.332572 0.752774 0.971578
Si Si3 0.136775 0.076678 0.242438
Si Si4 0.246710 0.234439 0.694796
Si Si5 0.237370 0.591155 0.695837
O O1 0.400826 0.210167 0.620766
O O2 0.619793 0.376531 0.602003
O O3 0.270116 0.893813 0.866658
O O4 0.742274 0.757353 0.871200
O O5 0.290102 0.602807 0.865760
O O6 0.500000 0.760024 0.000000
O O7 0.131664 0.255064 0.314306
O O8 0.166095 0.926714 0.347926
O O9 0.000000 0.000000 0.163029
O O10 0.188496 0.411998 0.655948
#
# Coordination Sequence:
#
# PCOD9310278 Si02
#       5
#     2   4   4   4   4
#     4  12  25  43  70 111 147 180 237 309 364 429
#     4  10  22  42  69 102 136 179 232 295 361 419
#     4  10  26  46  69  99 141 185 243 296 354 429
#     4  12  22  41  70  99 141 182 228 295 361 422
#     4  10  24  41  68 102 137 184 234 289 366 419
#
# _framework density 25.342220000000001
#
# number of rings (size 3 to 8) (size 9 to 14) (size 15 to 20)
#    1.333    0.000    2.222    3.333    0.000    9.778 
#    0.000    2.222    4.889    2.667    0.000    0.000 
#    0.000    0.000    0.000    0.000    0.000    0.000 
#
# Total GULP energy -100267.546652 kJ/mol
# GULP energy per Si atom -5570.419258 kJ/mol
# Density = 2.528454 g / cm^3
# Si number density = 25.342220 Si / 1000 Ang^3
#
#
#
# Elastic Constant Matrix: (Units=GPa)
#
#
# Indices 1 2 3 4 5 6 
#
# 1 80.7499 70.5522 3.9477 0.0000 0.0000 0.0000
# 2 70.5522 200.9493 22.5748 0.0000 0.0000 0.0000
# 3 3.9477 22.5748 123.5291 0.0000 0.0000 0.0000
# 4 0.0000 0.0000 0.0000 16.3794 0.0000 0.0000
# 5 0.0000 0.0000 0.0000 0.0000 -7.9844 0.0000
# 6 0.0000 0.0000 0.0000 0.0000 0.0000 25.2880
#
#
#
# Elastic Compliance Matrix: (Units=1/GPa)
#
#
# Indices 1 2 3 4 5 6 
#
# 1 0.017906 -0.006353 0.000589 0.000000 0.000000 0.000000
# 2 -0.006353 0.007335 -0.001137 0.000000 0.000000 0.000000
# 3 0.000589 -0.001137 0.008284 0.000000 0.000000 0.000000
# 4 0.000000 0.000000 0.000000 0.061052 0.000000 0.000000
# 5 0.000000 0.000000 0.000000 0.000000 -0.125244 0.000000
# 6 0.000000 0.000000 0.000000 0.000000 0.000000 0.039544
#
#
# Mechanical properties :
#
#
# Convention : Reuss Voigt Hill
#
# Bulk Modulus (GPa) = 50.70542 66.59751 58.65146
# Shear Modulus (GPa) = 170.91825 27.28017 99.09921
#
# Velocity S-wave (km/s) = 8.22134 3.28452 6.26013
# Velocity P-wave (km/s) = 10.49630 6.38126 8.68599
#
# Compressibility (1/GPa) = 0.01972176
#
# Stress axis : x y z
#
# Youngs Moduli (GPa) = 55.84867 136.34121 120.71028
#
# Poissons Ratio (x) = 0.86613 -0.07107
# Poissons Ratio (y) = 0.35479 0.13729
# Poissons Ratio (z) = -0.03288 0.15507
#
# Static dielectric constant tensor:
#      x y z
#    x 2.036280 0.000000 0.000000 
#    y 0.000000 2.167890 0.000000 
#    z 0.000000 0.000000 2.035920 
# 
# From -- ./inp_files/6318.got.cif
#   From: 2010.05.17/outbox.cif.g08.bks.cpg/sg16_4_cif.got.tgz:6318.got - 2010.06.03 22:28:35.
