data_PCOD9310185
_publ_section_title
;
Structure prediction by ZEFSAII (Michael W. Deem and Ramdas Pophale) SiO2 
 PCOD9310185
Probable space group: P 2 2 2
;
_chemical_formula_sum "Si O2"
_cell_formula_units_Z 16
_cell_length_a 6.077393
_cell_length_b 7.788308
_cell_length_c 15.972562
_cell_angle_alpha 90.000000
_cell_angle_beta 90.000000
_cell_angle_gamma 90.000000
_cell_volume 756.023024
_symmetry_space_group_name_H-M "P 2 2 2"
_symmetry_group_IT_number 16
_symmetry_cell_setting 'orthorhombic'
loop_
_space_group_symop_operation_xyz
x,y,z
-x,-y,z
x,-y,-z
-x,y,-z
loop_
_atom_site_type_symbol
_atom_site_label
_atom_site_fract_x
_atom_site_fract_y
_atom_site_fract_z
Si Si1 0.385133 0.812559 0.081075
Si Si2 0.000000 0.000000 0.000000
Si Si3 0.000000 0.000000 0.344752
Si Si4 0.342019 0.753695 0.579280
Si Si5 0.378689 0.813253 0.264990
Si Si6 0.000000 0.500000 0.500000
O O1 0.397230 0.731955 0.172862
O O2 0.500000 0.000000 0.087789
O O3 0.500000 0.726877 0.000000
O O4 0.141547 0.871645 0.056827
O O5 0.126417 0.857328 0.289377
O O6 0.807379 0.918715 0.400079
O O7 0.500000 0.776285 0.500000
O O8 0.494780 0.718951 0.659964
O O9 0.163013 0.611005 0.556941
O O10 0.500000 0.000000 0.261023
#
# Coordination Sequence:
#
# PCOD9310185 Si02
#       6
#     4   1   2   4   4   1
#     4   8  14  24  40  67 104 143 175 206 250 306
#     4   8  12  20  38  62 100 146 176 202 246 310
#     4  10  21  35  57  83 110 144 179 219 269 319
#     4  11  24  39  56  78 108 141 181 226 270 321
#     4   9  18  31  49  76 109 143 179 217 260 314
#     4  12  26  42  56  74 104 144 182 224 276 324
#
# _framework density 21.163377000000001
#
# number of rings (size 3 to 8) (size 9 to 14) (size 15 to 20)
#    0.000    2.750    0.000    2.625    0.000   14.000 
#    0.000    0.000    0.000    0.000    0.000    0.000 
#    0.000   28.000    0.000    0.000    0.000    0.000 
#
# Total GULP energy -89213.118811 kJ/mol
# GULP energy per Si atom -5575.819926 kJ/mol
# Density = 2.111521 g / cm^3
# Si number density = 21.163377 Si / 1000 Ang^3
#
#
#
# Elastic Constant Matrix: (Units=GPa)
#
#
# Indices 1 2 3 4 5 6 
#
# 1 129.6025 12.4034 86.7138 0.0000 0.0000 0.0000
# 2 12.4034 25.1469 29.8852 0.0000 0.0000 0.0000
# 3 86.7138 29.8852 238.8515 0.0000 0.0000 0.0000
# 4 0.0000 0.0000 0.0000 -6.7837 0.0000 0.0000
# 5 0.0000 0.0000 0.0000 0.0000 -169.9661 0.0000
# 6 0.0000 0.0000 0.0000 0.0000 0.0000 23.4524
#
#
#
# Elastic Compliance Matrix: (Units=1/GPa)
#
#
# Indices 1 2 3 4 5 6 
#
# 1 0.010203 -0.000741 -0.003612 0.000000 0.000000 0.000000
# 2 -0.000741 0.046766 -0.005583 0.000000 0.000000 0.000000
# 3 -0.003612 -0.005583 0.006196 0.000000 0.000000 0.000000
# 4 0.000000 0.000000 0.000000 -0.147413 0.000000 0.000000
# 5 0.000000 0.000000 0.000000 0.000000 -0.005884 0.000000
# 6 0.000000 0.000000 0.000000 0.000000 0.000000 0.042640
#
#
# Mechanical properties :
#
#
# Convention : Reuss Voigt Hill
#
# Bulk Modulus (GPa) = 23.09666 72.40062 47.74864
# Shear Modulus (GPa) = -379.08723 -13.01958 -196.05341
#
# Velocity S-wave (km/s) = -13.39825 -2.48300 -9.63531
# Velocity P-wave (km/s) = 15.11336 5.10531 10.05856
#
# Compressibility (1/GPa) = 0.04329630
#
# Stress axis : x y z
#
# Youngs Moduli (GPa) = 98.00870 21.38304 161.38542
#
# Poissons Ratio (x) = 0.01583 0.58285
# Poissons Ratio (y) = 0.07258 0.90094
# Poissons Ratio (z) = 0.35396 0.11937
#
# Static dielectric constant tensor:
#      x y z
#    x 1.529480 0.000000 0.000000 
#    y 0.000000 1.911540 0.000000 
#    z 0.000000 0.000000 1.864080 
# 
# From -- ./inp_files/3070.got.cif
#   From: 2010.05.17/outbox.cif.g08.bks.cpg/sg16_2_cif.got.tgz:3070.got - 2010.06.03 22:28:35.
