data_PCOD9310743
_publ_section_title
;
Structure prediction by ZEFSAII (Michael W. Deem and Ramdas Pophale) SiO2 
 PCOD9310743
Probable space group: P 2 2 21
;
_chemical_formula_sum "Si O2"
_cell_formula_units_Z 24
_cell_length_a 14.011273
_cell_length_b 8.185694
_cell_length_c 10.877154
_cell_angle_alpha 90.000000
_cell_angle_beta 90.000000
_cell_angle_gamma 90.000000
_cell_volume 1247.522474
_symmetry_space_group_name_H-M "P 2 2 21"
_symmetry_group_IT_number 17
_symmetry_cell_setting 'orthorhombic'
loop_
_space_group_symop_operation_xyz
x,y,z
-x,-y,1/2+z
x,-y,-z
-x,y,1/2-z
loop_
_atom_site_type_symbol
_atom_site_label
_atom_site_fract_x
_atom_site_fract_y
_atom_site_fract_z
Si Si1 0.574994 0.259533 0.650561
Si Si2 0.081393 0.001703 0.853826
Si Si3 0.216778 0.315264 0.857603
Si Si4 0.400340 0.236901 0.321438
Si Si5 0.780035 0.690559 0.650132
Si Si6 0.535195 0.500000 0.000000
Si Si7 0.521486 0.000000 0.000000
O O1 0.500000 0.202734 0.750000
O O2 0.680809 0.271927 0.700109
O O3 0.535849 0.431201 0.603006
O O4 0.552413 0.141102 0.537869
O O5 0.143801 0.836715 0.833546
O O6 0.000000 0.002229 0.750000
O O7 0.142846 0.168691 0.836128
O O8 0.051730 0.000000 0.000000
O O9 0.188921 0.501638 0.822135
O O10 0.239985 0.312809 0.003938
O O11 0.500000 0.253105 0.250000
O O12 0.312208 0.263668 0.230917
O O13 0.400134 0.367745 0.432131
O O14 0.410711 0.064959 0.391829
#
# Coordination Sequence:
#
# PCOD9310743 Si02
#       7
#     4   4   4   4   4   2   2
#     4  11  21  33  52  82 119 163 199 243 287 346
#     4  10  24  45  68  94 122 155 204 267 331 391
#     4  10  21  37  66  93 117 157 214 251 302 376
#     4  11  21  36  55  83 127 171 210 258 304 364
#     4  10  21  40  64  91 120 161 204 256 306 372
#     4  10  20  34  50  80 126 162 208 246 298 350
#     4  10  24  32  48  82 128 170 208 244 296 354
#
# _framework density 19.238130000000002
#
# number of rings (size 3 to 8) (size 9 to 14) (size 15 to 20)
#    0.000    1.667    0.000    6.000    8.167    0.667 
#    1.500    0.000    0.000    0.000    0.000    0.000 
#    0.000    0.000    0.000    0.000    0.000    0.000 
#
# Total GULP energy -133787.018740 kJ/mol
# GULP energy per Si atom -5574.459114 kJ/mol
# Density = 1.919434 g / cm^3
# Si number density = 19.238130 Si / 1000 Ang^3
#
#
#
# Elastic Constant Matrix: (Units=GPa)
#
#
# Indices 1 2 3 4 5 6 
#
# 1 107.5190 68.0226 62.4068 0.0000 0.0000 0.0000
# 2 68.0226 145.4675 52.1817 0.0000 0.0000 0.0000
# 3 62.4068 52.1817 80.1373 0.0000 0.0000 0.0000
# 4 0.0000 0.0000 0.0000 30.9810 0.0000 0.0000
# 5 0.0000 0.0000 0.0000 0.0000 41.1182 0.0000
# 6 0.0000 0.0000 0.0000 0.0000 0.0000 22.1344
#
#
#
# Elastic Compliance Matrix: (Units=1/GPa)
#
#
# Indices 1 2 3 4 5 6 
#
# 1 0.019160 -0.004706 -0.011856 0.000000 0.000000 0.000000
# 2 -0.004706 0.010126 -0.002928 0.000000 0.000000 0.000000
# 3 -0.011856 -0.002928 0.023618 0.000000 0.000000 0.000000
# 4 0.000000 0.000000 0.000000 0.032278 0.000000 0.000000
# 5 0.000000 0.000000 0.000000 0.000000 0.024320 0.000000
# 6 0.000000 0.000000 0.000000 0.000000 0.000000 0.045179
#
#
# Mechanical properties :
#
#
# Convention : Reuss Voigt Hill
#
# Bulk Modulus (GPa) = 71.82768 77.59401 74.71084
# Shear Modulus (GPa) = 25.21405 28.88089 27.04747
#
# Velocity S-wave (km/s) = 3.62419 3.87878 3.75364
# Velocity P-wave (km/s) = 7.41149 7.77695 7.59641
#
# Compressibility (1/GPa) = 0.01392221
#
# Stress axis : x y z
#
# Youngs Moduli (GPa) = 52.19262 98.75996 42.34025
#
# Poissons Ratio (x) = 0.46480 0.50199
# Poissons Ratio (y) = 0.24564 0.12398
# Poissons Ratio (z) = 0.61880 0.28919
#
# Static dielectric constant tensor:
#      x y z
#    x 1.653960 0.000000 0.000000 
#    y 0.000000 1.746940 0.000000 
#    z 0.000000 0.000000 1.555300 
# 
# From -- ./inp_files/6965.got.cif
#   From: 2010.05.17/outbox.cif.g08.bks.cpg/sg17_4_cif.got.tgz:6965.got - 2010.06.03 22:34:06.
