data_PCOD9310942
_publ_section_title
;
Structure prediction by ZEFSAII (Michael W. Deem and Ramdas Pophale) SiO2 
 PCOD9310942
Probable space group: P 2 2 21
;
_chemical_formula_sum "Si O2"
_cell_formula_units_Z 20
_cell_length_a 13.150118
_cell_length_b 5.627177
_cell_length_c 12.314682
_cell_angle_alpha 90.000000
_cell_angle_beta 90.000000
_cell_angle_gamma 90.000000
_cell_volume 911.262350
_symmetry_space_group_name_H-M "P 2 2 21"
_symmetry_group_IT_number 17
_symmetry_cell_setting 'orthorhombic'
loop_
_space_group_symop_operation_xyz
x,y,z
-x,-y,1/2+z
x,-y,-z
-x,y,1/2-z
loop_
_atom_site_type_symbol
_atom_site_label
_atom_site_fract_x
_atom_site_fract_y
_atom_site_fract_z
Si Si1 0.126761 0.254190 0.563610
Si Si2 0.000000 0.981531 0.250000
Si Si3 0.500000 0.031320 0.250000
Si Si4 0.302492 0.721797 0.269523
Si Si5 0.375584 0.651784 0.894810
Si Si6 0.175380 0.054550 0.114054
O O1 0.100521 0.500000 0.500000
O O2 0.044854 0.186807 0.656217
O O3 0.233339 0.306296 0.625340
O O4 0.137645 0.000000 0.500000
O O5 0.909714 0.138614 0.301310
O O6 0.536587 0.174106 0.355987
O O7 0.400366 0.886597 0.284778
O O8 0.349046 0.490761 0.214488
O O9 0.229273 0.838358 0.177577
O O10 0.268976 0.779793 0.918815
O O11 0.403913 0.500000 0.000000
O O12 0.122812 0.000000 0.000000
#
# Coordination Sequence:
#
# PCOD9310942 Si02
#       6
#     4   2   2   4   4   4
#     4  11  27  50  72 107 150 195 238 299 371 427
#     4  10  24  46  72 106 142 184 244 294 346 442
#     4  10  24  42  68 102 138 178 248 300 350 438
#     4  10  23  45  64 100 143 183 235 296 354 427
#     4  11  22  43  72 100 138 187 237 297 362 428
#     4  10  20  41  67  98 137 180 229 290 349 420
#
# _framework density 21.947576000000002
#
# number of rings (size 3 to 8) (size 9 to 14) (size 15 to 20)
#    0.000    1.600    2.000    1.200    8.400    0.800 
#   18.000    0.000    0.000    0.000    0.000    0.000 
#    0.000    0.000    0.000    0.000    0.000    0.000 
#
# Total GULP energy -111613.907886 kJ/mol
# GULP energy per Si atom -5580.695394 kJ/mol
# Density = 2.189762 g / cm^3
# Si number density = 21.947576 Si / 1000 Ang^3
#
#
#
# Elastic Constant Matrix: (Units=GPa)
#
#
# Indices 1 2 3 4 5 6 
#
# 1 79.2498 2.1163 46.7443 0.0000 0.0000 0.0000
# 2 2.1163 56.9071 38.7772 0.0000 0.0000 0.0000
# 3 46.7443 38.7772 114.2644 0.0000 0.0000 0.0000
# 4 0.0000 0.0000 0.0000 12.3836 0.0000 0.0000
# 5 0.0000 0.0000 0.0000 0.0000 19.5105 0.0000
# 6 0.0000 0.0000 0.0000 0.0000 0.0000 -81.1909
#
#
#
# Elastic Compliance Matrix: (Units=1/GPa)
#
#
# Indices 1 2 3 4 5 6 
#
# 1 0.017919 0.005631 -0.009241 0.000000 0.000000 0.000000
# 2 0.005631 0.024628 -0.010661 0.000000 0.000000 0.000000
# 3 -0.009241 -0.010661 0.016150 0.000000 0.000000 0.000000
# 4 0.000000 0.000000 0.000000 0.080752 0.000000 0.000000
# 5 0.000000 0.000000 0.000000 0.000000 0.051254 0.000000
# 6 0.000000 0.000000 0.000000 0.000000 0.000000 -0.012317
#
#
# Mechanical properties :
#
#
# Convention : Reuss Voigt Hill
#
# Bulk Modulus (GPa) = 33.16400 47.29964 40.23182
# Shear Modulus (GPa) = 23.04349 0.99288 12.01818
#
# Velocity S-wave (km/s) = 3.24378 0.67333 2.34259
# Velocity P-wave (km/s) = 5.40119 4.71195 5.06830
#
# Compressibility (1/GPa) = 0.03015318
#
# Stress axis : x y z
#
# Youngs Moduli (GPa) = 55.80745 40.60457 61.91900
#
# Poissons Ratio (x) = -0.22863 0.57221
# Poissons Ratio (y) = -0.31423 0.66013
# Poissons Ratio (z) = 0.51573 0.43289
#
# Static dielectric constant tensor:
#      x y z
#    x 1.822820 0.000000 0.000000 
#    y 0.000000 1.902680 0.000000 
#    z 0.000000 0.000000 1.769380 
# 
# From -- ./inp_files/7171.got.cif
#   From: 2010.05.17/outbox.cif.g08.bks.cpg/sg17_4_cif.got.tgz:7171.got - 2010.06.03 22:34:06.
