data_PCOD9310016
_publ_section_title
;
Structure prediction by ZEFSAII (Michael W. Deem and Ramdas Pophale) SiO2 
 PCOD9310016
Probable space group: P 2 2 2
;
_chemical_formula_sum "Si O2"
_cell_formula_units_Z 28
_cell_length_a 10.205968
_cell_length_b 11.423394
_cell_length_c 10.934536
_cell_angle_alpha 90.000000
_cell_angle_beta 90.000000
_cell_angle_gamma 90.000000
_cell_volume 1274.822492
_symmetry_space_group_name_H-M "P 2 2 2"
_symmetry_group_IT_number 16
_symmetry_cell_setting 'orthorhombic'
loop_
_space_group_symop_operation_xyz
x,y,z
-x,-y,z
x,-y,-z
-x,y,-z
loop_
_atom_site_type_symbol
_atom_site_label
_atom_site_fract_x
_atom_site_fract_y
_atom_site_fract_z
Si Si1 0.754294 0.356181 0.385308
Si Si2 0.587087 0.347885 0.882571
Si Si3 0.145185 0.275408 0.859180
Si Si4 0.681471 0.376213 0.643559
Si Si5 0.000000 0.778554 0.500000
Si Si6 0.710407 0.116875 0.939210
Si Si7 0.116241 0.820818 0.737088
Si Si8 0.811240 0.500000 0.000000
O O1 0.752251 0.293839 0.252962
O O2 0.659083 0.337832 0.502694
O O3 0.745038 0.494977 0.362318
O O4 0.892301 0.307397 0.439174
O O5 0.561298 0.376777 0.740398
O O6 0.604294 0.208601 0.891755
O O7 0.500000 0.377570 0.000000
O O8 0.718163 0.421336 0.913291
O O9 0.008760 0.225301 0.811357
O O10 0.207314 0.191043 0.960674
O O11 0.119256 0.403384 0.916970
O O12 0.784701 0.284975 0.702580
O O13 0.936390 0.857122 0.394673
O O14 0.805645 0.091508 0.824172
O O15 0.661112 0.000000 0.000000
#
# Coordination Sequence:
#
# PCOD9310016 Si02
#       8
#     4   4   4   4   2   4   4   2
#     4   9  16  29  48  76 119 153 191 212 267 333
#     4  10  20  36  57  80 103 139 182 241 299 343
#     4  10  19  31  49  78 112 154 180 218 267 338
#     4   9  17  30  49  79 113 153 178 225 267 334
#     4   8  16  27  48  75 114 156 190 223 247 332
#     4  10  22  38  52  73 107 150 193 242 289 324
#     4   9  18  31  47  78 110 152 188 218 271 323
#     4  10  19  34  49  80 112 142 170 218 286 334
#
# _framework density 21.963843000000001
#
# number of rings (size 3 to 8) (size 9 to 14) (size 15 to 20)
#    0.000    2.571    1.429    0.643    0.000   10.000 
#    2.571    0.000    0.000   22.286    0.000    0.000 
#    0.000   18.286    0.571    0.000    0.000    0.000 
#
# Total GULP energy -156082.859643 kJ/mol
# GULP energy per Si atom -5574.387844 kJ/mol
# Density = 2.191385 g / cm^3
# Si number density = 21.963843 Si / 1000 Ang^3
#
#
#
# Elastic Constant Matrix: (Units=GPa)
#
#
# Indices 1 2 3 4 5 6 
#
# 1 32.9511 -1.2687 20.0817 0.0000 0.0000 0.0000
# 2 -1.2687 75.3168 14.5370 0.0000 0.0000 0.0000
# 3 20.0817 14.5370 167.8262 0.0000 0.0000 0.0000
# 4 0.0000 0.0000 0.0000 21.0638 0.0000 0.0000
# 5 0.0000 0.0000 0.0000 0.0000 30.9539 0.0000
# 6 0.0000 0.0000 0.0000 0.0000 0.0000 8.5620
#
#
#
# Elastic Compliance Matrix: (Units=1/GPa)
#
#
# Indices 1 2 3 4 5 6 
#
# 1 0.032867 0.001335 -0.004048 0.000000 0.000000 0.000000
# 2 0.001335 0.013557 -0.001334 0.000000 0.000000 0.000000
# 3 -0.004048 -0.001334 0.006559 0.000000 0.000000 0.000000
# 4 0.000000 0.000000 0.000000 0.047475 0.000000 0.000000
# 5 0.000000 0.000000 0.000000 0.000000 0.032306 0.000000
# 6 0.000000 0.000000 0.000000 0.000000 0.000000 0.116795
#
#
# Mechanical properties :
#
#
# Convention : Reuss Voigt Hill
#
# Bulk Modulus (GPa) = 22.27790 38.08824 30.18307
# Shear Modulus (GPa) = 18.34085 28.29888 23.31986
#
# Velocity S-wave (km/s) = 2.89285 3.59337 3.26197
# Velocity P-wave (km/s) = 4.61770 5.88178 5.28765
#
# Compressibility (1/GPa) = 0.04488753
#
# Stress axis : x y z
#
# Youngs Moduli (GPa) = 30.42600 73.76142 152.47329
#
# Poissons Ratio (x) = -0.09847 0.61727
# Poissons Ratio (y) = -0.04062 0.20341
# Poissons Ratio (z) = 0.12318 0.09840
#
# Static dielectric constant tensor:
#      x y z
#    x 1.933890 0.000000 0.000000 
#    y 0.000000 1.756900 0.000000 
#    z 0.000000 0.000000 1.925630 
# 
# From -- ./inp_files/6910.got.cif
#   From: 2010.05.17/outbox.cif.g08.bks.cpg/sg16_4_cif.got.tgz:6910.got - 2010.06.03 22:28:35.
