data_PCOD9310642
_publ_section_title
;
Structure prediction by ZEFSAII (Michael W. Deem and Ramdas Pophale) SiO2 
 PCOD9310642
Probable space group: P 2 2 21
;
_chemical_formula_sum "Si O2"
_cell_formula_units_Z 20
_cell_length_a 10.342303
_cell_length_b 6.146219
_cell_length_c 16.945556
_cell_angle_alpha 90.000000
_cell_angle_beta 90.000000
_cell_angle_gamma 90.000000
_cell_volume 1077.162216
_symmetry_space_group_name_H-M "P 2 2 21"
_symmetry_group_IT_number 17
_symmetry_cell_setting 'orthorhombic'
loop_
_space_group_symop_operation_xyz
x,y,z
-x,-y,1/2+z
x,-y,-z
-x,y,1/2-z
loop_
_atom_site_type_symbol
_atom_site_label
_atom_site_fract_x
_atom_site_fract_y
_atom_site_fract_z
Si Si1 0.241694 0.101422 0.421326
Si Si2 0.375046 0.892025 0.800894
Si Si3 0.857384 0.646887 0.782606
Si Si4 0.343486 0.276472 0.691578
Si Si5 0.489748 0.389733 0.420080
O O1 0.142215 0.223653 0.365094
O O2 0.355607 0.269824 0.442190
O O3 0.185181 0.000000 0.500000
O O4 0.311196 0.915078 0.369793
O O5 0.500000 0.814970 0.750000
O O6 0.242504 0.782349 0.772393
O O7 0.414183 0.794353 0.885295
O O8 0.368436 0.145309 0.774012
O O9 0.783629 0.420964 0.795777
O O10 0.000000 0.624473 0.750000
O O11 0.447017 0.434755 0.647633
O O12 0.539844 0.500000 0.500000
#
# Coordination Sequence:
#
# PCOD9310642 Si02
#       5
#     4   4   4   4   4
#     4  10  19  34  62  94 121 155 205 261 316 378
#     4  11  21  35  62  94 122 156 206 260 309 377
#     4  10  23  39  60  90 125 166 215 252 302 382
#     4  10  20  34  60  87 126 157 201 250 317 370
#     4  11  21  34  60  96 130 155 198 265 330 374
#
# _framework density 18.567305999999999
#
# number of rings (size 3 to 8) (size 9 to 14) (size 15 to 20)
#    0.000    1.600    8.000    0.000    2.800    3.200 
#    0.000    0.000    4.400    1.200    0.000    0.000 
#    0.000    0.000    0.000    0.000    0.000    0.000 
#
# Total GULP energy -111383.187996 kJ/mol
# GULP energy per Si atom -5569.159400 kJ/mol
# Density = 1.852505 g / cm^3
# Si number density = 18.567306 Si / 1000 Ang^3
#
#
#
# Elastic Constant Matrix: (Units=GPa)
#
#
# Indices 1 2 3 4 5 6 
#
# 1 84.9160 28.4259 42.6407 0.0000 0.0000 0.0000
# 2 28.4259 110.1169 55.1482 0.0000 0.0000 0.0000
# 3 42.6407 55.1482 114.9739 0.0000 0.0000 0.0000
# 4 0.0000 0.0000 0.0000 43.0415 0.0000 0.0000
# 5 0.0000 0.0000 0.0000 0.0000 21.3503 0.0000
# 6 0.0000 0.0000 0.0000 0.0000 0.0000 8.5178
#
#
#
# Elastic Compliance Matrix: (Units=1/GPa)
#
#
# Indices 1 2 3 4 5 6 
#
# 1 0.014632 -0.001394 -0.004758 0.000000 0.000000 0.000000
# 2 -0.001394 0.012085 -0.005280 0.000000 0.000000 0.000000
# 3 -0.004758 -0.005280 0.012995 0.000000 0.000000 0.000000
# 4 0.000000 0.000000 0.000000 0.023233 0.000000 0.000000
# 5 0.000000 0.000000 0.000000 0.000000 0.046838 0.000000
# 6 0.000000 0.000000 0.000000 0.000000 0.000000 0.117401
#
#
# Mechanical properties :
#
#
# Convention : Reuss Voigt Hill
#
# Bulk Modulus (GPa) = 59.35302 62.49292 60.92297
# Shear Modulus (GPa) = 19.55690 26.83473 23.19581
#
# Velocity S-wave (km/s) = 3.24898 3.80579 3.53835
# Velocity P-wave (km/s) = 6.79045 7.28304 7.04105
#
# Compressibility (1/GPa) = 0.01684834
#
# Stress axis : x y z
#
# Youngs Moduli (GPa) = 68.34192 82.74464 76.95468
#
# Poissons Ratio (x) = 0.11538 0.36614
# Poissons Ratio (y) = 0.09530 0.40630
# Poissons Ratio (z) = 0.32516 0.43687
#
# Static dielectric constant tensor:
#      x y z
#    x 1.603010 0.000000 0.000000 
#    y 0.000000 1.698200 0.000000 
#    z 0.000000 0.000000 1.711600 
# 
# From -- ./inp_files/7608.got.cif
#   From: 2010.05.17/outbox.cif.g08.bks.cpg/sg17_4_cif.got.tgz:7608.got - 2010.06.03 22:34:06.
