data_PCOD9310745
_publ_section_title
;
Structure prediction by ZEFSAII (Michael W. Deem and Ramdas Pophale) SiO2 
 PCOD9310745
Probable space group: P 2 2 21
;
_chemical_formula_sum "Si O2"
_cell_formula_units_Z 28
_cell_length_a 8.322449
_cell_length_b 20.118263
_cell_length_c 7.344548
_cell_angle_alpha 90.000000
_cell_angle_beta 90.000000
_cell_angle_gamma 90.000000
_cell_volume 1229.721305
_symmetry_space_group_name_H-M "P 2 2 21"
_symmetry_group_IT_number 17
_symmetry_cell_setting 'orthorhombic'
loop_
_space_group_symop_operation_xyz
x,y,z
-x,-y,1/2+z
x,-y,-z
-x,y,1/2-z
loop_
_atom_site_type_symbol
_atom_site_label
_atom_site_fract_x
_atom_site_fract_y
_atom_site_fract_z
Si Si1 0.176540 0.650866 0.527950
Si Si2 0.681354 0.211985 0.028318
Si Si3 0.816820 0.927398 0.967252
Si Si4 0.318646 0.211985 0.028318
Si Si5 0.183180 0.927398 0.967252
Si Si6 0.500000 0.421737 0.466911
Si Si7 0.823460 0.650866 0.527950
O O1 0.203393 0.727844 0.474972
O O2 0.333446 0.610541 0.465034
O O3 0.176734 0.648432 0.750000
O O4 1.000000 0.627368 0.468610
O O5 0.729855 0.138609 0.964823
O O6 0.500000 0.228026 0.972858
O O7 0.682954 0.210770 0.250000
O O8 0.825197 0.920573 0.750000
O O9 1.000000 0.928759 0.038084
O O10 0.742242 0.000000 0.000000
O O11 0.270145 0.138609 0.964823
O O12 0.203393 0.272156 0.974972
O O13 0.257758 0.000000 0.000000
O O14 0.500000 0.500000 0.500000
O O15 0.500000 0.409462 0.250000
O O16 0.666554 0.389459 0.534966
#
# Coordination Sequence:
#
# PCOD9310745 Si02
#       7
#     4   4   4   4   4   4   4
#     4   9  16  28  48  73  99 126 159 199 239 277
#     4   9  15  25  43  67  92 117 153 201 240 270
#     4   9  17  28  42  62  89 120 153 191 235 279
#     4   9  15  25  43  67  92 117 153 201 240 270
#     4   9  17  28  42  62  89 120 153 191 235 279
#     4  10  20  34  52  76 103 128 156 192 235 284
#     4   9  16  28  48  73  99 126 159 199 239 277
#
# _framework density 22.769386999999998
#
# number of rings (size 3 to 8) (size 9 to 14) (size 15 to 20)
#    0.000    2.857    1.429    0.857    0.000    4.571 
#    0.000    0.000    0.000    1.714    0.000    0.000 
#    0.000    0.000    0.000    0.000    0.000    0.000 
#
# Total GULP energy -156300.452367 kJ/mol
# GULP energy per Si atom -5582.159013 kJ/mol
# Density = 2.271756 g / cm^3
# Si number density = 22.769387 Si / 1000 Ang^3
#
#
#
# Elastic Constant Matrix: (Units=GPa)
#
#
# Indices 1 2 3 4 5 6 
#
# 1 176.8163 86.0822 5.5618 0.0000 0.0000 0.0000
# 2 86.0822 146.4559 -5.3293 0.0000 0.0000 0.0000
# 3 5.5618 -5.3293 85.8768 0.0000 0.0000 0.0000
# 4 0.0000 0.0000 0.0000 17.1837 0.0000 0.0000
# 5 0.0000 0.0000 0.0000 0.0000 -17.1219 0.0000
# 6 0.0000 0.0000 0.0000 0.0000 0.0000 20.1148
#
#
#
# Elastic Compliance Matrix: (Units=1/GPa)
#
#
# Indices 1 2 3 4 5 6 
#
# 1 0.007978 -0.004719 -0.000810 0.000000 0.000000 0.000000
# 2 -0.004719 0.009635 0.000904 0.000000 0.000000 0.000000
# 3 -0.000810 0.000904 0.011753 0.000000 0.000000 0.000000
# 4 0.000000 0.000000 0.000000 0.058195 0.000000 0.000000
# 5 0.000000 0.000000 0.000000 0.000000 -0.058405 0.000000
# 6 0.000000 0.000000 0.000000 0.000000 0.000000 0.049715
#
#
# Mechanical properties :
#
#
# Convention : Reuss Voigt Hill
#
# Bulk Modulus (GPa) = 49.71150 64.64205 57.17677
# Shear Modulus (GPa) = 52.72807 25.55759 39.14283
#
# Velocity S-wave (km/s) = 4.81744 3.35394 4.15070
# Velocity P-wave (km/s) = 7.26799 6.59167 6.93807
#
# Compressibility (1/GPa) = 0.02011607
#
# Stress axis : x y z
#
# Youngs Moduli (GPa) = 125.33759 103.79345 85.08397
#
# Poissons Ratio (x) = 0.48980 0.06888
# Poissons Ratio (y) = 0.59146 -0.07688
# Poissons Ratio (z) = 0.10147 -0.09378
#
# Static dielectric constant tensor:
#      x y z
#    x 1.831760 0.000000 0.000000 
#    y 0.000000 1.818100 0.000000 
#    z 0.000000 0.000000 1.893510 
# 
# From -- ./inp_files/6750.got.cif
#   From: 2010.05.17/outbox.cif.g08.bks.cpg/sg17_4_cif.got.tgz:6750.got - 2010.06.03 22:34:06.
