data_PCOD9310413
_publ_section_title
;
Structure prediction by ZEFSAII (Michael W. Deem and Ramdas Pophale) SiO2 
 PCOD9310413
Probable space group: P 2 2 2
;
_chemical_formula_sum "Si O2"
_cell_formula_units_Z 16
_cell_length_a 9.319905
_cell_length_b 7.466691
_cell_length_c 9.298840
_cell_angle_alpha 90.000000
_cell_angle_beta 90.000000
_cell_angle_gamma 90.000000
_cell_volume 647.095589
_symmetry_space_group_name_H-M "P 2 2 2"
_symmetry_group_IT_number 16
_symmetry_cell_setting 'orthorhombic'
loop_
_space_group_symop_operation_xyz
x,y,z
-x,-y,z
x,-y,-z
-x,y,-z
loop_
_atom_site_type_symbol
_atom_site_label
_atom_site_fract_x
_atom_site_fract_y
_atom_site_fract_z
Si Si1 0.659123 0.878764 0.642087
Si Si2 0.058535 0.298993 0.649893
Si Si3 0.159123 0.121237 0.142086
Si Si4 0.558535 0.298993 0.850108
O O1 0.514842 0.805513 0.716843
O O2 0.770183 0.711927 0.630542
O O3 0.647916 0.000000 0.500000
O O4 0.749999 0.000001 0.750000
O O5 0.985158 0.194487 0.783157
O O6 0.000000 0.500000 0.659532
O O7 0.000000 0.218322 0.500000
O O8 0.270183 0.288075 0.130541
O O9 0.147916 0.000000 0.000000
O O10 0.500000 0.500000 0.840468
O O11 0.500000 0.218320 0.000000
#
# Coordination Sequence:
#
# PCOD9310413 Si02
#       4
#     4   4   4   4
#     4  12  25  46  75 109 143 190 244 297 362 431
#     4  11  25  48  74 108 150 192 240 301 364 431
#     4  12  25  46  75 109 143 190 244 297 362 431
#     4  11  25  48  74 108 150 192 240 301 364 431
#
# _framework density 24.725867000000001
#
# number of rings (size 3 to 8) (size 9 to 14) (size 15 to 20)
#    0.000    0.500    5.000    3.000    0.000    4.000 
#    0.000    2.500    0.000    0.000    0.000    0.000 
#    0.000    0.000    0.000    0.000    0.000    0.000 
#
# Total GULP energy -89451.513509 kJ/mol
# GULP energy per Si atom -5590.719594 kJ/mol
# Density = 2.466959 g / cm^3
# Si number density = 24.725867 Si / 1000 Ang^3
#
#
#
# Elastic Constant Matrix: (Units=GPa)
#
#
# Indices 1 2 3 4 5 6 
#
# 1 196.3188 35.7448 65.2003 0.0000 0.0000 0.0000
# 2 35.7448 135.4716 60.2801 0.0000 0.0000 0.0000
# 3 65.2003 60.2801 209.8841 0.0000 0.0000 0.0000
# 4 0.0000 0.0000 0.0000 38.1487 0.0000 0.0000
# 5 0.0000 0.0000 0.0000 0.0000 22.3152 0.0000
# 6 0.0000 0.0000 0.0000 0.0000 0.0000 31.8032
#
#
#
# Elastic Compliance Matrix: (Units=1/GPa)
#
#
# Indices 1 2 3 4 5 6 
#
# 1 0.005760 -0.000830 -0.001551 0.000000 0.000000 0.000000
# 2 -0.000830 0.008583 -0.002207 0.000000 0.000000 0.000000
# 3 -0.001551 -0.002207 0.005880 0.000000 0.000000 0.000000
# 4 0.000000 0.000000 0.000000 0.026213 0.000000 0.000000
# 5 0.000000 0.000000 0.000000 0.000000 0.044812 0.000000
# 6 0.000000 0.000000 0.000000 0.000000 0.000000 0.031443
#
#
# Mechanical properties :
#
#
# Convention : Reuss Voigt Hill
#
# Bulk Modulus (GPa) = 90.52212 96.01390 93.26801
# Shear Modulus (GPa) = 36.88673 43.81673 40.35173
#
# Velocity S-wave (km/s) = 3.86661 4.21420 4.04414
# Velocity P-wave (km/s) = 7.52489 7.91170 7.72072
#
# Compressibility (1/GPa) = 0.01104702
#
# Stress axis : x y z
#
# Youngs Moduli (GPa) = 173.61312 116.51368 170.05896
#
# Poissons Ratio (x) = 0.09666 0.26377
# Poissons Ratio (y) = 0.14403 0.37537
# Poissons Ratio (z) = 0.26928 0.25718
#
# Static dielectric constant tensor:
#      x y z
#    x 2.190370 0.000000 0.000000 
#    y 0.000000 2.091420 0.000000 
#    z 0.000000 0.000000 2.015320 
# 
# From -- ./inp_files/3437.got.cif
#   From: 2010.05.17/outbox.cif.g08.bks.cpg/sg16_2_cif.got.tgz:3437.got - 2010.06.03 22:28:35.
