data_PCOD9310006
_publ_section_title
;
Structure prediction by ZEFSAII (Michael W. Deem and Ramdas Pophale) SiO2 
 PCOD9310006
Probable space group: P 2 2 2
;
_chemical_formula_sum "Si O2"
_cell_formula_units_Z 24
_cell_length_a 23.230297
_cell_length_b 5.326075
_cell_length_c 13.878195
_cell_angle_alpha 90.000000
_cell_angle_beta 90.000000
_cell_angle_gamma 90.000000
_cell_volume 1717.097775
_symmetry_space_group_name_H-M "P 2 2 2"
_symmetry_group_IT_number 16
_symmetry_cell_setting 'orthorhombic'
loop_
_space_group_symop_operation_xyz
x,y,z
-x,-y,z
x,-y,-z
-x,y,-z
loop_
_atom_site_type_symbol
_atom_site_label
_atom_site_fract_x
_atom_site_fract_y
_atom_site_fract_z
Si Si1 0.930750 0.500000 0.772160
Si Si2 0.566483 0.500000 0.382612
Si Si3 0.233550 0.000000 0.616718
Si Si4 0.836552 0.500000 0.615987
Si Si5 0.365881 1.000000 0.617584
Si Si6 0.069779 0.000000 0.110134
O O1 0.896519 0.500000 0.672323
O O2 0.914449 0.748319 0.832544
O O3 0.000000 0.500000 0.758513
O O4 0.914449 0.251681 0.832544
O O5 0.500000 0.500000 0.351583
O O6 0.566089 0.500000 0.500000
O O7 0.600244 0.249953 0.352394
O O8 0.600244 0.750047 0.352394
O O9 0.199434 0.748337 0.643622
O O10 0.235833 0.000000 0.500000
O O11 0.199435 0.251665 0.643622
O O12 0.299636 1.000000 0.650255
O O13 0.844278 0.500000 0.500000
O O14 0.365198 0.000000 0.500000
O O15 0.000000 0.000000 0.105736
O O16 0.090906 0.000000 0.000000
#
# Coordination Sequence:
#
# PCOD9310006 Si02
#       6
#     4   4   4   4   4   4
#     4  10  19  30  45  64  83 104 129 159 204 252
#     4   9  15  21  30  46  66  85 108 147 201 247
#     4   9  17  28  40  52  68  97 135 169 199 228
#     4  10  19  30  42  57  79 105 135 170 203 236
#     4   9  15  23  34  46  62  87 120 155 193 235
#     4   9  17  30  47  65  83 101 123 154 195 245
#
# _framework density 13.977073000000001
#
# number of rings (size 3 to 8) (size 9 to 14) (size 15 to 20)
#    0.000    2.667    0.000    3.000    0.000    8.333 
#    0.000    0.000    0.000    6.000    0.000    0.000 
#    0.000    0.000    0.000    0.000    0.000    0.000 
#
# Total GULP energy -133668.509440 kJ/mol
# GULP energy per Si atom -5569.521227 kJ/mol
# Density = 1.394526 g / cm^3
# Si number density = 13.977073 Si / 1000 Ang^3
#
#
#
# Elastic Constant Matrix: (Units=GPa)
#
#
# Indices 1 2 3 4 5 6 
#
# 1 91.7754 61.7588 33.9724 0.0000 0.0000 0.0000
# 2 61.7588 155.5044 34.1529 0.0000 0.0000 0.0000
# 3 33.9724 34.1529 37.6333 0.0000 0.0000 0.0000
# 4 0.0000 0.0000 0.0000 7.1448 0.0000 0.0000
# 5 0.0000 0.0000 0.0000 0.0000 0.2454 0.0000
# 6 0.0000 0.0000 0.0000 0.0000 0.0000 12.7539
#
#
#
# Elastic Compliance Matrix: (Units=1/GPa)
#
#
# Indices 1 2 3 4 5 6 
#
# 1 0.018718 -0.004649 -0.012677 0.000000 0.000000 0.000000
# 2 -0.004649 0.009186 -0.004140 0.000000 0.000000 0.000000
# 3 -0.012677 -0.004140 0.041773 0.000000 0.000000 0.000000
# 4 0.000000 0.000000 0.000000 0.139963 0.000000 0.000000
# 5 0.000000 0.000000 0.000000 0.000000 4.074826 0.000000
# 6 0.000000 0.000000 0.000000 0.000000 0.000000 0.078407
#
#
# Mechanical properties :
#
#
# Convention : Reuss Voigt Hill
#
# Bulk Modulus (GPa) = 37.39120 60.52014 48.95567
# Shear Modulus (GPa) = 1.13257 14.36409 7.74833
#
# Velocity S-wave (km/s) = 0.90115 3.20924 2.35704
# Velocity P-wave (km/s) = 5.28135 7.55816 6.51991
#
# Compressibility (1/GPa) = 0.02674426
#
# Stress axis : x y z
#
# Youngs Moduli (GPa) = 53.42522 108.85644 23.93879
#
# Poissons Ratio (x) = 0.50613 0.30348
# Poissons Ratio (y) = 0.24840 0.09910
# Poissons Ratio (z) = 0.67729 0.45063
#
# Static dielectric constant tensor:
#      x y z
#    x 1.453000 0.000000 0.000000 
#    y 0.000000 1.473260 0.000000 
#    z 0.000000 0.000000 1.423490 
# 
# From -- ./inp_files/1621.got.cif
#   From: 2010.05.17/outbox.cif.g08.bks.cpg/sg16_1_cif.got.tgz:1621.got - 2010.06.03 22:28:35.
