data_PCOD9310336
_publ_section_title
;
Structure prediction by ZEFSAII (Michael W. Deem and Ramdas Pophale) SiO2 
 PCOD9310336
Probable space group: P 2 2 2
;
_chemical_formula_sum "Si O2"
_cell_formula_units_Z 12
_cell_length_a 17.016787
_cell_length_b 6.266875
_cell_length_c 4.764488
_cell_angle_alpha 90.000000
_cell_angle_beta 90.000000
_cell_angle_gamma 90.000000
_cell_volume 508.094896
_symmetry_space_group_name_H-M "P 2 2 2"
_symmetry_group_IT_number 16
_symmetry_cell_setting 'orthorhombic'
loop_
_space_group_symop_operation_xyz
x,y,z
-x,-y,z
x,-y,-z
-x,y,-z
loop_
_atom_site_type_symbol
_atom_site_label
_atom_site_fract_x
_atom_site_fract_y
_atom_site_fract_z
Si Si1 0.277981 0.851108 0.258813
Si Si2 0.500000 0.500000 0.500000
Si Si3 0.000000 0.000000 0.000000
Si Si4 0.113966 0.345290 0.735950
Si Si5 0.392005 0.500000 0.000000
O O1 0.197810 0.744494 0.365557
O O2 0.338464 0.677780 0.144688
O O3 0.312653 0.000000 0.500000
O O4 0.254305 0.000000 0.000000
O O5 0.442175 0.399150 0.261279
O O6 0.943862 0.845472 0.819513
O O7 0.081922 0.500000 0.500000
O O8 0.128049 0.500000 0.000000
#
# Coordination Sequence:
#
# PCOD9310336 Si02
#       5
#     4   1   1   4   2
#     4  12  25  46  78 113 148 200 257 307 369 450
#     4  10  24  46  78 114 152 198 236 306 398 422
#     4  12  30  54  72 112 164 192 254 334 368 452
#     4  12  28  50  76 110 151 203 258 312 383 443
#     4  11  24  48  76 111 156 196 246 311 368 464
#
# _framework density 23.617636999999998
#
# number of rings (size 3 to 8) (size 9 to 14) (size 15 to 20)
#    0.000    0.333    3.333    4.500    2.333    4.000 
#    0.000   12.500    0.000    0.000    0.000    0.000 
#    0.000    0.000    0.000    0.000    0.000    0.000 
#
# Total GULP energy -67156.556486 kJ/mol
# GULP energy per Si atom -5596.379707 kJ/mol
# Density = 2.356388 g / cm^3
# Si number density = 23.617637 Si / 1000 Ang^3
#
#
#
# Elastic Constant Matrix: (Units=GPa)
#
#
# Indices 1 2 3 4 5 6 
#
# 1 141.8734 66.9012 46.8911 0.0000 0.0000 0.0000
# 2 66.9012 144.9513 60.8570 0.0000 0.0000 0.0000
# 3 46.8911 60.8570 141.2671 0.0000 0.0000 0.0000
# 4 0.0000 0.0000 0.0000 67.9748 0.0000 0.0000
# 5 0.0000 0.0000 0.0000 0.0000 0.9452 0.0000
# 6 0.0000 0.0000 0.0000 0.0000 0.0000 -74.9864
#
#
#
# Elastic Compliance Matrix: (Units=1/GPa)
#
#
# Indices 1 2 3 4 5 6 
#
# 1 0.009264 -0.003644 -0.001505 0.000000 0.000000 0.000000
# 2 -0.003644 0.009855 -0.003036 0.000000 0.000000 0.000000
# 3 -0.001505 -0.003036 0.008886 0.000000 0.000000 0.000000
# 4 0.000000 0.000000 0.000000 0.014711 0.000000 0.000000
# 5 0.000000 0.000000 0.000000 0.000000 1.057922 0.000000
# 6 0.000000 0.000000 0.000000 0.000000 0.000000 -0.013336
#
#
# Mechanical properties :
#
#
# Convention : Reuss Voigt Hill
#
# Bulk Modulus (GPa) = 85.94454 86.37672 86.16063
# Shear Modulus (GPa) = 4.51446 15.68291 10.09868
#
# Velocity S-wave (km/s) = 1.38406 2.57968 2.07007
# Velocity P-wave (km/s) = 6.24685 6.74725 6.50187
#
# Compressibility (1/GPa) = 0.01163541
#
# Stress axis : x y z
#
# Youngs Moduli (GPa) = 107.94034 101.46754 112.53136
#
# Poissons Ratio (x) = 0.36974 0.16940
# Poissons Ratio (y) = 0.39332 0.34166
# Poissons Ratio (z) = 0.16249 0.30807
#
# Static dielectric constant tensor:
#      x y z
#    x 1.911440 0.000000 0.000000 
#    y 0.000000 1.863990 0.000000 
#    z 0.000000 0.000000 1.906800 
# 
# From -- ./inp_files/2167.got.cif
#   From: 2010.05.17/outbox.cif.g08.bks.cpg/sg16_2_cif.got.tgz:2167.got - 2010.06.03 22:28:35.
