data_PCOD9310815
_publ_section_title
;
Structure prediction by ZEFSAII (Michael W. Deem and Ramdas Pophale) SiO2 
 PCOD9310815
Probable space group: P 2 2 21
;
_chemical_formula_sum "Si O2"
_cell_formula_units_Z 20
_cell_length_a 11.629409
_cell_length_b 15.438002
_cell_length_c 5.508847
_cell_angle_alpha 90.000000
_cell_angle_beta 90.000000
_cell_angle_gamma 90.000000
_cell_volume 989.029961
_symmetry_space_group_name_H-M "P 2 2 21"
_symmetry_group_IT_number 17
_symmetry_cell_setting 'orthorhombic'
loop_
_space_group_symop_operation_xyz
x,y,z
-x,-y,1/2+z
x,-y,-z
-x,y,1/2-z
loop_
_atom_site_type_symbol
_atom_site_label
_atom_site_fract_x
_atom_site_fract_y
_atom_site_fract_z
Si Si1 0.755063 0.000000 0.000000
Si Si2 0.364380 0.839629 0.726985
Si Si3 0.000000 0.211417 0.250000
Si Si4 0.170795 0.119109 0.892136
Si Si5 0.137349 0.448773 0.750358
Si Si6 0.798335 0.723465 0.037503
O O1 0.674224 0.918964 0.943666
O O2 0.826836 0.029675 0.761851
O O3 0.500000 0.836746 0.750000
O O4 0.314430 0.751408 0.610368
O O5 0.291169 0.863414 0.967455
O O6 0.096417 0.277462 0.349436
O O7 0.932160 0.146178 0.429366
O O8 0.165819 0.193388 0.691520
O O9 0.161419 0.500000 0.500000
O O10 0.203704 0.358584 0.711587
O O11 0.000000 0.430858 0.750000
O O12 0.164284 0.500000 0.000000
#
# Coordination Sequence:
#
# PCOD9310815 Si02
#       6
#     2   4   2   4   4   4
#     4  10  22  36  60  90 122 156 218 280 324 366
#     4  10  23  39  65  90 118 165 219 272 327 378
#     4  10  20  36  66  84 130 174 216 250 322 400
#     4  10  21  38  62  88 121 167 212 261 325 386
#     4  10  22  35  60 101 136 170 209 260 320 389
#     4  10  22  38  63  91 130 170 208 259 318 396
#
# _framework density 20.221831000000002
#
# number of rings (size 3 to 8) (size 9 to 14) (size 15 to 20)
#    0.000    2.000    0.000    2.400   12.600    2.400 
#    0.000    0.000  158.400    0.000    5.200    0.000 
#    0.000    0.000    0.000    0.000    0.000    0.000 
#
# Total GULP energy -111556.668099 kJ/mol
# GULP energy per Si atom -5577.833405 kJ/mol
# Density = 2.017581 g / cm^3
# Si number density = 20.221831 Si / 1000 Ang^3
#
#
#
# Elastic Constant Matrix: (Units=GPa)
#
#
# Indices 1 2 3 4 5 6 
#
# 1 57.6121 23.9515 28.3165 0.0000 0.0000 0.0000
# 2 23.9515 94.2864 26.6064 0.0000 0.0000 0.0000
# 3 28.3165 26.6064 94.2553 0.0000 0.0000 0.0000
# 4 0.0000 0.0000 0.0000 35.6856 0.0000 0.0000
# 5 0.0000 0.0000 0.0000 0.0000 13.8884 0.0000
# 6 0.0000 0.0000 0.0000 0.0000 0.0000 11.5009
#
#
#
# Elastic Compliance Matrix: (Units=1/GPa)
#
#
# Indices 1 2 3 4 5 6 
#
# 1 0.021659 -0.003983 -0.005382 0.000000 0.000000 0.000000
# 2 -0.003983 0.012256 -0.002263 0.000000 0.000000 0.000000
# 3 -0.005382 -0.002263 0.012865 0.000000 0.000000 0.000000
# 4 0.000000 0.000000 0.000000 0.028023 0.000000 0.000000
# 5 0.000000 0.000000 0.000000 0.000000 0.072002 0.000000
# 6 0.000000 0.000000 0.000000 0.000000 0.000000 0.086949
#
#
# Mechanical properties :
#
#
# Convention : Reuss Voigt Hill
#
# Bulk Modulus (GPa) = 42.51122 44.87809 43.69466
# Shear Modulus (GPa) = 18.87837 23.36695 21.12266
#
# Velocity S-wave (km/s) = 3.05874 3.40300 3.23545
# Velocity P-wave (km/s) = 5.79160 6.13853 5.96759
#
# Compressibility (1/GPa) = 0.02352320
#
# Stress axis : x y z
#
# Youngs Moduli (GPa) = 46.17044 81.58973 77.72828
#
# Poissons Ratio (x) = 0.32498 0.41837
# Poissons Ratio (y) = 0.18390 0.17591
# Poissons Ratio (z) = 0.24851 0.18465
#
# Static dielectric constant tensor:
#      x y z
#    x 1.676450 0.000000 0.000000 
#    y 0.000000 1.771000 0.000000 
#    z 0.000000 0.000000 1.940890 
# 
# From -- ./inp_files/1490.got.cif
#   From: 2010.05.17/outbox.cif.g08.bks.cpg/sg17_1_cif.got.tgz:1490.got - 2010.06.03 22:34:06.
