data_PCOD9310261
_publ_section_title
;
Structure prediction by ZEFSAII (Michael W. Deem and Ramdas Pophale) SiO2 
 PCOD9310261
Probable space group: P 2 2 2
;
_chemical_formula_sum "Si O2"
_cell_formula_units_Z 32
_cell_length_a 14.358814
_cell_length_b 9.089413
_cell_length_c 11.881202
_cell_angle_alpha 90.000000
_cell_angle_beta 90.000000
_cell_angle_gamma 90.000000
_cell_volume 1550.653582
_symmetry_space_group_name_H-M "P 2 2 2"
_symmetry_group_IT_number 16
_symmetry_cell_setting 'orthorhombic'
loop_
_space_group_symop_operation_xyz
x,y,z
-x,-y,z
x,-y,-z
-x,y,-z
loop_
_atom_site_type_symbol
_atom_site_label
_atom_site_fract_x
_atom_site_fract_y
_atom_site_fract_z
Si Si1 0.891241 0.326440 0.490613
Si Si2 0.452091 0.654313 0.784781
Si Si3 0.803146 0.080195 0.611789
Si Si4 0.817645 0.194126 0.258681
Si Si5 0.628844 0.835457 0.847779
Si Si6 0.593522 0.076199 0.672300
Si Si7 0.890513 0.824552 0.987025
Si Si8 0.280267 0.334249 0.049688
O O1 0.881421 0.500000 0.500000
O O2 0.837206 0.244345 0.592054
O O3 0.853373 0.277175 0.368413
O O4 0.000000 0.286778 0.500000
O O5 0.500000 0.500000 0.764029
O O6 0.532022 0.749193 0.847187
O O7 0.429672 0.752704 0.678009
O O8 0.355885 0.646451 0.852528
O O9 0.691849 0.064740 0.612540
O O10 0.840665 0.000000 0.500000
O O11 0.834118 0.980228 0.716151
O O12 0.707070 0.221242 0.241021
O O13 0.864180 0.226882 0.139589
O O14 0.610162 0.998880 0.797045
O O15 0.675510 0.790567 0.965683
O O16 0.500000 0.000000 0.628584
O O17 0.822359 0.732554 0.069589
O O18 0.000000 0.799922 0.000000
O O19 0.872285 0.000000 0.000000
O O20 0.271764 0.500000 0.000000
#
# Coordination Sequence:
#
# PCOD9310261 Si02
#       8
#     4   4   4   4   4   4   4   4
#     4  10  22  40  61  95 124 156 208 262 322 381
#     4  11  21  33  55  86 122 158 207 249 304 368
#     4   9  19  37  64  89 116 153 204 256 318 374
#     4   9  20  40  62  87 124 161 200 267 315 364
#     4   9  19  36  55  79 119 160 199 250 307 358
#     4   9  20  36  55  86 117 155 199 248 311 375
#     4  10  24  43  63  90 126 169 217 261 310 382
#     4  11  22  36  56  82 122 162 211 258 300 367
#
# _framework density 20.636458999999999
#
# number of rings (size 3 to 8) (size 9 to 14) (size 15 to 20)
#    0.000    2.250    1.250    0.375    5.250    5.750 
#    0.000    4.375    0.000    0.000    0.000    3.500 
#    0.000    0.000    0.000    0.000    0.000    0.000 
#
# Total GULP energy -178202.683196 kJ/mol
# GULP energy per Si atom -5568.833850 kJ/mol
# Density = 2.058949 g / cm^3
# Si number density = 20.636459 Si / 1000 Ang^3
#
#
#
# Elastic Constant Matrix: (Units=GPa)
#
#
# Indices 1 2 3 4 5 6 
#
# 1 107.8802 53.8775 18.9873 0.0000 0.0000 0.0000
# 2 53.8775 98.1162 23.4756 0.0000 0.0000 0.0000
# 3 18.9873 23.4756 43.9146 0.0000 0.0000 0.0000
# 4 0.0000 0.0000 0.0000 11.0320 0.0000 0.0000
# 5 0.0000 0.0000 0.0000 0.0000 20.2667 0.0000
# 6 0.0000 0.0000 0.0000 0.0000 0.0000 29.4144
#
#
#
# Elastic Compliance Matrix: (Units=1/GPa)
#
#
# Indices 1 2 3 4 5 6 
#
# 1 0.012933 -0.006609 -0.002059 0.000000 0.000000 0.000000
# 2 -0.006609 0.015064 -0.005195 0.000000 0.000000 0.000000
# 3 -0.002059 -0.005195 0.026439 0.000000 0.000000 0.000000
# 4 0.000000 0.000000 0.000000 0.090645 0.000000 0.000000
# 5 0.000000 0.000000 0.000000 0.000000 0.049342 0.000000
# 6 0.000000 0.000000 0.000000 0.000000 0.000000 0.033997
#
#
# Mechanical properties :
#
#
# Convention : Reuss Voigt Hill
#
# Bulk Modulus (GPa) = 37.43975 49.17687 43.30831
# Shear Modulus (GPa) = 18.86445 22.38065 20.62255
#
# Velocity S-wave (km/s) = 3.02674 3.29678 3.16464
# Velocity P-wave (km/s) = 5.51333 6.19463 5.86388
#
# Compressibility (1/GPa) = 0.02670958
#
# Stress axis : x y z
#
# Youngs Moduli (GPa) = 77.32449 66.38268 37.82304
#
# Poissons Ratio (x) = 0.43872 0.07786
# Poissons Ratio (y) = 0.51103 0.19651
# Poissons Ratio (z) = 0.15919 0.34489
#
# Static dielectric constant tensor:
#      x y z
#    x 1.783350 0.000000 0.000000 
#    y 0.000000 1.784640 0.000000 
#    z 0.000000 0.000000 1.778870 
# 
# From -- ./inp_files/7182.got.cif
#   From: 2010.05.17/outbox.cif.g08.bks.cpg/sg16_4_cif.got.tgz:7182.got - 2010.06.03 22:28:35.
