data_PCOD9310846
_publ_section_title
;
Structure prediction by ZEFSAII (Michael W. Deem and Ramdas Pophale) SiO2 
 PCOD9310846
Probable space group: P 2 2 21
;
_chemical_formula_sum "Si O2"
_cell_formula_units_Z 22
_cell_length_a 7.285465
_cell_length_b 5.287215
_cell_length_c 24.800119
_cell_angle_alpha 90.000000
_cell_angle_beta 90.000000
_cell_angle_gamma 90.000000
_cell_volume 955.296116
_symmetry_space_group_name_H-M "P 2 2 21"
_symmetry_group_IT_number 17
_symmetry_cell_setting 'orthorhombic'
loop_
_space_group_symop_operation_xyz
x,y,z
-x,-y,1/2+z
x,-y,-z
-x,y,1/2-z
loop_
_atom_site_type_symbol
_atom_site_label
_atom_site_fract_x
_atom_site_fract_y
_atom_site_fract_z
Si Si1 0.087169 0.070831 0.372871
Si Si2 0.500000 0.624608 0.250000
Si Si3 0.515115 0.275463 0.144944
Si Si4 0.202116 0.519392 0.909116
Si Si5 0.918841 0.742070 0.031956
Si Si6 0.222434 0.130654 0.813165
O O1 0.139458 0.819604 0.407351
O O2 0.969560 0.013868 0.319088
O O3 0.276559 0.207957 0.364510
O O4 0.942607 0.248075 0.406279
O O5 0.512561 0.457682 0.196726
O O6 0.686115 0.786305 0.257437
O O7 0.411387 0.391240 0.092901
O O8 0.384257 0.039014 0.160467
O O9 0.188094 0.369740 0.852265
O O10 0.131650 0.332357 0.955344
O O11 0.840475 0.500000 0.000000
O O12 0.890875 0.000000 0.000000
#
# Coordination Sequence:
#
# PCOD9310846 Si02
#       6
#     4   2   4   4   4   4
#     4  10  21  40  68  92 129 175 216 273 339 386
#     4  10  20  38  58  88 136 172 224 268 322 394
#     4  10  21  40  65  92 130 175 221 275 327 396
#     4   9  20  39  65  91 126 172 211 266 336 381
#     4  11  21  39  71  96 134 176 220 271 331 401
#     4   9  20  38  59  89 125 170 212 268 324 383
#
# _framework density 23.029509000000001
#
# number of rings (size 3 to 8) (size 9 to 14) (size 15 to 20)
#    0.000    2.182    1.818    0.545    0.000    5.818 
#    0.000   21.818   16.000    0.000    0.000    0.000 
#    0.000    0.000    0.000    0.000    0.000    0.000 
#
# Total GULP energy -122590.686190 kJ/mol
# GULP energy per Si atom -5572.303918 kJ/mol
# Density = 2.297709 g / cm^3
# Si number density = 23.029509 Si / 1000 Ang^3
#
#
#
# Elastic Constant Matrix: (Units=GPa)
#
#
# Indices 1 2 3 4 5 6 
#
# 1 140.2102 20.1428 5.6414 0.0000 0.0000 0.0000
# 2 20.1428 86.2417 5.3705 0.0000 0.0000 0.0000
# 3 5.6414 5.3705 22.8128 0.0000 0.0000 0.0000
# 4 0.0000 0.0000 0.0000 27.8694 0.0000 0.0000
# 5 0.0000 0.0000 0.0000 0.0000 12.2567 0.0000
# 6 0.0000 0.0000 0.0000 0.0000 0.0000 18.6764
#
#
#
# Elastic Compliance Matrix: (Units=1/GPa)
#
#
# Indices 1 2 3 4 5 6 
#
# 1 0.007427 -0.001644 -0.001449 0.000000 0.000000 0.000000
# 2 -0.001644 0.012132 -0.002449 0.000000 0.000000 0.000000
# 3 -0.001449 -0.002449 0.044770 0.000000 0.000000 0.000000
# 4 0.000000 0.000000 0.000000 0.035882 0.000000 0.000000
# 5 0.000000 0.000000 0.000000 0.000000 0.081588 0.000000
# 6 0.000000 0.000000 0.000000 0.000000 0.000000 0.053543
#
#
# Mechanical properties :
#
#
# Convention : Reuss Voigt Hill
#
# Bulk Modulus (GPa) = 18.78204 34.61936 26.70070
# Shear Modulus (GPa) = 18.92681 26.30117 22.61399
#
# Velocity S-wave (km/s) = 2.86990 3.38311 3.13702
# Velocity P-wave (km/s) = 4.37666 5.50689 4.97398
#
# Compressibility (1/GPa) = 0.05324236
#
# Stress axis : x y z
#
# Youngs Moduli (GPa) = 134.64941 82.42728 22.33629
#
# Poissons Ratio (x) = 0.13554 0.03238
# Poissons Ratio (y) = 0.22141 0.05471
# Poissons Ratio (z) = 0.19517 0.20190
#
# Static dielectric constant tensor:
#      x y z
#    x 1.866070 0.000000 0.000000 
#    y 0.000000 1.992250 0.000000 
#    z 0.000000 0.000000 1.960370 
# 
# From -- ./inp_files/11089.got.cif
#   From: 2010.05.17/outbox.cif.g08.bks.cpg/sg17_6_cif.got.tgz:11089.got - 2010.06.03 22:34:06.
