data_PCOD9310837
_publ_section_title
;
Structure prediction by ZEFSAII (Michael W. Deem and Ramdas Pophale) SiO2 
 PCOD9310837
Probable space group: P 2 2 21
;
_chemical_formula_sum "Si O2"
_cell_formula_units_Z 30
_cell_length_a 5.326018
_cell_length_b 20.507545
_cell_length_c 14.928927
_cell_angle_alpha 90.000000
_cell_angle_beta 90.000000
_cell_angle_gamma 90.000000
_cell_volume 1630.590461
_symmetry_space_group_name_H-M "P 2 2 21"
_symmetry_group_IT_number 17
_symmetry_cell_setting 'orthorhombic'
loop_
_space_group_symop_operation_xyz
x,y,z
-x,-y,1/2+z
x,-y,-z
-x,y,1/2-z
loop_
_atom_site_type_symbol
_atom_site_label
_atom_site_fract_x
_atom_site_fract_y
_atom_site_fract_z
Si Si1 0.577752 0.436031 0.064566
Si Si2 0.977896 0.621897 0.355496
Si Si3 0.116376 0.004097 0.154412
Si Si4 0.079834 0.525571 0.852627
Si Si5 0.943160 0.900699 0.493120
Si Si6 0.500000 0.094106 0.750000
Si Si7 0.426673 0.833445 0.430643
Si Si8 0.484945 0.320771 0.565206
O O1 0.363199 0.450665 0.137182
O O2 0.863657 0.433595 0.098090
O O3 0.562646 0.500000 0.000000
O O4 0.502306 0.367142 0.021482
O O5 0.239577 0.650082 0.387835
O O6 0.000000 0.617883 0.250000
O O7 0.935217 0.548376 0.389995
O O8 0.741685 0.665228 0.382423
O O9 0.000000 0.024256 0.250000
O O10 0.986531 0.954620 0.083470
O O11 0.337285 0.956955 0.191063
O O12 0.137175 0.065582 0.087331
O O13 0.000000 0.523954 0.750000
O O14 0.695754 0.862648 0.460350
O O15 0.195657 0.858090 0.492188
O O16 0.616729 0.141514 0.827098
O O17 0.445955 0.756041 0.440872
#
# Coordination Sequence:
#
# PCOD9310837 Si02
#       8
#     4   4   4   4   4   2   4   4
#     4  12  21  38  61  88 118 155 213 260 303 365
#     4  11  22  36  55  88 120 155 202 252 307 371
#     4  10  20  37  66  94 119 161 201 248 303 350
#     4  11  22  38  60  87 120 147 200 275 318 343
#     4  10  23  39  62  89 131 154 203 253 292 360
#     4  10  22  38  64  94 128 158 206 236 302 382
#     4  11  24  41  56  91 131 167 197 245 305 374
#     4  12  24  38  60  84 121 174 198 244 310 371
#
# _framework density 18.398242
#
# number of rings (size 3 to 8) (size 9 to 14) (size 15 to 20)
#    0.000    1.067    4.000    2.800    3.733    3.200 
#    0.000    0.000    0.000    4.800    0.000    0.000 
#    0.000    0.000    0.000    0.000    0.000    0.000 
#
# Total GULP energy -167053.153946 kJ/mol
# GULP energy per Si atom -5568.438465 kJ/mol
# Density = 1.835637 g / cm^3
# Si number density = 18.398242 Si / 1000 Ang^3
#
#
#
# Elastic Constant Matrix: (Units=GPa)
#
#
# Indices 1 2 3 4 5 6 
#
# 1 84.7294 31.4193 9.1264 0.0000 0.0000 0.0000
# 2 31.4193 120.5167 38.3149 0.0000 0.0000 0.0000
# 3 9.1264 38.3149 79.8683 0.0000 0.0000 0.0000
# 4 0.0000 0.0000 0.0000 10.6667 0.0000 0.0000
# 5 0.0000 0.0000 0.0000 0.0000 34.2460 0.0000
# 6 0.0000 0.0000 0.0000 0.0000 0.0000 16.4770
#
#
#
# Elastic Compliance Matrix: (Units=1/GPa)
#
#
# Indices 1 2 3 4 5 6 
#
# 1 0.013067 -0.003460 0.000167 0.000000 0.000000 0.000000
# 2 -0.003460 0.010707 -0.004741 0.000000 0.000000 0.000000
# 3 0.000167 -0.004741 0.014776 0.000000 0.000000 0.000000
# 4 0.000000 0.000000 0.000000 0.093750 0.000000 0.000000
# 5 0.000000 0.000000 0.000000 0.000000 0.029200 0.000000
# 6 0.000000 0.000000 0.000000 0.000000 0.000000 0.060691
#
#
# Mechanical properties :
#
#
# Convention : Reuss Voigt Hill
#
# Bulk Modulus (GPa) = 44.48053 49.20397 46.84225
# Shear Modulus (GPa) = 20.34558 26.02818 23.18688
#
# Velocity S-wave (km/s) = 3.32903 3.76534 3.55389
# Velocity P-wave (km/s) = 6.24545 6.76060 6.50812
#
# Compressibility (1/GPa) = 0.02248174
#
# Stress axis : x y z
#
# Youngs Moduli (GPa) = 76.52728 93.39837 67.67743
#
# Poissons Ratio (x) = 0.32312 -0.01127
# Poissons Ratio (y) = 0.26476 0.32086
# Poissons Ratio (z) = -0.01274 0.44280
#
# Static dielectric constant tensor:
#      x y z
#    x 1.655060 0.000000 0.000000 
#    y 0.000000 1.649210 0.000000 
#    z 0.000000 0.000000 1.690620 
# 
# From -- ./inp_files/7804.got.cif
#   From: 2010.05.17/outbox.cif.g08.bks.cpg/sg17_4_cif.got.tgz:7804.got - 2010.06.03 22:34:06.
