data_PCOD9310359
_publ_section_title
;
Structure prediction by ZEFSAII (Michael W. Deem and Ramdas Pophale) SiO2 
 PCOD9310359
Probable space group: P 2 2 2
;
_chemical_formula_sum "Si O2"
_cell_formula_units_Z 32
_cell_length_a 11.557849
_cell_length_b 12.018544
_cell_length_c 13.363099
_cell_angle_alpha 90.000000
_cell_angle_beta 90.000000
_cell_angle_gamma 90.000000
_cell_volume 1856.248261
_symmetry_space_group_name_H-M "P 2 2 2"
_symmetry_group_IT_number 16
_symmetry_cell_setting 'orthorhombic'
loop_
_space_group_symop_operation_xyz
x,y,z
-x,-y,z
x,-y,-z
-x,y,-z
loop_
_atom_site_type_symbol
_atom_site_label
_atom_site_fract_x
_atom_site_fract_y
_atom_site_fract_z
Si Si1 0.125144 0.028180 0.881428
Si Si2 0.059567 0.651945 0.889662
Si Si3 0.736325 0.180966 0.871466
Si Si4 0.833378 0.562057 0.811173
Si Si5 0.306473 0.503220 0.619891
Si Si6 0.718534 0.226544 0.105454
Si Si7 0.497689 0.134360 0.773231
Si Si8 0.502624 0.317201 0.617404
O O1 0.224011 0.944439 0.847888
O O2 0.168719 0.152470 0.866442
O O3 0.000000 0.000000 0.838264
O O4 0.118343 0.000000 0.000000
O O5 0.146207 0.748569 0.856144
O O6 0.139281 0.541616 0.884316
O O7 0.955596 0.627289 0.812950
O O8 0.000000 0.669163 0.000000
O O9 0.616487 0.189072 0.813995
O O10 0.708503 0.209465 0.986874
O O11 0.792227 0.517763 0.702974
O O12 0.741654 0.648149 0.858623
O O13 0.275835 0.500000 0.500000
O O14 0.399577 0.404701 0.638478
O O15 0.377248 0.617475 0.640533
O O16 0.607013 0.172806 0.155968
O O17 0.481342 0.200728 0.670557
O O18 0.500000 0.000000 0.767604
O O19 0.500000 0.299877 0.500000
#
# Coordination Sequence:
#
# PCOD9310359 Si02
#       8
#     4   4   4   4   4   4   4   4
#     4   9  18  31  50  75 103 148 203 236 261 317
#     4  11  23  37  55  81 114 158 193 232 271 336
#     4  11  22  35  53  77 117 156 193 232 281 331
#     4  11  20  35  58  82 112 145 189 233 287 336
#     4   9  18  36  62  87 112 142 183 240 297 356
#     4  11  21  34  54  79 115 156 188 234 283 333
#     4  12  23  37  55  84 120 151 191 244 299 343
#     4   9  19  37  60  84 111 147 189 235 295 359
#
# _framework density 17.239073000000001
#
# number of rings (size 3 to 8) (size 9 to 14) (size 15 to 20)
#    0.000    1.625    3.750    3.375    1.750    0.750 
#    0.000    1.250    0.000    1.500    0.000    0.000 
#    0.000    1.000    0.000    0.000    0.000    0.000 
#
# Total GULP energy -178179.147537 kJ/mol
# GULP energy per Si atom -5568.098361 kJ/mol
# Density = 1.719984 g / cm^3
# Si number density = 17.239073 Si / 1000 Ang^3
#
#
#
# Elastic Constant Matrix: (Units=GPa)
#
#
# Indices 1 2 3 4 5 6 
#
# 1 73.5114 9.4236 35.3839 0.0000 0.0000 0.0000
# 2 9.4236 76.1271 23.3030 0.0000 0.0000 0.0000
# 3 35.3839 23.3030 59.3848 0.0000 0.0000 0.0000
# 4 0.0000 0.0000 0.0000 21.8893 0.0000 0.0000
# 5 0.0000 0.0000 0.0000 0.0000 20.4833 0.0000
# 6 0.0000 0.0000 0.0000 0.0000 0.0000 21.3786
#
#
#
# Elastic Compliance Matrix: (Units=1/GPa)
#
#
# Indices 1 2 3 4 5 6 
#
# 1 0.019182 0.001278 -0.011931 0.000000 0.000000 0.000000
# 2 0.001278 0.015014 -0.006653 0.000000 0.000000 0.000000
# 3 -0.011931 -0.006653 0.026559 0.000000 0.000000 0.000000
# 4 0.000000 0.000000 0.000000 0.045684 0.000000 0.000000
# 5 0.000000 0.000000 0.000000 0.000000 0.048820 0.000000
# 6 0.000000 0.000000 0.000000 0.000000 0.000000 0.046776
#
#
# Mechanical properties :
#
#
# Convention : Reuss Voigt Hill
#
# Bulk Modulus (GPa) = 38.25124 38.36049 38.30587
# Shear Modulus (GPa) = 20.37795 22.14442 21.26118
#
# Velocity S-wave (km/s) = 3.44187 3.58795 3.51567
# Velocity P-wave (km/s) = 6.16702 6.28211 6.22483
#
# Compressibility (1/GPa) = 0.02614295
#
# Stress axis : x y z
#
# Youngs Moduli (GPa) = 52.13110 66.60319 37.65201
#
# Poissons Ratio (x) = -0.08509 0.44923
# Poissons Ratio (y) = -0.06660 0.25050
# Poissons Ratio (z) = 0.62198 0.44311
#
# Static dielectric constant tensor:
#      x y z
#    x 1.627350 0.000000 0.000000 
#    y 0.000000 1.640090 0.000000 
#    z 0.000000 0.000000 1.583490 
# 
# From -- ./inp_files/6937.got.cif
#   From: 2010.05.17/outbox.cif.g08.bks.cpg/sg16_4_cif.got.tgz:6937.got - 2010.06.03 22:28:35.
