data_PCOD9310217
_publ_section_title
;
Structure prediction by ZEFSAII (Michael W. Deem and Ramdas Pophale) SiO2 
 PCOD9310217
Probable space group: P 2 2 2
;
_chemical_formula_sum "Si O2"
_cell_formula_units_Z 30
_cell_length_a 14.056800
_cell_length_b 5.269628
_cell_length_c 20.331471
_cell_angle_alpha 90.000000
_cell_angle_beta 90.000000
_cell_angle_gamma 90.000000
_cell_volume 1506.035556
_symmetry_space_group_name_H-M "P 2 2 2"
_symmetry_group_IT_number 16
_symmetry_cell_setting 'orthorhombic'
loop_
_space_group_symop_operation_xyz
x,y,z
-x,-y,z
x,-y,-z
-x,y,-z
loop_
_atom_site_type_symbol
_atom_site_label
_atom_site_fract_x
_atom_site_fract_y
_atom_site_fract_z
Si Si1 0.611437 0.927940 0.789470
Si Si2 0.109182 0.526374 0.208655
Si Si3 0.603188 0.390300 0.088432
Si Si4 0.609830 0.456253 0.578308
Si Si5 0.889470 0.027837 0.705772
Si Si6 0.693296 0.946639 0.642581
Si Si7 0.750985 0.758842 0.117704
Si Si8 0.708955 0.000000 0.000000
O O1 0.616194 0.675485 0.834037
O O2 0.644516 0.923155 0.714501
O O3 0.500000 0.000000 0.793568
O O4 0.685821 0.112524 0.826421
O O5 0.125507 0.806810 0.238605
O O6 0.176502 0.433118 0.150661
O O7 0.000000 0.500000 0.188043
O O8 0.122479 0.309420 0.264547
O O9 0.500000 0.500000 0.077681
O O10 0.678790 0.603590 0.071999
O O11 0.632093 0.152344 0.045759
O O12 0.500000 0.500000 0.599697
O O13 0.612376 0.500000 0.500000
O O14 0.672971 0.679609 0.608536
O O15 0.646465 0.181816 0.602826
O O16 0.805739 0.988901 0.653530
O O17 0.000000 0.000000 0.684062
O O18 0.784000 0.949335 0.061273
#
# Coordination Sequence:
#
# PCOD9310217 Si02
#       8
#     4   4   4   4   4   4   4   2
#     4  11  22  35  55  92 124 153 202 262 331 372
#     4  10  21  39  65  93 123 162 206 265 339 395
#     4  11  23  39  57  78 120 162 208 261 316 399
#     4  11  25  44  64  94 137 186 226 254 297 375
#     4  10  21  39  64 100 131 160 207 267 332 394
#     4  12  23  39  69  97 131 173 218 268 322 375
#     4  11  22  39  58  82 120 160 203 266 316 390
#     4  10  26  39  54  83 112 170 220 253 320 387
#
# _framework density 19.919848999999999
#
# number of rings (size 3 to 8) (size 9 to 14) (size 15 to 20)
#    0.000    1.200    2.667    3.600    3.733    3.200 
#    0.000    0.000    0.000    4.800    0.000    0.000 
#    0.000    0.000    0.000    0.000    0.000    0.000 
#
# Total GULP energy -167271.929653 kJ/mol
# GULP energy per Si atom -5575.730988 kJ/mol
# Density = 1.987451 g / cm^3
# Si number density = 19.919849 Si / 1000 Ang^3
#
#
#
# Elastic Constant Matrix: (Units=GPa)
#
#
# Indices 1 2 3 4 5 6 
#
# 1 99.7345 -1.5249 10.5467 0.0000 0.0000 0.0000
# 2 -1.5249 50.4516 3.0038 0.0000 0.0000 0.0000
# 3 10.5467 3.0038 74.5309 0.0000 0.0000 0.0000
# 4 0.0000 0.0000 0.0000 -128.9084 0.0000 0.0000
# 5 0.0000 0.0000 0.0000 0.0000 14.6910 0.0000
# 6 0.0000 0.0000 0.0000 0.0000 0.0000 27.9405
#
#
#
# Elastic Compliance Matrix: (Units=1/GPa)
#
#
# Indices 1 2 3 4 5 6 
#
# 1 0.010187 0.000395 -0.001457 0.000000 0.000000 0.000000
# 2 0.000395 0.019884 -0.000857 0.000000 0.000000 0.000000
# 3 -0.001457 -0.000857 0.013658 0.000000 0.000000 0.000000
# 4 0.000000 0.000000 0.000000 -0.007757 0.000000 0.000000
# 5 0.000000 0.000000 0.000000 0.000000 0.068069 0.000000
# 6 0.000000 0.000000 0.000000 0.000000 0.000000 0.035790
#
#
# Mechanical properties :
#
#
# Convention : Reuss Voigt Hill
#
# Bulk Modulus (GPa) = 25.06969 27.64091 26.35530
# Shear Modulus (GPa) = 31.85385 -3.07596 14.38894
#
# Velocity S-wave (km/s) = 4.00321 -1.24399 2.69056
# Velocity P-wave (km/s) = 5.82926 3.44134 4.78660
#
# Compressibility (1/GPa) = 0.03988880
#
# Stress axis : x y z
#
# Youngs Moduli (GPa) = 98.16655 50.29186 73.21696
#
# Poissons Ratio (x) = -0.01985 0.10671
# Poissons Ratio (y) = -0.03874 0.06276
# Poissons Ratio (z) = 0.14307 0.04311
#
# Static dielectric constant tensor:
#      x y z
#    x 1.906040 0.000000 0.000000 
#    y 0.000000 1.700440 0.000000 
#    z 0.000000 0.000000 1.819030 
# 
# From -- ./inp_files/9073.got.cif
#   From: 2010.05.17/outbox.cif.g08.bks.cpg/sg16_5_cif.got.tgz:9073.got - 2010.06.03 22:28:35.
