data_PCOD9310081
_publ_section_title
;
Structure prediction by ZEFSAII (Michael W. Deem and Ramdas Pophale) SiO2 
 PCOD9310081
Probable space group: P 2 2 2
;
_chemical_formula_sum "Si O2"
_cell_formula_units_Z 26
_cell_length_a 15.163383
_cell_length_b 19.375301
_cell_length_c 5.137568
_cell_angle_alpha 90.000000
_cell_angle_beta 90.000000
_cell_angle_gamma 90.000000
_cell_volume 1509.392355
_symmetry_space_group_name_H-M "P 2 2 2"
_symmetry_group_IT_number 16
_symmetry_cell_setting 'orthorhombic'
loop_
_space_group_symop_operation_xyz
x,y,z
-x,-y,z
x,-y,-z
-x,y,-z
loop_
_atom_site_type_symbol
_atom_site_label
_atom_site_fract_x
_atom_site_fract_y
_atom_site_fract_z
Si Si1 0.666233 0.198497 0.725148
Si Si2 0.638455 0.070593 0.343884
Si Si3 0.104517 0.919541 0.540686
Si Si4 0.204481 0.875395 0.050820
Si Si5 0.500000 0.858057 0.000000
Si Si6 0.393833 0.334549 0.526520
Si Si7 0.393862 0.422118 0.027108
O O1 0.666529 0.131124 0.541962
O O2 0.575677 0.190333 0.885210
O O3 0.658018 0.265578 0.548717
O O4 0.746504 0.191107 0.927678
O O5 0.713167 0.074056 0.119904
O O6 0.634308 0.000000 0.500000
O O7 0.546899 0.093450 0.212234
O O8 0.151166 0.873201 0.319863
O O9 0.000000 0.913598 0.500000
O O10 0.128902 0.000000 0.500000
O O11 0.139017 0.901403 0.826860
O O12 0.500000 0.320833 0.500000
O O13 0.369695 0.367356 0.803346
O O14 0.373581 0.391401 0.307642
O O15 0.359070 0.500000 0.000000
O O16 0.500000 0.426685 0.000000
#
# Coordination Sequence:
#
# PCOD9310081 Si02
#       7
#     4   4   4   4   2   4   4
#     4  11  24  36  54  76 105 145 188 229 278 323
#     4  11  24  39  54  73 102 142 184 240 276 322
#     4  11  23  39  62  84 101 126 166 223 290 353
#     4  11  23  38  58  79 107 130 172 219 283 334
#     4  10  24  37  54  68 103 138 204 230 287 318
#     4  10  20  31  52  70 102 137 178 229 266 312
#     4   9  18  31  49  73  97 128 173 228 280 312
#
# _framework density 17.225476
#
# number of rings (size 3 to 8) (size 9 to 14) (size 15 to 20)
#    0.000    1.538    1.538    3.231    9.692    6.769 
#    0.000    2.308    0.000    0.000    0.000    0.000 
#    0.000    0.000    0.000    0.000    0.000   21.538 
#
# Total GULP energy -145251.991510 kJ/mol
# GULP energy per Si atom -5586.615058 kJ/mol
# Density = 1.718627 g / cm^3
# Si number density = 17.225476 Si / 1000 Ang^3
#
#
#
# Elastic Constant Matrix: (Units=GPa)
#
#
# Indices 1 2 3 4 5 6 
#
# 1 44.0549 -0.7728 10.5261 0.0000 0.0000 0.0000
# 2 -0.7728 72.5424 0.8407 0.0000 0.0000 0.0000
# 3 10.5261 0.8407 70.5131 0.0000 0.0000 0.0000
# 4 0.0000 0.0000 0.0000 15.7235 0.0000 0.0000
# 5 0.0000 0.0000 0.0000 0.0000 29.4582 0.0000
# 6 0.0000 0.0000 0.0000 0.0000 0.0000 -2.0240
#
#
#
# Elastic Compliance Matrix: (Units=1/GPa)
#
#
# Indices 1 2 3 4 5 6 
#
# 1 0.023545 0.000292 -0.003518 0.000000 0.000000 0.000000
# 2 0.000292 0.013791 -0.000208 0.000000 0.000000 0.000000
# 3 -0.003518 -0.000208 0.014709 0.000000 0.000000 0.000000
# 4 0.000000 0.000000 0.000000 0.063599 0.000000 0.000000
# 5 0.000000 0.000000 0.000000 0.000000 0.033946 0.000000
# 6 0.000000 0.000000 0.000000 0.000000 0.000000 -0.494078
#
#
# Mechanical properties :
#
#
# Convention : Reuss Voigt Hill
#
# Bulk Modulus (GPa) = 22.13588 23.14428 22.64008
# Shear Modulus (GPa) = -15.50098 20.39931 2.44916
#
# Velocity S-wave (km/s) = -3.00307 3.44503 1.19370
# Velocity P-wave (km/s) = 0.92413 5.41198 3.88224
#
# Compressibility (1/GPa) = 0.04517553
#
# Stress axis : x y z
#
# Youngs Moduli (GPa) = 42.47248 72.51342 67.98357
#
# Poissons Ratio (x) = -0.02114 0.23918
# Poissons Ratio (y) = -0.01238 0.01414
# Poissons Ratio (z) = 0.14943 0.01508
#
# Static dielectric constant tensor:
#      x y z
#    x 1.609040 0.000000 0.000000 
#    y 0.000000 1.589730 0.000000 
#    z 0.000000 0.000000 1.648850 
# 
# From -- ./inp_files/2073.got.cif
#   From: 2010.05.17/outbox.cif.g08.bks.cpg/sg16_2_cif.got.tgz:2073.got - 2010.06.03 22:28:35.
