data_PCOD9310258
_publ_section_title
;
Structure prediction by ZEFSAII (Michael W. Deem and Ramdas Pophale) SiO2 
 PCOD9310258
Probable space group: P 2 2 2
;
_chemical_formula_sum "Si O2"
_cell_formula_units_Z 19
_cell_length_a 5.679184
_cell_length_b 17.752990
_cell_length_c 8.258998
_cell_angle_alpha 90.000000
_cell_angle_beta 90.000000
_cell_angle_gamma 90.000000
_cell_volume 832.692799
_symmetry_space_group_name_H-M "P 2 2 2"
_symmetry_group_IT_number 16
_symmetry_cell_setting 'orthorhombic'
loop_
_space_group_symop_operation_xyz
x,y,z
-x,-y,z
x,-y,-z
-x,y,-z
loop_
_atom_site_type_symbol
_atom_site_label
_atom_site_fract_x
_atom_site_fract_y
_atom_site_fract_z
Si Si1 0.160241 0.216918 0.160584
Si Si2 0.000000 0.000000 0.000000
Si Si3 0.500000 0.647709 0.500000
Si Si4 0.000000 0.500000 0.000000
Si Si5 0.000000 0.259853 0.500000
Si Si6 0.000000 0.000000 0.500000
Si Si7 0.656220 0.612397 0.156979
Si Si8 0.329265 0.071694 0.250880
O O1 0.258196 0.301127 0.145772
O O2 0.375347 0.158434 0.206431
O O3 0.011308 0.215880 0.328612
O O4 0.000000 0.203278 0.000000
O O5 0.846224 0.947402 0.108043
O O6 0.250095 0.694168 0.491445
O O7 0.528251 0.603909 0.329838
O O8 0.135384 0.554886 0.876215
O O9 0.823190 0.943641 0.409413
O O10 0.500000 0.598785 0.000000
O O11 0.500000 0.000000 0.247285
#
# Coordination Sequence:
#
# PCOD9310258 Si02
#       8
#     4   1   2   1   2   1   4   4
#     4  11  22  45  79 106 150 200 262 321 396 481
#     4  10  22  40  56  88 136 172 230 298 352 442
#     4  10  24  46  81 110 163 200 270 318 399 484
#     4  12  26  50  82 110 172 208 274 340 416 486
#     4  10  23  46  74 122 149 200 262 336 385 480
#     4  10  24  46  64  96 150 188 250 326 396 458
#     4  11  25  48  77 116 156 210 261 333 407 486
#     4  11  23  43  67  99 142 193 246 314 389 458
#
# _framework density 22.817539
#
# number of rings (size 3 to 8) (size 9 to 14) (size 15 to 20)
#    0.000    1.263    2.105    2.842    2.947    1.684 
#   30.316    3.158    0.000    0.000    0.000    0.000 
#    0.000    0.000    0.000    0.000    0.000    0.000 
#
# Total GULP energy -105813.762131 kJ/mol
# GULP energy per Si atom -5569.145375 kJ/mol
# Density = 2.276561 g / cm^3
# Si number density = 22.817539 Si / 1000 Ang^3
#
#
#
# Elastic Constant Matrix: (Units=GPa)
#
#
# Indices 1 2 3 4 5 6 
#
# 1 97.8163 50.7054 41.0300 0.0000 0.0000 0.0000
# 2 50.7054 154.5988 22.7514 0.0000 0.0000 0.0000
# 3 41.0300 22.7514 179.5074 0.0000 0.0000 0.0000
# 4 0.0000 0.0000 0.0000 -19.2894 0.0000 0.0000
# 5 0.0000 0.0000 0.0000 0.0000 30.2490 0.0000
# 6 0.0000 0.0000 0.0000 0.0000 0.0000 -22.7140
#
#
#
# Elastic Compliance Matrix: (Units=1/GPa)
#
#
# Indices 1 2 3 4 5 6 
#
# 1 0.013371 -0.004010 -0.002548 0.000000 0.000000 0.000000
# 2 -0.004010 0.007794 -0.000071 0.000000 0.000000 0.000000
# 3 -0.002548 -0.000071 0.006162 0.000000 0.000000 0.000000
# 4 0.000000 0.000000 0.000000 -0.051842 0.000000 0.000000
# 5 0.000000 0.000000 0.000000 0.000000 0.033059 0.000000
# 6 0.000000 0.000000 0.000000 0.000000 0.000000 -0.044026
#
#
# Mechanical properties :
#
#
# Convention : Reuss Voigt Hill
#
# Bulk Modulus (GPa) = 71.08218 73.43291 72.25754
# Shear Modulus (GPa) = -285.17363 18.81152 -133.18106
#
# Velocity S-wave (km/s) = -11.19157 2.87441 -7.64817
# Velocity P-wave (km/s) = 11.65254 6.57790 6.80121
#
# Compressibility (1/GPa) = 0.01406822
#
# Stress axis : x y z
#
# Youngs Moduli (GPa) = 74.78944 128.30095 162.27986
#
# Poissons Ratio (x) = 0.51454 0.41347
# Poissons Ratio (y) = 0.29994 0.01155
# Poissons Ratio (z) = 0.19055 0.00913
#
# Static dielectric constant tensor:
#      x y z
#    x 2.002910 0.000000 0.000000 
#    y 0.000000 2.095480 0.000000 
#    z 0.000000 0.000000 1.878690 
# 
# From -- ./inp_files/3196.got.cif
#   From: 2010.05.17/outbox.cif.g08.bks.cpg/sg16_2_cif.got.tgz:3196.got - 2010.06.03 22:28:35.
