data_PCOD9310222
_publ_section_title
;
Structure prediction by ZEFSAII (Michael W. Deem and Ramdas Pophale) SiO2 
 PCOD9310222
Probable space group: P 2 2 2
;
_chemical_formula_sum "Si O2"
_cell_formula_units_Z 32
_cell_length_a 12.014018
_cell_length_b 8.574563
_cell_length_c 14.859374
_cell_angle_alpha 90.000000
_cell_angle_beta 90.000000
_cell_angle_gamma 90.000000
_cell_volume 1530.737732
_symmetry_space_group_name_H-M "P 2 2 2"
_symmetry_group_IT_number 16
_symmetry_cell_setting 'orthorhombic'
loop_
_space_group_symop_operation_xyz
x,y,z
-x,-y,z
x,-y,-z
-x,y,-z
loop_
_atom_site_type_symbol
_atom_site_label
_atom_site_fract_x
_atom_site_fract_y
_atom_site_fract_z
Si Si1 0.505500 0.312626 0.790388
Si Si2 0.126097 0.816450 0.018519
Si Si3 0.215796 0.171319 0.464525
Si Si4 0.750055 0.322009 0.852324
Si Si5 0.459346 0.181083 0.403140
Si Si6 0.095629 0.295040 0.315981
Si Si7 0.266965 0.693067 0.174534
Si Si8 0.156882 0.642930 0.355463
O O1 0.500000 0.500000 0.795516
O O2 0.625968 0.263470 0.828180
O O3 0.499193 0.263590 0.686370
O O4 0.394276 0.254099 0.840638
O O5 0.175120 0.782998 0.116960
O O6 0.208183 0.734155 0.948299
O O7 0.000000 0.759105 0.000000
O O8 0.126696 0.000000 0.000000
O O9 0.327555 0.209419 0.409658
O O10 0.119544 0.166736 0.390818
O O11 0.183953 0.282553 0.548055
O O12 0.237624 0.000000 0.500000
O O13 0.841016 0.269548 0.777549
O O14 0.746028 0.510096 0.849611
O O15 0.500000 0.241773 0.500000
O O16 0.500000 0.000000 0.398144
O O17 0.149503 0.454814 0.357105
O O18 0.963864 0.314473 0.314194
O O19 0.243779 0.700223 0.281086
#
# Coordination Sequence:
#
# PCOD9310222 Si02
#       8
#     4   4   4   4   4   4   4   4
#     4  10  22  41  65  95 120 153 206 255 304 361
#     4  11  25  43  65  95 127 162 204 247 299 366
#     4  12  23  37  57  85 121 164 211 250 308 366
#     4  10  21  41  67  93 125 158 201 257 309 364
#     4  11  22  39  56  82 121 167 206 252 302 361
#     4  10  21  40  62  89 121 162 207 261 313 362
#     4  10  22  40  66  95 122 159 203 253 310 363
#     4  10  22  39  62  89 122 160 210 260 310 367
#
# _framework density 20.904951000000001
#
# number of rings (size 3 to 8) (size 9 to 14) (size 15 to 20)
#    0.000    1.500    2.500    2.625    0.000    6.750 
#    2.250    2.500    0.000    0.000    0.000    0.000 
#    0.000    0.000    0.000    0.000    0.000    0.000 
#
# Total GULP energy -178676.557949 kJ/mol
# GULP energy per Si atom -5583.642436 kJ/mol
# Density = 2.085737 g / cm^3
# Si number density = 20.904951 Si / 1000 Ang^3
#
#
#
# Elastic Constant Matrix: (Units=GPa)
#
#
# Indices 1 2 3 4 5 6 
#
# 1 127.4641 16.8060 18.8050 0.0000 0.0000 0.0000
# 2 16.8060 -6.0766 3.4426 0.0000 0.0000 0.0000
# 3 18.8050 3.4426 63.4751 0.0000 0.0000 0.0000
# 4 0.0000 0.0000 0.0000 15.1849 0.0000 0.0000
# 5 0.0000 0.0000 0.0000 0.0000 33.9820 0.0000
# 6 0.0000 0.0000 0.0000 0.0000 0.0000 20.0615
#
#
#
# Elastic Compliance Matrix: (Units=1/GPa)
#
#
# Indices 1 2 3 4 5 6 
#
# 1 0.006185 0.015589 -0.002678 0.000000 0.000000 0.000000
# 2 0.015589 -0.120370 0.001910 0.000000 0.000000 0.000000
# 3 -0.002678 0.001910 0.016444 0.000000 0.000000 0.000000
# 4 0.000000 0.000000 0.000000 0.065855 0.000000 0.000000
# 5 0.000000 0.000000 0.000000 0.000000 0.029427 0.000000
# 6 0.000000 0.000000 0.000000 0.000000 0.000000 0.049847
#
#
# Mechanical properties :
#
#
# Convention : Reuss Voigt Hill
#
# Bulk Modulus (GPa) = -14.68458 29.21885 7.26714
# Shear Modulus (GPa) = -1009.42758 23.56628 -492.93065
#
# Velocity S-wave (km/s) = -21.99804 3.36118 -15.37231
# Velocity P-wave (km/s) = 25.53934 5.39173 17.65201
#
# Compressibility (1/GPa) = -0.06809866
#
# Stress axis : x y z
#
# Youngs Moduli (GPa) = 161.68039 -8.30774 60.81263
#
# Poissons Ratio (x) = 0.12951 0.16285
# Poissons Ratio (y) = -2.52041 -0.11615
# Poissons Ratio (z) = 0.43295 0.01587
#
# Static dielectric constant tensor:
#      x y z
#    x 1.885210 0.000000 0.000000 
#    y 0.000000 1.750870 0.000000 
#    z 0.000000 0.000000 1.725240 
# 
# From -- ./inp_files/6636.got.cif
#   From: 2010.05.17/outbox.cif.g08.bks.cpg/sg16_4_cif.got.tgz:6636.got - 2010.06.03 22:28:35.
