data_PCOD9310348
_publ_section_title
;
Structure prediction by ZEFSAII (Michael W. Deem and Ramdas Pophale) SiO2 
 PCOD9310348
Probable space group: P 2 2 2
;
_chemical_formula_sum "Si O2"
_cell_formula_units_Z 15
_cell_length_a 5.655800
_cell_length_b 5.027410
_cell_length_c 20.432649
_cell_angle_alpha 90.000000
_cell_angle_beta 90.000000
_cell_angle_gamma 90.000000
_cell_volume 580.982462
_symmetry_space_group_name_H-M "P 2 2 2"
_symmetry_group_IT_number 16
_symmetry_cell_setting 'orthorhombic'
loop_
_space_group_symop_operation_xyz
x,y,z
-x,-y,z
x,-y,-z
-x,y,-z
loop_
_atom_site_type_symbol
_atom_site_label
_atom_site_fract_x
_atom_site_fract_y
_atom_site_fract_z
Si Si1 0.751526 0.614543 0.925966
Si Si2 0.000000 0.000000 0.500000
Si Si3 0.834907 0.259134 0.251878
Si Si4 0.500000 0.000000 0.148449
Si Si5 0.659962 0.741350 0.602046
O O1 0.500000 0.500000 0.899928
O O2 0.708967 0.925393 0.906329
O O3 0.000000 0.500000 0.900859
O O4 0.750219 0.500000 0.000000
O O5 0.850519 0.184491 0.451779
O O6 0.615149 0.198402 0.204328
O O7 0.759368 0.318274 0.326089
O O8 0.000000 0.500000 0.230867
O O9 0.000000 0.000000 0.251286
O O10 0.500000 0.500000 0.579922
O O11 0.500000 0.000000 0.610125
#
# Coordination Sequence:
#
# PCOD9310348 Si02
#       5
#     4   1   4   2   4
#     4  10  25  49  78 117 168 220 285 355 441 535
#     4  12  30  54  80 124 168 238 278 364 440 524
#     4  12  28  51  83 120 169 221 287 365 438 519
#     4  12  28  45  86 119 164 228 288 360 440 537
#     4  12  28  53  81 119 169 226 292 360 433 524
#
# _framework density 25.818335000000001
#
# number of rings (size 3 to 8) (size 9 to 14) (size 15 to 20)
#    0.000    0.533    2.667    2.800    7.467    5.333 
#    0.000    5.333    0.000    0.000    0.000    0.000 
#    0.000    0.000    0.000    0.000    0.000    0.000 
#
# Total GULP energy -83667.517032 kJ/mol
# GULP energy per Si atom -5577.834469 kJ/mol
# Density = 2.575957 g / cm^3
# Si number density = 25.818335 Si / 1000 Ang^3
#
#
#
# Elastic Constant Matrix: (Units=GPa)
#
#
# Indices 1 2 3 4 5 6 
#
# 1 208.4766 101.0046 92.6791 0.0000 0.0000 0.0000
# 2 101.0046 138.5942 49.7192 0.0000 0.0000 0.0000
# 3 92.6791 49.7192 271.4663 0.0000 0.0000 0.0000
# 4 0.0000 0.0000 0.0000 33.7933 0.0000 0.0000
# 5 0.0000 0.0000 0.0000 0.0000 -20.9771 0.0000
# 6 0.0000 0.0000 0.0000 0.0000 0.0000 68.0051
#
#
#
# Elastic Compliance Matrix: (Units=1/GPa)
#
#
# Indices 1 2 3 4 5 6 
#
# 1 0.008176 -0.005306 -0.001820 0.000000 0.000000 0.000000
# 2 -0.005306 0.011166 -0.000234 0.000000 0.000000 0.000000
# 3 -0.001820 -0.000234 0.004348 0.000000 0.000000 0.000000
# 4 0.000000 0.000000 0.000000 0.029592 0.000000 0.000000
# 5 0.000000 0.000000 0.000000 0.000000 -0.047671 0.000000
# 6 0.000000 0.000000 0.000000 0.000000 0.000000 0.014705
#
#
# Mechanical properties :
#
#
# Convention : Reuss Voigt Hill
#
# Bulk Modulus (GPa) = 111.46212 122.81587 117.13899
# Shear Modulus (GPa) = 131.49492 41.17320 86.33406
#
# Velocity S-wave (km/s) = 7.14433 3.99774 5.78892
# Velocity P-wave (km/s) = 10.55086 8.30552 9.49480
#
# Compressibility (1/GPa) = 0.00897166
#
# Stress axis : x y z
#
# Youngs Moduli (GPa) = 122.30484 89.55776 230.00660
#
# Poissons Ratio (x) = 0.47519 0.41852
# Poissons Ratio (y) = 0.64894 0.05373
# Poissons Ratio (z) = 0.22255 0.02092
#
# Static dielectric constant tensor:
#      x y z
#    x 1.981310 0.000000 0.000000 
#    y 0.000000 6.117760 0.000000 
#    z 0.000000 0.000000 2.080960 
# 
# From -- ./inp_files/9153.got.cif
#   From: 2010.05.17/outbox.cif.g08.bks.cpg/sg16_5_cif.got.tgz:9153.got - 2010.06.03 22:28:35.
