data_PCOD9310271
_publ_section_title
;
Structure prediction by ZEFSAII (Michael W. Deem and Ramdas Pophale) SiO2 
 PCOD9310271
Probable space group: P 2 2 2
;
_chemical_formula_sum "Si O2"
_cell_formula_units_Z 19
_cell_length_a 19.658378
_cell_length_b 8.327921
_cell_length_c 5.458790
_cell_angle_alpha 90.000000
_cell_angle_beta 90.000000
_cell_angle_gamma 90.000000
_cell_volume 893.677174
_symmetry_space_group_name_H-M "P 2 2 2"
_symmetry_group_IT_number 16
_symmetry_cell_setting 'orthorhombic'
loop_
_space_group_symop_operation_xyz
x,y,z
-x,-y,z
x,-y,-z
-x,y,-z
loop_
_atom_site_type_symbol
_atom_site_label
_atom_site_fract_x
_atom_site_fract_y
_atom_site_fract_z
Si Si1 0.566964 0.742653 0.657192
Si Si2 0.150585 0.693161 0.500412
Si Si3 0.500000 0.000000 0.000000
Si Si4 0.364331 0.500000 0.000000
Si Si5 0.078798 0.807231 0.998551
Si Si6 0.301134 0.682060 0.609243
O O1 0.500000 0.715166 0.500000
O O2 0.633778 0.774596 0.494489
O O3 0.586858 0.583766 0.805946
O O4 0.547376 0.886863 0.835813
O O5 0.151341 0.500000 0.500000
O O6 0.117526 0.748829 0.244122
O O7 0.228499 0.751501 0.537974
O O8 0.110951 0.748609 0.743347
O O9 0.316620 0.359133 0.107887
O O10 0.000000 0.754139 0.000000
O O11 0.080440 0.000000 0.000000
O O12 0.301463 0.500000 0.500000
#
# Coordination Sequence:
#
# PCOD9310271 Si02
#       6
#     4   4   1   2   4   4
#     4  11  24  42  61  93 123 169 222 268 337 395
#     4  11  24  42  73 106 139 177 234 293 343 401
#     4  12  26  42  60  82 136 174 212 292 324 384
#     4  10  22  41  70  90 123 170 212 282 331 416
#     4  11  25  46  69 100 144 189 228 275 345 423
#     4   9  22  39  65  95 128 165 217 272 339 399
#
# _framework density 21.260470999999999
#
# number of rings (size 3 to 8) (size 9 to 14) (size 15 to 20)
#    0.000    1.474    0.000    3.474    8.842   14.316 
#    1.895    4.211    0.000    0.000    0.000    0.000 
#    0.000    0.000    0.000    0.000    0.000    0.000 
#
# Total GULP energy -106182.378566 kJ/mol
# GULP energy per Si atom -5588.546240 kJ/mol
# Density = 2.121208 g / cm^3
# Si number density = 21.260471 Si / 1000 Ang^3
#
#
#
# Elastic Constant Matrix: (Units=GPa)
#
#
# Indices 1 2 3 4 5 6 
#
# 1 178.4192 26.0975 66.6402 0.0000 0.0000 0.0000
# 2 26.0975 43.8694 20.6098 0.0000 0.0000 0.0000
# 3 66.6402 20.6098 124.6366 0.0000 0.0000 0.0000
# 4 0.0000 0.0000 0.0000 35.0118 0.0000 0.0000
# 5 0.0000 0.0000 0.0000 0.0000 19.6975 0.0000
# 6 0.0000 0.0000 0.0000 0.0000 0.0000 62.4472
#
#
#
# Elastic Compliance Matrix: (Units=1/GPa)
#
#
# Indices 1 2 3 4 5 6 
#
# 1 0.007290 -0.002717 -0.003449 0.000000 0.000000 0.000000
# 2 -0.002717 0.025727 -0.002802 0.000000 0.000000 0.000000
# 3 -0.003449 -0.002802 0.010331 0.000000 0.000000 0.000000
# 4 0.000000 0.000000 0.000000 0.028562 0.000000 0.000000
# 5 0.000000 0.000000 0.000000 0.000000 0.050768 0.000000
# 6 0.000000 0.000000 0.000000 0.000000 0.000000 0.016014
#
#
# Mechanical properties :
#
#
# Convention : Reuss Voigt Hill
#
# Bulk Modulus (GPa) = 39.34852 63.73559 51.54205
# Shear Modulus (GPa) = 30.28525 39.00314 34.64419
#
# Velocity S-wave (km/s) = 3.77833 4.28780 4.04110
# Velocity P-wave (km/s) = 6.13045 7.38628 6.78747
#
# Compressibility (1/GPa) = 0.02541392
#
# Stress axis : x y z
#
# Youngs Moduli (GPa) = 137.16952 38.86922 96.80035
#
# Poissons Ratio (x) = 0.10560 0.33383
# Poissons Ratio (y) = 0.37265 0.27120
# Poissons Ratio (z) = 0.47305 0.10890
#
# Static dielectric constant tensor:
#      x y z
#    x 1.796140 0.000000 0.000000 
#    y 0.000000 1.763990 0.000000 
#    z 0.000000 0.000000 1.898400 
# 
# From -- ./inp_files/2245.got.cif
#   From: 2010.05.17/outbox.cif.g08.bks.cpg/sg16_2_cif.got.tgz:2245.got - 2010.06.03 22:28:35.
