data_PCOD9310256
_publ_section_title
;
Structure prediction by ZEFSAII (Michael W. Deem and Ramdas Pophale) SiO2 
 PCOD9310256
Probable space group: P 2 2 2
;
_chemical_formula_sum "Si O2"
_cell_formula_units_Z 24
_cell_length_a 12.618163
_cell_length_b 11.216563
_cell_length_c 8.172772
_cell_angle_alpha 90.000000
_cell_angle_beta 90.000000
_cell_angle_gamma 90.000000
_cell_volume 1156.712201
_symmetry_space_group_name_H-M "P 2 2 2"
_symmetry_group_IT_number 16
_symmetry_cell_setting 'orthorhombic'
loop_
_space_group_symop_operation_xyz
x,y,z
-x,-y,z
x,-y,-z
-x,y,-z
loop_
_atom_site_type_symbol
_atom_site_label
_atom_site_fract_x
_atom_site_fract_y
_atom_site_fract_z
Si Si1 0.355425 0.002504 0.804699
Si Si2 0.044265 0.342750 0.316871
Si Si3 0.156084 0.435542 0.825794
Si Si4 0.457463 0.243084 0.182550
Si Si5 0.665103 0.728000 0.676886
Si Si6 0.248106 0.788414 0.680513
O O1 0.448882 0.900298 0.778733
O O2 0.266848 0.928213 0.706529
O O3 0.340737 0.138933 0.753166
O O4 0.342518 0.000000 0.000000
O O5 0.117776 0.460556 0.298186
O O6 0.128077 0.240419 0.284170
O O7 0.000000 0.333561 0.500000
O O8 0.946689 0.349948 0.191197
O O9 0.259586 0.363527 0.772394
O O10 0.164920 0.500000 0.000000
O O11 0.540496 0.305012 0.304204
O O12 0.334128 0.276287 0.200056
O O13 0.500000 0.259004 0.000000
O O14 0.712877 0.744857 0.496950
#
# Coordination Sequence:
#
# PCOD9310256 Si02
#       6
#     4   4   4   4   4   4
#     4  10  22  39  64  98 134 181 220 269 345 420
#     4  11  22  48  69  92 125 177 232 288 344 413
#     4  11  26  41  72  99 124 174 238 284 341 408
#     4  10  22  39  64  98 134 178 218 266 345 415
#     4  12  21  40  66 100 137 173 220 285 333 425
#     4  10  24  37  70  99 131 176 225 279 349 412
#
# _framework density 20.748464999999999
#
# number of rings (size 3 to 8) (size 9 to 14) (size 15 to 20)
#    1.000    0.333    3.333    3.500    4.667    0.000 
#    3.000    1.667    0.000    3.000    0.000    0.000 
#    0.000    0.000    0.000    0.000    0.000    0.000 
#
# Total GULP energy -133611.800294 kJ/mol
# GULP energy per Si atom -5567.158346 kJ/mol
# Density = 2.070124 g / cm^3
# Si number density = 20.748465 Si / 1000 Ang^3
#
#
#
# Elastic Constant Matrix: (Units=GPa)
#
#
# Indices 1 2 3 4 5 6 
#
# 1 89.3273 34.4483 37.5487 0.0000 0.0000 0.0000
# 2 34.4483 27.4481 21.8163 0.0000 0.0000 0.0000
# 3 37.5487 21.8163 64.2778 0.0000 0.0000 0.0000
# 4 0.0000 0.0000 0.0000 9.5607 0.0000 0.0000
# 5 0.0000 0.0000 0.0000 0.0000 28.9091 0.0000
# 6 0.0000 0.0000 0.0000 0.0000 0.0000 -28.8144
#
#
#
# Elastic Compliance Matrix: (Units=1/GPa)
#
#
# Indices 1 2 3 4 5 6 
#
# 1 0.022784 -0.024672 -0.004936 0.000000 0.000000 0.000000
# 2 -0.024672 0.076607 -0.011589 0.000000 0.000000 0.000000
# 3 -0.004936 -0.011589 0.022374 0.000000 0.000000 0.000000
# 4 0.000000 0.000000 0.000000 0.104594 0.000000 0.000000
# 5 0.000000 0.000000 0.000000 0.000000 0.034591 0.000000
# 6 0.000000 0.000000 0.000000 0.000000 0.000000 -0.034705
#
#
# Mechanical properties :
#
#
# Convention : Reuss Voigt Hill
#
# Bulk Modulus (GPa) = 25.39817 40.96440 33.18129
# Shear Modulus (GPa) = 15.53941 7.74707 11.64324
#
# Velocity S-wave (km/s) = 2.73965 1.93440 2.37145
# Velocity P-wave (km/s) = 4.71966 4.97749 4.85029
#
# Compressibility (1/GPa) = 0.03937291
#
# Stress axis : x y z
#
# Youngs Moduli (GPa) = 43.89049 13.05361 44.69455
#
# Poissons Ratio (x) = 0.32205 0.22061
# Poissons Ratio (y) = 1.08285 0.51795
# Poissons Ratio (z) = 0.21664 0.15127
#
# Static dielectric constant tensor:
#      x y z
#    x 2.237260 0.000000 0.000000 
#    y 0.000000 1.808280 0.000000 
#    z 0.000000 0.000000 1.751930 
# 
# From -- ./inp_files/4702.got.cif
#   From: 2010.05.17/outbox.cif.g08.bks.cpg/sg16_3_cif.got.tgz:4702.got - 2010.06.03 22:28:35.
