data_PCOD9310459
_publ_section_title
;
Structure prediction by ZEFSAII (Michael W. Deem and Ramdas Pophale) SiO2 
 PCOD9310459
Probable space group: P 2 2 21
;
_chemical_formula_sum "Si O2"
_cell_formula_units_Z 16
_cell_length_a 11.430175
_cell_length_b 14.382236
_cell_length_c 5.226053
_cell_angle_alpha 90.000000
_cell_angle_beta 90.000000
_cell_angle_gamma 90.000000
_cell_volume 859.118558
_symmetry_space_group_name_H-M "P 2 2 21"
_symmetry_group_IT_number 17
_symmetry_cell_setting 'orthorhombic'
loop_
_space_group_symop_operation_xyz
x,y,z
-x,-y,1/2+z
x,-y,-z
-x,y,1/2-z
loop_
_atom_site_type_symbol
_atom_site_label
_atom_site_fract_x
_atom_site_fract_y
_atom_site_fract_z
Si Si1 0.139359 0.600126 0.404817
Si Si2 0.378577 0.598872 0.135885
Si Si3 0.081460 0.897288 0.000021
Si Si4 0.176231 0.700611 0.909362
O O1 0.095062 0.500000 0.500000
O O2 0.279461 0.587404 0.353023
O O3 0.129745 0.675099 0.629991
O O4 0.106829 0.638384 0.122445
O O5 0.500000 0.633012 0.250000
O O6 0.398158 0.500000 0.000000
O O7 0.309950 0.666655 0.941261
O O8 0.162810 0.807535 0.981607
O O9 0.000000 0.894143 0.750000
O O10 0.000000 0.889384 0.250000
O O11 0.138345 0.000000 0.000000
#
# Coordination Sequence:
#
# PCOD9310459 Si02
#       4
#     4   4   4   4
#     4  10  17  32  48  74 109 145 176 213 255 309
#     4  10  20  29  52  78 114 146 190 214 253 303
#     4  10  21  39  62  84 102 131 183 239 285 328
#     4  10  20  32  53  80 108 141 177 225 273 318
#
# _framework density 18.623740000000002
#
# number of rings (size 3 to 8) (size 9 to 14) (size 15 to 20)
#    1.500    0.500    2.500    3.000    0.000    0.000 
#    0.000    0.000    0.000   25.500    6.500    0.000 
#    0.000    0.000    0.000    0.000    0.000    0.000 
#
# Total GULP energy -89182.634151 kJ/mol
# GULP energy per Si atom -5573.914634 kJ/mol
# Density = 1.858135 g / cm^3
# Si number density = 18.623740 Si / 1000 Ang^3
#
#
#
# Elastic Constant Matrix: (Units=GPa)
#
#
# Indices 1 2 3 4 5 6 
#
# 1 51.3361 8.6038 9.2718 0.0000 0.0000 0.0000
# 2 8.6038 120.6963 15.9515 0.0000 0.0000 0.0000
# 3 9.2718 15.9515 118.5511 0.0000 0.0000 0.0000
# 4 0.0000 0.0000 0.0000 26.9378 0.0000 0.0000
# 5 0.0000 0.0000 0.0000 0.0000 28.3974 0.0000
# 6 0.0000 0.0000 0.0000 0.0000 0.0000 16.6288
#
#
#
# Elastic Compliance Matrix: (Units=1/GPa)
#
#
# Indices 1 2 3 4 5 6 
#
# 1 0.019938 -0.001237 -0.001393 0.000000 0.000000 0.000000
# 2 -0.001237 0.008512 -0.001049 0.000000 0.000000 0.000000
# 3 -0.001393 -0.001049 0.008685 0.000000 0.000000 0.000000
# 4 0.000000 0.000000 0.000000 0.037123 0.000000 0.000000
# 5 0.000000 0.000000 0.000000 0.000000 0.035214 0.000000
# 6 0.000000 0.000000 0.000000 0.000000 0.000000 0.060137
#
#
# Mechanical properties :
#
#
# Convention : Reuss Voigt Hill
#
# Bulk Modulus (GPa) = 33.58153 39.80420 36.69286
# Shear Modulus (GPa) = 26.75330 31.50989 29.13160
#
# Velocity S-wave (km/s) = 3.79425 4.11776 3.95931
# Velocity P-wave (km/s) = 6.10458 6.63529 6.37546
#
# Compressibility (1/GPa) = 0.02977827
#
# Stress axis : x y z
#
# Youngs Moduli (GPa) = 50.15451 117.48070 115.13829
#
# Poissons Ratio (x) = 0.14535 0.16038
# Poissons Ratio (y) = 0.06205 0.12073
# Poissons Ratio (z) = 0.06986 0.12319
#
# Static dielectric constant tensor:
#      x y z
#    x 1.715670 0.000000 0.000000 
#    y 0.000000 1.643920 0.000000 
#    z 0.000000 0.000000 1.680070 
# 
# From -- ./inp_files/1946.got.cif
#   From: 2010.05.17/outbox.cif.g08.bks.cpg/sg17_1_cif.got.tgz:1946.got - 2010.06.03 22:34:06.
