data_PCOD9310597
_publ_section_title
;
Structure prediction by ZEFSAII (Michael W. Deem and Ramdas Pophale) SiO2 
 PCOD9310597
Probable space group: P 2 2 21
;
_chemical_formula_sum "Si O2"
_cell_formula_units_Z 24
_cell_length_a 16.635942
_cell_length_b 9.167925
_cell_length_c 8.534642
_cell_angle_alpha 90.000000
_cell_angle_beta 90.000000
_cell_angle_gamma 90.000000
_cell_volume 1301.678579
_symmetry_space_group_name_H-M "P 2 2 21"
_symmetry_group_IT_number 17
_symmetry_cell_setting 'orthorhombic'
loop_
_space_group_symop_operation_xyz
x,y,z
-x,-y,1/2+z
x,-y,-z
-x,y,1/2-z
loop_
_atom_site_type_symbol
_atom_site_label
_atom_site_fract_x
_atom_site_fract_y
_atom_site_fract_z
Si Si1 0.673675 0.332905 0.561871
Si Si2 0.841082 0.665264 0.937678
Si Si3 0.841082 0.665264 0.562322
Si Si4 0.326325 0.332905 0.561871
Si Si5 0.000000 0.836671 0.560699
Si Si6 0.500000 0.666679 0.439059
O O1 0.672767 0.500000 0.500000
O O2 0.756306 0.268758 0.495828
O O3 0.678250 0.334731 0.750000
O O4 0.586628 0.268167 0.513205
O O5 0.839605 0.660503 0.750000
O O6 0.919222 0.753720 0.991125
O O7 0.847132 0.500000 0.000000
O O8 0.756306 0.731242 0.995828
O O9 0.847132 0.500000 0.500000
O O10 0.919222 0.753720 0.508875
O O11 0.327233 0.500000 0.500000
O O12 0.413373 0.268167 0.513205
O O13 0.000000 0.836607 0.750000
O O14 0.000000 0.000000 0.500000
O O15 0.500000 0.500000 0.500000
O O16 0.500000 0.662154 0.250000
#
# Coordination Sequence:
#
# PCOD9310597 Si02
#       6
#     4   4   4   4   4   4
#     4   9  15  24  39  62  91 124 155 188 227 270
#     4  10  19  32  49  72  97 124 157 194 232 278
#     4  10  19  32  49  72  97 124 157 194 232 278
#     4   9  15  24  39  62  91 124 155 188 227 270
#     4  10  23  38  52  70  94 122 157 196 238 284
#     4   8  14  22  34  56  89 122 153 184 222 268
#
# _framework density 18.437730999999999
#
# number of rings (size 3 to 8) (size 9 to 14) (size 15 to 20)
#    0.000    2.667    0.000    4.500    0.000    4.000 
#    0.000    0.000    0.000    0.000    0.000    1.167 
#    0.000    0.000    0.000    0.000    0.000    0.000 
#
# Total GULP energy -133627.830971 kJ/mol
# GULP energy per Si atom -5567.826290 kJ/mol
# Density = 1.839577 g / cm^3
# Si number density = 18.437731 Si / 1000 Ang^3
#
#
#
# Elastic Constant Matrix: (Units=GPa)
#
#
# Indices 1 2 3 4 5 6 
#
# 1 257.2745 53.9574 40.8425 0.0000 0.0000 0.0000
# 2 53.9574 34.8609 8.5916 0.0000 0.0000 0.0000
# 3 40.8425 8.5916 38.8686 0.0000 0.0000 0.0000
# 4 0.0000 0.0000 0.0000 15.4526 0.0000 0.0000
# 5 0.0000 0.0000 0.0000 0.0000 28.5154 0.0000
# 6 0.0000 0.0000 0.0000 0.0000 0.0000 69.1878
#
#
#
# Elastic Compliance Matrix: (Units=1/GPa)
#
#
# Indices 1 2 3 4 5 6 
#
# 1 0.006531 -0.008902 -0.004895 0.000000 0.000000 0.000000
# 2 -0.008902 0.042473 -0.000034 0.000000 0.000000 0.000000
# 3 -0.004895 -0.000034 0.030879 0.000000 0.000000 0.000000
# 4 0.000000 0.000000 0.000000 0.064714 0.000000 0.000000
# 5 0.000000 0.000000 0.000000 0.000000 0.035069 0.000000
# 6 0.000000 0.000000 0.000000 0.000000 0.000000 0.014453
#
#
# Mechanical properties :
#
#
# Convention : Reuss Voigt Hill
#
# Bulk Modulus (GPa) = 19.14968 59.75411 39.45190
# Shear Modulus (GPa) = 20.90413 37.80534 29.35474
#
# Velocity S-wave (km/s) = 3.37080 4.53308 3.99444
# Velocity P-wave (km/s) = 5.05553 7.73805 6.53590
#
# Compressibility (1/GPa) = 0.05222019
#
# Stress axis : x y z
#
# Youngs Moduli (GPa) = 153.11561 23.54459 32.38480
#
# Poissons Ratio (x) = 0.20960 0.15852
# Poissons Ratio (y) = 1.36308 0.00110
# Poissons Ratio (z) = 0.74949 0.00080
#
# Static dielectric constant tensor:
#      x y z
#    x 1.740370 0.000000 0.000000 
#    y 0.000000 1.582200 0.000000 
#    z 0.000000 0.000000 1.627240 
# 
# From -- ./inp_files/5442.got.cif
#   From: 2010.05.17/outbox.cif.g08.bks.cpg/sg17_3_cif.got.tgz:5442.got - 2010.06.03 22:34:06.
