data_PCOD9310689
_publ_section_title
;
Structure prediction by ZEFSAII (Michael W. Deem and Ramdas Pophale) SiO2 
 PCOD9310689
Probable space group: P 2 2 21
;
_chemical_formula_sum "Si O2"
_cell_formula_units_Z 24
_cell_length_a 7.680269
_cell_length_b 8.430691
_cell_length_c 17.340942
_cell_angle_alpha 90.000000
_cell_angle_beta 90.000000
_cell_angle_gamma 90.000000
_cell_volume 1122.825556
_symmetry_space_group_name_H-M "P 2 2 21"
_symmetry_group_IT_number 17
_symmetry_cell_setting 'orthorhombic'
loop_
_space_group_symop_operation_xyz
x,y,z
-x,-y,1/2+z
x,-y,-z
-x,y,1/2-z
loop_
_atom_site_type_symbol
_atom_site_label
_atom_site_fract_x
_atom_site_fract_y
_atom_site_fract_z
Si Si1 0.218100 0.818531 0.301741
Si Si2 0.490861 0.375182 0.884402
Si Si3 0.873282 0.742448 0.356993
Si Si4 0.777756 0.907316 0.919499
Si Si5 0.535572 0.289159 0.435741
Si Si6 0.926262 0.313563 0.473698
O O1 0.393905 0.734703 0.329733
O O2 0.195565 0.855475 0.211531
O O3 0.064520 0.696294 0.327607
O O4 0.177589 0.974030 0.351018
O O5 0.288735 0.376842 0.859766
O O6 0.541709 0.557461 0.892559
O O7 0.499158 0.309029 0.972099
O O8 0.900566 0.784768 0.446186
O O9 0.577221 0.857069 0.908284
O O10 0.908631 0.758690 0.929743
O O11 0.786551 0.000000 0.000000
O O12 0.744091 0.288842 0.429336
O O13 0.944818 0.500000 0.500000
#
# Coordination Sequence:
#
# PCOD9310689 Si02
#       6
#     4   4   4   4   4   4
#     4  11  23  39  61  93 127 170 211 249 326 392
#     4  10  19  37  64  93 117 167 209 265 308 377
#     4  10  21  39  66  87 123 168 211 254 316 382
#     4  12  24  36  61  98 129 167 208 263 319 381
#     4  10  21  36  63  96 125 152 219 270 309 358
#     4  11  22  40  68  97 121 165 220 272 312 371
#
# _framework density 21.374647
#
# number of rings (size 3 to 8) (size 9 to 14) (size 15 to 20)
#    0.000    1.333    6.667    0.500    4.667    2.000 
#    0.000    0.000    7.333    2.000    0.000    0.000 
#    0.000    0.000    0.000    0.000    0.000    0.000 
#
# Total GULP energy -133680.965591 kJ/mol
# GULP energy per Si atom -5570.040233 kJ/mol
# Density = 2.132600 g / cm^3
# Si number density = 21.374647 Si / 1000 Ang^3
#
#
#
# Elastic Constant Matrix: (Units=GPa)
#
#
# Indices 1 2 3 4 5 6 
#
# 1 122.2119 43.2134 8.5582 0.0000 0.0000 0.0000
# 2 43.2134 64.9359 34.0453 0.0000 0.0000 0.0000
# 3 8.5582 34.0453 75.0541 0.0000 0.0000 0.0000
# 4 0.0000 0.0000 0.0000 18.9445 0.0000 0.0000
# 5 0.0000 0.0000 0.0000 0.0000 18.9716 0.0000
# 6 0.0000 0.0000 0.0000 0.0000 0.0000 17.1980
#
#
#
# Elastic Compliance Matrix: (Units=1/GPa)
#
#
# Indices 1 2 3 4 5 6 
#
# 1 0.011114 -0.008832 0.002739 0.000000 0.000000 0.000000
# 2 -0.008832 0.027224 -0.011342 0.000000 0.000000 0.000000
# 3 0.002739 -0.011342 0.018156 0.000000 0.000000 0.000000
# 4 0.000000 0.000000 0.000000 0.052786 0.000000 0.000000
# 5 0.000000 0.000000 0.000000 0.000000 0.052711 0.000000
# 6 0.000000 0.000000 0.000000 0.000000 0.000000 0.058146
#
#
# Mechanical properties :
#
#
# Convention : Reuss Voigt Hill
#
# Bulk Modulus (GPa) = 46.24504 48.20395 47.22450
# Shear Modulus (GPa) = 19.06844 22.78181 20.92512
#
# Velocity S-wave (km/s) = 2.99005 3.26825 3.13224
# Velocity P-wave (km/s) = 5.79681 6.06983 5.93489
#
# Compressibility (1/GPa) = 0.02162394
#
# Stress axis : x y z
#
# Youngs Moduli (GPa) = 89.97984 36.73279 55.07773
#
# Poissons Ratio (x) = 0.32442 -0.15086
# Poissons Ratio (y) = 0.79469 0.62468
# Poissons Ratio (z) = -0.24645 0.41662
#
# Static dielectric constant tensor:
#      x y z
#    x 1.804490 0.000000 0.000000 
#    y 0.000000 1.769440 0.000000 
#    z 0.000000 0.000000 1.798600 
# 
# From -- ./inp_files/9394.got.cif
#   From: 2010.05.17/outbox.cif.g08.bks.cpg/sg17_5_cif.got.tgz:9394.got - 2010.06.03 22:34:06.
