data_PCOD9310041
_publ_section_title
;
Structure prediction by ZEFSAII (Michael W. Deem and Ramdas Pophale) SiO2 
 PCOD9310041
Probable space group: P 2 2 2
;
_chemical_formula_sum "Si O2"
_cell_formula_units_Z 32
_cell_length_a 12.778593
_cell_length_b 8.766895
_cell_length_c 16.149268
_cell_angle_alpha 90.000000
_cell_angle_beta 90.000000
_cell_angle_gamma 90.000000
_cell_volume 1809.179612
_symmetry_space_group_name_H-M "P 2 2 2"
_symmetry_group_IT_number 16
_symmetry_cell_setting 'orthorhombic'
loop_
_space_group_symop_operation_xyz
x,y,z
-x,-y,z
x,-y,-z
-x,y,-z
loop_
_atom_site_type_symbol
_atom_site_label
_atom_site_fract_x
_atom_site_fract_y
_atom_site_fract_z
Si Si1 0.627364 0.823602 0.009971
Si Si2 0.906171 0.390641 0.722360
Si Si3 0.288611 0.689753 0.817086
Si Si4 0.027452 0.822491 0.405457
Si Si5 0.518503 0.826236 0.258390
Si Si6 0.796113 0.406626 0.415471
Si Si7 0.597521 0.396576 0.130644
Si Si8 0.448919 0.345101 0.589724
O O1 0.655826 0.701739 0.938962
O O2 0.500000 0.822421 0.000000
O O3 0.675408 0.765866 0.096257
O O4 0.658943 0.000000 0.000000
O O5 0.831991 0.313753 0.790791
O O6 0.831624 0.489650 0.661678
O O7 0.000000 0.500000 0.754184
O O8 0.960924 0.269355 0.661848
O O9 0.360817 0.776170 0.749971
O O10 0.326598 0.515065 0.824705
O O11 0.144542 0.754414 0.401795
O O12 0.000000 0.782782 0.500000
O O13 0.000000 0.000000 0.394745
O O14 0.454514 0.718941 0.195467
O O15 0.476068 0.791395 0.349237
O O16 0.500000 0.000000 0.233940
O O17 0.824933 0.500000 0.500000
O O18 0.673421 0.375321 0.418076
O O19 0.500000 0.500000 0.097562
O O20 0.500000 0.500000 0.626329
O O21 0.500000 0.322829 0.500000
#
# Coordination Sequence:
#
# PCOD9310041 Si02
#       8
#     4   4   4   4   4   4   4   4
#     4  11  20  34  57  90 123 155 188 232 292 368
#     4  10  22  38  60  85 112 151 205 260 306 347
#     4  11  22  35  61  85 117 155 196 250 298 347
#     4  10  21  36  59  87 111 146 202 264 309 349
#     4  11  22  34  50  79 119 160 194 237 297 357
#     4  11  19  36  59  81 109 155 201 253 300 349
#     4  10  19  33  55  83 113 149 193 233 279 353
#     4  11  22  36  54  79 115 160 206 237 288 368
#
# _framework density 17.687576
#
# number of rings (size 3 to 8) (size 9 to 14) (size 15 to 20)
#    0.000    1.375    5.000    3.750    0.000    1.250 
#    0.000    3.750    0.000    1.500    0.000    0.875 
#    0.000    0.000    0.000    0.000    0.000    0.000 
#
# Total GULP energy -178465.788878 kJ/mol
# GULP energy per Si atom -5577.055902 kJ/mol
# Density = 1.764732 g / cm^3
# Si number density = 17.687576 Si / 1000 Ang^3
#
#
#
# Elastic Constant Matrix: (Units=GPa)
#
#
# Indices 1 2 3 4 5 6 
#
# 1 123.0801 49.5923 40.2308 0.0000 0.0000 0.0000
# 2 49.5923 113.9718 30.0466 0.0000 0.0000 0.0000
# 3 40.2308 30.0466 69.8062 0.0000 0.0000 0.0000
# 4 0.0000 0.0000 0.0000 17.3309 0.0000 0.0000
# 5 0.0000 0.0000 0.0000 0.0000 22.7171 0.0000
# 6 0.0000 0.0000 0.0000 0.0000 0.0000 11.2786
#
#
#
# Elastic Compliance Matrix: (Units=1/GPa)
#
#
# Indices 1 2 3 4 5 6 
#
# 1 0.011163 -0.003566 -0.004898 0.000000 0.000000 0.000000
# 2 -0.003566 0.011036 -0.002695 0.000000 0.000000 0.000000
# 3 -0.004898 -0.002695 0.018309 0.000000 0.000000 0.000000
# 4 0.000000 0.000000 0.000000 0.057700 0.000000 0.000000
# 5 0.000000 0.000000 0.000000 0.000000 0.044020 0.000000
# 6 0.000000 0.000000 0.000000 0.000000 0.000000 0.088664
#
#
# Mechanical properties :
#
#
# Convention : Reuss Voigt Hill
#
# Bulk Modulus (GPa) = 54.97997 60.73303 57.85650
# Shear Modulus (GPa) = 19.28468 22.73121 21.00795
#
# Velocity S-wave (km/s) = 3.30554 3.58879 3.45008
# Velocity P-wave (km/s) = 6.76168 7.18218 6.97510
#
# Compressibility (1/GPa) = 0.01818844
#
# Stress axis : x y z
#
# Youngs Moduli (GPa) = 89.58403 90.61059 54.61914
#
# Poissons Ratio (x) = 0.32310 0.26755
# Poissons Ratio (y) = 0.31944 0.14721
# Poissons Ratio (z) = 0.43883 0.24422
#
# Static dielectric constant tensor:
#      x y z
#    x 1.604960 0.000000 0.000000 
#    y 0.000000 1.627380 0.000000 
#    z 0.000000 0.000000 1.627200 
# 
# From -- ./inp_files/7991.got.cif
#   From: 2010.05.17/outbox.cif.g08.bks.cpg/sg16_4_cif.got.tgz:7991.got - 2010.06.03 22:28:35.
