data_PCOD9310652
_publ_section_title
;
Structure prediction by ZEFSAII (Michael W. Deem and Ramdas Pophale) SiO2 
 PCOD9310652
Probable space group: P 2 2 21
;
_chemical_formula_sum "Si O2"
_cell_formula_units_Z 32
_cell_length_a 14.009910
_cell_length_b 5.018046
_cell_length_c 21.320833
_cell_angle_alpha 90.000000
_cell_angle_beta 90.000000
_cell_angle_gamma 90.000000
_cell_volume 1498.905151
_symmetry_space_group_name_H-M "P 2 2 21"
_symmetry_group_IT_number 17
_symmetry_cell_setting 'orthorhombic'
loop_
_space_group_symop_operation_xyz
x,y,z
-x,-y,1/2+z
x,-y,-z
-x,y,1/2-z
loop_
_atom_site_type_symbol
_atom_site_label
_atom_site_fract_x
_atom_site_fract_y
_atom_site_fract_z
Si Si1 0.556221 0.028772 0.190569
Si Si2 0.148059 0.658241 0.065922
Si Si3 0.243529 0.162993 0.123929
Si Si4 0.578198 0.264073 0.458227
Si Si5 0.775458 0.022374 0.230344
Si Si6 0.575223 0.473568 0.878885
Si Si7 0.799113 0.529848 0.154916
Si Si8 0.067995 0.750432 0.454668
O O1 0.500000 0.928799 0.250000
O O2 0.541678 0.828035 0.132521
O O3 0.666484 0.018970 0.207569
O O4 0.536609 0.335634 0.176378
O O5 0.180711 0.427360 0.113227
O O6 0.039935 0.766856 0.071109
O O7 0.211082 0.919114 0.079076
O O8 0.155668 0.500000 0.000000
O O9 0.351815 0.221551 0.101322
O O10 0.228357 0.084146 0.196201
O O11 0.623838 0.500000 0.500000
O O12 0.476161 0.384982 0.436860
O O13 0.570277 0.000000 0.500000
O O14 0.823816 0.240985 0.184076
O O15 0.808881 0.727302 0.214030
O O16 0.690283 0.483005 0.872975
O O17 0.861691 0.668222 0.101190
O O18 0.068658 0.500000 0.500000
O O19 0.091777 0.000000 0.500000
#
# Coordination Sequence:
#
# PCOD9310652 Si02
#       8
#     4   4   4   4   4   4   4   4
#     4  10  19  35  58  82 112 155 205 251 288 352
#     4  11  23  41  64  93 125 162 214 266 313 377
#     4  12  23  40  63  92 128 172 210 256 321 381
#     4  12  25  39  59  89 125 164 209 261 314 373
#     4  10  22  38  61  89 124 164 206 250 307 381
#     4  10  22  38  57  83 118 157 197 247 310 363
#     4  10  22  43  63  91 126 158 203 262 312 368
#     4  11  23  42  70  95 119 160 210 261 320 383
#
# _framework density 21.348915000000002
#
# number of rings (size 3 to 8) (size 9 to 14) (size 15 to 20)
#    0.000    1.250    0.000    7.125    0.000    3.500 
#    0.000    5.000    0.000    0.000    0.000    0.000 
#    0.000    0.000    0.000    0.000    0.000    0.000 
#
# Total GULP energy -178547.106371 kJ/mol
# GULP energy per Si atom -5579.597074 kJ/mol
# Density = 2.130032 g / cm^3
# Si number density = 21.348915 Si / 1000 Ang^3
#
#
#
# Elastic Constant Matrix: (Units=GPa)
#
#
# Indices 1 2 3 4 5 6 
#
# 1 70.6403 30.8580 38.7591 0.0000 0.0000 0.0000
# 2 30.8580 99.3271 3.4643 0.0000 0.0000 0.0000
# 3 38.7591 3.4643 69.6950 0.0000 0.0000 0.0000
# 4 0.0000 0.0000 0.0000 38.8934 0.0000 0.0000
# 5 0.0000 0.0000 0.0000 0.0000 -59.0682 0.0000
# 6 0.0000 0.0000 0.0000 0.0000 0.0000 -6.6605
#
#
#
# Elastic Compliance Matrix: (Units=1/GPa)
#
#
# Indices 1 2 3 4 5 6 
#
# 1 0.024604 -0.007179 -0.013326 0.000000 0.000000 0.000000
# 2 -0.007179 0.012180 0.003387 0.000000 0.000000 0.000000
# 3 -0.013326 0.003387 0.021591 0.000000 0.000000 0.000000
# 4 0.000000 0.000000 0.000000 0.025711 0.000000 0.000000
# 5 0.000000 0.000000 0.000000 0.000000 -0.016930 0.000000
# 6 0.000000 0.000000 0.000000 0.000000 0.000000 -0.150140
#
#
# Mechanical properties :
#
#
# Convention : Reuss Voigt Hill
#
# Bulk Modulus (GPa) = 41.42731 42.86945 42.14838
# Shear Modulus (GPa) = -122.84670 5.73835 -58.55418
#
# Velocity S-wave (km/s) = -7.59390 1.64126 -5.24278
# Velocity P-wave (km/s) = 7.57910 4.86987 4.10652
#
# Compressibility (1/GPa) = 0.02413867
#
# Stress axis : x y z
#
# Youngs Moduli (GPa) = 40.64391 82.10247 46.31609
#
# Poissons Ratio (x) = 0.58941 0.61721
# Poissons Ratio (y) = 0.29178 -0.15687
# Poissons Ratio (z) = 0.54162 -0.27808
#
# Static dielectric constant tensor:
#      x y z
#    x 1.806410 0.000000 0.000000 
#    y 0.000000 1.795960 0.000000 
#    z 0.000000 0.000000 1.890490 
# 
# From -- ./inp_files/9747.got.cif
#   From: 2010.05.17/outbox.cif.g08.bks.cpg/sg17_5_cif.got.tgz:9747.got - 2010.06.03 22:34:06.
