data_PCOD9310423
_publ_section_title
;
Structure prediction by ZEFSAII (Michael W. Deem and Ramdas Pophale) SiO2 
 PCOD9310423
Probable space group: P 2 2 2
;
_chemical_formula_sum "Si O2"
_cell_formula_units_Z 13
_cell_length_a 11.136992
_cell_length_b 5.777855
_cell_length_c 8.186104
_cell_angle_alpha 90.000000
_cell_angle_beta 90.000000
_cell_angle_gamma 90.000000
_cell_volume 526.758806
_symmetry_space_group_name_H-M "P 2 2 2"
_symmetry_group_IT_number 16
_symmetry_cell_setting 'orthorhombic'
loop_
_space_group_symop_operation_xyz
x,y,z
-x,-y,z
x,-y,-z
-x,y,-z
loop_
_atom_site_type_symbol
_atom_site_label
_atom_site_fract_x
_atom_site_fract_y
_atom_site_fract_z
Si Si1 0.672824 0.724316 0.741795
Si Si2 0.881250 0.348594 0.746731
Si Si3 0.000000 0.000000 0.500000
Si Si4 0.500000 0.000000 0.500000
Si Si5 0.186513 0.000000 0.000000
Si Si6 0.500000 0.500000 0.000000
O O1 0.765353 0.511376 0.709227
O O2 0.744262 0.922553 0.837607
O O3 0.590315 0.833129 0.601139
O O4 0.582394 0.644635 0.881688
O O5 0.000000 0.500000 0.742979
O O6 0.912508 0.156618 0.610281
O O7 0.874825 0.225982 0.924113
#
# Coordination Sequence:
#
# PCOD9310423 Si02
#       6
#     4   4   1   1   2   1
#     4  12  28  55  85 123 169 222 283 356 420 515
#     4  12  29  54  85 120 168 218 284 357 428 510
#     4  12  30  52  80 124 176 216 274 360 446 496
#     4  12  32  54  88 132 176 224 290 354 444 496
#     4  12  26  54  84 120 160 221 279 342 430 508
#     4  12  24  60  78 116 170 222 276 344 416 510
#
# _framework density 24.679226
#
# number of rings (size 3 to 8) (size 9 to 14) (size 15 to 20)
#    0.000    0.000    3.077    4.154    0.000   17.231 
#    5.538    0.000    0.000    0.000    0.000    0.000 
#    0.000    0.000    0.000    0.000    0.000    0.000 
#
# Total GULP energy -72812.102094 kJ/mol
# GULP energy per Si atom -5600.930930 kJ/mol
# Density = 2.462305 g / cm^3
# Si number density = 24.679226 Si / 1000 Ang^3
#
#
#
# Elastic Constant Matrix: (Units=GPa)
#
#
# Indices 1 2 3 4 5 6 
#
# 1 189.3355 110.1102 109.2578 0.0000 0.0000 0.0000
# 2 110.1102 153.0205 89.1989 0.0000 0.0000 0.0000
# 3 109.2578 89.1989 166.6150 0.0000 0.0000 0.0000
# 4 0.0000 0.0000 0.0000 66.8264 0.0000 0.0000
# 5 0.0000 0.0000 0.0000 0.0000 81.4128 0.0000
# 6 0.0000 0.0000 0.0000 0.0000 0.0000 11.1743
#
#
#
# Elastic Compliance Matrix: (Units=1/GPa)
#
#
# Indices 1 2 3 4 5 6 
#
# 1 0.010825 -0.005308 -0.004257 0.000000 0.000000 0.000000
# 2 -0.005308 0.012102 -0.002998 0.000000 0.000000 0.000000
# 3 -0.004257 -0.002998 0.010398 0.000000 0.000000 0.000000
# 4 0.000000 0.000000 0.000000 0.014964 0.000000 0.000000
# 5 0.000000 0.000000 0.000000 0.000000 0.012283 0.000000
# 6 0.000000 0.000000 0.000000 0.000000 0.000000 0.089491
#
#
# Mechanical properties :
#
#
# Convention : Reuss Voigt Hill
#
# Bulk Modulus (GPa) = 121.95945 125.12276 123.54110
# Shear Modulus (GPa) = 28.10190 45.24297 36.67244
#
# Velocity S-wave (km/s) = 3.37810 4.28628 3.85900
# Velocity P-wave (km/s) = 8.04615 8.67790 8.36799
#
# Compressibility (1/GPa) = 0.00819945
#
# Stress axis : x y z
#
# Youngs Moduli (GPa) = 92.37863 82.62770 96.16806
#
# Poissons Ratio (x) = 0.43859 0.40937
# Poissons Ratio (y) = 0.49035 0.28835
# Poissons Ratio (z) = 0.39323 0.24775
#
# Static dielectric constant tensor:
#      x y z
#    x 1.832130 0.000000 0.000000 
#    y 0.000000 1.384020 0.000000 
#    z 0.000000 0.000000 1.940260 
# 
# From -- ./inp_files/4308.got.cif
#   From: 2010.05.17/outbox.cif.g08.bks.cpg/sg16_3_cif.got.tgz:4308.got - 2010.06.03 22:28:35.
