data_PCOD9310064
_publ_section_title
;
Structure prediction by ZEFSAII (Michael W. Deem and Ramdas Pophale) SiO2 
 PCOD9310064
Probable space group: P 2 2 2
;
_chemical_formula_sum "Si O2"
_cell_formula_units_Z 20
_cell_length_a 8.709551
_cell_length_b 12.398871
_cell_length_c 7.264203
_cell_angle_alpha 90.000000
_cell_angle_beta 90.000000
_cell_angle_gamma 90.000000
_cell_volume 784.451107
_symmetry_space_group_name_H-M "P 2 2 2"
_symmetry_group_IT_number 16
_symmetry_cell_setting 'orthorhombic'
loop_
_space_group_symop_operation_xyz
x,y,z
-x,-y,z
x,-y,-z
-x,y,-z
loop_
_atom_site_type_symbol
_atom_site_label
_atom_site_fract_x
_atom_site_fract_y
_atom_site_fract_z
Si Si1 0.177334 0.028648 0.293306
Si Si2 0.841956 0.731776 0.212354
Si Si3 0.415091 0.888596 0.188694
Si Si4 0.806595 0.288802 0.231354
Si Si5 0.676235 0.486701 0.775797
O O1 0.223446 0.151707 0.263076
O O2 0.225783 0.000000 0.500000
O O3 0.251322 0.943510 0.156743
O O4 0.000000 0.000000 0.281646
O O5 0.750473 0.627031 0.279771
O O6 0.017892 0.738147 0.285354
O O7 0.824393 0.720358 0.991350
O O8 0.346310 0.781289 0.286106
O O9 0.500000 0.000000 0.261102
O O10 0.500000 0.858480 0.000000
O O11 0.774522 0.411268 0.287554
O O12 0.500000 0.500000 0.719212
O O13 0.677731 0.500000 0.000000
#
# Coordination Sequence:
#
# PCOD9310064 Si02
#       5
#     4   4   4   4   4
#     4  11  24  44  65  92 132 185 236 283 348 429
#     4  10  19  36  59  88 129 169 217 281 344 401
#     4  11  23  37  59  93 133 168 220 286 349 408
#     4  10  20  34  56  92 129 166 215 284 344 410
#     4   9  19  31  55  90 133 165 209 276 350 408
#
# _framework density 25.495532999999998
#
# number of rings (size 3 to 8) (size 9 to 14) (size 15 to 20)
#    0.000    1.800    2.000    3.000    8.400    2.800 
#    0.000    0.000    0.000    1.200    0.000    1.400 
#    0.000    0.000    0.000    0.000    0.000    0.000 
#
# Total GULP energy -111557.764852 kJ/mol
# GULP energy per Si atom -5577.888243 kJ/mol
# Density = 2.543750 g / cm^3
# Si number density = 25.495533 Si / 1000 Ang^3
#
#
#
# Elastic Constant Matrix: (Units=GPa)
#
#
# Indices 1 2 3 4 5 6 
#
# 1 112.2060 48.8170 10.7951 0.0000 0.0000 0.0000
# 2 48.8170 221.8478 5.7941 0.0000 0.0000 0.0000
# 3 10.7951 5.7941 69.8177 0.0000 0.0000 0.0000
# 4 0.0000 0.0000 0.0000 0.7609 0.0000 0.0000
# 5 0.0000 0.0000 0.0000 0.0000 -5.5297 0.0000
# 6 0.0000 0.0000 0.0000 0.0000 0.0000 60.1148
#
#
#
# Elastic Compliance Matrix: (Units=1/GPa)
#
#
# Indices 1 2 3 4 5 6 
#
# 1 0.009984 -0.002161 -0.001364 0.000000 0.000000 0.000000
# 2 -0.002161 0.004985 -0.000080 0.000000 0.000000 0.000000
# 3 -0.001364 -0.000080 0.014541 0.000000 0.000000 0.000000
# 4 0.000000 0.000000 0.000000 1.314171 0.000000 0.000000
# 5 0.000000 0.000000 0.000000 0.000000 -0.180842 0.000000
# 6 0.000000 0.000000 0.000000 0.000000 0.000000 0.016635
#
#
# Mechanical properties :
#
#
# Convention : Reuss Voigt Hill
#
# Bulk Modulus (GPa) = 44.84444 59.40933 52.12688
# Shear Modulus (GPa) = 4.18719 33.63356 18.91037
#
# Velocity S-wave (km/s) = 1.28292 3.63601 2.72640
# Velocity P-wave (km/s) = 4.45217 6.40155 5.51370
#
# Compressibility (1/GPa) = 0.02229931
#
# Stress axis : x y z
#
# Youngs Moduli (GPa) = 100.16296 200.59167 68.77311
#
# Poissons Ratio (x) = 0.43353 0.09383
# Poissons Ratio (y) = 0.21648 0.00547
# Poissons Ratio (z) = 0.13665 0.01596
#
# Static dielectric constant tensor:
#      x y z
#    x 2.125850 0.000000 0.000000 
#    y 0.000000 2.053660 0.000000 
#    z 0.000000 0.000000 2.148510 
# 
# From -- ./inp_files/3782.got.cif
#   From: 2010.05.17/outbox.cif.g08.bks.cpg/sg16_2_cif.got.tgz:3782.got - 2010.06.03 22:28:35.
