data_PCOD9310290
_publ_section_title
;
Structure prediction by ZEFSAII (Michael W. Deem and Ramdas Pophale) SiO2 
 PCOD9310290
Probable space group: P 2 2 2
;
_chemical_formula_sum "Si O2"
_cell_formula_units_Z 32
_cell_length_a 14.270534
_cell_length_b 8.610007
_cell_length_c 12.434141
_cell_angle_alpha 90.000000
_cell_angle_beta 90.000000
_cell_angle_gamma 90.000000
_cell_volume 1527.775415
_symmetry_space_group_name_H-M "P 2 2 2"
_symmetry_group_IT_number 16
_symmetry_cell_setting 'orthorhombic'
loop_
_space_group_symop_operation_xyz
x,y,z
-x,-y,z
x,-y,-z
-x,y,-z
loop_
_atom_site_type_symbol
_atom_site_label
_atom_site_fract_x
_atom_site_fract_y
_atom_site_fract_z
Si Si1 0.127037 0.355649 0.177088
Si Si2 0.126675 0.827613 0.037750
Si Si3 0.275326 0.315432 0.351703
Si Si4 0.355032 0.347861 0.682007
Si Si5 0.527891 0.166689 0.625094
Si Si6 0.736257 0.609147 0.903607
Si Si7 0.199529 0.827613 0.447076
Si Si8 0.962710 0.176997 0.273524
O O1 0.218714 0.292298 0.240588
O O2 0.167937 0.524912 0.143539
O O3 0.042889 0.309235 0.257956
O O4 0.096616 0.279873 0.063350
O O5 0.233454 0.773599 0.049824
O O6 0.086149 0.822824 0.157168
O O7 0.112528 0.000000 0.000000
O O8 0.319082 0.487200 0.362786
O O9 0.363084 0.200586 0.360968
O O10 0.205673 0.283960 0.450018
O O11 0.462623 0.303912 0.668889
O O12 0.332220 0.364628 0.806819
O O13 0.291475 0.215209 0.624254
O O14 0.500000 0.162543 0.500000
O O15 0.500000 0.000000 0.672757
O O16 0.703392 0.500000 0.000000
O O17 0.111286 0.797573 0.369324
O O18 0.199087 0.000000 0.500000
O O19 0.000000 0.000000 0.289323
#
# Coordination Sequence:
#
# PCOD9310290 Si02
#       8
#     4   4   4   4   4   4   4   4
#     4  10  23  40  64  92 131 171 223 276 334 397
#     4  11  21  38  66  90 126 166 227 284 329 395
#     4  11  24  42  65  97 132 173 217 269 338 399
#     4  11  22  43  69  98 134 170 221 278 334 403
#     4  11  23  39  67 102 131 168 217 267 325 399
#     4   9  21  42  66 100 130 171 219 279 347 395
#     4  12  25  40  63  92 136 177 223 271 329 396
#     4  12  24  40  62  93 129 177 230 276 333 391
#
# _framework density 20.945485999999999
#
# number of rings (size 3 to 8) (size 9 to 14) (size 15 to 20)
#    0.000    1.125    3.750    2.625    0.000    3.750 
#    0.000    1.875    0.000   15.750    0.000    8.750 
#    0.000    0.000    0.000    0.000    0.000    0.000 
#
# Total GULP energy -178476.523291 kJ/mol
# GULP energy per Si atom -5577.391353 kJ/mol
# Density = 2.089781 g / cm^3
# Si number density = 20.945486 Si / 1000 Ang^3
#
#
#
# Elastic Constant Matrix: (Units=GPa)
#
#
# Indices 1 2 3 4 5 6 
#
# 1 75.3409 27.9758 54.6489 0.0000 0.0000 0.0000
# 2 27.9758 65.4671 31.4968 0.0000 0.0000 0.0000
# 3 54.6489 31.4968 117.2242 0.0000 0.0000 0.0000
# 4 0.0000 0.0000 0.0000 27.2907 0.0000 0.0000
# 5 0.0000 0.0000 0.0000 0.0000 24.2870 0.0000
# 6 0.0000 0.0000 0.0000 0.0000 0.0000 9.4627
#
#
#
# Elastic Compliance Matrix: (Units=1/GPa)
#
#
# Indices 1 2 3 4 5 6 
#
# 1 0.021384 -0.004986 -0.008629 0.000000 0.000000 0.000000
# 2 -0.004986 0.018705 -0.002701 0.000000 0.000000 0.000000
# 3 -0.008629 -0.002701 0.013279 0.000000 0.000000 0.000000
# 4 0.000000 0.000000 0.000000 0.036642 0.000000 0.000000
# 5 0.000000 0.000000 0.000000 0.000000 0.041174 0.000000
# 6 0.000000 0.000000 0.000000 0.000000 0.000000 0.105678
#
#
# Mechanical properties :
#
#
# Convention : Reuss Voigt Hill
#
# Bulk Modulus (GPa) = 48.22810 54.03055 51.12933
# Shear Modulus (GPa) = 18.08922 21.80214 19.94568
#
# Velocity S-wave (km/s) = 2.94195 3.22980 3.08923
# Velocity P-wave (km/s) = 5.88351 6.30560 6.09821
#
# Compressibility (1/GPa) = 0.02073480
#
# Stress axis : x y z
#
# Youngs Moduli (GPa) = 46.76459 53.46094 75.30514
#
# Poissons Ratio (x) = 0.26657 0.64982
# Poissons Ratio (y) = 0.23318 0.20342
# Poissons Ratio (z) = 0.40354 0.14442
#
# Static dielectric constant tensor:
#      x y z
#    x 1.751650 0.000000 0.000000 
#    y 0.000000 1.814030 0.000000 
#    z 0.000000 0.000000 1.794220 
# 
# From -- ./inp_files/7152.got.cif
#   From: 2010.05.17/outbox.cif.g08.bks.cpg/sg16_4_cif.got.tgz:7152.got - 2010.06.03 22:28:35.
