data_PCOD9310994
_publ_section_title
;
Structure prediction by ZEFSAII (Michael W. Deem and Ramdas Pophale) SiO2 
 PCOD9310994
Probable space group: P 2 2 21
;
_chemical_formula_sum "Si O2"
_cell_formula_units_Z 30
_cell_length_a 5.323182
_cell_length_b 22.767835
_cell_length_c 11.738846
_cell_angle_alpha 90.000000
_cell_angle_beta 90.000000
_cell_angle_gamma 90.000000
_cell_volume 1422.716786
_symmetry_space_group_name_H-M "P 2 2 21"
_symmetry_group_IT_number 17
_symmetry_cell_setting 'orthorhombic'
loop_
_space_group_symop_operation_xyz
x,y,z
-x,-y,1/2+z
x,-y,-z
-x,y,1/2-z
loop_
_atom_site_type_symbol
_atom_site_label
_atom_site_fract_x
_atom_site_fract_y
_atom_site_fract_z
Si Si1 0.503275 0.546769 0.395183
Si Si2 0.589700 0.191182 0.023126
Si Si3 0.002858 0.385825 0.616464
Si Si4 0.101856 0.841461 0.875528
Si Si5 0.071625 0.020257 0.114122
Si Si6 0.324058 0.723336 0.347288
Si Si7 0.000000 0.172474 0.750000
Si Si8 0.366676 0.092874 0.870665
O O1 0.548086 0.500000 0.500000
O O2 0.500000 0.533371 0.250000
O O3 0.231208 0.573636 0.425198
O O4 0.725156 0.594409 0.417996
O O5 0.881445 0.190608 0.054577
O O6 0.376006 0.186422 0.117885
O O7 0.524895 0.249229 0.951331
O O8 0.535211 0.130990 0.954387
O O9 0.104616 0.319157 0.608943
O O10 0.000000 0.396584 0.750000
O O11 0.120363 0.910942 0.904206
O O12 0.000000 0.839658 0.750000
O O13 0.000000 0.014263 0.250000
O O14 0.298496 0.973889 0.105270
O O15 0.912762 0.000000 0.000000
O O16 0.500000 0.694793 0.250000
O O17 0.210670 0.782352 0.291809
O O18 0.113913 0.130813 0.846985
O O19 0.500000 0.093203 0.750000
#
# Coordination Sequence:
#
# PCOD9310994 Si02
#       8
#     4   4   4   4   4   4   2   4
#     4  10  21  39  65  99 143 191 235 277 327 387
#     4  12  24  43  69  90 124 166 215 266 343 416
#     4  10  21  36  60  98 140 179 219 277 338 393
#     4  11  27  48  64  88 117 166 223 278 340 415
#     4  11  25  43  64  88 124 163 212 275 340 417
#     4  12  23  35  63 101 142 169 213 274 349 411
#     4  12  20  38  56  94 144 172 204 270 348 422
#     4  12  24  38  60  95 125 166 203 269 340 424
#
# _framework density 21.086416
#
# number of rings (size 3 to 8) (size 9 to 14) (size 15 to 20)
#    0.000    0.800    5.333    2.800    1.867    2.133 
#    0.000    0.000    0.000    3.200    0.000    2.800 
#    0.000    0.000    0.000    0.000    0.000    0.000 
#
# Total GULP energy -167031.895242 kJ/mol
# GULP energy per Si atom -5567.729841 kJ/mol
# Density = 2.103842 g / cm^3
# Si number density = 21.086416 Si / 1000 Ang^3
#
#
#
# Elastic Constant Matrix: (Units=GPa)
#
#
# Indices 1 2 3 4 5 6 
#
# 1 83.1724 32.1540 23.6191 0.0000 0.0000 0.0000
# 2 32.1540 87.6646 33.3818 0.0000 0.0000 0.0000
# 3 23.6191 33.3818 89.2172 0.0000 0.0000 0.0000
# 4 0.0000 0.0000 0.0000 29.4800 0.0000 0.0000
# 5 0.0000 0.0000 0.0000 0.0000 31.5985 0.0000
# 6 0.0000 0.0000 0.0000 0.0000 0.0000 28.4432
#
#
#
# Elastic Compliance Matrix: (Units=1/GPa)
#
#
# Indices 1 2 3 4 5 6 
#
# 1 0.014350 -0.004451 -0.002134 0.000000 0.000000 0.000000
# 2 -0.004451 0.014683 -0.004316 0.000000 0.000000 0.000000
# 3 -0.002134 -0.004316 0.013388 0.000000 0.000000 0.000000
# 4 0.000000 0.000000 0.000000 0.033921 0.000000 0.000000
# 5 0.000000 0.000000 0.000000 0.000000 0.031647 0.000000
# 6 0.000000 0.000000 0.000000 0.000000 0.000000 0.035158
#
#
# Mechanical properties :
#
#
# Convention : Reuss Voigt Hill
#
# Bulk Modulus (GPa) = 48.49428 48.70714 48.60071
# Shear Modulus (GPa) = 29.10014 29.29762 29.19888
#
# Velocity S-wave (km/s) = 3.71892 3.73152 3.72523
# Velocity P-wave (km/s) = 6.44114 6.45869 6.44992
#
# Compressibility (1/GPa) = 0.02062099
#
# Stress axis : x y z
#
# Youngs Moduli (GPa) = 69.68746 68.10642 74.69293
#
# Poissons Ratio (x) = 0.30313 0.15936
# Poissons Ratio (y) = 0.31017 0.32234
# Poissons Ratio (z) = 0.14868 0.29391
#
# Static dielectric constant tensor:
#      x y z
#    x 1.856530 0.000000 0.000000 
#    y 0.000000 1.775080 0.000000 
#    z 0.000000 0.000000 1.920000 
# 
# From -- ./inp_files/6093.got.cif
#   From: 2010.05.17/outbox.cif.g08.bks.cpg/sg17_4_cif.got.tgz:6093.got - 2010.06.03 22:34:06.
