data_PCOD9310367
_publ_section_title
;
Structure prediction by ZEFSAII (Michael W. Deem and Ramdas Pophale) SiO2 
 PCOD9310367
Probable space group: P 2 2 2
;
_chemical_formula_sum "Si O2"
_cell_formula_units_Z 32
_cell_length_a 19.238401
_cell_length_b 13.026419
_cell_length_c 8.061044
_cell_angle_alpha 90.000000
_cell_angle_beta 90.000000
_cell_angle_gamma 90.000000
_cell_volume 2020.157861
_symmetry_space_group_name_H-M "P 2 2 2"
_symmetry_group_IT_number 16
_symmetry_cell_setting 'orthorhombic'
loop_
_space_group_symop_operation_xyz
x,y,z
-x,-y,z
x,-y,-z
-x,y,-z
loop_
_atom_site_type_symbol
_atom_site_label
_atom_site_fract_x
_atom_site_fract_y
_atom_site_fract_z
Si Si1 0.321677 0.624133 0.304517
Si Si2 0.078649 0.116931 0.200034
Si Si3 0.921964 0.500000 0.196971
Si Si4 0.830477 0.306679 0.303308
Si Si5 0.420476 0.375441 0.000000
Si Si6 0.321677 0.375867 0.304517
Si Si7 0.078649 0.116931 0.799965
Si Si8 0.830477 0.306679 0.696692
O O1 0.248687 0.674013 0.248587
O O2 0.379809 0.653510 0.169110
O O3 0.313210 0.500000 0.298550
O O4 0.336262 0.649283 0.500000
O O5 0.134894 0.199605 0.253699
O O6 1.000000 0.145107 0.255691
O O7 0.092663 0.000000 0.255631
O O8 0.077442 0.116232 1.000000
O O9 0.879429 0.399053 0.244498
O O10 0.879429 0.600947 0.244499
O O11 0.000000 0.500000 0.268861
O O12 0.927780 0.500000 0.000000
O O13 0.865105 0.199605 0.253699
O O14 0.828007 0.312740 0.500000
O O15 0.421871 0.500000 0.000000
O O16 0.500000 0.338882 0.000000
O O17 0.379809 0.346490 0.169111
O O18 0.248687 0.325987 0.248587
#
# Coordination Sequence:
#
# PCOD9310367 Si02
#       8
#     4   4   4   4   4   4   4   4
#     4   9  18  31  46  69 100 131 162 198 242 290
#     4   9  19  35  51  67  91 126 168 212 255 296
#     4  11  23  33  45  67  93 128 169 206 246 292
#     4  11  21  32  48  70  96 128 164 204 250 295
#     4   9  18  30  48  72  95 130 167 193 232 286
#     4   9  18  31  46  69 100 131 162 198 242 290
#     4   9  19  35  51  67  91 126 168 212 255 296
#     4  11  21  32  48  70  96 128 164 204 250 295
#
# _framework density 15.840344999999999
#
# number of rings (size 3 to 8) (size 9 to 14) (size 15 to 20)
#    0.000    2.250    1.250    2.625    3.500    5.500 
#    0.000    3.750    0.000    0.000    0.000    0.000 
#    0.000    2.000    0.000    5.500    0.000    0.250 
#
# Total GULP energy -178380.266656 kJ/mol
# GULP energy per Si atom -5574.383333 kJ/mol
# Density = 1.580429 g / cm^3
# Si number density = 15.840345 Si / 1000 Ang^3
#
#
#
# Elastic Constant Matrix: (Units=GPa)
#
#
# Indices 1 2 3 4 5 6 
#
# 1 159.0494 54.1863 63.6239 0.0000 0.0000 0.0000
# 2 54.1863 58.2401 22.3526 0.0000 0.0000 0.0000
# 3 63.6239 22.3526 57.1060 0.0000 0.0000 0.0000
# 4 0.0000 0.0000 0.0000 27.0656 0.0000 0.0000
# 5 0.0000 0.0000 0.0000 0.0000 51.3237 0.0000
# 6 0.0000 0.0000 0.0000 0.0000 0.0000 12.5282
#
#
#
# Elastic Compliance Matrix: (Units=1/GPa)
#
#
# Indices 1 2 3 4 5 6 
#
# 1 0.014117 -0.008353 -0.012459 0.000000 0.000000 0.000000
# 2 -0.008353 0.025148 -0.000538 0.000000 0.000000 0.000000
# 3 -0.012459 -0.000538 0.031602 0.000000 0.000000 0.000000
# 4 0.000000 0.000000 0.000000 0.036947 0.000000 0.000000
# 5 0.000000 0.000000 0.000000 0.000000 0.019484 0.000000
# 6 0.000000 0.000000 0.000000 0.000000 0.000000 0.079820
#
#
# Mechanical properties :
#
#
# Convention : Reuss Voigt Hill
#
# Bulk Modulus (GPa) = 35.49952 61.63570 48.56761
# Shear Modulus (GPa) = 19.28971 27.13234 23.21103
#
# Velocity S-wave (km/s) = 3.49343 4.14316 3.83209
# Velocity P-wave (km/s) = 6.22346 7.86656 7.09275
#
# Compressibility (1/GPa) = 0.02816939
#
# Stress axis : x y z
#
# Youngs Moduli (GPa) = 70.83798 39.76496 31.64330
#
# Poissons Ratio (x) = 0.33214 0.39423
# Poissons Ratio (y) = 0.59168 0.01701
# Poissons Ratio (z) = 0.88254 0.02138
#
# Static dielectric constant tensor:
#      x y z
#    x 1.549680 0.000000 0.000000 
#    y 0.000000 1.498530 0.000000 
#    z 0.000000 0.000000 1.556060 
# 
# From -- ./inp_files/5552.got.cif
#   From: 2010.05.17/outbox.cif.g08.bks.cpg/sg16_3_cif.got.tgz:5552.got - 2010.06.03 22:28:35.
