data_PCOD9310210
_publ_section_title
;
Structure prediction by ZEFSAII (Michael W. Deem and Ramdas Pophale) SiO2 
 PCOD9310210
Probable space group: P 2 2 2
;
_chemical_formula_sum "Si O2"
_cell_formula_units_Z 32
_cell_length_a 15.379015
_cell_length_b 9.445936
_cell_length_c 11.194624
_cell_angle_alpha 90.000000
_cell_angle_beta 90.000000
_cell_angle_gamma 90.000000
_cell_volume 1626.233977
_symmetry_space_group_name_H-M "P 2 2 2"
_symmetry_group_IT_number 16
_symmetry_cell_setting 'orthorhombic'
loop_
_space_group_symop_operation_xyz
x,y,z
-x,-y,z
x,-y,-z
-x,y,-z
loop_
_atom_site_type_symbol
_atom_site_label
_atom_site_fract_x
_atom_site_fract_y
_atom_site_fract_z
Si Si1 0.223541 0.972580 0.200498
Si Si2 0.947312 0.865121 0.878948
Si Si3 0.591281 0.421326 0.120266
Si Si4 0.699617 0.474810 0.362849
Si Si5 0.825744 0.785899 0.580916
Si Si6 0.192156 0.243341 0.320388
Si Si7 0.993239 0.667515 0.676695
Si Si8 0.583712 0.916018 0.875994
O O1 0.153362 0.909758 0.107841
O O2 0.186066 0.906780 0.322559
O O3 0.323563 0.931487 0.188128
O O4 0.217447 0.140688 0.213361
O O5 0.951690 0.724630 0.800125
O O6 0.000000 0.000000 0.820803
O O7 0.000000 0.842396 0.000000
O O8 0.500000 0.500000 0.134592
O O9 0.640266 0.439913 0.247637
O O10 0.573866 0.252708 0.103262
O O11 0.630667 0.500000 0.000000
O O12 0.662708 0.500000 0.500000
O O13 0.767689 0.347336 0.378762
O O14 0.752520 0.614405 0.325905
O O15 0.794246 0.826563 0.450159
O O16 0.925298 0.732187 0.582052
O O17 0.090502 0.275714 0.316829
O O18 0.000000 0.500000 0.663458
O O19 0.500000 0.000000 0.819753
O O20 0.594848 0.000000 0.000000
#
# Coordination Sequence:
#
# PCOD9310210 Si02
#       8
#     4   4   4   4   4   4   4   4
#     4  11  23  40  65  86 125 167 209 264 318 387
#     4  10  22  40  57  85 122 160 206 251 316 383
#     4  11  24  45  72  99 129 164 214 273 323 397
#     4  10  22  41  64  96 134 168 209 265 332 392
#     4  10  21  39  58  89 126 166 208 266 313 383
#     4  11  22  35  62  91 123 166 215 257 321 381
#     4  11  21  36  57  84 122 162 210 261 310 375
#     4  11  25  43  67  96 126 167 216 271 325 382
#
# _framework density 19.677364000000001
#
# number of rings (size 3 to 8) (size 9 to 14) (size 15 to 20)
#    0.000    1.375    3.750    2.250    5.250    1.000 
#    0.000    1.250    0.000    1.500    0.000    0.000 
#    0.000    0.000    0.000    0.000    0.000    0.000 
#
# Total GULP energy -178319.491725 kJ/mol
# GULP energy per Si atom -5572.484116 kJ/mol
# Density = 1.963258 g / cm^3
# Si number density = 19.677364 Si / 1000 Ang^3
#
#
#
# Elastic Constant Matrix: (Units=GPa)
#
#
# Indices 1 2 3 4 5 6 
#
# 1 112.4712 35.1416 30.2294 0.0000 0.0000 0.0000
# 2 35.1416 114.7998 30.0659 0.0000 0.0000 0.0000
# 3 30.2294 30.0659 79.9912 0.0000 0.0000 0.0000
# 4 0.0000 0.0000 0.0000 -0.8839 0.0000 0.0000
# 5 0.0000 0.0000 0.0000 0.0000 59.4932 0.0000
# 6 0.0000 0.0000 0.0000 0.0000 0.0000 -13.0062
#
#
#
# Elastic Compliance Matrix: (Units=1/GPa)
#
#
# Indices 1 2 3 4 5 6 
#
# 1 0.010462 -0.002404 -0.003050 0.000000 0.000000 0.000000
# 2 -0.002404 0.010214 -0.002931 0.000000 0.000000 0.000000
# 3 -0.003050 -0.002931 0.014756 0.000000 0.000000 0.000000
# 4 0.000000 0.000000 0.000000 -1.131413 0.000000 0.000000
# 5 0.000000 0.000000 0.000000 0.000000 0.016809 0.000000
# 6 0.000000 0.000000 0.000000 0.000000 0.000000 -0.076886
#
#
# Mechanical properties :
#
#
# Convention : Reuss Voigt Hill
#
# Bulk Modulus (GPa) = 53.58350 55.34844 54.46597
# Shear Modulus (GPa) = -4.41280 23.24231 9.41476
#
# Velocity S-wave (km/s) = -1.49915 3.44054 2.18974
# Velocity P-wave (km/s) = 4.92885 6.63115 5.84233
#
# Compressibility (1/GPa) = 0.01866246
#
# Stress axis : x y z
#
# Youngs Moduli (GPa) = 95.58379 97.90311 67.77063
#
# Poissons Ratio (x) = 0.23533 0.20672
# Poissons Ratio (y) = 0.22975 0.19862
# Poissons Ratio (z) = 0.29155 0.28693
#
# Static dielectric constant tensor:
#      x y z
#    x 1.701670 0.000000 0.000000 
#    y 0.000000 1.592460 0.000000 
#    z 0.000000 0.000000 1.771780 
# 
# From -- ./inp_files/7173.got.cif
#   From: 2010.05.17/outbox.cif.g08.bks.cpg/sg16_4_cif.got.tgz:7173.got - 2010.06.03 22:28:35.
