data_PCOD9310104
_publ_section_title
;
Structure prediction by ZEFSAII (Michael W. Deem and Ramdas Pophale) SiO2 
 PCOD9310104
Probable space group: P 2 2 2
;
_chemical_formula_sum "Si O2"
_cell_formula_units_Z 17
_cell_length_a 5.933260
_cell_length_b 8.798018
_cell_length_c 15.508346
_cell_angle_alpha 90.000000
_cell_angle_beta 90.000000
_cell_angle_gamma 90.000000
_cell_volume 809.550057
_symmetry_space_group_name_H-M "P 2 2 2"
_symmetry_group_IT_number 16
_symmetry_cell_setting 'orthorhombic'
loop_
_space_group_symop_operation_xyz
x,y,z
-x,-y,z
x,-y,-z
-x,y,-z
loop_
_atom_site_type_symbol
_atom_site_label
_atom_site_fract_x
_atom_site_fract_y
_atom_site_fract_z
Si Si1 0.500000 0.000000 0.355315
Si Si2 0.500000 0.500000 0.000000
Si Si3 0.111539 0.166263 0.736147
Si Si4 0.187232 0.251388 0.925221
Si Si5 0.500000 0.000000 0.000000
Si Si6 0.824558 0.749986 0.422215
Si Si7 0.500000 0.500000 0.500000
O O1 0.639133 0.122671 0.298324
O O2 0.325181 0.098578 0.410513
O O3 0.343168 0.604355 0.058409
O O4 0.100577 0.245228 0.828410
O O5 0.973437 0.258835 0.664416
O O6 0.000000 0.000000 0.745491
O O7 0.000000 0.250112 0.000000
O O8 0.342784 0.104515 0.941305
O O9 0.660371 0.609369 0.443133
O O10 0.000000 0.765497 0.500000
#
# Coordination Sequence:
#
# PCOD9310104 Si02
#       7
#     2   1   4   4   1   4   1
#     4  10  23  43  69  99 130 160 207 273 321 375
#     4  10  26  42  62  92 132 180 214 250 322 376
#     4  10  22  40  68 100 125 163 215 266 321 375
#     4  11  22  43  65  94 133 168 213 265 314 378
#     4  10  20  34  70 100 124 168 208 262 326 376
#     4  11  25  44  67  96 129 169 215 259 320 382
#     4  12  26  46  62  90 136 176 210 264 314 372
#
# _framework density 20.999317999999999
#
# number of rings (size 3 to 8) (size 9 to 14) (size 15 to 20)
#    0.000    1.412    0.000    4.588    0.000   16.941 
#    0.000   17.647    0.000    0.000    0.000    0.000 
#    0.000    0.000    0.000    0.000    0.000    0.000 
#
# Total GULP energy -95124.632801 kJ/mol
# GULP energy per Si atom -5595.566635 kJ/mol
# Density = 2.095152 g / cm^3
# Si number density = 20.999318 Si / 1000 Ang^3
#
#
#
# Elastic Constant Matrix: (Units=GPa)
#
#
# Indices 1 2 3 4 5 6 
#
# 1 137.0514 50.3698 95.9413 0.0000 0.0000 0.0000
# 2 50.3698 91.5357 71.8815 0.0000 0.0000 0.0000
# 3 95.9413 71.8815 219.3595 0.0000 0.0000 0.0000
# 4 0.0000 0.0000 0.0000 -13.9678 0.0000 0.0000
# 5 0.0000 0.0000 0.0000 0.0000 24.6630 0.0000
# 6 0.0000 0.0000 0.0000 0.0000 0.0000 95.3160
#
#
#
# Elastic Compliance Matrix: (Units=1/GPa)
#
#
# Indices 1 2 3 4 5 6 
#
# 1 0.011134 -0.003100 -0.003854 0.000000 0.000000 0.000000
# 2 -0.003100 0.015573 -0.003747 0.000000 0.000000 0.000000
# 3 -0.003854 -0.003747 0.007472 0.000000 0.000000 0.000000
# 4 0.000000 0.000000 0.000000 -0.071593 0.000000 0.000000
# 5 0.000000 0.000000 0.000000 0.000000 0.040547 0.000000
# 6 0.000000 0.000000 0.000000 0.000000 0.000000 0.010491
#
#
# Mechanical properties :
#
#
# Convention : Reuss Voigt Hill
#
# Bulk Modulus (GPa) = 78.26702 98.25908 88.26305
# Shear Modulus (GPa) = 127.27410 36.51917 81.89663
#
# Velocity S-wave (km/s) = 7.79360 4.17473 6.25175
# Velocity P-wave (km/s) = 10.87838 8.37443 9.70747
#
# Compressibility (1/GPa) = 0.01277677
#
# Stress axis : x y z
#
# Youngs Moduli (GPa) = 89.81769 64.21211 133.83190
#
# Poissons Ratio (x) = 0.19909 0.51573
# Poissons Ratio (y) = 0.27847 0.50149
# Poissons Ratio (z) = 0.34612 0.24061
#
# Static dielectric constant tensor:
#      x y z
#    x 1.795010 0.000000 0.000000 
#    y 0.000000 1.580320 0.000000 
#    z 0.000000 0.000000 1.747280 
# 
# From -- ./inp_files/8500.got.cif
#   From: 2010.05.17/outbox.cif.g08.bks.cpg/sg16_5_cif.got.tgz:8500.got - 2010.06.03 22:28:35.
