data_PCOD9310414
_publ_section_title
;
Structure prediction by ZEFSAII (Michael W. Deem and Ramdas Pophale) SiO2 
 PCOD9310414
Probable space group: P 2 2 2
;
_chemical_formula_sum "Si O2"
_cell_formula_units_Z 20
_cell_length_a 15.835919
_cell_length_b 8.769756
_cell_length_c 6.493497
_cell_angle_alpha 90.000000
_cell_angle_beta 90.000000
_cell_angle_gamma 90.000000
_cell_volume 901.798329
_symmetry_space_group_name_H-M "P 2 2 2"
_symmetry_group_IT_number 16
_symmetry_cell_setting 'orthorhombic'
loop_
_space_group_symop_operation_xyz
x,y,z
-x,-y,z
x,-y,-z
-x,y,-z
loop_
_atom_site_type_symbol
_atom_site_label
_atom_site_fract_x
_atom_site_fract_y
_atom_site_fract_z
Si Si1 0.175840 0.409743 0.806298
Si Si2 0.500000 0.000000 0.500000
Si Si3 0.780025 0.838312 0.103676
Si Si4 0.689472 0.500000 0.500000
Si Si5 0.500000 0.500000 0.000000
Si Si6 0.396108 0.256572 0.285647
Si Si7 0.899537 0.177441 0.525003
O O1 0.247245 0.507696 0.692716
O O2 0.125257 0.314369 0.632528
O O3 0.133693 0.500000 0.000000
O O4 0.225984 0.277150 0.917385
O O5 0.452921 0.116514 0.349468
O O6 0.690308 0.823616 0.211497
O O7 0.857306 0.790468 0.254170
O O8 0.798432 0.000000 0.000000
O O9 0.631303 0.647146 0.487993
O O10 0.440900 0.383552 0.136826
O O11 0.000000 0.170939 0.500000
O O12 0.869023 0.000000 0.500000
#
# Coordination Sequence:
#
# PCOD9310414 Si02
#       7
#     4   1   4   2   1   4   4
#     4  12  23  46  74 115 141 197 255 302 372 454
#     4  12  32  44  72 112 146 188 248 320 374 430
#     4  12  26  44  79 109 144 201 254 312 379 462
#     4  12  24  47  77 102 150 204 248 300 391 465
#     4  12  28  52  72 112 154 204 252 314 392 470
#     4  12  27  48  75 107 152 196 252 315 384 452
#     4  11  25  48  74 113 158 196 251 318 382 458
#
# _framework density 22.177906
#
# number of rings (size 3 to 8) (size 9 to 14) (size 15 to 20)
#    0.000    0.200    6.000    2.400    7.000    0.800 
#    0.000    7.500    0.000    0.000    0.000    0.000 
#    0.000    0.000    0.000    0.000    0.000    0.000 
#
# Total GULP energy -111454.872257 kJ/mol
# GULP energy per Si atom -5572.743613 kJ/mol
# Density = 2.212743 g / cm^3
# Si number density = 22.177906 Si / 1000 Ang^3
#
#
#
# Elastic Constant Matrix: (Units=GPa)
#
#
# Indices 1 2 3 4 5 6 
#
# 1 97.2357 41.7951 43.7051 0.0000 0.0000 0.0000
# 2 41.7951 146.7406 53.3567 0.0000 0.0000 0.0000
# 3 43.7051 53.3567 95.7315 0.0000 0.0000 0.0000
# 4 0.0000 0.0000 0.0000 33.2610 0.0000 0.0000
# 5 0.0000 0.0000 0.0000 0.0000 8.0273 0.0000
# 6 0.0000 0.0000 0.0000 0.0000 0.0000 35.2163
#
#
#
# Elastic Compliance Matrix: (Units=1/GPa)
#
#
# Indices 1 2 3 4 5 6 
#
# 1 0.013390 -0.001995 -0.005001 0.000000 0.000000 0.000000
# 2 -0.001995 0.008844 -0.004018 0.000000 0.000000 0.000000
# 3 -0.005001 -0.004018 0.014969 0.000000 0.000000 0.000000
# 4 0.000000 0.000000 0.000000 0.030065 0.000000 0.000000
# 5 0.000000 0.000000 0.000000 0.000000 0.124575 0.000000
# 6 0.000000 0.000000 0.000000 0.000000 0.000000 0.028396
#
#
# Mechanical properties :
#
#
# Convention : Reuss Voigt Hill
#
# Bulk Modulus (GPa) = 65.90476 68.60239 67.25357
# Shear Modulus (GPa) = 20.21624 28.69097 24.45360
#
# Velocity S-wave (km/s) = 3.02246 3.60067 3.32416
# Velocity P-wave (km/s) = 6.47775 6.94884 6.71743
#
# Compressibility (1/GPa) = 0.01517341
#
# Stress axis : x y z
#
# Youngs Moduli (GPa) = 74.68436 113.06810 66.80631
#
# Poissons Ratio (x) = 0.22561 0.33408
# Poissons Ratio (y) = 0.14902 0.26846
# Poissons Ratio (z) = 0.37348 0.45436
#
# Static dielectric constant tensor:
#      x y z
#    x 1.854720 0.000000 0.000000 
#    y 0.000000 2.247220 0.000000 
#    z 0.000000 0.000000 1.779330 
# 
# From -- ./inp_files/2334.got.cif
#   From: 2010.05.17/outbox.cif.g08.bks.cpg/sg16_2_cif.got.tgz:2334.got - 2010.06.03 22:28:35.
