data_PCOD9310887
_publ_section_title
;
Structure prediction by ZEFSAII (Michael W. Deem and Ramdas Pophale) SiO2 
 PCOD9310887
Probable space group: P 2 2 21
;
_chemical_formula_sum "Si O2"
_cell_formula_units_Z 22
_cell_length_a 8.840953
_cell_length_b 9.254188
_cell_length_c 13.176459
_cell_angle_alpha 90.000000
_cell_angle_beta 90.000000
_cell_angle_gamma 90.000000
_cell_volume 1078.043077
_symmetry_space_group_name_H-M "P 2 2 21"
_symmetry_group_IT_number 17
_symmetry_cell_setting 'orthorhombic'
loop_
_space_group_symop_operation_xyz
x,y,z
-x,-y,1/2+z
x,-y,-z
-x,y,1/2-z
loop_
_atom_site_type_symbol
_atom_site_label
_atom_site_fract_x
_atom_site_fract_y
_atom_site_fract_z
Si Si1 0.681633 0.949219 0.885868
Si Si2 0.150324 0.295077 0.463823
Si Si3 0.169035 0.226589 0.699899
Si Si4 0.500000 0.726926 0.750000
Si Si5 0.096025 0.500000 0.000000
Si Si6 0.585328 0.500000 0.000000
Si Si7 0.660848 0.450729 0.661307
O O1 0.831832 0.854912 0.908348
O O2 0.565252 0.839352 0.833151
O O3 0.734241 0.079159 0.813646
O O4 0.631726 0.000000 0.000000
O O5 0.139342 0.273750 0.584326
O O6 0.302714 0.386383 0.448403
O O7 0.008234 0.390819 0.437515
O O8 0.283382 0.341329 0.752276
O O9 0.000000 0.214296 0.750000
O O10 0.624300 0.612450 0.704431
O O11 0.203555 0.432366 0.917452
O O12 0.483364 0.573711 0.086972
#
# Coordination Sequence:
#
# PCOD9310887 Si02
#       7
#     4   4   4   2   2   2   4
#     4  10  25  44  65  95 138 188 226 272 347 416
#     4  10  20  42  65  93 134 179 223 273 346 399
#     4  11  23  41  65  99 133 181 230 274 340 413
#     4  12  24  44  68 102 134 184 232 288 338 406
#     4  10  22  38  66 102 132 168 226 298 332 390
#     4  10  20  38  68  96 132 172 218 294 334 394
#     4  11  23  39  66 105 130 167 235 287 342 392
#
# _framework density 20.407347999999999
#
# number of rings (size 3 to 8) (size 9 to 14) (size 15 to 20)
#    0.000    1.455    3.636    1.091    2.545    5.091 
#    0.000    0.000    0.000    0.000    0.000    0.000 
#    0.000    0.000    0.000    0.000    0.000    0.000 
#
# Total GULP energy -122542.592173 kJ/mol
# GULP energy per Si atom -5570.117826 kJ/mol
# Density = 2.036090 g / cm^3
# Si number density = 20.407348 Si / 1000 Ang^3
#
#
#
# Elastic Constant Matrix: (Units=GPa)
#
#
# Indices 1 2 3 4 5 6 
#
# 1 106.9806 49.2386 37.2078 0.0000 0.0000 0.0000
# 2 49.2386 112.3081 28.1227 0.0000 0.0000 0.0000
# 3 37.2078 28.1227 54.8450 0.0000 0.0000 0.0000
# 4 0.0000 0.0000 0.0000 41.0893 0.0000 0.0000
# 5 0.0000 0.0000 0.0000 0.0000 11.6717 0.0000
# 6 0.0000 0.0000 0.0000 0.0000 0.0000 29.0439
#
#
#
# Elastic Compliance Matrix: (Units=1/GPa)
#
#
# Indices 1 2 3 4 5 6 
#
# 1 0.013803 -0.004253 -0.007184 0.000000 0.000000 0.000000
# 2 -0.004253 0.011526 -0.003025 0.000000 0.000000 0.000000
# 3 -0.007184 -0.003025 0.024658 0.000000 0.000000 0.000000
# 4 0.000000 0.000000 0.000000 0.024337 0.000000 0.000000
# 5 0.000000 0.000000 0.000000 0.000000 0.085677 0.000000
# 6 0.000000 0.000000 0.000000 0.000000 0.000000 0.034431
#
#
# Mechanical properties :
#
#
# Convention : Reuss Voigt Hill
#
# Bulk Modulus (GPa) = 47.47389 55.91908 51.69649
# Shear Modulus (GPa) = 21.70354 26.99861 24.35108
#
# Velocity S-wave (km/s) = 3.26470 3.64123 3.45809
# Velocity P-wave (km/s) = 6.12574 6.71856 6.42898
#
# Compressibility (1/GPa) = 0.02106421
#
# Stress axis : x y z
#
# Youngs Moduli (GPa) = 72.44583 86.75936 40.55500
#
# Poissons Ratio (x) = 0.36898 0.29134
# Poissons Ratio (y) = 0.30811 0.12268
# Poissons Ratio (z) = 0.52043 0.26245
#
# Static dielectric constant tensor:
#      x y z
#    x 1.754970 0.000000 0.000000 
#    y 0.000000 1.797640 0.000000 
#    z 0.000000 0.000000 1.770410 
# 
# From -- ./inp_files/8043.got.cif
#   From: 2010.05.17/outbox.cif.g08.bks.cpg/sg17_5_cif.got.tgz:8043.got - 2010.06.03 22:34:06.
