data_PCOD9310776
_publ_section_title
;
Structure prediction by ZEFSAII (Michael W. Deem and Ramdas Pophale) SiO2 
 PCOD9310776
Probable space group: P 2 2 21
;
_chemical_formula_sum "Si O2"
_cell_formula_units_Z 16
_cell_length_a 9.098074
_cell_length_b 7.368998
_cell_length_c 11.407515
_cell_angle_alpha 90.000000
_cell_angle_beta 90.000000
_cell_angle_gamma 90.000000
_cell_volume 764.801889
_symmetry_space_group_name_H-M "P 2 2 21"
_symmetry_group_IT_number 17
_symmetry_cell_setting 'orthorhombic'
loop_
_space_group_symop_operation_xyz
x,y,z
-x,-y,1/2+z
x,-y,-z
-x,y,1/2-z
loop_
_atom_site_type_symbol
_atom_site_label
_atom_site_fract_x
_atom_site_fract_y
_atom_site_fract_z
Si Si1 0.826535 0.844934 0.244354
Si Si2 0.328760 0.221128 0.250521
Si Si3 0.611895 0.414273 0.640469
Si Si4 0.640245 0.213892 0.987953
O O1 0.745235 0.721374 0.339118
O O2 0.758321 0.785396 0.117702
O O3 0.000000 0.827291 0.250000
O O4 0.775489 0.050948 0.268405
O O5 0.500000 0.157562 0.250000
O O6 0.320088 0.384575 0.157971
O O7 0.302938 0.282576 0.385817
O O8 0.500000 0.407741 0.750000
O O9 0.504265 0.328439 0.543521
O O10 0.601610 0.000000 0.000000
#
# Coordination Sequence:
#
# PCOD9310776 Si02
#       4
#     4   4   4   4
#     4  10  20  35  55  83 121 158 194 236 289 355
#     4  10  20  36  60  84 112 151 199 251 301 349
#     4   9  19  34  58  85 112 147 196 251 295 347
#     4   9  18  37  61  86 116 155 199 247 302 352
#
# _framework density 20.920449999999999
#
# number of rings (size 3 to 8) (size 9 to 14) (size 15 to 20)
#    0.000    2.500    0.000    3.750    0.000   10.000 
#    0.000   11.250    0.000    9.000    0.000    0.000 
#    0.000    0.000    0.000    0.000    0.000    0.000 
#
# Total GULP energy -89222.294850 kJ/mol
# GULP energy per Si atom -5576.393428 kJ/mol
# Density = 2.087283 g / cm^3
# Si number density = 20.920450 Si / 1000 Ang^3
#
#
#
# Elastic Constant Matrix: (Units=GPa)
#
#
# Indices 1 2 3 4 5 6 
#
# 1 151.8358 74.9747 26.4176 0.0000 0.0000 0.0000
# 2 74.9747 120.7667 52.1237 0.0000 0.0000 0.0000
# 3 26.4176 52.1237 79.4131 0.0000 0.0000 0.0000
# 4 0.0000 0.0000 0.0000 7.0057 0.0000 0.0000
# 5 0.0000 0.0000 0.0000 0.0000 12.5035 0.0000
# 6 0.0000 0.0000 0.0000 0.0000 0.0000 -3.9858
#
#
#
# Elastic Compliance Matrix: (Units=1/GPa)
#
#
# Indices 1 2 3 4 5 6 
#
# 1 0.009554 -0.006362 0.000997 0.000000 0.000000 0.000000
# 2 -0.006362 0.015790 -0.008247 0.000000 0.000000 0.000000
# 3 0.000997 -0.008247 0.017674 0.000000 0.000000 0.000000
# 4 0.000000 0.000000 0.000000 0.142741 0.000000 0.000000
# 5 0.000000 0.000000 0.000000 0.000000 0.079978 0.000000
# 6 0.000000 0.000000 0.000000 0.000000 0.000000 -0.250889
#
#
# Mechanical properties :
#
#
# Convention : Reuss Voigt Hill
#
# Bulk Modulus (GPa) = 63.31569 73.22749 68.27159
# Shear Modulus (GPa) = 105.62953 16.33799 60.98376
#
# Velocity S-wave (km/s) = 7.11341 2.79759 5.40496
# Velocity P-wave (km/s) = 9.88930 6.74642 8.46500
#
# Compressibility (1/GPa) = 0.01579387
#
# Stress axis : x y z
#
# Youngs Moduli (GPa) = 104.66953 63.33299 56.58088
#
# Poissons Ratio (x) = 0.40291 -0.05643
# Poissons Ratio (y) = 0.66588 0.46664
# Poissons Ratio (z) = -0.10440 0.52233
#
# Static dielectric constant tensor:
#      x y z
#    x 1.667240 0.000000 0.000000 
#    y 0.000000 1.805090 0.000000 
#    z 0.000000 0.000000 1.971950 
# 
# From -- ./inp_files/6214.got.cif
#   From: 2010.05.17/outbox.cif.g08.bks.cpg/sg17_4_cif.got.tgz:6214.got - 2010.06.03 22:34:06.
