data_PCOD9310032
_publ_section_title
;
Structure prediction by ZEFSAII (Michael W. Deem and Ramdas Pophale) SiO2 
 PCOD9310032
Probable space group: P 2 2 2
;
_chemical_formula_sum "Si O2"
_cell_formula_units_Z 25
_cell_length_a 12.158707
_cell_length_b 18.100785
_cell_length_c 6.166239
_cell_angle_alpha 90.000000
_cell_angle_beta 90.000000
_cell_angle_gamma 90.000000
_cell_volume 1357.079083
_symmetry_space_group_name_H-M "P 2 2 2"
_symmetry_group_IT_number 16
_symmetry_cell_setting 'orthorhombic'
loop_
_space_group_symop_operation_xyz
x,y,z
-x,-y,z
x,-y,-z
-x,y,-z
loop_
_atom_site_type_symbol
_atom_site_label
_atom_site_fract_x
_atom_site_fract_y
_atom_site_fract_z
Si Si1 0.500000 0.725465 0.500000
Si Si2 0.000000 0.597616 0.000000
Si Si3 0.810956 0.436250 0.679804
Si Si4 0.617115 0.073900 0.112751
Si Si5 0.311856 0.228571 0.811149
Si Si6 0.500000 0.000000 0.500000
Si Si7 0.891602 0.305101 0.376818
Si Si8 0.610747 0.636772 0.119038
O O1 0.585376 0.770804 0.644858
O O2 0.570142 0.674036 0.340687
O O3 0.930031 0.648902 0.834987
O O4 0.085724 0.556167 0.841428
O O5 0.803062 0.500000 0.500000
O O6 0.834394 0.362058 0.542860
O O7 0.701819 0.423634 0.821513
O O8 0.688239 0.147137 0.089525
O O9 0.579681 0.049754 0.352277
O O10 0.500000 0.090228 0.000000
O O11 0.663323 0.000000 0.000000
O O12 0.198229 0.246202 0.693346
O O13 0.337596 0.296805 0.974020
O O14 0.000000 0.276496 0.500000
O O15 0.500000 0.609262 0.000000
#
# Coordination Sequence:
#
# PCOD9310032 Si02
#       8
#     2   2   4   4   4   1   4   4
#     4  10  19  32  59  85 115 150 202 234 281 360
#     4  10  22  43  60  88 115 146 194 258 305 352
#     4  11  23  41  65  86 117 152 196 248 309 357
#     4   9  18  31  48  84 124 156 198 231 288 349
#     4  11  19  35  60  85 120 160 192 247 293 350
#     4   8  16  32  48  82 128 156 188 248 282 344
#     4  10  22  38  60  89 114 146 198 251 297 355
#     4  10  21  37  60  86 118 159 198 234 290 362
#
# _framework density 18.421918000000002
#
# number of rings (size 3 to 8) (size 9 to 14) (size 15 to 20)
#    0.000    2.080    3.200    1.920    0.000    5.440 
#    0.000    0.400    3.520    0.960    0.000    3.360 
#    0.000    0.000    0.000    0.000    0.000    0.000 
#
# Total GULP energy -139548.130133 kJ/mol
# GULP energy per Si atom -5581.925205 kJ/mol
# Density = 1.837999 g / cm^3
# Si number density = 18.421918 Si / 1000 Ang^3
#
#
#
# Elastic Constant Matrix: (Units=GPa)
#
#
# Indices 1 2 3 4 5 6 
#
# 1 123.7646 69.0755 41.7111 0.0000 0.0000 0.0000
# 2 69.0755 99.2910 37.5976 0.0000 0.0000 0.0000
# 3 41.7111 37.5976 93.2983 0.0000 0.0000 0.0000
# 4 0.0000 0.0000 0.0000 -1.4945 0.0000 0.0000
# 5 0.0000 0.0000 0.0000 0.0000 33.3883 0.0000
# 6 0.0000 0.0000 0.0000 0.0000 0.0000 15.3849
#
#
#
# Elastic Compliance Matrix: (Units=1/GPa)
#
#
# Indices 1 2 3 4 5 6 
#
# 1 0.013765 -0.008550 -0.002708 0.000000 0.000000 0.000000
# 2 -0.008550 0.017196 -0.003107 0.000000 0.000000 0.000000
# 3 -0.002708 -0.003107 0.013181 0.000000 0.000000 0.000000
# 4 0.000000 0.000000 0.000000 -0.669138 0.000000 0.000000
# 5 0.000000 0.000000 0.000000 0.000000 0.029951 0.000000
# 6 0.000000 0.000000 0.000000 0.000000 0.000000 0.064999
#
#
# Mechanical properties :
#
#
# Convention : Reuss Voigt Hill
#
# Bulk Modulus (GPa) = 64.88978 68.12471 66.50725
# Shear Modulus (GPa) = -10.07703 20.65372 5.28835
#
# Velocity S-wave (km/s) = -2.34137 3.35199 1.69615
# Velocity P-wave (km/s) = 5.29069 7.21399 6.32586
#
# Compressibility (1/GPa) = 0.01541075
#
# Stress axis : x y z
#
# Youngs Moduli (GPa) = 72.64939 58.15162 75.86570
#
# Poissons Ratio (x) = 0.49722 0.20546
# Poissons Ratio (y) = 0.62119 0.23573
# Poissons Ratio (z) = 0.19675 0.18069
#
# Static dielectric constant tensor:
#      x y z
#    x 1.642720 0.000000 0.000000 
#    y 0.000000 1.652230 0.000000 
#    z 0.000000 0.000000 1.673730 
# 
# From -- ./inp_files/1649.got.cif
#   From: 2010.05.17/outbox.cif.g08.bks.cpg/sg16_1_cif.got.tgz:1649.got - 2010.06.03 22:28:35.
