data_PCOD9310034
_publ_section_title
;
Structure prediction by ZEFSAII (Michael W. Deem and Ramdas Pophale) SiO2 
 PCOD9310034
Probable space group: P 2 2 2
;
_chemical_formula_sum "Si O2"
_cell_formula_units_Z 32
_cell_length_a 13.197035
_cell_length_b 9.154219
_cell_length_c 12.119951
_cell_angle_alpha 90.000000
_cell_angle_beta 90.000000
_cell_angle_gamma 90.000000
_cell_volume 1464.193689
_symmetry_space_group_name_H-M "P 2 2 2"
_symmetry_group_IT_number 16
_symmetry_cell_setting 'orthorhombic'
loop_
_space_group_symop_operation_xyz
x,y,z
-x,-y,z
x,-y,-z
-x,y,-z
loop_
_atom_site_type_symbol
_atom_site_label
_atom_site_fract_x
_atom_site_fract_y
_atom_site_fract_z
Si Si1 0.887293 0.565765 0.387331
Si Si2 0.181401 0.827285 0.484993
Si Si3 0.611470 0.275983 0.557470
Si Si4 0.600592 0.302137 0.938634
Si Si5 0.602649 0.066834 0.761451
Si Si6 0.378808 0.496338 0.741317
Si Si7 0.195782 0.318590 0.737645
Si Si8 0.248272 0.878802 0.089505
O O1 0.839527 0.500000 0.500000
O O2 0.872321 0.736307 0.415128
O O3 0.836882 0.487791 0.282485
O O4 0.000000 0.500000 0.384921
O O5 0.299264 0.778524 0.479664
O O6 0.147329 0.768740 0.365211
O O7 0.170357 0.000000 0.500000
O O8 0.500000 0.272626 0.500000
O O9 0.633532 0.167491 0.660525
O O10 0.632823 0.428260 0.620843
O O11 0.566167 0.168552 0.861517
O O12 0.650507 0.415572 0.852990
O O13 0.500000 0.352990 0.000000
O O14 0.678737 0.230746 0.022853
O O15 0.500000 0.000000 0.717069
O O16 0.688760 0.965671 0.814809
O O17 0.500000 0.500000 0.752632
O O18 0.318007 0.345594 0.740613
O O19 0.170732 0.226031 0.845987
O O20 0.213047 0.000000 0.000000
#
# Coordination Sequence:
#
# PCOD9310034 Si02
#       8
#     4   4   4   4   4   4   4   4
#     4   9  20  43  70  95 127 164 201 258 324 385
#     4  11  23  39  63  94 133 168 209 259 307 385
#     4  11  24  34  49  82 128 180 218 253 302 380
#     4  10  19  33  50  73 108 158 217 277 311 356
#     4  10  20  32  49  72 112 169 217 258 308 367
#     4  11  23  35  51  78 120 167 223 260 307 375
#     4  11  22  39  61  88 126 163 208 261 322 381
#     4  10  21  35  55  79 117 157 216 271 328 370
#
# _framework density 21.855031
#
# number of rings (size 3 to 8) (size 9 to 14) (size 15 to 20)
#    0.000    1.625    2.500    2.250    5.250    3.000 
#    0.000    5.000    0.000    0.000    0.000    1.750 
#    3.750    0.000    0.000    0.000    0.000    0.000 
#
# Total GULP energy -178271.110962 kJ/mol
# GULP energy per Si atom -5570.972218 kJ/mol
# Density = 2.180529 g / cm^3
# Si number density = 21.855031 Si / 1000 Ang^3
#
#
#
# Elastic Constant Matrix: (Units=GPa)
#
#
# Indices 1 2 3 4 5 6 
#
# 1 55.6050 24.2432 19.2176 0.0000 0.0000 0.0000
# 2 24.2432 130.0492 48.6248 0.0000 0.0000 0.0000
# 3 19.2176 48.6248 113.5491 0.0000 0.0000 0.0000
# 4 0.0000 0.0000 0.0000 21.4025 0.0000 0.0000
# 5 0.0000 0.0000 0.0000 0.0000 8.3080 0.0000
# 6 0.0000 0.0000 0.0000 0.0000 0.0000 9.0361
#
#
#
# Elastic Compliance Matrix: (Units=1/GPa)
#
#
# Indices 1 2 3 4 5 6 
#
# 1 0.019998 -0.002932 -0.002129 0.000000 0.000000 0.000000
# 2 -0.002932 0.009585 -0.003608 0.000000 0.000000 0.000000
# 3 -0.002129 -0.003608 0.010712 0.000000 0.000000 0.000000
# 4 0.000000 0.000000 0.000000 0.046724 0.000000 0.000000
# 5 0.000000 0.000000 0.000000 0.000000 0.120366 0.000000
# 6 0.000000 0.000000 0.000000 0.000000 0.000000 0.110667
#
#
# Mechanical properties :
#
#
# Convention : Reuss Voigt Hill
#
# Bulk Modulus (GPa) = 43.56006 53.70827 48.63417
# Shear Modulus (GPa) = 14.57539 21.55715 18.06627
#
# Velocity S-wave (km/s) = 2.58527 3.14406 2.87826
# Velocity P-wave (km/s) = 5.37458 6.14884 5.77470
#
# Compressibility (1/GPa) = 0.02295681
#
# Stress axis : x y z
#
# Youngs Moduli (GPa) = 50.00471 104.32852 93.35060
#
# Poissons Ratio (x) = 0.30588 0.19875
# Poissons Ratio (y) = 0.14661 0.33685
# Poissons Ratio (z) = 0.10646 0.37646
#
# Static dielectric constant tensor:
#      x y z
#    x 1.968850 0.000000 0.000000 
#    y 0.000000 1.927830 0.000000 
#    z 0.000000 0.000000 1.927290 
# 
# From -- ./inp_files/7157.got.cif
#   From: 2010.05.17/outbox.cif.g08.bks.cpg/sg16_4_cif.got.tgz:7157.got - 2010.06.03 22:28:35.
