data_PCOD9310973
_publ_section_title
;
Structure prediction by ZEFSAII (Michael W. Deem and Ramdas Pophale) SiO2 
 PCOD9310973
Probable space group: P 2 2 21
;
_chemical_formula_sum "Si O2"
_cell_formula_units_Z 24
_cell_length_a 12.225321
_cell_length_b 8.303466
_cell_length_c 9.344067
_cell_angle_alpha 90.000000
_cell_angle_beta 90.000000
_cell_angle_gamma 90.000000
_cell_volume 948.539950
_symmetry_space_group_name_H-M "P 2 2 21"
_symmetry_group_IT_number 17
_symmetry_cell_setting 'orthorhombic'
loop_
_space_group_symop_operation_xyz
x,y,z
-x,-y,1/2+z
x,-y,-z
-x,y,1/2-z
loop_
_atom_site_type_symbol
_atom_site_label
_atom_site_fract_x
_atom_site_fract_y
_atom_site_fract_z
Si Si1 0.917000 0.156147 0.878421
Si Si2 0.326860 0.028329 0.658761
Si Si3 0.654225 0.840070 0.579188
Si Si4 0.390739 0.639052 0.182281
Si Si5 0.900663 0.249895 0.438695
Si Si6 0.154378 0.457878 0.777432
O O1 0.804746 0.058557 0.855250
O O2 0.881821 0.344765 0.852369
O O3 0.000000 0.112638 0.750000
O O4 0.986643 0.159717 0.025791
O O5 0.369418 0.191817 0.732703
O O6 0.367385 0.000000 0.500000
O O7 0.362125 0.876230 0.754493
O O8 0.610079 0.691312 0.485228
O O9 0.786764 0.843977 0.566320
O O10 0.613354 0.000000 0.500000
O O11 0.500000 0.569667 0.250000
O O12 0.284875 0.532094 0.214750
O O13 0.894521 0.367622 0.303329
O O14 0.881631 0.356003 0.582808
#
# Coordination Sequence:
#
# PCOD9310973 Si02
#       6
#     4   4   4   4   4   4
#     4   9  17  31  50  75 109 150 194 240 293 350
#     4  10  21  34  50  80 119 151 192 248 293 351
#     4   9  18  34  55  79 107 146 195 240 288 354
#     4   9  18  35  60  82 106 148 195 245 308 363
#     4   9  16  31  54  75 104 150 192 232 289 359
#     4   8  16  31  52  79 107 138 191 247 293 354
#
# _framework density 25.302043999999999
#
# number of rings (size 3 to 8) (size 9 to 14) (size 15 to 20)
#    0.000    3.000    0.000    3.000    0.000    4.000 
#    0.000   11.667    0.000   15.000    0.000    0.000 
#    0.000    0.000    0.000    0.000    0.000    0.000 
#
# Total GULP energy -134081.184126 kJ/mol
# GULP energy per Si atom -5586.716005 kJ/mol
# Density = 2.524446 g / cm^3
# Si number density = 25.302044 Si / 1000 Ang^3
#
#
#
# Elastic Constant Matrix: (Units=GPa)
#
#
# Indices 1 2 3 4 5 6 
#
# 1 181.3486 23.2880 40.1243 0.0000 0.0000 0.0000
# 2 23.2880 72.8453 35.3934 0.0000 0.0000 0.0000
# 3 40.1243 35.3934 127.6412 0.0000 0.0000 0.0000
# 4 0.0000 0.0000 0.0000 24.8016 0.0000 0.0000
# 5 0.0000 0.0000 0.0000 0.0000 16.9656 0.0000
# 6 0.0000 0.0000 0.0000 0.0000 0.0000 -1.8576
#
#
#
# Elastic Compliance Matrix: (Units=1/GPa)
#
#
# Indices 1 2 3 4 5 6 
#
# 1 0.006010 -0.001160 -0.001568 0.000000 0.000000 0.000000
# 2 -0.001160 0.016089 -0.004097 0.000000 0.000000 0.000000
# 3 -0.001568 -0.004097 0.009463 0.000000 0.000000 0.000000
# 4 0.000000 0.000000 0.000000 0.040320 0.000000 0.000000
# 5 0.000000 0.000000 0.000000 0.000000 0.058943 0.000000
# 6 0.000000 0.000000 0.000000 0.000000 0.000000 -0.538330
#
#
# Mechanical properties :
#
#
# Convention : Reuss Voigt Hill
#
# Bulk Modulus (GPa) = 55.82215 64.38294 60.10255
# Shear Modulus (GPa) = -12.89041 26.85056 6.98007
#
# Velocity S-wave (km/s) = -2.25957 3.26114 1.66274
# Velocity P-wave (km/s) = 3.91186 6.29929 5.24327
#
# Compressibility (1/GPa) = 0.01791403
#
# Stress axis : x y z
#
# Youngs Moduli (GPa) = 166.38872 62.15450 105.67200
#
# Poissons Ratio (x) = 0.07208 0.16566
# Poissons Ratio (y) = 0.19295 0.43291
# Poissons Ratio (z) = 0.26085 0.25463
#
# Static dielectric constant tensor:
#      x y z
#    x 2.009750 0.000000 0.000000 
#    y 0.000000 2.049010 0.000000 
#    z 0.000000 0.000000 2.015740 
# 
# From -- ./inp_files/4756.got.cif
#   From: 2010.05.17/outbox.cif.g08.bks.cpg/sg17_3_cif.got.tgz:4756.got - 2010.06.03 22:34:06.
