data_PCOD9310606
_publ_section_title
;
Structure prediction by ZEFSAII (Michael W. Deem and Ramdas Pophale) SiO2 
 PCOD9310606
Probable space group: P 2 2 21
;
_chemical_formula_sum "Si O2"
_cell_formula_units_Z 18
_cell_length_a 4.962904
_cell_length_b 7.706370
_cell_length_c 16.820766
_cell_angle_alpha 90.000000
_cell_angle_beta 90.000000
_cell_angle_gamma 90.000000
_cell_volume 643.326587
_symmetry_space_group_name_H-M "P 2 2 21"
_symmetry_group_IT_number 17
_symmetry_cell_setting 'orthorhombic'
loop_
_space_group_symop_operation_xyz
x,y,z
-x,-y,1/2+z
x,-y,-z
-x,y,1/2-z
loop_
_atom_site_type_symbol
_atom_site_label
_atom_site_fract_x
_atom_site_fract_y
_atom_site_fract_z
Si Si1 0.500000 0.702021 0.250000
Si Si2 0.890562 0.939466 0.161275
Si Si3 0.521821 0.391306 0.331583
Si Si4 0.902639 0.386373 0.930025
Si Si5 0.457337 0.162583 0.455975
O O1 0.635553 0.825399 0.188057
O O2 0.678146 0.559019 0.297882
O O3 0.038677 0.785455 0.110383
O O4 0.000000 0.989245 0.250000
O O5 0.779006 0.085539 0.102010
O O6 0.500000 0.284361 0.250000
O O7 0.253220 0.480210 0.369819
O O8 0.645150 0.267051 0.396205
O O9 0.046525 0.500000 0.000000
O O10 0.666035 0.292829 0.980811
O O11 0.581496 0.000000 0.500000
#
# Coordination Sequence:
#
# PCOD9310606 Si02
#       5
#     2   4   4   4   4
#     4   8  18  32  52  78 106 132 178 232 258 306
#     4  10  19  32  54  83 106 141 180 225 269 321
#     4   8  15  29  52  78 103 134 184 229 252 324
#     4   8  15  32  53  75 103 144 181 216 276 328
#     4   9  17  29  51  79 105 145 177 216 286 332
#
# _framework density 27.979565000000001
#
# number of rings (size 3 to 8) (size 9 to 14) (size 15 to 20)
#    0.667    2.667    0.000    0.000    1.556    0.000 
#    0.000   10.000    0.000   33.333    0.000    0.000 
#    0.000    0.000    0.000    0.000    0.000    0.000 
#
# Total GULP energy -100229.500022 kJ/mol
# GULP energy per Si atom -5568.305557 kJ/mol
# Density = 2.791588 g / cm^3
# Si number density = 27.979565 Si / 1000 Ang^3
#
#
#
# Elastic Constant Matrix: (Units=GPa)
#
#
# Indices 1 2 3 4 5 6 
#
# 1 47.6275 31.7325 43.0325 0.0000 0.0000 0.0000
# 2 31.7325 127.5089 75.2383 0.0000 0.0000 0.0000
# 3 43.0325 75.2383 196.6307 0.0000 0.0000 0.0000
# 4 0.0000 0.0000 0.0000 85.7306 0.0000 0.0000
# 5 0.0000 0.0000 0.0000 0.0000 31.5489 0.0000
# 6 0.0000 0.0000 0.0000 0.0000 0.0000 -338.8950
#
#
#
# Elastic Compliance Matrix: (Units=1/GPa)
#
#
# Indices 1 2 3 4 5 6 
#
# 1 0.027895 -0.004314 -0.004454 0.000000 0.000000 0.000000
# 2 -0.004314 0.010797 -0.003187 0.000000 0.000000 0.000000
# 3 -0.004454 -0.003187 0.007280 0.000000 0.000000 0.000000
# 4 0.000000 0.000000 0.000000 0.011664 0.000000 0.000000
# 5 0.000000 0.000000 0.000000 0.000000 0.031697 0.000000
# 6 0.000000 0.000000 0.000000 0.000000 0.000000 -0.002951
#
#
# Mechanical properties :
#
#
# Convention : Reuss Voigt Hill
#
# Bulk Modulus (GPa) = 45.32815 74.64150 59.98482
# Shear Modulus (GPa) = 42.50033 -29.53883 6.48075
#
# Velocity S-wave (km/s) = 3.90163 -3.25272 1.52357
# Velocity P-wave (km/s) = 6.04422 3.55361 4.95786
#
# Compressibility (1/GPa) = 0.02206135
#
# Stress axis : x y z
#
# Youngs Moduli (GPa) = 35.84893 92.62010 137.36269
#
# Poissons Ratio (x) = 0.39955 0.61183
# Poissons Ratio (y) = 0.15465 0.43780
# Poissons Ratio (z) = 0.15968 0.29520
#
# Static dielectric constant tensor:
#      x y z
#    x 2.306560 0.000000 0.000000 
#    y 0.000000 2.201370 0.000000 
#    z 0.000000 0.000000 2.503210 
# 
# From -- ./inp_files/7906.got.cif
#   From: 2010.05.17/outbox.cif.g08.bks.cpg/sg17_4_cif.got.tgz:7906.got - 2010.06.03 22:34:06.
