data_PCOD9310585
_publ_section_title
;
Structure prediction by ZEFSAII (Michael W. Deem and Ramdas Pophale) SiO2 
 PCOD9310585
Probable space group: P 2 2 21
;
_chemical_formula_sum "Si O2"
_cell_formula_units_Z 20
_cell_length_a 28.797689
_cell_length_b 5.289161
_cell_length_c 5.090044
_cell_angle_alpha 90.000000
_cell_angle_beta 90.000000
_cell_angle_gamma 90.000000
_cell_volume 775.293175
_symmetry_space_group_name_H-M "P 2 2 21"
_symmetry_group_IT_number 17
_symmetry_cell_setting 'orthorhombic'
loop_
_space_group_symop_operation_xyz
x,y,z
-x,-y,1/2+z
x,-y,-z
-x,y,1/2-z
loop_
_atom_site_type_symbol
_atom_site_label
_atom_site_fract_x
_atom_site_fract_y
_atom_site_fract_z
Si Si1 0.249541 0.749856 0.184039
Si Si2 0.848942 0.245817 0.676821
Si Si3 0.951485 0.321522 0.755544
Si Si4 0.553706 0.749929 0.330799
Si Si5 0.348567 0.249979 0.815290
O O1 0.199950 0.745925 0.333935
O O2 0.249213 0.500000 0.000000
O O3 0.299047 0.749560 0.333138
O O4 0.250215 0.000000 0.000000
O O5 0.849997 0.500000 0.500000
O O6 0.900018 0.213113 0.798957
O O7 0.844800 0.000000 0.500000
O O8 0.947970 0.500000 0.500000
O O9 0.000000 0.163988 0.750000
O O10 0.958610 0.500000 0.000000
O O11 0.557425 0.500000 0.500000
O O12 0.500000 0.250737 0.750000
O O13 0.601775 0.750017 0.162958
O O14 0.557188 0.000000 0.500000
O O15 0.347942 0.500000 0.000000
O O16 0.348221 0.000000 0.000000
#
# Coordination Sequence:
#
# PCOD9310585 Si02
#       5
#     4   4   4   4   4
#     4   8  13  23  42  67  94 123 161 207 253 305
#     4   9  17  31  51  77 105 135 174 220 272 327
#     4   9  18  35  57  82 113 149 189 233 282 336
#     4  10  19  31  47  68  95 127 166 207 253 307
#     4   8  14  24  40  64  90 120 160 203 247 303
#
# _framework density 25.796693999999999
#
# number of rings (size 3 to 8) (size 9 to 14) (size 15 to 20)
#    0.000    3.200    0.000    0.600    0.000    0.000 
#    0.000   12.000    0.000    1.200    0.000   11.200 
#    0.000    0.000    0.000    0.000    0.000    0.000 
#
# Total GULP energy -111368.842257 kJ/mol
# GULP energy per Si atom -5568.442113 kJ/mol
# Density = 2.573798 g / cm^3
# Si number density = 25.796694 Si / 1000 Ang^3
#
#
#
# Elastic Constant Matrix: (Units=GPa)
#
#
# Indices 1 2 3 4 5 6 
#
# 1 428.7973 -9.6283 2.5380 0.0000 0.0000 0.0000
# 2 -9.6283 197.8094 34.3703 0.0000 0.0000 0.0000
# 3 2.5380 34.3703 51.3948 0.0000 0.0000 0.0000
# 4 0.0000 0.0000 0.0000 53.3099 0.0000 0.0000
# 5 0.0000 0.0000 0.0000 0.0000 -6.0970 0.0000
# 6 0.0000 0.0000 0.0000 0.0000 0.0000 -10.5149
#
#
#
# Elastic Compliance Matrix: (Units=1/GPa)
#
#
# Indices 1 2 3 4 5 6 
#
# 1 0.002337 0.000151 -0.000217 0.000000 0.000000 0.000000
# 2 0.000151 0.005730 -0.003839 0.000000 0.000000 0.000000
# 3 -0.000217 -0.003839 0.022035 0.000000 0.000000 0.000000
# 4 0.000000 0.000000 0.000000 0.018758 0.000000 0.000000
# 5 0.000000 0.000000 0.000000 0.000000 -0.164015 0.000000
# 6 0.000000 0.000000 0.000000 0.000000 0.000000 -0.095103
#
#
# Mechanical properties :
#
#
# Convention : Reuss Voigt Hill
#
# Bulk Modulus (GPa) = 44.85721 81.39572 63.12646
# Shear Modulus (GPa) = -25.63868 50.72104 12.54118
#
# Velocity S-wave (km/s) = -3.15600 4.43898 2.20728
# Velocity P-wave (km/s) = 2.03619 7.60881 5.56956
#
# Compressibility (1/GPa) = 0.02229296
#
# Stress axis : x y z
#
# Youngs Moduli (GPa) = 427.93829 174.52496 45.38141
#
# Poissons Ratio (x) = -0.02642 0.00983
# Poissons Ratio (y) = -0.06478 0.17423
# Poissons Ratio (z) = 0.09271 0.67006
#
# Static dielectric constant tensor:
#      x y z
#    x 2.329660 0.000000 0.000000 
#    y 0.000000 1.953890 0.000000 
#    z 0.000000 0.000000 2.437110 
# 
# From -- ./inp_files/3225.got.cif
#   From: 2010.05.17/outbox.cif.g08.bks.cpg/sg17_2_cif.got.tgz:3225.got - 2010.06.03 22:34:06.
