data_PCOD9310226
_publ_section_title
;
Structure prediction by ZEFSAII (Michael W. Deem and Ramdas Pophale) SiO2 
 PCOD9310226
Probable space group: P 2 2 2
;
_chemical_formula_sum "Si O2"
_cell_formula_units_Z 32
_cell_length_a 11.555946
_cell_length_b 11.525245
_cell_length_c 11.848418
_cell_angle_alpha 90.000000
_cell_angle_beta 90.000000
_cell_angle_gamma 90.000000
_cell_volume 1578.032841
_symmetry_space_group_name_H-M "P 2 2 2"
_symmetry_group_IT_number 16
_symmetry_cell_setting 'orthorhombic'
loop_
_space_group_symop_operation_xyz
x,y,z
-x,-y,z
x,-y,-z
-x,y,-z
loop_
_atom_site_type_symbol
_atom_site_label
_atom_site_fract_x
_atom_site_fract_y
_atom_site_fract_z
Si Si1 0.756167 0.765350 0.074324
Si Si2 0.123104 0.130829 0.456549
Si Si3 0.813905 0.223741 0.188412
Si Si4 0.870200 0.034788 0.791945
Si Si5 0.648012 0.601203 0.688625
Si Si6 0.391390 0.652224 0.758562
Si Si7 0.973476 0.628324 0.133777
Si Si8 0.631350 0.246142 0.520525
O O1 0.799008 0.890065 0.118240
O O2 0.638006 0.717534 0.125961
O O3 0.843814 0.673545 0.133682
O O4 0.768024 0.765231 0.940241
O O5 0.121801 0.111727 0.321416
O O6 0.244319 0.184661 0.500320
O O7 0.000000 0.184773 0.500000
O O8 0.122126 0.000000 0.500000
O O9 0.741511 0.310521 0.264266
O O10 0.943456 0.275064 0.185977
O O11 0.811527 0.090633 0.227168
O O12 0.000000 0.000000 0.831102
O O13 0.527054 0.628770 0.749086
O O14 0.670808 0.469219 0.724823
O O15 0.631516 0.637008 0.557111
O O16 0.362918 0.734066 0.653614
O O17 0.000000 0.500000 0.179717
O O18 0.000000 0.624367 0.000000
O O19 0.500000 0.194542 0.500000
#
# Coordination Sequence:
#
# PCOD9310226 Si02
#       8
#     4   4   4   4   4   4   4   4
#     4  11  22  37  60  87 123 164 211 252 310 368
#     4  11  22  37  61  94 126 164 207 261 321 373
#     4  11  23  37  58  90 121 163 211 259 304 366
#     4  12  22  39  62  88 125 167 210 255 312 380
#     4  10  22  39  65  91 122 159 210 256 317 379
#     4  10  21  41  64  91 120 164 205 259 314 382
#     4   9  18  32  52  80 115 153 195 246 299 357
#     4  10  21  40  65  92 123 164 211 258 317 392
#
# _framework density 20.278413
#
# number of rings (size 3 to 8) (size 9 to 14) (size 15 to 20)
#    0.000    1.500    3.750    2.250    0.000    4.250 
#    0.000    1.875    0.000    2.250    0.000    0.000 
#    0.000    0.000    0.000    0.000    0.000    0.000 
#
# Total GULP energy -178320.110362 kJ/mol
# GULP energy per Si atom -5572.503449 kJ/mol
# Density = 2.023226 g / cm^3
# Si number density = 20.278413 Si / 1000 Ang^3
#
#
#
# Elastic Constant Matrix: (Units=GPa)
#
#
# Indices 1 2 3 4 5 6 
#
# 1 88.9057 27.4679 9.1038 0.0000 0.0000 0.0000
# 2 27.4679 53.8295 -6.8240 0.0000 0.0000 0.0000
# 3 9.1038 -6.8240 67.3335 0.0000 0.0000 0.0000
# 4 0.0000 0.0000 0.0000 18.6841 0.0000 0.0000
# 5 0.0000 0.0000 0.0000 0.0000 24.3150 0.0000
# 6 0.0000 0.0000 0.0000 0.0000 0.0000 21.0271
#
#
#
# Elastic Compliance Matrix: (Units=1/GPa)
#
#
# Indices 1 2 3 4 5 6 
#
# 1 0.013792 -0.007369 -0.002612 0.000000 0.000000 0.000000
# 2 -0.007369 0.022756 0.003303 0.000000 0.000000 0.000000
# 3 -0.002612 0.003303 0.015539 0.000000 0.000000 0.000000
# 4 0.000000 0.000000 0.000000 0.053521 0.000000 0.000000
# 5 0.000000 0.000000 0.000000 0.000000 0.041127 0.000000
# 6 0.000000 0.000000 0.000000 0.000000 0.000000 0.047558
#
#
# Mechanical properties :
#
#
# Convention : Reuss Voigt Hill
#
# Bulk Modulus (GPa) = 25.81871 29.95155 27.88513
# Shear Modulus (GPa) = 22.66968 24.82666 23.74817
#
# Velocity S-wave (km/s) = 3.34716 3.50278 3.42586
# Velocity P-wave (km/s) = 5.26286 5.58225 5.42491
#
# Compressibility (1/GPa) = 0.03873160
#
# Stress axis : x y z
#
# Youngs Moduli (GPa) = 72.50631 43.94454 64.35326
#
# Poissons Ratio (x) = 0.32382 0.16806
# Poissons Ratio (y) = 0.53428 -0.21253
# Poissons Ratio (z) = 0.18935 -0.14513
#
# Static dielectric constant tensor:
#      x y z
#    x 1.795500 0.000000 0.000000 
#    y 0.000000 1.728040 0.000000 
#    z 0.000000 0.000000 1.759670 
# 
# From -- ./inp_files/6942.got.cif
#   From: 2010.05.17/outbox.cif.g08.bks.cpg/sg16_4_cif.got.tgz:6942.got - 2010.06.03 22:28:35.
