data_PCOD9310531
_publ_section_title
;
Structure prediction by ZEFSAII (Michael W. Deem and Ramdas Pophale) SiO2 
 PCOD9310531
Probable space group: P 2 2 21
;
_chemical_formula_sum "Si O2"
_cell_formula_units_Z 24
_cell_length_a 15.096658
_cell_length_b 14.267595
_cell_length_c 6.195116
_cell_angle_alpha 90.000000
_cell_angle_beta 90.000000
_cell_angle_gamma 90.000000
_cell_volume 1334.384634
_symmetry_space_group_name_H-M "P 2 2 21"
_symmetry_group_IT_number 17
_symmetry_cell_setting 'orthorhombic'
loop_
_space_group_symop_operation_xyz
x,y,z
-x,-y,1/2+z
x,-y,-z
-x,y,1/2-z
loop_
_atom_site_type_symbol
_atom_site_label
_atom_site_fract_x
_atom_site_fract_y
_atom_site_fract_z
Si Si1 0.244338 0.396779 0.570652
Si Si2 0.085435 0.899000 0.890427
Si Si3 0.320125 0.268045 0.189913
Si Si4 0.255469 0.103114 0.428550
Si Si5 0.414312 0.600958 0.110098
Si Si6 0.820379 0.231874 0.690798
O O1 0.215492 0.500000 0.500000
O O2 0.279038 0.340383 0.362231
O O3 0.327808 0.404628 0.735081
O O4 0.171437 0.330713 0.685629
O O5 0.172093 0.904886 0.736131
O O6 0.000000 0.876958 0.750000
O O7 0.099690 0.820142 0.072617
O O8 0.074041 0.000000 0.000000
O O9 0.328344 0.169234 0.313626
O O10 0.400101 0.320034 0.071816
O O11 0.249897 0.249923 0.999531
O O12 0.220624 0.159590 0.636693
O O13 0.284350 0.000000 0.500000
O O14 0.500000 0.622552 0.250000
O O15 0.425207 0.500000 0.000000
#
# Coordination Sequence:
#
# PCOD9310531 Si02
#       6
#     4   4   4   4   4   4
#     4  10  18  34  54  75 112 144 186 230 272 327
#     4  11  21  31  49  80 118 147 173 222 292 350
#     4   9  20  33  49  77 114 138 180 226 272 327
#     4  10  18  34  54  75 112 144 186 230 272 327
#     4  11  21  31  49  80 118 147 173 222 292 350
#     4   9  20  33  49  77 114 138 180 226 272 327
#
# _framework density 17.98582
#
# number of rings (size 3 to 8) (size 9 to 14) (size 15 to 20)
#    0.000    2.000    3.333    1.000    0.000    0.000 
#    0.000    0.000    0.000    0.000    0.000    0.000 
#  360.000    0.000    0.000    0.000    0.000    0.000 
#
# Total GULP energy -133822.038445 kJ/mol
# GULP energy per Si atom -5575.918269 kJ/mol
# Density = 1.794488 g / cm^3
# Si number density = 17.985820 Si / 1000 Ang^3
#
#
#
# Elastic Constant Matrix: (Units=GPa)
#
#
# Indices 1 2 3 4 5 6 
#
# 1 48.5868 43.3523 29.6928 0.0000 0.0000 0.0000
# 2 43.3523 180.8232 69.0928 0.0000 0.0000 0.0000
# 3 29.6928 69.0928 109.6475 0.0000 0.0000 0.0000
# 4 0.0000 0.0000 0.0000 46.9013 0.0000 0.0000
# 5 0.0000 0.0000 0.0000 0.0000 37.3993 0.0000
# 6 0.0000 0.0000 0.0000 0.0000 0.0000 10.4213
#
#
#
# Elastic Compliance Matrix: (Units=1/GPa)
#
#
# Indices 1 2 3 4 5 6 
#
# 1 0.027683 -0.004969 -0.004366 0.000000 0.000000 0.000000
# 2 -0.004969 0.008176 -0.003806 0.000000 0.000000 0.000000
# 3 -0.004366 -0.003806 0.012701 0.000000 0.000000 0.000000
# 4 0.000000 0.000000 0.000000 0.021321 0.000000 0.000000
# 5 0.000000 0.000000 0.000000 0.000000 0.026738 0.000000
# 6 0.000000 0.000000 0.000000 0.000000 0.000000 0.095958
#
#
# Mechanical properties :
#
#
# Convention : Reuss Voigt Hill
#
# Bulk Modulus (GPa) = 44.88666 69.25924 57.07295
# Shear Modulus (GPa) = 22.09596 32.07234 27.08415
#
# Velocity S-wave (km/s) = 3.50883 4.22738 3.88475
# Velocity P-wave (km/s) = 6.43636 7.90056 7.20575
#
# Compressibility (1/GPa) = 0.02227833
#
# Stress axis : x y z
#
# Youngs Moduli (GPa) = 36.12287 122.30925 78.73476
#
# Poissons Ratio (x) = 0.60775 0.34372
# Poissons Ratio (y) = 0.17949 0.29969
# Poissons Ratio (z) = 0.15770 0.46555
#
# Static dielectric constant tensor:
#      x y z
#    x 1.589390 0.000000 0.000000 
#    y 0.000000 1.630230 0.000000 
#    z 0.000000 0.000000 1.639850 
# 
# From -- ./inp_files/2181.got.cif
#   From: 2010.05.17/outbox.cif.g08.bks.cpg/sg17_2_cif.got.tgz:2181.got - 2010.06.03 22:34:06.
