data_PCOD9310659
_publ_section_title
;
Structure prediction by ZEFSAII (Michael W. Deem and Ramdas Pophale) SiO2 
 PCOD9310659
Probable space group: P 2 2 21
;
_chemical_formula_sum "Si O2"
_cell_formula_units_Z 14
_cell_length_a 7.564698
_cell_length_b 6.662063
_cell_length_c 9.199225
_cell_angle_alpha 90.000000
_cell_angle_beta 90.000000
_cell_angle_gamma 90.000000
_cell_volume 463.608694
_symmetry_space_group_name_H-M "P 2 2 21"
_symmetry_group_IT_number 17
_symmetry_cell_setting 'orthorhombic'
loop_
_space_group_symop_operation_xyz
x,y,z
-x,-y,1/2+z
x,-y,-z
-x,y,1/2-z
loop_
_atom_site_type_symbol
_atom_site_label
_atom_site_fract_x
_atom_site_fract_y
_atom_site_fract_z
Si Si1 0.000000 0.232359 0.250000
Si Si2 0.358438 0.798825 0.628568
Si Si3 0.114369 0.234461 0.954748
Si Si4 0.723638 0.324137 0.833914
O O1 0.835442 0.120053 0.175700
O O2 0.899343 0.336721 0.385431
O O3 0.500000 0.858499 0.750000
O O4 0.382698 0.808063 0.453608
O O5 0.332586 0.555479 0.648382
O O6 0.265354 0.274986 0.836498
O O7 0.924745 0.291148 0.887717
O O8 0.130661 0.000000 0.000000
#
# Coordination Sequence:
#
# PCOD9310659 Si02
#       4
#     2   4   4   4
#     4  10  20  34  60  92 122 164 220 270 336 410
#     4  10  21  38  61  92 130 169 217 283 345 404
#     4  10  19  35  61  91 129 179 228 274 328 406
#     4   9  20  36  57  91 131 172 223 274 339 411
#
# _framework density 30.197877999999999
#
# number of rings (size 3 to 8) (size 9 to 14) (size 15 to 20)
#    0.000    2.286    0.000    3.429    0.000    8.000 
#    0.000    0.000    0.000   27.429    0.000    0.000 
#    0.000    0.000    0.000    0.000    0.000    0.000 
#
# Total GULP energy -78319.301480 kJ/mol
# GULP energy per Si atom -5594.235820 kJ/mol
# Density = 3.012915 g / cm^3
# Si number density = 30.197878 Si / 1000 Ang^3
#
#
#
# Elastic Constant Matrix: (Units=GPa)
#
#
# Indices 1 2 3 4 5 6 
#
# 1 153.9460 10.1965 97.7046 0.0000 0.0000 0.0000
# 2 10.1965 110.9630 13.0545 0.0000 0.0000 0.0000
# 3 97.7046 13.0545 327.8633 0.0000 0.0000 0.0000
# 4 0.0000 0.0000 0.0000 53.9270 0.0000 0.0000
# 5 0.0000 0.0000 0.0000 0.0000 77.7423 0.0000
# 6 0.0000 0.0000 0.0000 0.0000 0.0000 24.9547
#
#
#
# Elastic Compliance Matrix: (Units=1/GPa)
#
#
# Indices 1 2 3 4 5 6 
#
# 1 0.008034 -0.000459 -0.002376 0.000000 0.000000 0.000000
# 2 -0.000459 0.009081 -0.000225 0.000000 0.000000 0.000000
# 3 -0.002376 -0.000225 0.003767 0.000000 0.000000 0.000000
# 4 0.000000 0.000000 0.000000 0.018544 0.000000 0.000000
# 5 0.000000 0.000000 0.000000 0.000000 0.012863 0.000000
# 6 0.000000 0.000000 0.000000 0.000000 0.000000 0.040073
#
#
# Mechanical properties :
#
#
# Convention : Reuss Voigt Hill
#
# Bulk Modulus (GPa) = 67.73825 92.74262 80.24044
# Shear Modulus (GPa) = 48.35547 62.77924 55.56735
#
# Velocity S-wave (km/s) = 4.00595 4.56447 4.29430
# Velocity P-wave (km/s) = 6.62397 7.65229 7.15662
#
# Compressibility (1/GPa) = 0.01476271
#
# Stress axis : x y z
#
# Youngs Moduli (GPa) = 124.46953 110.12463 265.46036
#
# Poissons Ratio (x) = 0.05052 0.63071
# Poissons Ratio (y) = 0.05710 0.05969
# Poissons Ratio (z) = 0.29573 0.02476
#
# Static dielectric constant tensor:
#      x y z
#    x 2.217860 0.000000 0.000000 
#    y 0.000000 2.679070 0.000000 
#    z 0.000000 0.000000 2.420440 
# 
# From -- ./inp_files/3666.got.cif
#   From: 2010.05.17/outbox.cif.g08.bks.cpg/sg17_2_cif.got.tgz:3666.got - 2010.06.03 22:34:06.
