data_PCOD9310753
_publ_section_title
;
Structure prediction by ZEFSAII (Michael W. Deem and Ramdas Pophale) SiO2 
 PCOD9310753
Probable space group: P 2 2 21
;
_chemical_formula_sum "Si O2"
_cell_formula_units_Z 24
_cell_length_a 17.437016
_cell_length_b 7.625752
_cell_length_c 7.138487
_cell_angle_alpha 90.000000
_cell_angle_beta 90.000000
_cell_angle_gamma 90.000000
_cell_volume 949.207184
_symmetry_space_group_name_H-M "P 2 2 21"
_symmetry_group_IT_number 17
_symmetry_cell_setting 'orthorhombic'
loop_
_space_group_symop_operation_xyz
x,y,z
-x,-y,1/2+z
x,-y,-z
-x,y,1/2-z
loop_
_atom_site_type_symbol
_atom_site_label
_atom_site_fract_x
_atom_site_fract_y
_atom_site_fract_z
Si Si1 0.819409 0.500000 0.000000
Si Si2 0.096048 0.000000 0.500000
Si Si3 0.668925 0.892476 0.273103
Si Si4 0.572340 0.500000 0.000000
Si Si5 0.832453 0.224999 0.690233
Si Si6 0.018712 0.292549 0.966917
Si Si7 0.500000 0.779685 0.250000
Si Si8 0.310237 0.261705 0.354727
O O1 0.853118 0.611375 0.171415
O O2 0.769357 0.358049 0.113807
O O3 0.148150 0.938226 0.326786
O O4 0.041136 0.838651 0.564070
O O5 0.742354 0.786835 0.356318
O O6 0.578397 0.873666 0.312938
O O7 0.685363 0.099720 0.283708
O O8 0.673029 0.823095 0.058543
O O9 0.522244 0.345486 0.920680
O O10 0.627163 0.583150 0.839394
O O11 0.891835 0.239407 0.519584
O O12 0.000000 0.252774 0.750000
O O13 0.008477 0.500000 0.000000
#
# Coordination Sequence:
#
# PCOD9310753 Si02
#       8
#     2   2   4   2   4   4   2   4
#     4   9  16  30  58  96 115 150 202 256 291 354
#     4  10  22  40  60  88 120 160 204 260 296 370
#     4   9  17  33  54  86 119 160 197 255 296 362
#     4   9  18  32  52  82 109 156 204 256 299 350
#     4  10  20  37  61  93 124 157 209 249 315 367
#     4  10  24  43  64  94 124 162 203 257 320 383
#     4  10  20  34  56  82 124 162 206 250 304 354
#     4   8  15  30  54  81 113 150 213 251 285 339
#
# _framework density 25.284258000000001
#
# number of rings (size 3 to 8) (size 9 to 14) (size 15 to 20)
#    0.000    2.667    0.000    3.000    4.667    2.667 
#    4.500    0.000    0.000    4.000    0.000    0.000 
#    0.000    0.000    0.000    0.000    0.000    0.000 
#
# Total GULP energy -133968.343199 kJ/mol
# GULP energy per Si atom -5582.014300 kJ/mol
# Density = 2.522671 g / cm^3
# Si number density = 25.284258 Si / 1000 Ang^3
#
#
#
# Elastic Constant Matrix: (Units=GPa)
#
#
# Indices 1 2 3 4 5 6 
#
# 1 168.6609 43.5677 15.3612 0.0000 0.0000 0.0000
# 2 43.5677 120.1123 1.0040 0.0000 0.0000 0.0000
# 3 15.3612 1.0040 40.4195 0.0000 0.0000 0.0000
# 4 0.0000 0.0000 0.0000 25.6992 0.0000 0.0000
# 5 0.0000 0.0000 0.0000 0.0000 10.4860 0.0000
# 6 0.0000 0.0000 0.0000 0.0000 0.0000 44.4265
#
#
#
# Elastic Compliance Matrix: (Units=1/GPa)
#
#
# Indices 1 2 3 4 5 6 
#
# 1 0.006789 -0.002442 -0.002520 0.000000 0.000000 0.000000
# 2 -0.002442 0.009205 0.000699 0.000000 0.000000 0.000000
# 3 -0.002520 0.000699 0.025681 0.000000 0.000000 0.000000
# 4 0.000000 0.000000 0.000000 0.038912 0.000000 0.000000
# 5 0.000000 0.000000 0.000000 0.000000 0.095365 0.000000
# 6 0.000000 0.000000 0.000000 0.000000 0.000000 0.022509
#
#
# Mechanical properties :
#
#
# Convention : Reuss Voigt Hill
#
# Bulk Modulus (GPa) = 30.16453 49.89537 40.02995
# Shear Modulus (GPa) = 22.93207 34.07301 28.50254
#
# Velocity S-wave (km/s) = 3.01486 3.67495 3.36115
# Velocity P-wave (km/s) = 4.90665 6.14684 5.56142
#
# Compressibility (1/GPa) = 0.03315152
#
# Stress axis : x y z
#
# Youngs Moduli (GPa) = 147.29223 108.63297 38.93971
#
# Poissons Ratio (x) = 0.26523 0.09811
# Poissons Ratio (y) = 0.35962 -0.02723
# Poissons Ratio (z) = 0.37111 -0.07596
#
# Static dielectric constant tensor:
#      x y z
#    x 2.094300 0.000000 0.000000 
#    y 0.000000 2.059700 0.000000 
#    z 0.000000 0.000000 2.040180 
# 
# From -- ./inp_files/5454.got.cif
#   From: 2010.05.17/outbox.cif.g08.bks.cpg/sg17_3_cif.got.tgz:5454.got - 2010.06.03 22:34:06.
