data_PCOD9310936
_publ_section_title
;
Structure prediction by ZEFSAII (Michael W. Deem and Ramdas Pophale) SiO2 
 PCOD9310936
Probable space group: P 2 2 21
;
_chemical_formula_sum "Si O2"
_cell_formula_units_Z 20
_cell_length_a 8.443283
_cell_length_b 18.295842
_cell_length_c 5.627957
_cell_angle_alpha 90.000000
_cell_angle_beta 90.000000
_cell_angle_gamma 90.000000
_cell_volume 869.389754
_symmetry_space_group_name_H-M "P 2 2 21"
_symmetry_group_IT_number 17
_symmetry_cell_setting 'orthorhombic'
loop_
_space_group_symop_operation_xyz
x,y,z
-x,-y,1/2+z
x,-y,-z
-x,y,1/2-z
loop_
_atom_site_type_symbol
_atom_site_label
_atom_site_fract_x
_atom_site_fract_y
_atom_site_fract_z
Si Si1 0.500000 0.714704 0.250000
Si Si2 0.500000 0.542622 0.750000
Si Si3 0.838841 0.918972 0.393264
Si Si4 0.500000 0.044510 0.750000
Si Si5 0.250609 0.354094 0.420700
Si Si6 0.000000 0.673614 0.250000
Si Si7 0.765021 0.229051 0.437047
O O1 0.378249 0.661512 0.377352
O O2 0.590857 0.762251 0.447448
O O3 0.490913 0.500000 0.500000
O O4 0.659966 0.592008 0.743339
O O5 0.672316 0.916257 0.247870
O O6 0.816132 0.854436 0.583842
O O7 0.000000 0.904541 0.250000
O O8 0.853155 0.000000 0.500000
O O9 0.503505 0.000000 0.500000
O O10 0.224221 0.275590 0.300120
O O11 0.089476 0.374297 0.552367
O O12 0.878831 0.727657 0.381668
#
# Coordination Sequence:
#
# PCOD9310936 Si02
#       7
#     2   2   4   2   4   2   4
#     4  10  20  40  72 101 144 177 256 302 370 444
#     4  12  27  48  84 117 154 196 252 310 381 468
#     4  11  24  44  67 103 146 197 258 325 398 455
#     4  10  23  48  68  96 140 197 252 316 397 478
#     4  11  23  45  75 111 144 197 241 313 373 458
#     4  10  24  40  72 100 152 184 256 300 370 448
#     4  11  21  42  68 103 140 196 251 312 379 453
#
# _framework density 23.004642
#
# number of rings (size 3 to 8) (size 9 to 14) (size 15 to 20)
#    0.000    1.200    3.000    2.400    2.800    1.600 
#   28.800    0.000    4.400    0.000    0.000    0.000 
#    0.000    0.000    0.000    0.000    0.000    0.000 
#
# Total GULP energy -111713.756949 kJ/mol
# GULP energy per Si atom -5585.687847 kJ/mol
# Density = 2.295228 g / cm^3
# Si number density = 23.004642 Si / 1000 Ang^3
#
#
#
# Elastic Constant Matrix: (Units=GPa)
#
#
# Indices 1 2 3 4 5 6 
#
# 1 136.1928 23.3566 27.8400 0.0000 0.0000 0.0000
# 2 23.3566 90.5703 25.9373 0.0000 0.0000 0.0000
# 3 27.8400 25.9373 86.9632 0.0000 0.0000 0.0000
# 4 0.0000 0.0000 0.0000 57.4889 0.0000 0.0000
# 5 0.0000 0.0000 0.0000 0.0000 40.7798 0.0000
# 6 0.0000 0.0000 0.0000 0.0000 0.0000 -19.6206
#
#
#
# Elastic Compliance Matrix: (Units=1/GPa)
#
#
# Indices 1 2 3 4 5 6 
#
# 1 0.008029 -0.001459 -0.002135 0.000000 0.000000 0.000000
# 2 -0.001459 0.012337 -0.003213 0.000000 0.000000 0.000000
# 3 -0.002135 -0.003213 0.013141 0.000000 0.000000 0.000000
# 4 0.000000 0.000000 0.000000 0.017395 0.000000 0.000000
# 5 0.000000 0.000000 0.000000 0.000000 0.024522 0.000000
# 6 0.000000 0.000000 0.000000 0.000000 0.000000 -0.050967
#
#
# Mechanical properties :
#
#
# Convention : Reuss Voigt Hill
#
# Bulk Modulus (GPa) = 50.26742 51.99936 51.13339
# Shear Modulus (GPa) = 111.85041 31.50244 71.67642
#
# Velocity S-wave (km/s) = 6.98043 3.70455 5.58793
# Velocity P-wave (km/s) = 9.32024 6.39931 7.99431
#
# Compressibility (1/GPa) = 0.01989360
#
# Stress axis : x y z
#
# Youngs Moduli (GPa) = 124.54464 81.05403 76.09843
#
# Poissons Ratio (x) = 0.11827 0.16249
# Poissons Ratio (y) = 0.18173 0.24447
# Poissons Ratio (z) = 0.26593 0.26039
#
# Static dielectric constant tensor:
#      x y z
#    x 1.917150 0.000000 0.000000 
#    y 0.000000 1.869880 0.000000 
#    z 0.000000 0.000000 1.903550 
# 
# From -- ./inp_files/930.got.cif
#   From: 2010.05.17/outbox.cif.g08.bks.cpg/sg17_1_cif.got.tgz:930.got - 2010.06.03 22:34:06.
