data_PCOD9310630
_publ_section_title
;
Structure prediction by ZEFSAII (Michael W. Deem and Ramdas Pophale) SiO2 
 PCOD9310630
Probable space group: P 2 2 21
;
_chemical_formula_sum "Si O2"
_cell_formula_units_Z 32
_cell_length_a 13.240993
_cell_length_b 5.544118
_cell_length_c 16.664969
_cell_angle_alpha 90.000000
_cell_angle_beta 90.000000
_cell_angle_gamma 90.000000
_cell_volume 1223.369169
_symmetry_space_group_name_H-M "P 2 2 21"
_symmetry_group_IT_number 17
_symmetry_cell_setting 'orthorhombic'
loop_
_space_group_symop_operation_xyz
x,y,z
-x,-y,1/2+z
x,-y,-z
-x,y,1/2-z
loop_
_atom_site_type_symbol
_atom_site_label
_atom_site_fract_x
_atom_site_fract_y
_atom_site_fract_z
Si Si1 0.036283 0.967396 0.656894
Si Si2 0.202467 0.531345 0.093026
Si Si3 0.476782 0.249347 0.039795
Si Si4 0.191431 0.977269 0.846920
Si Si5 0.294063 0.753328 0.475102
Si Si6 0.605121 0.665202 0.717770
Si Si7 0.692630 0.167500 0.785693
Si Si8 0.973537 0.534118 0.154784
O O1 0.921985 0.959867 0.619843
O O2 0.084611 0.711772 0.638375
O O3 0.000000 0.963132 0.750000
O O4 0.080702 0.220944 0.631026
O O5 0.237014 0.287280 0.139455
O O6 0.083720 0.541033 0.115321
O O7 0.244375 0.797989 0.110716
O O8 0.213840 0.500000 0.000000
O O9 0.434007 0.266561 0.128528
O O10 0.442345 0.500000 0.000000
O O11 0.598967 0.247707 0.025661
O O12 0.441275 0.000000 0.000000
O O13 0.202344 0.064108 0.754381
O O14 0.245267 0.500000 0.500000
O O15 0.314868 0.779632 0.379973
O O16 0.239572 0.000000 0.500000
O O17 0.500000 0.560015 0.750000
O O18 0.673288 0.429558 0.744226
O O19 0.628669 0.925863 0.761093
O O20 0.000000 0.539681 0.250000
#
# Coordination Sequence:
#
# PCOD9310630 Si02
#       8
#     4   4   4   4   4   4   4   4
#     4   8  14  27  49  76 104 138 181 224 268 321
#     4  10  19  34  55  77 112 156 196 237 285 347
#     4  10  19  35  54  77 105 137 178 224 275 331
#     4  10  21  36  54  83 116 151 196 242 290 347
#     4  10  20  37  59  82 106 137 180 226 281 346
#     4  12  23  38  60  84 112 146 190 238 287 356
#     4  12  24  40  60  86 115 148 189 243 298 348
#     4   8  14  25  45  75 103 133 180 230 271 318
#
# _framework density 26.157271000000001
#
# number of rings (size 3 to 8) (size 9 to 14) (size 15 to 20)
#    0.000    2.000    0.000    6.000    0.000    0.000 
#    0.000    6.250    0.000    0.000    0.000   42.000 
#    0.000    0.000    0.000    0.000    0.000    0.000 
#
# Total GULP energy -178391.486083 kJ/mol
# GULP energy per Si atom -5574.733940 kJ/mol
# Density = 2.609774 g / cm^3
# Si number density = 26.157271 Si / 1000 Ang^3
#
#
#
# Elastic Constant Matrix: (Units=GPa)
#
#
# Indices 1 2 3 4 5 6 
#
# 1 45.0929 6.3527 2.2439 0.0000 0.0000 0.0000
# 2 6.3527 336.0318 69.6663 0.0000 0.0000 0.0000
# 3 2.2439 69.6663 98.2662 0.0000 0.0000 0.0000
# 4 0.0000 0.0000 0.0000 32.1454 0.0000 0.0000
# 5 0.0000 0.0000 0.0000 0.0000 19.6907 0.0000
# 6 0.0000 0.0000 0.0000 0.0000 0.0000 -5.8675
#
#
#
# Elastic Compliance Matrix: (Units=1/GPa)
#
#
# Indices 1 2 3 4 5 6 
#
# 1 0.022241 -0.000369 -0.000246 0.000000 0.000000 0.000000
# 2 -0.000369 0.003495 -0.002469 0.000000 0.000000 0.000000
# 3 -0.000246 -0.002469 0.011933 0.000000 0.000000 0.000000
# 4 0.000000 0.000000 0.000000 0.031109 0.000000 0.000000
# 5 0.000000 0.000000 0.000000 0.000000 0.050785 0.000000
# 6 0.000000 0.000000 0.000000 0.000000 0.000000 -0.170431
#
#
# Mechanical properties :
#
#
# Convention : Reuss Voigt Hill
#
# Bulk Modulus (GPa) = 31.74715 70.65741 51.20228
# Shear Modulus (GPa) = -146.19827 35.93560 -55.13134
#
# Velocity S-wave (km/s) = -7.48421 3.71054 -4.59594
# Velocity P-wave (km/s) = 7.90703 6.74008 2.92339
#
# Compressibility (1/GPa) = 0.03149889
#
# Stress axis : x y z
#
# Youngs Moduli (GPa) = 44.96256 286.13810 83.80380
#
# Poissons Ratio (x) = 0.10572 0.02061
# Poissons Ratio (y) = 0.01661 0.20693
# Poissons Ratio (z) = 0.01106 0.70654
#
# Static dielectric constant tensor:
#      x y z
#    x 2.186110 0.000000 0.000000 
#    y 0.000000 2.115420 0.000000 
#    z 0.000000 0.000000 2.125210 
# 
# From -- ./inp_files/7823.got.cif
#   From: 2010.05.17/outbox.cif.g08.bks.cpg/sg17_4_cif.got.tgz:7823.got - 2010.06.03 22:34:06.
