data_PCOD9310146
_publ_section_title
;
Structure prediction by ZEFSAII (Michael W. Deem and Ramdas Pophale) SiO2 
 PCOD9310146
Probable space group: P 2 2 2
;
_chemical_formula_sum "Si O2"
_cell_formula_units_Z 32
_cell_length_a 11.974272
_cell_length_b 15.329356
_cell_length_c 8.017706
_cell_angle_alpha 90.000000
_cell_angle_beta 90.000000
_cell_angle_gamma 90.000000
_cell_volume 1471.713102
_symmetry_space_group_name_H-M "P 2 2 2"
_symmetry_group_IT_number 16
_symmetry_cell_setting 'orthorhombic'
loop_
_space_group_symop_operation_xyz
x,y,z
-x,-y,z
x,-y,-z
-x,y,-z
loop_
_atom_site_type_symbol
_atom_site_label
_atom_site_fract_x
_atom_site_fract_y
_atom_site_fract_z
Si Si1 0.844252 0.819431 0.172028
Si Si2 0.279770 0.651373 0.716148
Si Si3 0.760417 0.686389 0.670276
Si Si4 0.485442 0.716853 0.194800
Si Si5 0.453662 0.912189 0.311038
Si Si6 0.872010 0.489903 0.296745
Si Si7 0.907505 0.156429 0.217858
Si Si8 0.232585 0.003506 0.798793
O O1 0.773632 0.732100 0.184810
O O2 0.965904 0.817079 0.256106
O O3 0.776145 0.901808 0.245508
O O4 0.875534 0.833975 0.978382
O O5 0.250357 0.668102 0.524539
O O6 0.413302 0.661269 0.727429
O O7 0.216537 0.562368 0.765733
O O8 0.636785 0.689344 0.745477
O O9 0.829390 0.606298 0.746756
O O10 0.825664 0.776231 0.693121
O O11 0.489838 0.820548 0.234454
O O12 0.500000 0.705635 0.000000
O O13 0.500000 0.909812 0.500000
O O14 0.323718 0.936099 0.292620
O O15 0.500000 0.000000 0.225523
O O16 0.873563 0.500000 0.500000
O O17 0.000000 0.500000 0.239618
O O18 0.881163 0.054646 0.244207
O O19 0.252136 0.000000 0.000000
#
# Coordination Sequence:
#
# PCOD9310146 Si02
#       8
#     4   4   4   4   4   4   4   4
#     4  10  21  38  61  91 127 166 212 261 315 375
#     4  11  23  40  65  94 128 162 214 265 315 379
#     4  11  22  41  67  92 127 165 212 265 317 380
#     4  12  26  42  63  91 127 168 212 259 325 390
#     4  11  24  39  61  88 124 166 218 270 310 366
#     4   9  20  40  67  97 126 164 208 255 317 385
#     4  10  20  38  62  90 125 168 213 259 313 378
#     4  10  21  37  62  89 124 168 215 259 316 383
#
# _framework density 21.743369000000001
#
# number of rings (size 3 to 8) (size 9 to 14) (size 15 to 20)
#    0.000    1.500    1.250    3.750    3.500    4.500 
#    0.000    5.000    0.000    6.000    0.000    0.000 
#    0.000    0.000    0.000    0.000    0.000    0.000 
#
# Total GULP energy -178697.426236 kJ/mol
# GULP energy per Si atom -5584.294570 kJ/mol
# Density = 2.169388 g / cm^3
# Si number density = 21.743369 Si / 1000 Ang^3
#
#
#
# Elastic Constant Matrix: (Units=GPa)
#
#
# Indices 1 2 3 4 5 6 
#
# 1 109.8239 29.4406 2.8313 0.0000 0.0000 0.0000
# 2 29.4406 111.5509 2.9412 0.0000 0.0000 0.0000
# 3 2.8313 2.9412 23.9935 0.0000 0.0000 0.0000
# 4 0.0000 0.0000 0.0000 -14.4063 0.0000 0.0000
# 5 0.0000 0.0000 0.0000 0.0000 21.9060 0.0000
# 6 0.0000 0.0000 0.0000 0.0000 0.0000 34.0206
#
#
#
# Elastic Compliance Matrix: (Units=1/GPa)
#
#
# Indices 1 2 3 4 5 6 
#
# 1 0.009816 -0.002568 -0.000843 0.000000 0.000000 0.000000
# 2 -0.002568 0.009666 -0.000882 0.000000 0.000000 0.000000
# 3 -0.000843 -0.000882 0.041886 0.000000 0.000000 0.000000
# 4 0.000000 0.000000 0.000000 -0.069414 0.000000 0.000000
# 5 0.000000 0.000000 0.000000 0.000000 0.045650 0.000000
# 6 0.000000 0.000000 0.000000 0.000000 0.000000 0.029394
#
#
# Mechanical properties :
#
#
# Convention : Reuss Voigt Hill
#
# Bulk Modulus (GPa) = 18.94667 35.08828 27.01747
# Shear Modulus (GPa) = 53.66141 22.31440 37.98791
#
# Velocity S-wave (km/s) = 4.97323 3.20701 4.18437
# Velocity P-wave (km/s) = 6.45833 5.46678 5.98313
#
# Compressibility (1/GPa) = 0.05277972
#
# Stress axis : x y z
#
# Youngs Moduli (GPa) = 101.87734 103.45972 23.87461
#
# Poissons Ratio (x) = 0.26572 0.02014
# Poissons Ratio (y) = 0.26165 0.02105
# Poissons Ratio (z) = 0.08593 0.09123
#
# Static dielectric constant tensor:
#      x y z
#    x 1.893860 0.000000 0.000000 
#    y 0.000000 1.798280 0.000000 
#    z 0.000000 0.000000 1.808470 
# 
# From -- ./inp_files/4853.got.cif
#   From: 2010.05.17/outbox.cif.g08.bks.cpg/sg16_3_cif.got.tgz:4853.got - 2010.06.03 22:28:35.
