data_PCOD9310400
_publ_section_title
;
Structure prediction by ZEFSAII (Michael W. Deem and Ramdas Pophale) SiO2 
 PCOD9310400
Probable space group: P 2 2 2
;
_chemical_formula_sum "Si O2"
_cell_formula_units_Z 18
_cell_length_a 7.246348
_cell_length_b 11.833024
_cell_length_c 9.586599
_cell_angle_alpha 90.000000
_cell_angle_beta 90.000000
_cell_angle_gamma 90.000000
_cell_volume 822.014529
_symmetry_space_group_name_H-M "P 2 2 2"
_symmetry_group_IT_number 16
_symmetry_cell_setting 'orthorhombic'
loop_
_space_group_symop_operation_xyz
x,y,z
-x,-y,z
x,-y,-z
-x,y,-z
loop_
_atom_site_type_symbol
_atom_site_label
_atom_site_fract_x
_atom_site_fract_y
_atom_site_fract_z
Si Si1 0.279682 0.370783 0.017169
Si Si2 0.776227 0.005724 0.159653
Si Si3 0.770501 0.750941 0.732598
Si Si4 0.805897 0.230956 0.708890
Si Si5 0.500000 0.295961 0.500000
O O1 0.228085 0.319473 0.166149
O O2 0.220459 0.500000 0.000000
O O3 0.500000 0.365898 0.000000
O O4 0.203802 0.298529 0.888266
O O5 0.736828 0.889338 0.234993
O O6 0.711151 0.118196 0.240052
O O7 0.000000 0.000000 0.154746
O O8 0.711219 0.000000 0.000000
O O9 0.622540 0.675549 0.644894
O O10 0.977697 0.760791 0.672762
O O11 0.678145 0.249963 0.577220
#
# Coordination Sequence:
#
# PCOD9310400 Si02
#       5
#     4   4   4   4   2
#     4  11  23  44  71  99 126 158 216 281 321 369
#     4   9  18  35  64  98 130 160 209 270 312 370
#     4  11  23  42  67  96 130 172 214 259 321 380
#     4  11  23  42  67  96 130 172 214 259 321 380
#     4  12  26  43  59  96 138 178 209 261 310 384
#
# _framework density 21.897424000000001
#
# number of rings (size 3 to 8) (size 9 to 14) (size 15 to 20)
#    0.000    1.333    4.444    1.333    0.000    4.444 
#    0.000    7.778    0.000    2.667    0.000    0.000 
#    0.000    0.000    0.000    0.000    0.000    0.000 
#
# Total GULP energy -100216.984088 kJ/mol
# GULP energy per Si atom -5567.610227 kJ/mol
# Density = 2.184758 g / cm^3
# Si number density = 21.897424 Si / 1000 Ang^3
#
#
#
# Elastic Constant Matrix: (Units=GPa)
#
#
# Indices 1 2 3 4 5 6 
#
# 1 133.6736 -2.4897 11.9763 0.0000 0.0000 0.0000
# 2 -2.4897 92.4465 10.1177 0.0000 0.0000 0.0000
# 3 11.9763 10.1177 90.1346 0.0000 0.0000 0.0000
# 4 0.0000 0.0000 0.0000 -11.3499 0.0000 0.0000
# 5 0.0000 0.0000 0.0000 0.0000 49.5195 0.0000
# 6 0.0000 0.0000 0.0000 0.0000 0.0000 -0.3516
#
#
#
# Elastic Compliance Matrix: (Units=1/GPa)
#
#
# Indices 1 2 3 4 5 6 
#
# 1 0.007580 0.000318 -0.001043 0.000000 0.000000 0.000000
# 2 0.000318 0.010965 -0.001273 0.000000 0.000000 0.000000
# 3 -0.001043 -0.001273 0.011376 0.000000 0.000000 0.000000
# 4 0.000000 0.000000 0.000000 -0.088107 0.000000 0.000000
# 5 0.000000 0.000000 0.000000 0.000000 0.020194 0.000000
# 6 0.000000 0.000000 0.000000 0.000000 0.000000 -2.844171
#
#
# Mechanical properties :
#
#
# Convention : Reuss Voigt Hill
#
# Bulk Modulus (GPa) = 38.57173 39.49594 39.03384
# Shear Modulus (GPa) = -1.74245 27.34031 12.79893
#
# Velocity S-wave (km/s) = -0.89301 3.53733 2.42026
# Velocity P-wave (km/s) = 4.07305 5.89573 5.06702
#
# Compressibility (1/GPa) = 0.02592572
#
# Stress axis : x y z
#
# Youngs Moduli (GPa) = 131.92130 91.19953 87.90434
#
# Poissons Ratio (x) = -0.02903 0.09168
# Poissons Ratio (y) = -0.04199 0.11191
# Poissons Ratio (z) = 0.13759 0.11611
#
# Static dielectric constant tensor:
#      x y z
#    x 1.849850 0.000000 0.000000 
#    y 0.000000 1.790500 0.000000 
#    z 0.000000 0.000000 1.872050 
# 
# From -- ./inp_files/3661.got.cif
#   From: 2010.05.17/outbox.cif.g08.bks.cpg/sg16_2_cif.got.tgz:3661.got - 2010.06.03 22:28:35.
