data_PCOD9310685
_publ_section_title
;
Structure prediction by ZEFSAII (Michael W. Deem and Ramdas Pophale) SiO2 
 PCOD9310685
Probable space group: P 2 2 21
;
_chemical_formula_sum "Si O2"
_cell_formula_units_Z 30
_cell_length_a 8.342479
_cell_length_b 12.368937
_cell_length_c 14.522315
_cell_angle_alpha 90.000000
_cell_angle_beta 90.000000
_cell_angle_gamma 90.000000
_cell_volume 1498.522790
_symmetry_space_group_name_H-M "P 2 2 21"
_symmetry_group_IT_number 17
_symmetry_cell_setting 'orthorhombic'
loop_
_space_group_symop_operation_xyz
x,y,z
-x,-y,1/2+z
x,-y,-z
-x,y,1/2-z
loop_
_atom_site_type_symbol
_atom_site_label
_atom_site_fract_x
_atom_site_fract_y
_atom_site_fract_z
Si Si1 0.352056 0.675556 0.025674
Si Si2 0.867080 0.899708 0.050830
Si Si3 0.651341 0.626142 0.142861
Si Si4 0.763902 0.906631 0.433146
Si Si5 0.804320 0.811674 0.241935
Si Si6 0.857215 0.331847 0.035766
Si Si7 0.112651 0.500000 0.000000
Si Si8 0.558391 0.379002 0.152756
O O1 0.429172 0.639822 0.928271
O O2 0.498866 0.683678 0.096322
O O3 0.267037 0.790906 0.019278
O O4 0.227845 0.582088 0.055213
O O5 0.777710 0.869056 0.144092
O O6 0.047659 0.933663 0.075962
O O7 0.889441 0.792467 0.989549
O O8 0.787577 0.000000 0.000000
O O9 0.725528 0.694119 0.226277
O O10 0.596480 0.505777 0.164167
O O11 0.780121 0.621872 0.059408
O O12 0.727281 0.878320 0.325987
O O13 0.693529 0.000000 0.500000
O O14 0.000000 0.799733 0.250000
O O15 0.724318 0.331847 0.114474
O O16 0.002978 0.413715 0.055130
O O17 0.500000 0.334419 0.250000
#
# Coordination Sequence:
#
# PCOD9310685 Si02
#       8
#     4   4   4   4   4   4   2   4
#     4  11  22  38  63  88 124 170 204 251 332 385
#     4   9  18  36  62  92 124 163 203 263 321 370
#     4  10  20  38  60  87 126 160 206 260 314 375
#     4  10  21  38  62  89 126 163 210 268 315 372
#     4   9  20  36  61  97 119 156 219 262 311 368
#     4  10  19  37  62  89 122 164 209 257 314 375
#     4  12  18  34  66  94 122 160 214 258 318 390
#     4  11  23  40  55  86 128 167 206 251 322 389
#
# _framework density 20.019715000000001
#
# number of rings (size 3 to 8) (size 9 to 14) (size 15 to 20)
#    0.000    1.867    4.000    0.800    1.867    0.000 
#    2.400    6.667    0.000    0.000    0.000    0.000 
#    0.000    0.000    0.000    0.000    0.000    0.000 
#
# Total GULP energy -167162.128677 kJ/mol
# GULP energy per Si atom -5572.070956 kJ/mol
# Density = 1.997415 g / cm^3
# Si number density = 20.019715 Si / 1000 Ang^3
#
#
#
# Elastic Constant Matrix: (Units=GPa)
#
#
# Indices 1 2 3 4 5 6 
#
# 1 54.1059 18.3812 31.2476 0.0000 0.0000 0.0000
# 2 18.3812 120.6543 52.6212 0.0000 0.0000 0.0000
# 3 31.2476 52.6212 99.7447 0.0000 0.0000 0.0000
# 4 0.0000 0.0000 0.0000 29.1515 0.0000 0.0000
# 5 0.0000 0.0000 0.0000 0.0000 11.5155 0.0000
# 6 0.0000 0.0000 0.0000 0.0000 0.0000 17.1108
#
#
#
# Elastic Compliance Matrix: (Units=1/GPa)
#
#
# Indices 1 2 3 4 5 6 
#
# 1 0.022585 -0.000461 -0.006832 0.000000 0.000000 0.000000
# 2 -0.000461 0.010774 -0.005540 0.000000 0.000000 0.000000
# 3 -0.006832 -0.005540 0.015088 0.000000 0.000000 0.000000
# 4 0.000000 0.000000 0.000000 0.034304 0.000000 0.000000
# 5 0.000000 0.000000 0.000000 0.000000 0.086839 0.000000
# 6 0.000000 0.000000 0.000000 0.000000 0.000000 0.058443
#
#
# Mechanical properties :
#
#
# Convention : Reuss Voigt Hill
#
# Bulk Modulus (GPa) = 43.89440 53.22278 48.55859
# Shear Modulus (GPa) = 19.13565 23.03920 21.08743
#
# Velocity S-wave (km/s) = 3.09502 3.39606 3.24903
# Velocity P-wave (km/s) = 5.89452 6.48233 6.19540
#
# Compressibility (1/GPa) = 0.02278195
#
# Stress axis : x y z
#
# Youngs Moduli (GPa) = 44.27803 92.81234 66.27595
#
# Poissons Ratio (x) = 0.04279 0.45280
# Poissons Ratio (y) = 0.02041 0.36715
# Poissons Ratio (z) = 0.30251 0.51415
#
# Static dielectric constant tensor:
#      x y z
#    x 1.764050 0.000000 0.000000 
#    y 0.000000 1.734440 0.000000 
#    z 0.000000 0.000000 1.734190 
# 
# From -- ./inp_files/8258.got.cif
#   From: 2010.05.17/outbox.cif.g08.bks.cpg/sg17_5_cif.got.tgz:8258.got - 2010.06.03 22:34:06.
