data_PCOD9310929
_publ_section_title
;
Structure prediction by ZEFSAII (Michael W. Deem and Ramdas Pophale) SiO2 
 PCOD9310929
Probable space group: P 2 2 21
;
_chemical_formula_sum "Si O2"
_cell_formula_units_Z 20
_cell_length_a 11.556629
_cell_length_b 9.687478
_cell_length_c 9.744077
_cell_angle_alpha 90.000000
_cell_angle_beta 90.000000
_cell_angle_gamma 90.000000
_cell_volume 1090.894138
_symmetry_space_group_name_H-M "P 2 2 21"
_symmetry_group_IT_number 17
_symmetry_cell_setting 'orthorhombic'
loop_
_space_group_symop_operation_xyz
x,y,z
-x,-y,1/2+z
x,-y,-z
-x,y,1/2-z
loop_
_atom_site_type_symbol
_atom_site_label
_atom_site_fract_x
_atom_site_fract_y
_atom_site_fract_z
Si Si1 0.011369 0.141705 0.916925
Si Si2 0.785414 0.654874 0.507763
Si Si3 0.634004 0.337529 0.755882
Si Si4 0.248402 0.835502 0.481313
Si Si5 0.636965 0.344285 0.218208
O O1 0.000000 0.125028 0.750000
O O2 0.888291 0.196338 0.973594
O O3 0.115820 0.240815 0.960051
O O4 0.030902 0.000000 0.000000
O O5 0.835419 0.500000 0.500000
O O6 0.684020 0.656544 0.395985
O O7 0.722049 0.680941 0.652179
O O8 0.500000 0.305084 0.750000
O O9 0.699546 0.221591 0.840560
O O10 0.647890 0.492323 0.816930
O O11 0.316554 0.753303 0.598622
O O12 0.260653 0.000000 0.500000
O O13 0.500000 0.320906 0.250000
#
# Coordination Sequence:
#
# PCOD9310929 Si02
#       5
#     4   4   4   4   4
#     4  11  25  44  64  88 123 165 205 251 309 365
#     4  10  22  39  63  93 121 157 206 257 303 354
#     4  10  20  40  65  89 123 163 199 254 309 361
#     4  11  24  39  60  91 123 161 208 248 303 362
#     4  10  22  40  64  93 124 160 203 246 308 368
#
# _framework density 18.333584999999999
#
# number of rings (size 3 to 8) (size 9 to 14) (size 15 to 20)
#    0.000    1.600    2.000    1.800    5.600    5.600 
#    0.000    2.000    0.000    0.000    0.000    0.000 
#    0.000    0.000    0.000    0.000    0.000    0.000 
#
# Total GULP energy -111600.195199 kJ/mol
# GULP energy per Si atom -5580.009760 kJ/mol
# Density = 1.829186 g / cm^3
# Si number density = 18.333585 Si / 1000 Ang^3
#
#
#
# Elastic Constant Matrix: (Units=GPa)
#
#
# Indices 1 2 3 4 5 6 
#
# 1 94.4643 31.2274 -15.0748 0.0000 0.0000 0.0000
# 2 31.2274 25.2776 -5.3286 0.0000 0.0000 0.0000
# 3 -15.0748 -5.3286 39.2358 0.0000 0.0000 0.0000
# 4 0.0000 0.0000 0.0000 32.8810 0.0000 0.0000
# 5 0.0000 0.0000 0.0000 0.0000 21.8397 0.0000
# 6 0.0000 0.0000 0.0000 0.0000 0.0000 24.9609
#
#
#
# Elastic Compliance Matrix: (Units=1/GPa)
#
#
# Indices 1 2 3 4 5 6 
#
# 1 0.018520 -0.022010 0.004127 0.000000 0.000000 0.000000
# 2 -0.022010 0.066883 0.000627 0.000000 0.000000 0.000000
# 3 0.004127 0.000627 0.027158 0.000000 0.000000 0.000000
# 4 0.000000 0.000000 0.000000 0.030413 0.000000 0.000000
# 5 0.000000 0.000000 0.000000 0.000000 0.045788 0.000000
# 6 0.000000 0.000000 0.000000 0.000000 0.000000 0.040063
#
#
# Mechanical properties :
#
#
# Convention : Reuss Voigt Hill
#
# Bulk Modulus (GPa) = 12.81248 20.06953 16.44101
# Shear Modulus (GPa) = 17.27989 25.81323 21.54656
#
# Velocity S-wave (km/s) = 3.07339 3.75637 3.43191
# Velocity P-wave (km/s) = 4.42696 5.45751 4.96902
#
# Compressibility (1/GPa) = 0.07804887
#
# Stress axis : x y z
#
# Youngs Moduli (GPa) = 53.99453 14.95140 36.82215
#
# Poissons Ratio (x) = 0.32908 -0.15195
# Poissons Ratio (y) = 1.18841 -0.02309
# Poissons Ratio (z) = -0.22281 -0.00937
#
# Static dielectric constant tensor:
#      x y z
#    x 1.604720 0.000000 0.000000 
#    y 0.000000 1.639020 0.000000 
#    z 0.000000 0.000000 1.626910 
# 
# From -- ./inp_files/4004.got.cif
#   From: 2010.05.17/outbox.cif.g08.bks.cpg/sg17_3_cif.got.tgz:4004.got - 2010.06.03 22:34:06.
