data_PCOD9310281
_publ_section_title
;
Structure prediction by ZEFSAII (Michael W. Deem and Ramdas Pophale) SiO2 
 PCOD9310281
Probable space group: P 2 2 2
;
_chemical_formula_sum "Si O2"
_cell_formula_units_Z 15
_cell_length_a 15.497143
_cell_length_b 7.347000
_cell_length_c 7.347054
_cell_angle_alpha 90.000000
_cell_angle_beta 90.000000
_cell_angle_gamma 90.000000
_cell_volume 836.517271
_symmetry_space_group_name_H-M "P 2 2 2"
_symmetry_group_IT_number 16
_symmetry_cell_setting 'orthorhombic'
loop_
_space_group_symop_operation_xyz
x,y,z
-x,-y,z
x,-y,-z
-x,y,-z
loop_
_atom_site_type_symbol
_atom_site_label
_atom_site_fract_x
_atom_site_fract_y
_atom_site_fract_z
Si Si1 0.000000 0.000000 0.000000
Si Si2 0.500000 0.500000 0.500000
Si Si3 0.120829 0.752823 0.752823
Si Si4 0.332536 0.648723 0.351277
Si Si5 0.758503 0.000000 0.500000
Si Si6 0.758503 0.500000 0.000000
Si Si7 0.000000 0.500000 0.500000
O O1 0.058044 0.873851 0.873850
O O2 0.434980 0.379168 0.620831
O O3 0.180612 0.886918 0.635500
O O4 0.180611 0.635501 0.886920
O O5 0.062425 0.624303 0.624304
O O6 0.296132 0.500000 0.500000
O O7 0.299732 0.848043 0.402208
O O8 0.299732 0.597791 0.151958
#
# Coordination Sequence:
#
# PCOD9310281 Si02
#       7
#     1   1   4   4   2   2   1
#     4  12  24  36  52  92 120 158 228 268 312 372
#     4   8  20  46  64  96 140 166 192 268 336 382
#     4  12  23  39  60  91 125 173 215 271 316 382
#     4  10  22  43  64 100 126 168 204 264 321 384
#     4  12  22  42  68  92 128 172 218 260 322 384
#     4  12  22  42  68  92 128 172 218 260 322 384
#     4  12  24  42  60  88 136 174 208 268 344 350
#
# _framework density 17.931488999999999
#
# number of rings (size 3 to 8) (size 9 to 14) (size 15 to 20)
#    0.800    0.000    2.667    6.400    0.000    1.067 
#    0.000    0.000    0.000    3.200    0.000    0.000 
#    0.000    0.000    0.000    0.000    0.000    0.000 
#
# Total GULP energy -83761.115886 kJ/mol
# GULP energy per Si atom -5584.074392 kJ/mol
# Density = 1.789068 g / cm^3
# Si number density = 17.931489 Si / 1000 Ang^3
#
#
#
# Elastic Constant Matrix: (Units=GPa)
#
#
# Indices 1 2 3 4 5 6 
#
# 1 170.3503 99.4527 99.4527 0.0000 0.0000 0.0000
# 2 99.4527 158.3902 96.7086 0.0000 0.0000 0.0000
# 3 99.4527 96.7086 158.3956 0.0000 0.0000 0.0000
# 4 0.0000 0.0000 0.0000 56.7144 0.0000 0.0000
# 5 0.0000 0.0000 0.0000 0.0000 29.9508 0.0000
# 6 0.0000 0.0000 0.0000 0.0000 0.0000 29.9525
#
#
#
# Elastic Compliance Matrix: (Units=1/GPa)
#
#
# Indices 1 2 3 4 5 6 
#
# 1 0.010775 -0.004201 -0.004201 0.000000 0.000000 0.000000
# 2 -0.004201 0.011704 -0.004508 0.000000 0.000000 0.000000
# 3 -0.004201 -0.004508 0.011703 0.000000 0.000000 0.000000
# 4 0.000000 0.000000 0.000000 0.017632 0.000000 0.000000
# 5 0.000000 0.000000 0.000000 0.000000 0.033388 0.000000
# 6 0.000000 0.000000 0.000000 0.000000 0.000000 0.033386
#
#
# Mechanical properties :
#
#
# Convention : Reuss Voigt Hill
#
# Bulk Modulus (GPa) = 119.57562 119.81821 119.69691
# Shear Modulus (GPa) = 33.96841 36.09167 35.03004
#
# Velocity S-wave (km/s) = 4.35713 4.49124 4.42469
# Velocity P-wave (km/s) = 9.59907 9.68814 9.64371
#
# Compressibility (1/GPa) = 0.00836291
#
# Stress axis : x y z
#
# Youngs Moduli (GPa) = 92.80592 85.44233 85.44696
#
# Poissons Ratio (x) = 0.35894 0.35893
# Poissons Ratio (y) = 0.38987 0.38520
# Poissons Ratio (z) = 0.38984 0.38518
#
# Static dielectric constant tensor:
#      x y z
#    x 1.606660 0.000000 0.000000 
#    y 0.000000 1.597420 0.000000 
#    z 0.000000 0.000000 1.597420 
# 
# From -- ./inp_files/5313.got.cif
#   From: 2010.05.17/outbox.cif.g08.bks.cpg/sg16_3_cif.got.tgz:5313.got - 2010.06.03 22:28:35.
