data_PCOD9310773
_publ_section_title
;
Structure prediction by ZEFSAII (Michael W. Deem and Ramdas Pophale) SiO2 
 PCOD9310773
Probable space group: P 2 2 21
;
_chemical_formula_sum "Si O2"
_cell_formula_units_Z 24
_cell_length_a 5.410588
_cell_length_b 11.814384
_cell_length_c 15.474942
_cell_angle_alpha 90.000000
_cell_angle_beta 90.000000
_cell_angle_gamma 90.000000
_cell_volume 989.201070
_symmetry_space_group_name_H-M "P 2 2 21"
_symmetry_group_IT_number 17
_symmetry_cell_setting 'orthorhombic'
loop_
_space_group_symop_operation_xyz
x,y,z
-x,-y,1/2+z
x,-y,-z
-x,y,1/2-z
loop_
_atom_site_type_symbol
_atom_site_label
_atom_site_fract_x
_atom_site_fract_y
_atom_site_fract_z
Si Si1 0.387396 0.424722 0.581887
Si Si2 0.107028 0.629275 0.155643
Si Si3 0.669021 0.799387 0.971317
Si Si4 0.166058 0.862233 0.045657
Si Si5 0.750771 0.978404 0.702899
Si Si6 0.251306 0.275357 0.274833
O O1 0.458151 0.500000 0.500000
O O2 0.618259 0.423117 0.647314
O O3 0.347842 0.301875 0.539768
O O4 0.112052 0.450194 0.616759
O O5 0.139172 0.745970 0.101354
O O6 0.000000 0.657064 0.250000
O O7 0.729253 0.757328 0.874986
O O8 0.396234 0.849831 0.980484
O O9 0.901839 0.874205 0.999490
O O10 0.231108 0.961931 0.111270
O O11 0.500000 0.017476 0.750000
O O12 0.000000 0.017168 0.750000
O O13 0.750547 0.841571 0.717217
O O14 0.500000 0.338562 0.250000
O O15 0.000000 0.336140 0.250000
#
# Coordination Sequence:
#
# PCOD9310773 Si02
#       6
#     4   4   4   4   4   4
#     4  10  21  38  59  85 118 150 187 238 288 340
#     4  10  20  35  59  87 117 148 186 235 288 343
#     4  10  21  38  59  81 109 151 191 229 286 347
#     4  10  20  35  58  84 110 145 187 233 285 336
#     4  10  20  35  53  78 110 144 181 229 279 325
#     4  10  21  39  56  77 111 148 187 232 278 333
#
# _framework density 24.262003
#
# number of rings (size 3 to 8) (size 9 to 14) (size 15 to 20)
#    0.000    2.000    0.000    3.500    0.000    2.667 
#    0.000   22.500    0.000    0.000    0.000    0.000 
#    0.000    0.000    0.000    0.000    0.000    0.000 
#
# Total GULP energy -134123.717420 kJ/mol
# GULP energy per Si atom -5588.488226 kJ/mol
# Density = 2.420678 g / cm^3
# Si number density = 24.262003 Si / 1000 Ang^3
#
#
#
# Elastic Constant Matrix: (Units=GPa)
#
#
# Indices 1 2 3 4 5 6 
#
# 1 252.7604 47.4248 78.7393 0.0000 0.0000 0.0000
# 2 47.4248 39.0100 10.5687 0.0000 0.0000 0.0000
# 3 78.7393 10.5687 96.3961 0.0000 0.0000 0.0000
# 4 0.0000 0.0000 0.0000 30.7465 0.0000 0.0000
# 5 0.0000 0.0000 0.0000 0.0000 52.3995 0.0000
# 6 0.0000 0.0000 0.0000 0.0000 0.0000 20.0601
#
#
#
# Elastic Compliance Matrix: (Units=1/GPa)
#
#
# Indices 1 2 3 4 5 6 
#
# 1 0.006726 -0.006893 -0.004738 0.000000 0.000000 0.000000
# 2 -0.006893 0.033483 0.001959 0.000000 0.000000 0.000000
# 3 -0.004738 0.001959 0.014029 0.000000 0.000000 0.000000
# 4 0.000000 0.000000 0.000000 0.032524 0.000000 0.000000
# 5 0.000000 0.000000 0.000000 0.000000 0.019084 0.000000
# 6 0.000000 0.000000 0.000000 0.000000 0.000000 0.049850
#
#
# Mechanical properties :
#
#
# Convention : Reuss Voigt Hill
#
# Bulk Modulus (GPa) = 28.65751 73.51467 51.08609
# Shear Modulus (GPa) = 26.78513 37.40345 32.09429
#
# Velocity S-wave (km/s) = 3.32625 3.93064 3.64101
# Velocity P-wave (km/s) = 5.15647 7.13905 6.22717
#
# Compressibility (1/GPa) = 0.03489486
#
# Stress axis : x y z
#
# Youngs Moduli (GPa) = 148.68774 29.86582 71.28018
#
# Poissons Ratio (x) = 0.20585 0.33772
# Poissons Ratio (y) = 1.02485 -0.13965
# Poissons Ratio (z) = 0.70447 -0.05851
#
# Static dielectric constant tensor:
#      x y z
#    x 1.971980 0.000000 0.000000 
#    y 0.000000 1.980120 0.000000 
#    z 0.000000 0.000000 1.898620 
# 
# From -- ./inp_files/7749.got.cif
#   From: 2010.05.17/outbox.cif.g08.bks.cpg/sg17_4_cif.got.tgz:7749.got - 2010.06.03 22:34:06.
