data_PCOD9310517
_publ_section_title
;
Structure prediction by ZEFSAII (Michael W. Deem and Ramdas Pophale) SiO2 
 PCOD9310517
Probable space group: P 2 2 21
;
_chemical_formula_sum "Si O2"
_cell_formula_units_Z 24
_cell_length_a 9.602028
_cell_length_b 23.863752
_cell_length_c 5.035706
_cell_angle_alpha 90.000000
_cell_angle_beta 90.000000
_cell_angle_gamma 90.000000
_cell_volume 1153.883762
_symmetry_space_group_name_H-M "P 2 2 21"
_symmetry_group_IT_number 17
_symmetry_cell_setting 'orthorhombic'
loop_
_space_group_symop_operation_xyz
x,y,z
-x,-y,1/2+z
x,-y,-z
-x,y,1/2-z
loop_
_atom_site_type_symbol
_atom_site_label
_atom_site_fract_x
_atom_site_fract_y
_atom_site_fract_z
Si Si1 0.602515 0.621603 0.497876
Si Si2 0.754697 0.894074 0.044652
Si Si3 0.273668 0.260339 0.973545
Si Si4 0.405253 0.000000 0.500000
Si Si5 0.000000 0.040699 0.750000
Si Si6 0.127567 0.779511 0.553192
Si Si7 0.397309 0.500000 0.000000
Si Si8 0.500000 0.180690 0.750000
O O1 0.500000 0.630473 0.750000
O O2 0.702102 0.673917 0.443250
O O3 0.676371 0.560518 0.515795
O O4 0.500000 0.619002 0.250000
O O5 0.861220 0.921006 0.257587
O O6 0.618610 0.859572 0.131710
O O7 0.848151 0.846139 0.911610
O O8 0.690602 0.948462 0.902883
O O9 0.157825 0.236858 0.756680
O O10 0.410069 0.222882 0.926500
O O11 0.246674 0.251541 0.284225
O O12 0.500000 0.017151 0.750000
O O13 0.006104 0.000000 0.500000
O O14 0.000000 0.764411 0.750000
O O15 0.500000 0.500242 0.250000
#
# Coordination Sequence:
#
# PCOD9310517 Si02
#       8
#     4   4   4   2   2   4   2   2
#     4  10  18  32  55  88 131 169 209 256 313 378
#     4  11  27  44  71  90 126 156 206 255 317 380
#     4  11  23  40  63  93 127 168 209 253 318 376
#     4  12  28  46  66  94 122 156 196 256 316 376
#     4  12  30  48  70  96 120 160 208 250 316 384
#     4  11  27  43  64  90 123 166 213 261 310 376
#     4   8  16  28  48  82 126 172 206 248 308 370
#     4  10  24  40  64  96 122 160 198 252 314 374
#
# _framework density 20.799320999999999
#
# number of rings (size 3 to 8) (size 9 to 14) (size 15 to 20)
#    0.000    1.333    2.500    1.500   11.667    0.000 
#    0.000    0.000    0.000    0.000    0.000    2.333 
#    0.000    0.000    0.000    0.000    0.000    0.000 
#
# Total GULP energy -133641.042109 kJ/mol
# GULP energy per Si atom -5568.376755 kJ/mol
# Density = 2.075198 g / cm^3
# Si number density = 20.799321 Si / 1000 Ang^3
#
#
#
# Elastic Constant Matrix: (Units=GPa)
#
#
# Indices 1 2 3 4 5 6 
#
# 1 57.7177 10.2069 7.7176 0.0000 0.0000 0.0000
# 2 10.2069 157.8210 2.4258 0.0000 0.0000 0.0000
# 3 7.7176 2.4258 105.0565 0.0000 0.0000 0.0000
# 4 0.0000 0.0000 0.0000 26.4007 0.0000 0.0000
# 5 0.0000 0.0000 0.0000 0.0000 22.9956 0.0000
# 6 0.0000 0.0000 0.0000 0.0000 0.0000 -10.1367
#
#
#
# Elastic Compliance Matrix: (Units=1/GPa)
#
#
# Indices 1 2 3 4 5 6 
#
# 1 0.017695 -0.001125 -0.001274 0.000000 0.000000 0.000000
# 2 -0.001125 0.006410 -0.000065 0.000000 0.000000 0.000000
# 3 -0.001274 -0.000065 0.009614 0.000000 0.000000 0.000000
# 4 0.000000 0.000000 0.000000 0.037878 0.000000 0.000000
# 5 0.000000 0.000000 0.000000 0.000000 0.043487 0.000000
# 6 0.000000 0.000000 0.000000 0.000000 0.000000 -0.098651
#
#
# Mechanical properties :
#
#
# Convention : Reuss Voigt Hill
#
# Bulk Modulus (GPa) = 34.73362 40.14397 37.43879
# Shear Modulus (GPa) = 161.51524 27.86825 94.69175
#
# Velocity S-wave (km/s) = 8.82172 3.66439 6.75464
# Velocity P-wave (km/s) = 10.97721 6.10296 8.88103
#
# Compressibility (1/GPa) = 0.02879055
#
# Stress axis : x y z
#
# Youngs Moduli (GPa) = 56.51323 156.00521 104.01739
#
# Poissons Ratio (x) = 0.17548 0.13251
# Poissons Ratio (y) = 0.06357 0.00680
# Poissons Ratio (z) = 0.07199 0.01020
#
# Static dielectric constant tensor:
#      x y z
#    x 1.811650 0.000000 0.000000 
#    y 0.000000 1.828230 0.000000 
#    z 0.000000 0.000000 1.751630 
# 
# From -- ./inp_files/1056.got.cif
#   From: 2010.05.17/outbox.cif.g08.bks.cpg/sg17_1_cif.got.tgz:1056.got - 2010.06.03 22:34:06.
