data_PCOD9310702
_publ_section_title
;
Structure prediction by ZEFSAII (Michael W. Deem and Ramdas Pophale) SiO2 
 PCOD9310702
Probable space group: P 2 2 21
;
_chemical_formula_sum "Si O2"
_cell_formula_units_Z 20
_cell_length_a 5.545481
_cell_length_b 9.676018
_cell_length_c 14.024163
_cell_angle_alpha 90.000000
_cell_angle_beta 90.000000
_cell_angle_gamma 90.000000
_cell_volume 752.510978
_symmetry_space_group_name_H-M "P 2 2 21"
_symmetry_group_IT_number 17
_symmetry_cell_setting 'orthorhombic'
loop_
_space_group_symop_operation_xyz
x,y,z
-x,-y,1/2+z
x,-y,-z
-x,y,1/2-z
loop_
_atom_site_type_symbol
_atom_site_label
_atom_site_fract_x
_atom_site_fract_y
_atom_site_fract_z
Si Si1 0.242552 0.013385 0.714210
Si Si2 0.611113 0.867420 0.024885
Si Si3 0.253304 0.284327 0.843361
Si Si4 0.746791 0.396469 0.301624
Si Si5 0.952007 0.343521 0.019565
O O1 0.500000 0.954132 0.750000
O O2 0.233741 0.042044 0.601436
O O3 0.238863 0.162171 0.767934
O O4 0.000000 0.940398 0.750000
O O5 0.473231 0.757259 0.089215
O O6 0.752870 0.769175 0.951190
O O7 0.438345 0.000000 0.000000
O O8 0.273350 0.436616 0.802384
O O9 0.032959 0.291072 0.916364
O O10 0.500000 0.349200 0.250000
O O11 0.000000 0.366183 0.250000
O O12 0.817549 0.350994 0.409685
O O13 0.862636 0.500000 0.000000
#
# Coordination Sequence:
#
# PCOD9310702 Si02
#       5
#     4   4   4   4   4
#     4  10  19  38  66  98 125 182 241 287 333 424
#     4  11  24  42  71 106 149 188 244 308 367 434
#     4  10  22  40  71 102 137 192 250 301 346 448
#     4  11  25  42  72 109 150 193 242 306 372 444
#     4  10  24  41  72 106 143 191 241 312 368 437
#
# _framework density 26.577684000000001
#
# number of rings (size 3 to 8) (size 9 to 14) (size 15 to 20)
#    0.000    1.600    2.000    2.400   11.200    1.600 
#    0.000    1.000    4.400    0.000    0.000    0.000 
#    0.000    0.000    0.000    0.000    0.000    0.000 
#
# Total GULP energy -111634.939315 kJ/mol
# GULP energy per Si atom -5581.746966 kJ/mol
# Density = 2.651719 g / cm^3
# Si number density = 26.577684 Si / 1000 Ang^3
#
#
#
# Elastic Constant Matrix: (Units=GPa)
#
#
# Indices 1 2 3 4 5 6 
#
# 1 165.6209 49.2159 14.8802 0.0000 0.0000 0.0000
# 2 49.2159 180.3150 21.2744 0.0000 0.0000 0.0000
# 3 14.8802 21.2744 56.8631 0.0000 0.0000 0.0000
# 4 0.0000 0.0000 0.0000 -34.5005 0.0000 0.0000
# 5 0.0000 0.0000 0.0000 0.0000 42.7879 0.0000
# 6 0.0000 0.0000 0.0000 0.0000 0.0000 113.2370
#
#
#
# Elastic Compliance Matrix: (Units=1/GPa)
#
#
# Indices 1 2 3 4 5 6 
#
# 1 0.006637 -0.001681 -0.001108 0.000000 0.000000 0.000000
# 2 -0.001681 0.006228 -0.001890 0.000000 0.000000 0.000000
# 3 -0.001108 -0.001890 0.018583 0.000000 0.000000 0.000000
# 4 0.000000 0.000000 0.000000 -0.028985 0.000000 0.000000
# 5 0.000000 0.000000 0.000000 0.000000 0.023371 0.000000
# 6 0.000000 0.000000 0.000000 0.000000 0.000000 0.008831
#
#
# Mechanical properties :
#
#
# Convention : Reuss Voigt Hill
#
# Bulk Modulus (GPa) = 45.26935 63.72667 54.49801
# Shear Modulus (GPa) = 97.30321 45.46677 71.38499
#
# Velocity S-wave (km/s) = 6.05726 4.14056 5.18819
# Velocity P-wave (km/s) = 8.12344 6.84752 7.51262
#
# Compressibility (1/GPa) = 0.02209000
#
# Stress axis : x y z
#
# Youngs Moduli (GPa) = 150.67297 160.57503 53.81212
#
# Poissons Ratio (x) = 0.26989 0.05962
# Poissons Ratio (y) = 0.25325 0.10171
# Poissons Ratio (z) = 0.16693 0.30351
#
# Static dielectric constant tensor:
#      x y z
#    x 2.223850 0.000000 0.000000 
#    y 0.000000 2.089950 0.000000 
#    z 0.000000 0.000000 2.133870 
# 
# From -- ./inp_files/7618.got.cif
#   From: 2010.05.17/outbox.cif.g08.bks.cpg/sg17_4_cif.got.tgz:7618.got - 2010.06.03 22:34:06.
