data_PCOD9310717
_publ_section_title
;
Structure prediction by ZEFSAII (Michael W. Deem and Ramdas Pophale) SiO2 
 PCOD9310717
Probable space group: P 2 2 21
;
_chemical_formula_sum "Si O2"
_cell_formula_units_Z 20
_cell_length_a 5.649873
_cell_length_b 18.655085
_cell_length_c 8.260347
_cell_angle_alpha 90.000000
_cell_angle_beta 90.000000
_cell_angle_gamma 90.000000
_cell_volume 870.631166
_symmetry_space_group_name_H-M "P 2 2 21"
_symmetry_group_IT_number 17
_symmetry_cell_setting 'orthorhombic'
loop_
_space_group_symop_operation_xyz
x,y,z
-x,-y,1/2+z
x,-y,-z
-x,y,1/2-z
loop_
_atom_site_type_symbol
_atom_site_label
_atom_site_fract_x
_atom_site_fract_y
_atom_site_fract_z
Si Si1 0.500000 0.607274 0.250000
Si Si2 0.373157 0.135189 0.422943
Si Si3 0.000000 0.408566 0.250000
Si Si4 0.871966 0.270097 0.086422
Si Si5 0.647724 0.000000 0.500000
Si Si6 0.000000 0.945246 0.750000
Si Si7 0.310906 0.500000 0.000000
Si Si8 0.000000 0.308848 0.750000
O O1 0.532189 0.556560 0.404455
O O2 0.250017 0.648994 0.265033
O O3 0.500000 0.134203 0.250000
O O4 0.346745 0.219030 0.460526
O O5 0.113248 0.103132 0.390612
O O6 0.502340 0.073582 0.522387
O O7 0.160246 0.352547 0.355539
O O8 0.850763 0.457283 0.371301
O O9 0.000000 0.240978 0.250000
O O10 0.023836 0.269185 0.922400
O O11 0.803136 0.990894 0.660565
#
# Coordination Sequence:
#
# PCOD9310717 Si02
#       8
#     2   4   2   4   2   2   2   2
#     4  12  28  48  76 112 160 200 268 340 404 488
#     4  10  21  41  74 106 142 200 260 309 403 479
#     4  10  24  46  76 117 151 220 258 340 412 488
#     4  10  23  46  79 105 154 207 258 319 405 487
#     4  10  22  38  74 108 140 202 248 326 390 472
#     4  10  19  42  65  99 151 180 244 322 377 468
#     4  12  26  40  82 114 164 202 284 332 418 488
#     4  12  27  52  75 116 160 208 270 338 399 502
#
# _framework density 22.971841000000001
#
# number of rings (size 3 to 8) (size 9 to 14) (size 15 to 20)
#    0.600    0.800    3.000    1.200    2.800    4.000 
#    0.000    8.000    8.800    0.000    0.000    0.000 
#    0.000    0.000    0.000    0.000    0.000    0.000 
#
# Total GULP energy -111516.955236 kJ/mol
# GULP energy per Si atom -5575.847762 kJ/mol
# Density = 2.291956 g / cm^3
# Si number density = 22.971841 Si / 1000 Ang^3
#
#
#
# Elastic Constant Matrix: (Units=GPa)
#
#
# Indices 1 2 3 4 5 6 
#
# 1 102.9472 59.5941 35.5281 0.0000 0.0000 0.0000
# 2 59.5941 119.3872 51.1512 0.0000 0.0000 0.0000
# 3 35.5281 51.1512 133.6572 0.0000 0.0000 0.0000
# 4 0.0000 0.0000 0.0000 5.8514 0.0000 0.0000
# 5 0.0000 0.0000 0.0000 0.0000 40.5966 0.0000
# 6 0.0000 0.0000 0.0000 0.0000 0.0000 62.9581
#
#
#
# Elastic Compliance Matrix: (Units=1/GPa)
#
#
# Indices 1 2 3 4 5 6 
#
# 1 0.013830 -0.006374 -0.001237 0.000000 0.000000 0.000000
# 2 -0.006374 0.012956 -0.003264 0.000000 0.000000 0.000000
# 3 -0.001237 -0.003264 0.009060 0.000000 0.000000 0.000000
# 4 0.000000 0.000000 0.000000 0.170899 0.000000 0.000000
# 5 0.000000 0.000000 0.000000 0.000000 0.024633 0.000000
# 6 0.000000 0.000000 0.000000 0.000000 0.000000 0.015884
#
#
# Mechanical properties :
#
#
# Convention : Reuss Voigt Hill
#
# Bulk Modulus (GPa) = 70.93936 72.05983 71.49960
# Shear Modulus (GPa) = 18.26750 35.86243 27.06497
#
# Velocity S-wave (km/s) = 2.82301 3.95542 3.43619
# Velocity P-wave (km/s) = 6.44778 7.23169 6.85096
#
# Compressibility (1/GPa) = 0.01409655
#
# Stress axis : x y z
#
# Youngs Moduli (GPa) = 72.30577 77.18375 110.37673
#
# Poissons Ratio (x) = 0.49193 0.13655
# Poissons Ratio (y) = 0.46084 0.36029
# Poissons Ratio (z) = 0.08945 0.25194
#
# Static dielectric constant tensor:
#      x y z
#    x 1.959330 0.000000 0.000000 
#    y 0.000000 1.926080 0.000000 
#    z 0.000000 0.000000 1.829210 
# 
# From -- ./inp_files/3558.got.cif
#   From: 2010.05.17/outbox.cif.g08.bks.cpg/sg17_2_cif.got.tgz:3558.got - 2010.06.03 22:34:06.
