data_PCOD9310691
_publ_section_title
;
Structure prediction by ZEFSAII (Michael W. Deem and Ramdas Pophale) SiO2 
 PCOD9310691
Probable space group: P 2 2 21
;
_chemical_formula_sum "Si O2"
_cell_formula_units_Z 12
_cell_length_a 6.527369
_cell_length_b 16.362483
_cell_length_c 5.072353
_cell_angle_alpha 90.000000
_cell_angle_beta 90.000000
_cell_angle_gamma 90.000000
_cell_volume 541.747409
_symmetry_space_group_name_H-M "P 2 2 21"
_symmetry_group_IT_number 17
_symmetry_cell_setting 'orthorhombic'
loop_
_space_group_symop_operation_xyz
x,y,z
-x,-y,1/2+z
x,-y,-z
-x,y,1/2-z
loop_
_atom_site_type_symbol
_atom_site_label
_atom_site_fract_x
_atom_site_fract_y
_atom_site_fract_z
Si Si1 0.000000 0.548153 0.250000
Si Si2 0.149966 0.176742 0.498209
Si Si3 0.849534 0.000000 0.000000
Si Si4 0.361898 0.348016 0.496429
O O1 0.162115 0.600752 0.419966
O O2 0.898201 0.500000 0.500000
O O3 0.294814 0.253973 0.462612
O O4 0.000000 0.187153 0.750000
O O5 0.260214 0.087919 0.510246
O O6 0.000000 0.175307 0.250000
O O7 0.000000 0.000066 0.750000
O O8 0.500000 0.352811 0.750000
O O9 0.500000 0.375501 0.250000
#
# Coordination Sequence:
#
# PCOD9310691 Si02
#       4
#     2   4   2   4
#     4  12  28  50  76  98 136 182 224 290 360 418
#     4  10  19  37  65  93 136 181 224 271 331 394
#     4   8  16  30  56  94 126 178 228 264 316 388
#     4  12  26  44  72 105 135 176 226 281 341 417
#
# _framework density 22.150542000000002
#
# number of rings (size 3 to 8) (size 9 to 14) (size 15 to 20)
#    0.000    1.333    1.667    4.000    2.333    2.667 
#    0.000    1.667    0.000    0.000    0.000    0.000 
#    0.000    0.000    0.000    0.000    0.000    0.000 
#
# Total GULP energy -66965.542976 kJ/mol
# GULP energy per Si atom -5580.461915 kJ/mol
# Density = 2.210013 g / cm^3
# Si number density = 22.150542 Si / 1000 Ang^3
#
#
#
# Elastic Constant Matrix: (Units=GPa)
#
#
# Indices 1 2 3 4 5 6 
#
# 1 77.1012 49.2426 41.4581 0.0000 0.0000 0.0000
# 2 49.2426 108.2484 39.8632 0.0000 0.0000 0.0000
# 3 41.4581 39.8632 192.2702 0.0000 0.0000 0.0000
# 4 0.0000 0.0000 0.0000 33.0517 0.0000 0.0000
# 5 0.0000 0.0000 0.0000 0.0000 35.3403 0.0000
# 6 0.0000 0.0000 0.0000 0.0000 0.0000 -16.0418
#
#
#
# Elastic Compliance Matrix: (Units=1/GPa)
#
#
# Indices 1 2 3 4 5 6 
#
# 1 0.019366 -0.007873 -0.002543 0.000000 0.000000 0.000000
# 2 -0.007873 0.013202 -0.001040 0.000000 0.000000 0.000000
# 3 -0.002543 -0.001040 0.005965 0.000000 0.000000 0.000000
# 4 0.000000 0.000000 0.000000 0.030256 0.000000 0.000000
# 5 0.000000 0.000000 0.000000 0.000000 0.028296 0.000000
# 6 0.000000 0.000000 0.000000 0.000000 0.000000 -0.062337
#
#
# Mechanical properties :
#
#
# Convention : Reuss Voigt Hill
#
# Bulk Modulus (GPa) = 64.01605 70.97195 67.49400
# Shear Modulus (GPa) = 79.53287 26.94045 53.23666
#
# Velocity S-wave (km/s) = 5.99863 3.49125 4.90777
# Velocity P-wave (km/s) = 8.77162 6.95428 7.91528
#
# Compressibility (1/GPa) = 0.01562108
#
# Stress axis : x y z
#
# Youngs Moduli (GPa) = 51.63726 75.74441 167.64500
#
# Poissons Ratio (x) = 0.59633 0.42640
# Poissons Ratio (y) = 0.40654 0.17429
# Poissons Ratio (z) = 0.13134 0.07875
#
# Static dielectric constant tensor:
#      x y z
#    x 1.799760 0.000000 0.000000 
#    y 0.000000 2.012380 0.000000 
#    z 0.000000 0.000000 1.753350 
# 
# From -- ./inp_files/168.got.cif
#   From: 2010.05.17/outbox.cif.g08.bks.cpg/sg17_1_cif.got.tgz:168.got - 2010.06.03 22:34:06.
