data_PCOD9310904
_publ_section_title
;
Structure prediction by ZEFSAII (Michael W. Deem and Ramdas Pophale) SiO2 
 PCOD9310904
Probable space group: P 2 2 21
;
_chemical_formula_sum "Si O2"
_cell_formula_units_Z 22
_cell_length_a 6.157594
_cell_length_b 11.164739
_cell_length_c 14.391672
_cell_angle_alpha 90.000000
_cell_angle_beta 90.000000
_cell_angle_gamma 90.000000
_cell_volume 989.397657
_symmetry_space_group_name_H-M "P 2 2 21"
_symmetry_group_IT_number 17
_symmetry_cell_setting 'orthorhombic'
loop_
_space_group_symop_operation_xyz
x,y,z
-x,-y,1/2+z
x,-y,-z
-x,y,1/2-z
loop_
_atom_site_type_symbol
_atom_site_label
_atom_site_fract_x
_atom_site_fract_y
_atom_site_fract_z
Si Si1 0.177048 0.864045 0.096553
Si Si2 0.124340 0.645448 0.338236
Si Si3 0.500000 0.825326 0.750000
Si Si4 0.210341 0.263185 0.084156
Si Si5 0.500000 0.798250 0.250000
Si Si6 0.026449 0.500000 0.000000
Si Si7 0.109676 0.082162 0.350153
O O1 0.353651 0.873777 0.178530
O O2 0.034768 0.750231 0.126752
O O3 0.288467 0.826039 0.999282
O O4 0.003595 0.972159 0.096629
O O5 0.343447 0.710623 0.308444
O O6 0.000000 0.590062 0.250000
O O7 0.128136 0.552020 0.420397
O O8 0.652979 0.749514 0.679292
O O9 0.641314 0.903581 0.822673
O O10 0.973598 0.205400 0.104891
O O11 0.175830 0.395634 0.044572
O O12 0.000000 0.071469 0.250000
#
# Coordination Sequence:
#
# PCOD9310904 Si02
#       7
#     4   4   2   4   2   2   4
#     4  10  21  39  64  97 133 169 213 271 332 400
#     4   9  20  38  61  90 125 166 214 274 334 390
#     4  10  24  45  69 100 132 178 229 273 334 406
#     4  10  23  43  65  95 135 177 224 275 335 397
#     4  10  20  39  65  96 128 166 219 269 332 402
#     4  10  22  44  64  88 132 176 222 280 332 390
#     4  10  21  40  63  93 132 168 211 268 331 394
#
# _framework density 22.235749999999999
#
# number of rings (size 3 to 8) (size 9 to 14) (size 15 to 20)
#    0.000    2.182    0.000    2.182    0.000   11.636 
#    0.000   30.909    0.000    0.000    0.000    0.000 
#    0.000    0.000    0.000    0.000    0.000    0.000 
#
# Total GULP energy -122714.451104 kJ/mol
# GULP energy per Si atom -5577.929596 kJ/mol
# Density = 2.218514 g / cm^3
# Si number density = 22.235750 Si / 1000 Ang^3
#
#
#
# Elastic Constant Matrix: (Units=GPa)
#
#
# Indices 1 2 3 4 5 6 
#
# 1 94.4649 38.7185 43.3305 0.0000 0.0000 0.0000
# 2 38.7185 109.0084 61.8418 0.0000 0.0000 0.0000
# 3 43.3305 61.8418 145.9964 0.0000 0.0000 0.0000
# 4 0.0000 0.0000 0.0000 31.7963 0.0000 0.0000
# 5 0.0000 0.0000 0.0000 0.0000 38.4633 0.0000
# 6 0.0000 0.0000 0.0000 0.0000 0.0000 15.4240
#
#
#
# Elastic Compliance Matrix: (Units=1/GPa)
#
#
# Indices 1 2 3 4 5 6 
#
# 1 0.013055 -0.003210 -0.002515 0.000000 0.000000 0.000000
# 2 -0.003210 0.012865 -0.004497 0.000000 0.000000 0.000000
# 3 -0.002515 -0.004497 0.009501 0.000000 0.000000 0.000000
# 4 0.000000 0.000000 0.000000 0.031450 0.000000 0.000000
# 5 0.000000 0.000000 0.000000 0.000000 0.025999 0.000000
# 6 0.000000 0.000000 0.000000 0.000000 0.000000 0.064834
#
#
# Mechanical properties :
#
#
# Convention : Reuss Voigt Hill
#
# Bulk Modulus (GPa) = 66.76830 70.80570 68.78700
# Shear Modulus (GPa) = 27.30158 30.84199 29.07179
#
# Velocity S-wave (km/s) = 3.50783 3.72835 3.61977
# Velocity P-wave (km/s) = 6.81903 7.10256 6.96224
#
# Compressibility (1/GPa) = 0.01497717
#
# Stress axis : x y z
#
# Youngs Moduli (GPa) = 76.59706 77.73126 105.25730
#
# Poissons Ratio (x) = 0.24955 0.26471
# Poissons Ratio (y) = 0.24591 0.47329
# Poissons Ratio (z) = 0.19263 0.34952
#
# Static dielectric constant tensor:
#      x y z
#    x 1.859680 0.000000 0.000000 
#    y 0.000000 1.840830 0.000000 
#    z 0.000000 0.000000 1.894490 
# 
# From -- ./inp_files/7679.got.cif
#   From: 2010.05.17/outbox.cif.g08.bks.cpg/sg17_4_cif.got.tgz:7679.got - 2010.06.03 22:34:06.
