data_PCOD9310718
_publ_section_title
;
Structure prediction by ZEFSAII (Michael W. Deem and Ramdas Pophale) SiO2 
 PCOD9310718
Probable space group: P 2 2 21
;
_chemical_formula_sum "Si O2"
_cell_formula_units_Z 22
_cell_length_a 13.267842
_cell_length_b 5.263523
_cell_length_c 13.527006
_cell_angle_alpha 90.000000
_cell_angle_beta 90.000000
_cell_angle_gamma 90.000000
_cell_volume 944.666466
_symmetry_space_group_name_H-M "P 2 2 21"
_symmetry_group_IT_number 17
_symmetry_cell_setting 'orthorhombic'
loop_
_space_group_symop_operation_xyz
x,y,z
-x,-y,1/2+z
x,-y,-z
-x,y,1/2-z
loop_
_atom_site_type_symbol
_atom_site_label
_atom_site_fract_x
_atom_site_fract_y
_atom_site_fract_z
Si Si1 0.932558 0.000000 0.000000
Si Si2 0.770647 0.001312 0.173738
Si Si3 0.228305 0.664257 0.139795
Si Si4 0.655256 0.507538 0.119313
Si Si5 0.931685 0.500000 0.500000
Si Si6 0.661195 0.000000 0.500000
Si Si7 0.569627 0.391814 0.387040
O O1 0.861633 0.020200 0.903485
O O2 0.000555 0.750352 0.996786
O O3 0.796777 0.885327 0.281679
O O4 0.685635 0.796111 0.142839
O O5 0.729307 0.287409 0.161077
O O6 0.133058 0.506823 0.102663
O O7 0.332379 0.513399 0.164617
O O8 0.263496 0.790277 0.037756
O O9 0.541453 0.441251 0.151370
O O10 0.661054 0.500000 0.000000
O O11 0.594292 0.096574 0.408652
O O12 0.565574 0.500000 0.500000
#
# Coordination Sequence:
#
# PCOD9310718 Si02
#       7
#     2   4   4   4   2   2   4
#     4  12  27  51  76 106 140 192 249 319 380 458
#     4  12  27  47  74 108 151 194 247 301 375 451
#     4  11  25  45  72 108 143 192 241 312 369 438
#     4  11  23  44  73 105 151 206 236 292 365 443
#     4  12  26  50  80  98 142 190 254 326 388 416
#     4  10  19  43  66  98 150 190 239 299 346 422
#     4   9  21  38  69 104 143 196 246 285 355 444
#
# _framework density 23.288640999999998
#
# number of rings (size 3 to 8) (size 9 to 14) (size 15 to 20)
#    0.000    1.091    4.545    1.636   10.182    1.455 
#    0.000    3.636    0.000    0.000    0.000    0.000 
#    0.000    0.000    0.000    0.000    0.000    0.000 
#
# Total GULP energy -122848.011825 kJ/mol
# GULP energy per Si atom -5584.000537 kJ/mol
# Density = 2.323563 g / cm^3
# Si number density = 23.288641 Si / 1000 Ang^3
#
#
#
# Elastic Constant Matrix: (Units=GPa)
#
#
# Indices 1 2 3 4 5 6 
#
# 1 134.6003 40.6970 39.8766 0.0000 0.0000 0.0000
# 2 40.6970 94.4062 8.5778 0.0000 0.0000 0.0000
# 3 39.8766 8.5778 85.1186 0.0000 0.0000 0.0000
# 4 0.0000 0.0000 0.0000 50.0959 0.0000 0.0000
# 5 0.0000 0.0000 0.0000 0.0000 29.0392 0.0000
# 6 0.0000 0.0000 0.0000 0.0000 0.0000 46.7632
#
#
#
# Elastic Compliance Matrix: (Units=1/GPa)
#
#
# Indices 1 2 3 4 5 6 
#
# 1 0.009849 -0.003862 -0.004225 0.000000 0.000000 0.000000
# 2 -0.003862 0.012205 0.000579 0.000000 0.000000 0.000000
# 3 -0.004225 0.000579 0.013669 0.000000 0.000000 0.000000
# 4 0.000000 0.000000 0.000000 0.019962 0.000000 0.000000
# 5 0.000000 0.000000 0.000000 0.000000 0.034436 0.000000
# 6 0.000000 0.000000 0.000000 0.000000 0.000000 0.021384
#
#
# Mechanical properties :
#
#
# Convention : Reuss Voigt Hill
#
# Bulk Modulus (GPa) = 48.29066 54.71420 51.50243
# Shear Modulus (GPa) = 37.47515 40.17792 38.82654
#
# Velocity S-wave (km/s) = 4.01579 4.15808 4.08755
# Velocity P-wave (km/s) = 6.50252 6.82625 6.66635
#
# Compressibility (1/GPa) = 0.02070794
#
# Stress axis : x y z
#
# Youngs Moduli (GPa) = 101.53696 81.93615 73.15737
#
# Poissons Ratio (x) = 0.31641 0.30907
# Poissons Ratio (y) = 0.39211 -0.04237
# Poissons Ratio (z) = 0.42897 -0.04746
#
# Static dielectric constant tensor:
#      x y z
#    x 1.879510 0.000000 0.000000 
#    y 0.000000 2.023300 0.000000 
#    z 0.000000 0.000000 1.979570 
# 
# From -- ./inp_files/8427.got.cif
#   From: 2010.05.17/outbox.cif.g08.bks.cpg/sg17_5_cif.got.tgz:8427.got - 2010.06.03 22:34:06.
