data_PCOD9310686
_publ_section_title
;
Structure prediction by ZEFSAII (Michael W. Deem and Ramdas Pophale) SiO2 
 PCOD9310686
Probable space group: P 2 2 21
;
_chemical_formula_sum "Si O2"
_cell_formula_units_Z 24
_cell_length_a 9.339659
_cell_length_b 8.853127
_cell_length_c 13.095457
_cell_angle_alpha 90.000000
_cell_angle_beta 90.000000
_cell_angle_gamma 90.000000
_cell_volume 1082.800314
_symmetry_space_group_name_H-M "P 2 2 21"
_symmetry_group_IT_number 17
_symmetry_cell_setting 'orthorhombic'
loop_
_space_group_symop_operation_xyz
x,y,z
-x,-y,1/2+z
x,-y,-z
-x,y,1/2-z
loop_
_atom_site_type_symbol
_atom_site_label
_atom_site_fract_x
_atom_site_fract_y
_atom_site_fract_z
Si Si1 0.834034 0.808251 0.780192
Si Si2 0.809389 0.716854 0.406650
Si Si3 0.575531 0.500000 0.500000
Si Si4 0.678919 0.000000 0.500000
Si Si5 0.163725 0.846803 0.293122
Si Si6 0.581081 0.252659 0.353050
Si Si7 0.872882 0.326534 0.995423
O O1 0.743033 0.723730 0.691473
O O2 0.836216 0.741727 0.894295
O O3 0.000000 0.806113 0.750000
O O4 0.780178 0.982448 0.785075
O O5 0.680976 0.621155 0.450261
O O6 0.781999 0.890969 0.436050
O O7 0.788226 0.717369 0.285314
O O8 0.958794 0.670086 0.458768
O O9 0.510387 0.396484 0.410440
O O10 0.587862 0.890530 0.572073
O O11 0.186365 0.781400 0.405814
O O12 0.000000 0.860531 0.250000
O O13 0.500000 0.217459 0.250000
O O14 0.823818 0.500000 0.000000
#
# Coordination Sequence:
#
# PCOD9310686 Si02
#       7
#     4   4   2   2   4   4   4
#     4  11  22  40  67  95 128 167 216 274 324 383
#     4  10  19  37  62  91 125 170 219 255 312 392
#     4  10  22  40  68  90 124 172 212 260 322 400
#     4  10  20  42  70  90 118 168 226 262 308 390
#     4   9  20  34  56  87 129 169 211 263 324 377
#     4  11  25  47  69  96 130 173 223 269 333 398
#     4  11  23  33  54  97 139 171 205 268 332 386
#
# _framework density 22.164750999999999
#
# number of rings (size 3 to 8) (size 9 to 14) (size 15 to 20)
#    0.000    1.667    2.500    2.500    7.000    0.667 
#    4.500    3.333    0.000    0.000    0.000    0.000 
#    0.000    0.000    0.000    0.000    0.000    0.000 
#
# Total GULP energy -133766.109016 kJ/mol
# GULP energy per Si atom -5573.587876 kJ/mol
# Density = 2.211430 g / cm^3
# Si number density = 22.164751 Si / 1000 Ang^3
#
#
#
# Elastic Constant Matrix: (Units=GPa)
#
#
# Indices 1 2 3 4 5 6 
#
# 1 30.3394 3.5726 6.4269 0.0000 0.0000 0.0000
# 2 3.5726 101.9390 56.0395 0.0000 0.0000 0.0000
# 3 6.4269 56.0395 158.7282 0.0000 0.0000 0.0000
# 4 0.0000 0.0000 0.0000 24.1818 0.0000 0.0000
# 5 0.0000 0.0000 0.0000 0.0000 25.0049 0.0000
# 6 0.0000 0.0000 0.0000 0.0000 0.0000 -15.8653
#
#
#
# Elastic Compliance Matrix: (Units=1/GPa)
#
#
# Indices 1 2 3 4 5 6 
#
# 1 0.033268 -0.000528 -0.001161 0.000000 0.000000 0.000000
# 2 -0.000528 0.012181 -0.004279 0.000000 0.000000 0.000000
# 3 -0.001161 -0.004279 0.007858 0.000000 0.000000 0.000000
# 4 0.000000 0.000000 0.000000 0.041353 0.000000 0.000000
# 5 0.000000 0.000000 0.000000 0.000000 0.039992 0.000000
# 6 0.000000 0.000000 0.000000 0.000000 0.000000 -0.063031
#
#
# Mechanical properties :
#
#
# Convention : Reuss Voigt Hill
#
# Bulk Modulus (GPa) = 24.17110 47.00939 35.59024
# Shear Modulus (GPa) = 51.36240 21.66212 36.51226
#
# Velocity S-wave (km/s) = 4.81906 3.12961 4.06311
# Velocity P-wave (km/s) = 6.47250 5.85785 6.17283
#
# Compressibility (1/GPa) = 0.04137172
#
# Stress axis : x y z
#
# Youngs Moduli (GPa) = 30.05850 82.09757 127.26204
#
# Poissons Ratio (x) = 0.04334 0.14771
# Poissons Ratio (y) = 0.01587 0.54456
# Poissons Ratio (z) = 0.03489 0.35130
#
# Static dielectric constant tensor:
#      x y z
#    x 1.941830 0.000000 0.000000 
#    y 0.000000 1.816820 0.000000 
#    z 0.000000 0.000000 2.004150 
# 
# From -- ./inp_files/6958.got.cif
#   From: 2010.05.17/outbox.cif.g08.bks.cpg/sg17_4_cif.got.tgz:6958.got - 2010.06.03 22:34:06.
