data_PCOD9310128
_publ_section_title
;
Structure prediction by ZEFSAII (Michael W. Deem and Ramdas Pophale) SiO2 
 PCOD9310128
Probable space group: P 2 2 2
;
_chemical_formula_sum "Si O2"
_cell_formula_units_Z 32
_cell_length_a 8.345470
_cell_length_b 16.736776
_cell_length_c 12.237413
_cell_angle_alpha 90.000000
_cell_angle_beta 90.000000
_cell_angle_gamma 90.000000
_cell_volume 1709.276104
_symmetry_space_group_name_H-M "P 2 2 2"
_symmetry_group_IT_number 16
_symmetry_cell_setting 'orthorhombic'
loop_
_space_group_symop_operation_xyz
x,y,z
-x,-y,z
x,-y,-z
-x,y,-z
loop_
_atom_site_type_symbol
_atom_site_label
_atom_site_fract_x
_atom_site_fract_y
_atom_site_fract_z
Si Si1 0.185321 0.588279 0.466272
Si Si2 0.118666 0.272163 0.102439
Si Si3 0.303641 0.160658 0.264995
Si Si4 0.687525 0.826908 0.700504
Si Si5 0.687001 0.748734 0.477098
Si Si6 0.173045 0.667106 0.228288
Si Si7 0.310672 0.409976 0.982244
Si Si8 0.807718 0.003095 0.370269
O O1 0.240289 0.500000 0.500000
O O2 0.284108 0.655284 0.529435
O O3 0.192925 0.619143 0.341384
O O4 0.000000 0.593716 0.500000
O O5 0.217870 0.199688 0.159130
O O6 0.008644 0.316201 0.192722
O O7 0.234559 0.341299 0.057508
O O8 0.000000 0.249324 0.000000
O O9 0.497417 0.168897 0.272322
O O10 0.246511 0.211827 0.369283
O O11 0.257569 0.071047 0.299424
O O12 0.753695 0.790739 0.584838
O O13 0.753290 0.756729 0.776903
O O14 0.750282 0.916786 0.691054
O O15 0.500000 0.763548 0.500000
O O16 0.263231 0.615056 0.138947
O O17 0.248453 0.500000 0.000000
O O18 0.500000 0.410322 0.000000
O O19 0.753404 0.000000 0.500000
O O20 0.000000 0.000000 0.372217
#
# Coordination Sequence:
#
# PCOD9310128 Si02
#       8
#     4   4   4   4   4   4   4   4
#     4  10  21  34  50  77 113 151 190 228 279 361
#     4  10  22  38  60  87 114 152 202 252 305 363
#     4  11  20  35  59  83 117 160 192 242 301 343
#     4  10  20  36  56  84 120 154 196 234 289 367
#     4   9  19  33  51  77 110 149 190 229 278 345
#     4  10  21  38  58  81 115 154 192 247 305 352
#     4  10  22  40  62  88 113 146 203 262 304 353
#     4  11  22  34  55  90 125 158 197 243 291 360
#
# _framework density 18.721374000000001
#
# number of rings (size 3 to 8) (size 9 to 14) (size 15 to 20)
#    0.000    1.875    1.250    2.625    0.000    7.000 
#    0.000    2.500    0.000    8.625    0.000   11.375 
#    0.000    0.000    0.000    0.000    0.000    0.000 
#
# Total GULP energy -178184.690766 kJ/mol
# GULP energy per Si atom -5568.271586 kJ/mol
# Density = 1.867876 g / cm^3
# Si number density = 18.721374 Si / 1000 Ang^3
#
#
#
# Elastic Constant Matrix: (Units=GPa)
#
#
# Indices 1 2 3 4 5 6 
#
# 1 50.6818 30.2727 25.4748 0.0000 0.0000 0.0000
# 2 30.2727 169.1462 77.3247 0.0000 0.0000 0.0000
# 3 25.4748 77.3247 64.7395 0.0000 0.0000 0.0000
# 4 0.0000 0.0000 0.0000 24.8537 0.0000 0.0000
# 5 0.0000 0.0000 0.0000 0.0000 17.9125 0.0000
# 6 0.0000 0.0000 0.0000 0.0000 0.0000 33.3398
#
#
#
# Elastic Compliance Matrix: (Units=1/GPa)
#
#
# Indices 1 2 3 4 5 6 
#
# 1 0.024596 0.000049 -0.009738 0.000000 0.000000 0.000000
# 2 0.000049 0.013023 -0.015574 0.000000 0.000000 0.000000
# 3 -0.009738 -0.015574 0.037879 0.000000 0.000000 0.000000
# 4 0.000000 0.000000 0.000000 0.040235 0.000000 0.000000
# 5 0.000000 0.000000 0.000000 0.000000 0.055827 0.000000
# 6 0.000000 0.000000 0.000000 0.000000 0.000000 0.029994
#
#
# Mechanical properties :
#
#
# Convention : Reuss Voigt Hill
#
# Bulk Modulus (GPa) = 40.04088 61.19021 50.61554
# Shear Modulus (GPa) = 19.20100 25.32087 22.26094
#
# Velocity S-wave (km/s) = 3.20600 3.68164 3.45202
# Velocity P-wave (km/s) = 5.92780 7.12939 6.55618
#
# Compressibility (1/GPa) = 0.02497448
#
# Stress axis : x y z
#
# Youngs Moduli (GPa) = 40.65718 76.78909 26.39954
#
# Poissons Ratio (x) = -0.00380 0.25707
# Poissons Ratio (y) = -0.00201 0.41114
# Poissons Ratio (z) = 0.39590 1.19589
#
# Static dielectric constant tensor:
#      x y z
#    x 1.675170 0.000000 0.000000 
#    y 0.000000 1.666930 0.000000 
#    z 0.000000 0.000000 1.696100 
# 
# From -- ./inp_files/6620.got.cif
#   From: 2010.05.17/outbox.cif.g08.bks.cpg/sg16_4_cif.got.tgz:6620.got - 2010.06.03 22:28:35.
