data_PCOD9310728
_publ_section_title
;
Structure prediction by ZEFSAII (Michael W. Deem and Ramdas Pophale) SiO2 
 PCOD9310728
Probable space group: P 2 2 21
;
_chemical_formula_sum "Si O2"
_cell_formula_units_Z 32
_cell_length_a 7.686966
_cell_length_b 11.635133
_cell_length_c 18.458794
_cell_angle_alpha 90.000000
_cell_angle_beta 90.000000
_cell_angle_gamma 90.000000
_cell_volume 1650.933710
_symmetry_space_group_name_H-M "P 2 2 21"
_symmetry_group_IT_number 17
_symmetry_cell_setting 'orthorhombic'
loop_
_space_group_symop_operation_xyz
x,y,z
-x,-y,1/2+z
x,-y,-z
-x,y,1/2-z
loop_
_atom_site_type_symbol
_atom_site_label
_atom_site_fract_x
_atom_site_fract_y
_atom_site_fract_z
Si Si1 0.936999 0.542448 0.379559
Si Si2 0.965535 0.774950 0.329583
Si Si3 0.449880 0.235794 0.832855
Si Si4 0.544027 0.496203 0.666717
Si Si5 0.455942 0.623597 0.530366
Si Si6 0.070230 0.121541 0.518681
Si Si7 0.477951 0.874083 0.478179
Si Si8 0.050102 0.645943 0.528114
O O1 0.030608 0.642006 0.333728
O O2 0.750495 0.512250 0.347432
O O3 0.937116 0.598998 0.460370
O O4 0.029061 0.423538 0.398238
O O5 0.758594 0.764693 0.339252
O O6 0.000000 0.823051 0.250000
O O7 0.042165 0.842995 0.397688
O O8 0.500000 0.211423 0.750000
O O9 0.517780 0.364914 0.851174
O O10 0.514447 0.145773 0.891894
O O11 0.500000 0.515828 0.750000
O O12 0.468020 0.594741 0.615387
O O13 0.527556 0.500000 0.500000
O O14 0.539039 0.747931 0.509753
O O15 0.253303 0.632071 0.506624
O O16 0.275022 0.119232 0.501376
O O17 0.998542 0.222352 0.468440
O O18 0.991185 0.000000 0.500000
O O19 0.553774 0.000000 0.500000
#
# Coordination Sequence:
#
# PCOD9310728 Si02
#       8
#     4   4   4   4   4   4   4   4
#     4   9  18  32  48  77 110 131 170 223 272 315
#     4  10  20  32  52  78 105 140 174 220 272 323
#     4  10  20  34  53  80 111 140 179 227 277 328
#     4  10  22  34  51  80 113 147 180 223 281 336
#     4  11  19  33  59  80 107 143 186 228 270 325
#     4   9  19  35  54  75 106 138 179 221 263 317
#     4  10  21  36  55  82 110 145 184 226 272 325
#     4   9  18  31  52  82 102 134 178 224 272 312
#
# _framework density 19.382971999999999
#
# number of rings (size 3 to 8) (size 9 to 14) (size 15 to 20)
#    0.000    2.250    2.500    0.750    1.750    4.500 
#    0.000    0.625    0.000    5.250    0.000    0.000 
#    0.000    0.000    0.000    0.000    0.000    0.000 
#
# Total GULP energy -178136.338153 kJ/mol
# GULP energy per Si atom -5566.760567 kJ/mol
# Density = 1.933886 g / cm^3
# Si number density = 19.382972 Si / 1000 Ang^3
#
#
#
# Elastic Constant Matrix: (Units=GPa)
#
#
# Indices 1 2 3 4 5 6 
#
# 1 41.3628 0.1465 -10.4831 0.0000 0.0000 0.0000
# 2 0.1465 159.1087 52.4372 0.0000 0.0000 0.0000
# 3 -10.4831 52.4372 73.0909 0.0000 0.0000 0.0000
# 4 0.0000 0.0000 0.0000 22.4353 0.0000 0.0000
# 5 0.0000 0.0000 0.0000 0.0000 18.2791 0.0000
# 6 0.0000 0.0000 0.0000 0.0000 0.0000 10.9818
#
#
#
# Elastic Compliance Matrix: (Units=1/GPa)
#
#
# Indices 1 2 3 4 5 6 
#
# 1 0.025397 -0.001603 0.004792 0.000000 0.000000 0.000000
# 2 -0.001603 0.008332 -0.006208 0.000000 0.000000 0.000000
# 3 0.004792 -0.006208 0.018823 0.000000 0.000000 0.000000
# 4 0.000000 0.000000 0.000000 0.044573 0.000000 0.000000
# 5 0.000000 0.000000 0.000000 0.000000 0.054707 0.000000
# 6 0.000000 0.000000 0.000000 0.000000 0.000000 0.091060
#
#
# Mechanical properties :
#
#
# Convention : Reuss Voigt Hill
#
# Bulk Modulus (GPa) = 21.49835 39.75152 30.62493
# Shear Modulus (GPa) = 18.90844 25.77003 22.33924
#
# Velocity S-wave (km/s) = 3.12672 3.65021 3.39856
# Velocity P-wave (km/s) = 4.91432 6.19019 5.58878
#
# Compressibility (1/GPa) = 0.04651519
#
# Stress axis : x y z
#
# Youngs Moduli (GPa) = 39.37538 120.01417 53.12788
#
# Poissons Ratio (x) = 0.19236 -0.25461
# Poissons Ratio (y) = 0.06311 0.32980
# Poissons Ratio (z) = -0.18870 0.74501
#
# Static dielectric constant tensor:
#      x y z
#    x 1.723850 0.000000 0.000000 
#    y 0.000000 1.764810 0.000000 
#    z 0.000000 0.000000 1.684400 
# 
# From -- ./inp_files/9534.got.cif
#   From: 2010.05.17/outbox.cif.g08.bks.cpg/sg17_5_cif.got.tgz:9534.got - 2010.06.03 22:34:06.
