data_PCOD9310679
_publ_section_title
;
Structure prediction by ZEFSAII (Michael W. Deem and Ramdas Pophale) SiO2 
 PCOD9310679
Probable space group: P 2 2 21
;
_chemical_formula_sum "Si O2"
_cell_formula_units_Z 32
_cell_length_a 5.291471
_cell_length_b 15.934703
_cell_length_c 17.604462
_cell_angle_alpha 90.000000
_cell_angle_beta 90.000000
_cell_angle_gamma 90.000000
_cell_volume 1484.373358
_symmetry_space_group_name_H-M "P 2 2 21"
_symmetry_group_IT_number 17
_symmetry_cell_setting 'orthorhombic'
loop_
_space_group_symop_operation_xyz
x,y,z
-x,-y,1/2+z
x,-y,-z
-x,y,1/2-z
loop_
_atom_site_type_symbol
_atom_site_label
_atom_site_fract_x
_atom_site_fract_y
_atom_site_fract_z
Si Si1 0.821707 0.043500 0.434792
Si Si2 0.752230 0.505359 0.802177
Si Si3 0.572986 0.317359 0.162356
Si Si4 0.190232 0.853378 0.619995
Si Si5 0.544461 0.967657 0.162898
Si Si6 0.435417 0.148626 0.533968
Si Si7 0.682149 0.681137 0.504094
Si Si8 0.181674 0.585637 0.455722
O O1 0.606833 0.082188 0.487820
O O2 0.902532 0.119202 0.380039
O O3 0.996621 0.000000 0.500000
O O4 0.731376 0.975961 0.374814
O O5 0.500000 0.490958 0.750000
O O6 0.713865 0.593630 0.847185
O O7 0.801555 0.435271 0.866121
O O8 0.000000 0.512724 0.750000
O O9 0.500000 0.322051 0.250000
O O10 0.731874 0.231786 0.157873
O O11 0.361283 0.310484 0.095783
O O12 0.225057 0.835686 0.529778
O O13 0.324485 0.940543 0.648346
O O14 0.500000 0.950557 0.250000
O O15 0.659080 0.893108 0.111660
O O16 0.602459 0.232311 0.537386
O O17 0.458617 0.617675 0.479733
O O18 0.957179 0.649392 0.479128
O O19 0.121757 0.500000 0.500000
#
# Coordination Sequence:
#
# PCOD9310679 Si02
#       8
#     4   4   4   4   4   4   4   4
#     4   9  18  34  59  84 115 161 215 261 315 381
#     4  11  25  46  69  98 137 179 217 275 345 409
#     4  10  23  40  61  97 137 173 210 268 343 404
#     4  10  19  37  59  86 120 167 210 264 312 393
#     4  10  20  37  55  85 121 164 213 264 324 375
#     4   9  21  37  59  86 123 167 212 268 319 388
#     4  11  25  42  69 102 133 175 227 281 326 406
#     4  12  25  44  72 102 132 175 227 274 333 414
#
# _framework density 21.557918000000001
#
# number of rings (size 3 to 8) (size 9 to 14) (size 15 to 20)
#    0.000    1.750    1.250    3.375    7.000    0.500 
#   11.250    1.875    0.000    0.000    0.000    0.000 
#    0.000    0.000    0.000    0.000    0.000    0.000 
#
# Total GULP energy -178235.747104 kJ/mol
# GULP energy per Si atom -5569.867097 kJ/mol
# Density = 2.150885 g / cm^3
# Si number density = 21.557918 Si / 1000 Ang^3
#
#
#
# Elastic Constant Matrix: (Units=GPa)
#
#
# Indices 1 2 3 4 5 6 
#
# 1 56.9595 2.4727 17.9613 0.0000 0.0000 0.0000
# 2 2.4727 72.6365 27.9078 0.0000 0.0000 0.0000
# 3 17.9613 27.9078 137.6775 0.0000 0.0000 0.0000
# 4 0.0000 0.0000 0.0000 29.4873 0.0000 0.0000
# 5 0.0000 0.0000 0.0000 0.0000 22.9757 0.0000
# 6 0.0000 0.0000 0.0000 0.0000 0.0000 26.4796
#
#
#
# Elastic Compliance Matrix: (Units=1/GPa)
#
#
# Indices 1 2 3 4 5 6 
#
# 1 0.018316 0.000319 -0.002454 0.000000 0.000000 0.000000
# 2 0.000319 0.014936 -0.003069 0.000000 0.000000 0.000000
# 3 -0.002454 -0.003069 0.008206 0.000000 0.000000 0.000000
# 4 0.000000 0.000000 0.000000 0.033913 0.000000 0.000000
# 5 0.000000 0.000000 0.000000 0.000000 0.043524 0.000000
# 6 0.000000 0.000000 0.000000 0.000000 0.000000 0.037765
#
#
# Mechanical properties :
#
#
# Convention : Reuss Voigt Hill
#
# Bulk Modulus (GPa) = 32.20662 40.43969 36.32316
# Shear Modulus (GPa) = 28.18209 30.38395 29.28302
#
# Velocity S-wave (km/s) = 3.61955 3.75828 3.68957
# Velocity P-wave (km/s) = 5.69563 6.13452 5.91914
#
# Compressibility (1/GPa) = 0.03104952
#
# Stress axis : x y z
#
# Youngs Moduli (GPa) = 54.59592 66.95451 121.86693
#
# Poissons Ratio (x) = -0.02139 0.29910
# Poissons Ratio (y) = -0.01744 0.37403
# Poissons Ratio (z) = 0.13399 0.20549
#
# Static dielectric constant tensor:
#      x y z
#    x 1.976230 0.000000 0.000000 
#    y 0.000000 1.897620 0.000000 
#    z 0.000000 0.000000 1.925390 
# 
# From -- ./inp_files/9147.got.cif
#   From: 2010.05.17/outbox.cif.g08.bks.cpg/sg17_5_cif.got.tgz:9147.got - 2010.06.03 22:34:06.
