data_PCOD9310072
_publ_section_title
;
Structure prediction by ZEFSAII (Michael W. Deem and Ramdas Pophale) SiO2 
 PCOD9310072
Probable space group: P 2 2 2
;
_chemical_formula_sum "Si O2"
_cell_formula_units_Z 21
_cell_length_a 11.190180
_cell_length_b 15.022863
_cell_length_c 6.581424
_cell_angle_alpha 90.000000
_cell_angle_beta 90.000000
_cell_angle_gamma 90.000000
_cell_volume 1106.393587
_symmetry_space_group_name_H-M "P 2 2 2"
_symmetry_group_IT_number 16
_symmetry_cell_setting 'orthorhombic'
loop_
_space_group_symop_operation_xyz
x,y,z
-x,-y,z
x,-y,-z
-x,y,-z
loop_
_atom_site_type_symbol
_atom_site_label
_atom_site_fract_x
_atom_site_fract_y
_atom_site_fract_z
Si Si1 0.211592 0.750409 0.732258
Si Si2 0.000000 0.721829 0.000000
Si Si3 0.115300 0.373108 0.620340
Si Si4 0.500000 0.000000 0.000000
Si Si5 0.377122 0.592481 0.887489
Si Si6 0.319772 0.500000 0.500000
Si Si7 0.619702 0.087922 0.623850
O O1 0.160504 0.704743 0.529030
O O2 0.287156 0.675413 0.858767
O O3 0.290250 0.832195 0.657363
O O4 0.099547 0.775328 0.874605
O O5 0.068834 0.660891 0.164275
O O6 0.226501 0.439600 0.627911
O O7 0.000000 0.409129 0.500000
O O8 0.579277 0.942325 0.152542
O O9 0.392813 0.560385 0.654903
O O10 0.339267 0.500000 0.000000
O O11 0.500000 0.619127 0.000000
O O12 0.500000 0.115994 0.500000
O O13 0.663693 0.000000 0.500000
#
# Coordination Sequence:
#
# PCOD9310072 Si02
#       7
#     4   2   4   1   4   2   4
#     4  10  21  38  60  87 120 159 202 248 316 367
#     4  10  20  36  61  85 114 150 206 256 292 377
#     4   9  19  35  57  84 112 157 206 253 297 355
#     4   8  18  36  64  88 118 144 194 248 306 358
#     4  10  22  38  52  83 125 163 206 247 301 369
#     4  10  19  37  56  76 120 164 202 258 302 342
#     4   9  20  39  60  91 120 151 197 258 307 373
#
# _framework density 18.980585999999999
#
# number of rings (size 3 to 8) (size 9 to 14) (size 15 to 20)
#    0.000    2.667    0.000    1.429    1.333    4.571 
#   13.714   10.952    0.000   13.714    0.000    0.000 
#    0.000    0.000    0.000    0.000    0.000    0.000 
#
# Total GULP energy -116991.111431 kJ/mol
# GULP energy per Si atom -5571.005306 kJ/mol
# Density = 1.893739 g / cm^3
# Si number density = 18.980586 Si / 1000 Ang^3
#
#
#
# Elastic Constant Matrix: (Units=GPa)
#
#
# Indices 1 2 3 4 5 6 
#
# 1 111.2483 66.8037 68.1802 0.0000 0.0000 0.0000
# 2 66.8037 106.3209 41.5278 0.0000 0.0000 0.0000
# 3 68.1802 41.5278 129.0462 0.0000 0.0000 0.0000
# 4 0.0000 0.0000 0.0000 6.0784 0.0000 0.0000
# 5 0.0000 0.0000 0.0000 0.0000 36.2880 0.0000
# 6 0.0000 0.0000 0.0000 0.0000 0.0000 46.0983
#
#
#
# Elastic Compliance Matrix: (Units=1/GPa)
#
#
# Indices 1 2 3 4 5 6 
#
# 1 0.018666 -0.009008 -0.006963 0.000000 0.000000 0.000000
# 2 -0.009008 0.015105 -0.000101 0.000000 0.000000 0.000000
# 3 -0.006963 -0.000101 0.011461 0.000000 0.000000 0.000000
# 4 0.000000 0.000000 0.000000 0.164517 0.000000 0.000000
# 5 0.000000 0.000000 0.000000 0.000000 0.027557 0.000000
# 6 0.000000 0.000000 0.000000 0.000000 0.000000 0.021693
#
#
# Mechanical properties :
#
#
# Convention : Reuss Voigt Hill
#
# Bulk Modulus (GPa) = 76.41721 77.73765 77.07743
# Shear Modulus (GPa) = 16.92009 29.03317 22.97663
#
# Velocity S-wave (km/s) = 2.98894 3.91528 3.48305
# Velocity P-wave (km/s) = 7.22910 7.84121 7.54137
#
# Compressibility (1/GPa) = 0.01308606
#
# Stress axis : x y z
#
# Youngs Moduli (GPa) = 53.57421 66.20190 87.25564
#
# Poissons Ratio (x) = 0.59638 0.60755
# Poissons Ratio (y) = 0.48262 0.00885
# Poissons Ratio (z) = 0.37303 0.00672
#
# Static dielectric constant tensor:
#      x y z
#    x 1.702860 0.000000 0.000000 
#    y 0.000000 1.660050 0.000000 
#    z 0.000000 0.000000 1.662810 
# 
# From -- ./inp_files/1465.got.cif
#   From: 2010.05.17/outbox.cif.g08.bks.cpg/sg16_1_cif.got.tgz:1465.got - 2010.06.03 22:28:35.
