data_PCOD9310095
_publ_section_title
;
Structure prediction by ZEFSAII (Michael W. Deem and Ramdas Pophale) SiO2 
 PCOD9310095
Probable space group: P 2 2 2
;
_chemical_formula_sum "Si O2"
_cell_formula_units_Z 21
_cell_length_a 12.542295
_cell_length_b 5.333433
_cell_length_c 18.224800
_cell_angle_alpha 90.000000
_cell_angle_beta 90.000000
_cell_angle_gamma 90.000000
_cell_volume 1219.120477
_symmetry_space_group_name_H-M "P 2 2 2"
_symmetry_group_IT_number 16
_symmetry_cell_setting 'orthorhombic'
loop_
_space_group_symop_operation_xyz
x,y,z
-x,-y,z
x,-y,-z
-x,y,-z
loop_
_atom_site_type_symbol
_atom_site_label
_atom_site_fract_x
_atom_site_fract_y
_atom_site_fract_z
Si Si1 0.500000 0.500000 0.500000
Si Si2 0.381470 0.106895 0.578899
Si Si3 0.626560 0.983168 0.870658
Si Si4 0.126679 0.506743 0.769187
Si Si5 0.253114 0.479166 0.082315
Si Si6 0.753649 0.995222 0.721631
O O1 0.414750 0.386337 0.557855
O O2 0.302819 0.045931 0.643878
O O3 0.500000 0.000000 0.594441
O O4 0.345618 0.000000 0.500000
O O5 0.672341 0.720810 0.901318
O O6 0.664425 0.001107 0.785871
O O7 0.500000 0.000000 0.877269
O O8 0.680363 0.221960 0.909966
O O9 0.164354 0.524604 0.854090
O O10 0.174373 0.247628 0.738383
O O11 0.000000 0.500000 0.763103
O O12 0.179259 0.748129 0.729317
O O13 0.210139 0.500000 0.000000
#
# Coordination Sequence:
#
# PCOD9310095 Si02
#       6
#     1   4   4   4   4   4
#     4   8  18  32  52  86 122 148 180 212 258 332
#     4   9  19  33  54  86 118 147 179 211 264 318
#     4  10  20  34  50  79 111 145 177 210 262 329
#     4  10  22  39  58  78 103 139 187 236 281 318
#     4  10  21  35  53  78 105 139 182 224 272 324
#     4  10  21  36  58  80 109 144 181 226 269 323
#
# _framework density 17.225534
#
# number of rings (size 3 to 8) (size 9 to 14) (size 15 to 20)
#    0.000    2.476    0.000    2.286    5.333    2.667 
#    3.429    0.000    0.000   10.286    0.000    0.000 
#    0.000    0.000    0.000    0.000    0.000    0.000 
#
# Total GULP energy -116950.185660 kJ/mol
# GULP energy per Si atom -5569.056460 kJ/mol
# Density = 1.718633 g / cm^3
# Si number density = 17.225534 Si / 1000 Ang^3
#
#
#
# Elastic Constant Matrix: (Units=GPa)
#
#
# Indices 1 2 3 4 5 6 
#
# 1 68.9249 18.9691 58.0623 0.0000 0.0000 0.0000
# 2 18.9691 98.1880 35.7394 0.0000 0.0000 0.0000
# 3 58.0623 35.7394 135.3837 0.0000 0.0000 0.0000
# 4 0.0000 0.0000 0.0000 19.0963 0.0000 0.0000
# 5 0.0000 0.0000 0.0000 0.0000 4.2103 0.0000
# 6 0.0000 0.0000 0.0000 0.0000 0.0000 23.3851
#
#
#
# Elastic Compliance Matrix: (Units=1/GPa)
#
#
# Indices 1 2 3 4 5 6 
#
# 1 0.022792 -0.000935 -0.009528 0.000000 0.000000 0.000000
# 2 -0.000935 0.011306 -0.002583 0.000000 0.000000 0.000000
# 3 -0.009528 -0.002583 0.012155 0.000000 0.000000 0.000000
# 4 0.000000 0.000000 0.000000 0.052366 0.000000 0.000000
# 5 0.000000 0.000000 0.000000 0.000000 0.237512 0.000000
# 6 0.000000 0.000000 0.000000 0.000000 0.000000 0.042762
#
#
# Mechanical properties :
#
#
# Convention : Reuss Voigt Hill
#
# Bulk Modulus (GPa) = 49.60510 58.67094 54.13802
# Shear Modulus (GPa) = 12.14458 21.98671 17.06564
#
# Velocity S-wave (km/s) = 2.65813 3.57655 3.15098
# Velocity P-wave (km/s) = 6.18715 7.15472 6.68845
#
# Compressibility (1/GPa) = 0.02015922
#
# Stress axis : x y z
#
# Youngs Moduli (GPa) = 43.87415 88.45205 82.27217
#
# Poissons Ratio (x) = 0.08272 0.78390
# Poissons Ratio (y) = 0.04103 0.21255
# Poissons Ratio (z) = 0.41804 0.22851
#
# Static dielectric constant tensor:
#      x y z
#    x 1.530430 0.000000 0.000000 
#    y 0.000000 1.760860 0.000000 
#    z 0.000000 0.000000 1.569110 
# 
# From -- ./inp_files/1447.got.cif
#   From: 2010.05.17/outbox.cif.g08.bks.cpg/sg16_1_cif.got.tgz:1447.got - 2010.06.03 22:28:35.
