data_PCOD9310561
_publ_section_title
;
Structure prediction by ZEFSAII (Michael W. Deem and Ramdas Pophale) SiO2 
 PCOD9310561
Probable space group: P 2 2 21
;
_chemical_formula_sum "Si O2"
_cell_formula_units_Z 16
_cell_length_a 7.534066
_cell_length_b 11.177942
_cell_length_c 7.907477
_cell_angle_alpha 90.000000
_cell_angle_beta 90.000000
_cell_angle_gamma 90.000000
_cell_volume 665.930965
_symmetry_space_group_name_H-M "P 2 2 21"
_symmetry_group_IT_number 17
_symmetry_cell_setting 'orthorhombic'
loop_
_space_group_symop_operation_xyz
x,y,z
-x,-y,1/2+z
x,-y,-z
-x,y,1/2-z
loop_
_atom_site_type_symbol
_atom_site_label
_atom_site_fract_x
_atom_site_fract_y
_atom_site_fract_z
Si Si1 0.287082 0.955718 0.250042
Si Si2 0.471580 0.364473 0.548389
Si Si3 0.234860 0.807463 0.909139
Si Si4 0.901188 0.744619 0.073527
O O1 0.500000 0.946499 0.250000
O O2 0.185550 0.875953 0.387659
O O3 0.244497 0.096121 0.239930
O O4 0.233437 0.890219 0.077413
O O5 0.512978 0.500000 0.500000
O O6 0.500000 0.343449 0.750000
O O7 0.597566 0.278166 0.438086
O O8 0.265393 0.335568 0.522998
O O9 0.050725 0.740350 0.931516
O O10 0.000000 0.707768 0.250000
#
# Coordination Sequence:
#
# PCOD9310561 Si02
#       4
#     4   4   4   4
#     4  10  18  38  67  93 133 171 210 266 335 402
#     4  12  24  45  72  94 131 183 228 277 329 390
#     4  10  21  39  65  99 127 170 221 265 329 405
#     4  10  19  42  65  93 129 172 219 265 340 390
#
# _framework density 24.026513000000001
#
# number of rings (size 3 to 8) (size 9 to 14) (size 15 to 20)
#    0.000    1.500    7.500    0.000    0.000    2.000 
#   22.500    0.000    0.000    0.000    0.000    0.000 
#    0.000    0.000    0.000    0.000    0.000    0.000 
#
# Total GULP energy -89531.803988 kJ/mol
# GULP energy per Si atom -5595.737749 kJ/mol
# Density = 2.397183 g / cm^3
# Si number density = 24.026513 Si / 1000 Ang^3
#
#
#
# Elastic Constant Matrix: (Units=GPa)
#
#
# Indices 1 2 3 4 5 6 
#
# 1 148.5937 2.7052 7.1618 0.0000 0.0000 0.0000
# 2 2.7052 102.9931 9.4461 0.0000 0.0000 0.0000
# 3 7.1618 9.4461 94.1488 0.0000 0.0000 0.0000
# 4 0.0000 0.0000 0.0000 17.0917 0.0000 0.0000
# 5 0.0000 0.0000 0.0000 0.0000 0.9750 0.0000
# 6 0.0000 0.0000 0.0000 0.0000 0.0000 -39.7751
#
#
#
# Elastic Compliance Matrix: (Units=1/GPa)
#
#
# Indices 1 2 3 4 5 6 
#
# 1 0.006756 -0.000132 -0.000501 0.000000 0.000000 0.000000
# 2 -0.000132 0.009802 -0.000973 0.000000 0.000000 0.000000
# 3 -0.000501 -0.000973 0.010757 0.000000 0.000000 0.000000
# 4 0.000000 0.000000 0.000000 0.058508 0.000000 0.000000
# 5 0.000000 0.000000 0.000000 0.000000 1.025593 0.000000
# 6 0.000000 0.000000 0.000000 0.000000 0.000000 -0.025141
#
#
# Mechanical properties :
#
#
# Convention : Reuss Voigt Hill
#
# Bulk Modulus (GPa) = 41.48656 42.70685 42.09671
# Shear Modulus (GPa) = 4.55572 17.41983 10.98778
#
# Velocity S-wave (km/s) = 1.37849 2.69555 2.14082
# Velocity P-wave (km/s) = 4.45400 5.24418 4.86516
#
# Compressibility (1/GPa) = 0.02410419
#
# Stress axis : x y z
#
# Youngs Moduli (GPa) = 148.01022 102.01867 92.96060
#
# Poissons Ratio (x) = 0.01342 0.04655
# Poissons Ratio (y) = 0.01947 0.09049
# Poissons Ratio (z) = 0.07412 0.09931
#
# Static dielectric constant tensor:
#      x y z
#    x 1.967410 0.000000 0.000000 
#    y 0.000000 1.921870 0.000000 
#    z 0.000000 0.000000 2.370390 
# 
# From -- ./inp_files/5779.got.cif
#   From: 2010.05.17/outbox.cif.g08.bks.cpg/sg17_3_cif.got.tgz:5779.got - 2010.06.03 22:34:06.
