data_PCOD9310176
_publ_section_title
;
Structure prediction by ZEFSAII (Michael W. Deem and Ramdas Pophale) SiO2 
 PCOD9310176
Probable space group: P 2 2 2
;
_chemical_formula_sum "Si O2"
_cell_formula_units_Z 32
_cell_length_a 17.549511
_cell_length_b 17.549514
_cell_length_c 6.670840
_cell_angle_alpha 90.000000
_cell_angle_beta 90.000000
_cell_angle_gamma 90.000000
_cell_volume 2054.521252
_symmetry_space_group_name_H-M "P 2 2 2"
_symmetry_group_IT_number 16
_symmetry_cell_setting 'orthorhombic'
loop_
_space_group_symop_operation_xyz
x,y,z
-x,-y,z
x,-y,-z
-x,y,-z
loop_
_atom_site_type_symbol
_atom_site_label
_atom_site_fract_x
_atom_site_fract_y
_atom_site_fract_z
Si Si1 0.411121 0.091919 0.028072
Si Si2 0.836546 0.722624 0.722077
Si Si3 0.722624 0.163454 0.222077
Si Si4 0.926095 0.683686 0.111309
Si Si5 0.683686 0.926095 0.388691
Si Si6 0.075050 0.823832 0.601727
Si Si7 0.091919 0.588879 0.528072
Si Si8 0.823832 0.075050 0.898273
O O1 0.380999 0.109911 0.250764
O O2 0.500000 0.106757 0.000000
O O3 0.357128 0.140132 0.880483
O O4 0.398865 0.000000 0.000000
O O5 0.749519 0.749519 0.750000
O O6 0.873993 0.786544 0.575104
O O7 0.859868 0.642872 0.619517
O O8 0.872774 0.718499 0.941966
O O9 0.718499 0.127226 0.441966
O O10 0.786544 0.126007 0.075104
O O11 0.949952 0.751801 0.261229
O O12 0.890089 0.619001 0.249236
O O13 0.000000 0.652211 0.000000
O O14 0.751801 0.949952 0.238771
O O15 0.652211 0.000000 0.500000
O O16 0.120471 0.879529 0.750000
O O17 0.000000 0.858569 0.500000
O O18 0.106757 0.500000 0.500000
O O19 0.000000 0.601135 0.500000
O O20 0.858569 0.000000 0.000000
#
# Coordination Sequence:
#
# PCOD9310176 Si02
#       8
#     4   4   4   4   4   4   4   4
#     4  10  21  34  48  77 109 134 170 217 266 321
#     4  11  20  33  54  74  94 134 179 211 260 320
#     4  11  20  33  54  74  94 134 179 211 260 320
#     4  11  18  33  54  71  98 133 172 214 262 314
#     4  11  18  33  54  71  98 133 172 214 262 314
#     4  11  21  32  51  72  94 126 178 233 267 314
#     4  10  21  34  48  77 109 134 170 217 266 321
#     4  11  21  32  51  72  94 126 178 233 267 314
#
# _framework density 15.575405
#
# number of rings (size 3 to 8) (size 9 to 14) (size 15 to 20)
#    0.000    1.250    7.500    1.500    0.000    1.000 
#    0.000    0.000    0.000   15.000    0.000    0.000 
#    0.000    0.000    0.000   15.750    0.000    0.000 
#
# Total GULP energy -178377.561396 kJ/mol
# GULP energy per Si atom -5574.298794 kJ/mol
# Density = 1.553995 g / cm^3
# Si number density = 15.575405 Si / 1000 Ang^3
#
#
#
# Elastic Constant Matrix: (Units=GPa)
#
#
# Indices 1 2 3 4 5 6 
#
# 1 79.2336 46.8970 34.8410 0.0000 0.0000 0.0000
# 2 46.8970 79.2336 34.8410 0.0000 0.0000 0.0000
# 3 34.8410 34.8410 107.5127 0.0000 0.0000 0.0000
# 4 0.0000 0.0000 0.0000 12.2394 0.0000 0.0000
# 5 0.0000 0.0000 0.0000 0.0000 12.2393 0.0000
# 6 0.0000 0.0000 0.0000 0.0000 0.0000 12.5680
#
#
#
# Elastic Compliance Matrix: (Units=1/GPa)
#
#
# Indices 1 2 3 4 5 6 
#
# 1 0.020291 -0.010634 -0.003130 0.000000 0.000000 0.000000
# 2 -0.010634 0.020291 -0.003130 0.000000 0.000000 0.000000
# 3 -0.003130 -0.003130 0.011330 0.000000 0.000000 0.000000
# 4 0.000000 0.000000 0.000000 0.081703 0.000000 0.000000
# 5 0.000000 0.000000 0.000000 0.000000 0.081704 0.000000
# 6 0.000000 0.000000 0.000000 0.000000 0.000000 0.079567
#
#
# Mechanical properties :
#
#
# Convention : Reuss Voigt Hill
#
# Bulk Modulus (GPa) = 55.16994 55.45978 55.31486
# Shear Modulus (GPa) = 14.93816 17.36941 16.15379
#
# Velocity S-wave (km/s) = 3.10027 3.34306 3.22395
# Velocity P-wave (km/s) = 6.95080 7.11238 7.03206
#
# Compressibility (1/GPa) = 0.01812581
#
# Stress axis : x y z
#
# Youngs Moduli (GPa) = 49.28307 49.28307 88.26441
#
# Poissons Ratio (x) = 0.52406 0.27623
# Poissons Ratio (y) = 0.52406 0.27623
# Poissons Ratio (z) = 0.15424 0.15423
#
# Static dielectric constant tensor:
#      x y z
#    x 1.531580 0.000000 0.000000 
#    y 0.000000 1.531580 0.000000 
#    z 0.000000 0.000000 1.571600 
# 
# From -- ./inp_files/2515.got.cif
#   From: 2010.05.17/outbox.cif.g08.bks.cpg/sg16_2_cif.got.tgz:2515.got - 2010.06.03 22:28:35.
