data_PCOD9310069
_publ_section_title
;
Structure prediction by ZEFSAII (Michael W. Deem and Ramdas Pophale) SiO2 
 PCOD9310069
Probable space group: P 2 2 2
;
_chemical_formula_sum "Si O2"
_cell_formula_units_Z 16
_cell_length_a 10.226666
_cell_length_b 7.878847
_cell_length_c 8.689142
_cell_angle_alpha 90.000000
_cell_angle_beta 90.000000
_cell_angle_gamma 90.000000
_cell_volume 700.121853
_symmetry_space_group_name_H-M "P 2 2 2"
_symmetry_group_IT_number 16
_symmetry_cell_setting 'orthorhombic'
loop_
_space_group_symop_operation_xyz
x,y,z
-x,-y,z
x,-y,-z
-x,y,-z
loop_
_atom_site_type_symbol
_atom_site_label
_atom_site_fract_x
_atom_site_fract_y
_atom_site_fract_z
Si Si1 0.678388 0.670861 0.586324
Si Si2 0.470172 0.200462 0.165796
Si Si3 0.929347 0.783535 0.670017
Si Si4 0.802878 0.155041 0.710516
O O1 0.644578 0.500000 0.500000
O O2 0.438887 0.727627 0.303287
O O3 0.815831 0.645470 0.675796
O O4 0.731040 0.801030 0.453921
O O5 0.314918 0.205778 0.181562
O O6 0.500000 0.000000 0.166554
O O7 0.500000 0.277180 0.000000
O O8 0.000000 0.798846 0.500000
O O9 0.063066 0.752260 0.759422
O O10 0.853522 0.959190 0.710540
#
# Coordination Sequence:
#
# PCOD9310069 Si02
#       4
#     4   4   4   4
#     4  11  22  38  63  97 123 164 216 271 336 379
#     4  11  24  40  62  93 137 179 218 262 321 392
#     4   9  18  34  61  93 125 159 216 281 319 369
#     4  10  19  36  63  90 125 169 217 270 315 379
#
# _framework density 22.853166999999999
#
# number of rings (size 3 to 8) (size 9 to 14) (size 15 to 20)
#    0.000    1.750    2.500    6.000    0.000    7.500 
#    0.000    3.750    0.000    0.000    0.000   10.500 
#    0.000    0.000    0.000    0.000    0.000    0.000 
#
# Total GULP energy -89084.278297 kJ/mol
# GULP energy per Si atom -5567.767394 kJ/mol
# Density = 2.280115 g / cm^3
# Si number density = 22.853167 Si / 1000 Ang^3
#
#
#
# Elastic Constant Matrix: (Units=GPa)
#
#
# Indices 1 2 3 4 5 6 
#
# 1 280.7571 53.1575 69.7403 0.0000 0.0000 0.0000
# 2 53.1575 75.5934 37.0527 0.0000 0.0000 0.0000
# 3 69.7403 37.0527 63.3288 0.0000 0.0000 0.0000
# 4 0.0000 0.0000 0.0000 -15.9024 0.0000 0.0000
# 5 0.0000 0.0000 0.0000 0.0000 8.9251 0.0000
# 6 0.0000 0.0000 0.0000 0.0000 0.0000 15.4691
#
#
#
# Elastic Compliance Matrix: (Units=1/GPa)
#
#
# Indices 1 2 3 4 5 6 
#
# 1 0.004972 -0.001139 -0.004809 0.000000 0.000000 0.000000
# 2 -0.001139 0.018809 -0.009750 0.000000 0.000000 0.000000
# 3 -0.004809 -0.009750 0.026791 0.000000 0.000000 0.000000
# 4 0.000000 0.000000 0.000000 -0.062884 0.000000 0.000000
# 5 0.000000 0.000000 0.000000 0.000000 0.112043 0.000000
# 6 0.000000 0.000000 0.000000 0.000000 0.000000 0.064645
#
#
# Mechanical properties :
#
#
# Convention : Reuss Voigt Hill
#
# Bulk Modulus (GPa) = 52.15038 82.17560 67.16299
# Shear Modulus (GPa) = 24.73228 19.01362 21.87295
#
# Velocity S-wave (km/s) = 3.29329 2.88755 3.09707
# Velocity P-wave (km/s) = 6.10985 6.86684 6.49937
#
# Compressibility (1/GPa) = 0.01917531
#
# Stress axis : x y z
#
# Youngs Moduli (GPa) = 201.12568 53.16621 37.32599
#
# Poissons Ratio (x) = 0.06057 0.17949
# Poissons Ratio (y) = 0.22913 0.36394
# Poissons Ratio (z) = 0.96718 0.51838
#
# Static dielectric constant tensor:
#      x y z
#    x 2.552220 0.000000 0.000000 
#    y 0.000000 1.948280 0.000000 
#    z 0.000000 0.000000 2.040360 
# 
# From -- ./inp_files/4420.got.cif
#   From: 2010.05.17/outbox.cif.g08.bks.cpg/sg16_3_cif.got.tgz:4420.got - 2010.06.03 22:28:35.
