data_PCOD9310293
_publ_section_title
;
Structure prediction by ZEFSAII (Michael W. Deem and Ramdas Pophale) SiO2 
 PCOD9310293
Probable space group: P 2 2 2
;
_chemical_formula_sum "Si O2"
_cell_formula_units_Z 26
_cell_length_a 8.710029
_cell_length_b 16.915637
_cell_length_c 8.925790
_cell_angle_alpha 90.000000
_cell_angle_beta 90.000000
_cell_angle_gamma 90.000000
_cell_volume 1315.087418
_symmetry_space_group_name_H-M "P 2 2 2"
_symmetry_group_IT_number 16
_symmetry_cell_setting 'orthorhombic'
loop_
_space_group_symop_operation_xyz
x,y,z
-x,-y,z
x,-y,-z
-x,y,-z
loop_
_atom_site_type_symbol
_atom_site_label
_atom_site_fract_x
_atom_site_fract_y
_atom_site_fract_z
Si Si1 0.178775 0.514377 0.676848
Si Si2 0.500000 0.784664 0.500000
Si Si3 0.678279 0.318338 0.696591
Si Si4 0.751539 0.913221 0.004227
Si Si5 0.491885 0.085928 0.250789
Si Si6 0.608357 0.390592 0.144627
Si Si7 0.173407 0.262183 0.005267
O O1 0.206117 0.500000 0.500000
O O2 0.212552 0.606602 0.692379
O O3 0.292368 0.461373 0.780901
O O4 0.000000 0.500000 0.712895
O O5 0.354346 0.731482 0.547779
O O6 0.473402 0.841911 0.359375
O O7 0.511981 0.354257 0.738565
O O8 0.745844 0.267483 0.832458
O O9 0.670377 0.905264 0.166270
O O10 0.831732 0.830659 0.965088
O O11 0.616723 0.917790 0.881024
O O12 0.828393 0.000000 0.000000
O O13 0.500000 0.000000 0.326565
O O14 0.500000 0.411262 0.000000
O O15 0.721504 0.319773 0.094935
O O16 0.000000 0.292983 0.000000
#
# Coordination Sequence:
#
# PCOD9310293 Si02
#       7
#     4   2   4   4   4   4   4
#     4  11  24  43  62  87 126 167 206 255 323 393
#     4  12  19  32  57  92 126 148 200 258 311 367
#     4  11  23  36  60  88 119 158 207 263 309 369
#     4   9  18  35  56  83 120 160 203 249 304 365
#     4   9  18  32  56  87 122 160 198 251 310 368
#     4  10  23  41  62  86 119 158 209 259 310 364
#     4  11  22  37  58  87 122 159 208 258 313 377
#
# _framework density 19.770548999999999
#
# number of rings (size 3 to 8) (size 9 to 14) (size 15 to 20)
#    0.000    1.692    1.538    4.385    4.308    5.231 
#    0.000    3.846    0.000    0.000    0.000    0.000 
#    0.000    0.000    0.000    0.000    0.000    0.000 
#
# Total GULP energy -144974.152108 kJ/mol
# GULP energy per Si atom -5575.928927 kJ/mol
# Density = 1.972555 g / cm^3
# Si number density = 19.770549 Si / 1000 Ang^3
#
#
#
# Elastic Constant Matrix: (Units=GPa)
#
#
# Indices 1 2 3 4 5 6 
#
# 1 88.6591 41.8983 18.4711 0.0000 0.0000 0.0000
# 2 41.8983 157.5599 36.5921 0.0000 0.0000 0.0000
# 3 18.4711 36.5921 73.4371 0.0000 0.0000 0.0000
# 4 0.0000 0.0000 0.0000 -6.2179 0.0000 0.0000
# 5 0.0000 0.0000 0.0000 0.0000 12.7947 0.0000
# 6 0.0000 0.0000 0.0000 0.0000 0.0000 16.4901
#
#
#
# Elastic Compliance Matrix: (Units=1/GPa)
#
#
# Indices 1 2 3 4 5 6 
#
# 1 0.013099 -0.003074 -0.001763 0.000000 0.000000 0.000000
# 2 -0.003074 0.007899 -0.003163 0.000000 0.000000 0.000000
# 3 -0.001763 -0.003163 0.015636 0.000000 0.000000 0.000000
# 4 0.000000 0.000000 0.000000 -0.160827 0.000000 0.000000
# 5 0.000000 0.000000 0.000000 0.000000 0.078157 0.000000
# 6 0.000000 0.000000 0.000000 0.000000 0.000000 0.060642
#
#
# Mechanical properties :
#
#
# Convention : Reuss Voigt Hill
#
# Bulk Modulus (GPa) = 48.46107 57.06434 52.76270
# Shear Modulus (GPa) = 133.38808 19.45970 76.42389
#
# Velocity S-wave (km/s) = 8.22281 3.14072 6.22409
# Velocity P-wave (km/s) = 10.71063 6.48677 8.85426
#
# Compressibility (1/GPa) = 0.02063512
#
# Stress axis : x y z
#
# Youngs Moduli (GPa) = 76.34110 126.60348 63.95332
#
# Poissons Ratio (x) = 0.38916 0.11276
# Poissons Ratio (y) = 0.23466 0.20226
# Poissons Ratio (z) = 0.13460 0.40040
#
# Static dielectric constant tensor:
#      x y z
#    x 1.674720 0.000000 0.000000 
#    y 0.000000 1.779550 0.000000 
#    z 0.000000 0.000000 1.740460 
# 
# From -- ./inp_files/4175.got.cif
#   From: 2010.05.17/outbox.cif.g08.bks.cpg/sg16_3_cif.got.tgz:4175.got - 2010.06.03 22:28:35.
