data_PCOD9310751
_publ_section_title
;
Structure prediction by ZEFSAII (Michael W. Deem and Ramdas Pophale) SiO2 
 PCOD9310751
Probable space group: P 2 2 21
;
_chemical_formula_sum "Si O2"
_cell_formula_units_Z 32
_cell_length_a 12.416251
_cell_length_b 15.827454
_cell_length_c 10.082159
_cell_angle_alpha 90.000000
_cell_angle_beta 90.000000
_cell_angle_gamma 90.000000
_cell_volume 1981.322108
_symmetry_space_group_name_H-M "P 2 2 21"
_symmetry_group_IT_number 17
_symmetry_cell_setting 'orthorhombic'
loop_
_space_group_symop_operation_xyz
x,y,z
-x,-y,1/2+z
x,-y,-z
-x,y,1/2-z
loop_
_atom_site_type_symbol
_atom_site_label
_atom_site_fract_x
_atom_site_fract_y
_atom_site_fract_z
Si Si1 0.913748 0.600971 0.482213
Si Si2 0.761284 0.343722 0.293292
Si Si3 0.404094 0.506173 0.850065
Si Si4 0.740548 0.652214 0.270394
Si Si5 0.601128 0.000325 0.346629
Si Si6 0.393515 0.812477 0.842432
Si Si7 0.394432 0.186255 0.844310
Si Si8 0.168128 0.398967 0.497497
O O1 0.895652 0.500000 0.500000
O O2 0.861747 0.649163 0.607072
O O3 0.848312 0.631474 0.353667
O O4 0.041184 0.614092 0.476618
O O5 0.681858 0.418850 0.339387
O O6 0.694394 0.257683 0.306751
O O7 0.798462 0.362941 0.144562
O O8 0.500000 0.523391 0.750000
O O9 0.345169 0.419363 0.812049
O O10 0.444787 0.500000 0.000000
O O11 0.690309 0.741940 0.307023
O O12 0.765495 0.642837 0.115875
O O13 0.500000 0.000014 0.250000
O O14 0.654026 0.908554 0.326508
O O15 0.564983 0.000000 0.500000
O O16 0.653406 0.092128 0.324965
O O17 0.500000 0.803601 0.750000
O O18 0.422591 0.803361 0.999109
O O19 0.500000 0.193939 0.750000
O O20 0.187895 0.500000 0.500000
#
# Coordination Sequence:
#
# PCOD9310751 Si02
#       8
#     4   4   4   4   4   4   4   4
#     4  11  20  40  58  75 102 137 181 230 273 303
#     4  12  21  37  53  79 108 138 176 217 265 318
#     4  12  24  36  51  73 108 144 173 207 255 316
#     4  12  21  37  53  79 108 138 176 217 265 318
#     4   8  16  32  52  78 105 137 176 214 255 303
#     4  10  20  34  55  80 111 143 175 214 258 315
#     4  10  20  34  55  80 111 143 175 214 258 315
#     4  11  24  36  58  79 100 139 183 232 267 307
#
# _framework density 16.150832999999999
#
# number of rings (size 3 to 8) (size 9 to 14) (size 15 to 20)
#    0.000    1.250    5.000    1.500    3.500    2.000 
#    0.000    0.000    0.000    0.000    0.000    5.250 
#    0.000    0.000    0.000    0.000    0.000    0.000 
#
# Total GULP energy -178523.359480 kJ/mol
# GULP energy per Si atom -5578.854984 kJ/mol
# Density = 1.611407 g / cm^3
# Si number density = 16.150833 Si / 1000 Ang^3
#
#
#
# Elastic Constant Matrix: (Units=GPa)
#
#
# Indices 1 2 3 4 5 6 
#
# 1 32.4579 16.6662 2.4462 0.0000 0.0000 0.0000
# 2 16.6662 102.4569 -9.3997 0.0000 0.0000 0.0000
# 3 2.4462 -9.3997 59.9621 0.0000 0.0000 0.0000
# 4 0.0000 0.0000 0.0000 21.3643 0.0000 0.0000
# 5 0.0000 0.0000 0.0000 0.0000 24.2134 0.0000
# 6 0.0000 0.0000 0.0000 0.0000 0.0000 12.2244
#
#
#
# Elastic Compliance Matrix: (Units=1/GPa)
#
#
# Indices 1 2 3 4 5 6 
#
# 1 0.033922 -0.005727 -0.002282 0.000000 0.000000 0.000000
# 2 -0.005727 0.010870 0.001938 0.000000 0.000000 0.000000
# 3 -0.002282 0.001938 0.017074 0.000000 0.000000 0.000000
# 4 0.000000 0.000000 0.000000 0.046807 0.000000 0.000000
# 5 0.000000 0.000000 0.000000 0.000000 0.041299 0.000000
# 6 0.000000 0.000000 0.000000 0.000000 0.000000 0.081803
#
#
# Mechanical properties :
#
#
# Convention : Reuss Voigt Hill
#
# Bulk Modulus (GPa) = 20.11148 23.81134 21.96141
# Shear Modulus (GPa) = 19.19442 23.90470 21.54956
#
# Velocity S-wave (km/s) = 3.45113 3.85137 3.65673
# Velocity P-wave (km/s) = 5.32538 5.87814 5.60857
#
# Compressibility (1/GPa) = 0.04972284
#
# Stress axis : x y z
#
# Youngs Moduli (GPa) = 29.47947 91.99982 58.56852
#
# Poissons Ratio (x) = 0.52691 0.13363
# Poissons Ratio (y) = 0.16884 -0.11348
# Poissons Ratio (z) = 0.06726 -0.17826
#
# Static dielectric constant tensor:
#      x y z
#    x 1.510770 0.000000 0.000000 
#    y 0.000000 1.557180 0.000000 
#    z 0.000000 0.000000 1.552710 
# 
# From -- ./inp_files/4952.got.cif
#   From: 2010.05.17/outbox.cif.g08.bks.cpg/sg17_3_cif.got.tgz:4952.got - 2010.06.03 22:34:06.
