data_PCOD9310653
_publ_section_title
;
Structure prediction by ZEFSAII (Michael W. Deem and Ramdas Pophale) SiO2 
 PCOD9310653
Probable space group: P 2 2 21
;
_chemical_formula_sum "Si O2"
_cell_formula_units_Z 28
_cell_length_a 7.248922
_cell_length_b 11.328878
_cell_length_c 15.927389
_cell_angle_alpha 90.000000
_cell_angle_beta 90.000000
_cell_angle_gamma 90.000000
_cell_volume 1307.991476
_symmetry_space_group_name_H-M "P 2 2 21"
_symmetry_group_IT_number 17
_symmetry_cell_setting 'orthorhombic'
loop_
_space_group_symop_operation_xyz
x,y,z
-x,-y,1/2+z
x,-y,-z
-x,y,1/2-z
loop_
_atom_site_type_symbol
_atom_site_label
_atom_site_fract_x
_atom_site_fract_y
_atom_site_fract_z
Si Si1 0.191479 0.869991 0.112556
Si Si2 0.622118 0.075920 0.165017
Si Si3 0.081859 0.669015 0.331911
Si Si4 0.393575 0.189376 0.625440
Si Si5 0.753644 0.128298 0.413434
Si Si6 0.249462 0.625042 0.498431
Si Si7 0.936111 0.275314 0.161810
O O1 0.039467 0.785262 0.149663
O O2 0.391734 0.825511 0.140103
O O3 0.173222 0.008249 0.130899
O O4 0.197698 0.868951 0.011412
O O5 0.500000 0.064960 0.250000
O O6 0.465385 0.124688 0.101178
O O7 0.793589 0.164702 0.175834
O O8 0.679843 0.945189 0.133157
O O9 0.000000 0.608148 0.250000
O O10 0.284933 0.721554 0.313902
O O11 0.099049 0.607340 0.422732
O O12 0.352832 0.258853 0.537931
O O13 0.869018 0.232758 0.374770
O O14 0.355953 0.500000 0.500000
O O15 0.165442 0.651724 0.588988
O O16 0.000000 0.329804 0.250000
#
# Coordination Sequence:
#
# PCOD9310653 Si02
#       7
#     4   4   4   4   4   4   4
#     4  10  19  35  59  90 126 162 202 248 314 395
#     4  11  22  35  61 101 136 163 201 257 329 408
#     4  10  22  37  62  88 120 160 213 266 320 367
#     4   9  22  37  63  88 129 166 204 264 324 376
#     4  10  20  33  56  91 129 166 201 241 314 398
#     4  10  24  46  65  87 125 174 229 276 311 367
#     4  12  23  39  64  93 131 171 207 262 335 390
#
# _framework density 21.406867999999999
#
# number of rings (size 3 to 8) (size 9 to 14) (size 15 to 20)
#    0.857    0.857    2.857    1.714    4.000    3.429 
#    0.000    0.714    0.000    0.857    0.000    0.000 
#    0.000    0.000    0.000    0.000    0.000    0.000 
#
# Total GULP energy -155932.566308 kJ/mol
# GULP energy per Si atom -5569.020225 kJ/mol
# Density = 2.135814 g / cm^3
# Si number density = 21.406868 Si / 1000 Ang^3
#
#
#
# Elastic Constant Matrix: (Units=GPa)
#
#
# Indices 1 2 3 4 5 6 
#
# 1 34.4963 20.3648 -0.4417 0.0000 0.0000 0.0000
# 2 20.3648 89.0779 39.1818 0.0000 0.0000 0.0000
# 3 -0.4417 39.1818 106.2675 0.0000 0.0000 0.0000
# 4 0.0000 0.0000 0.0000 -11.5882 0.0000 0.0000
# 5 0.0000 0.0000 0.0000 0.0000 35.0511 0.0000
# 6 0.0000 0.0000 0.0000 0.0000 0.0000 -1.6965
#
#
#
# Elastic Compliance Matrix: (Units=1/GPa)
#
#
# Indices 1 2 3 4 5 6 
#
# 1 0.034664 -0.009535 0.003660 0.000000 0.000000 0.000000
# 2 -0.009535 0.016022 -0.005947 0.000000 0.000000 0.000000
# 3 0.003660 -0.005947 0.011618 0.000000 0.000000 0.000000
# 4 0.000000 0.000000 0.000000 -0.086295 0.000000 0.000000
# 5 0.000000 0.000000 0.000000 0.000000 0.028530 0.000000
# 6 0.000000 0.000000 0.000000 0.000000 0.000000 -0.589445
#
#
# Mechanical properties :
#
#
# Convention : Reuss Voigt Hill
#
# Bulk Modulus (GPa) = 25.86646 38.67237 32.26941
# Shear Modulus (GPa) = -9.11784 15.73573 3.30895
#
# Velocity S-wave (km/s) = -2.06605 2.71417 1.24463
# Velocity P-wave (km/s) = 2.53339 5.28460 4.14397
#
# Compressibility (1/GPa) = 0.03866010
#
# Stress axis : x y z
#
# Youngs Moduli (GPa) = 28.84824 62.41526 86.07233
#
# Poissons Ratio (x) = 0.59510 -0.31499
# Poissons Ratio (y) = 0.27505 0.51187
# Poissons Ratio (z) = -0.10557 0.37118
#
# Static dielectric constant tensor:
#      x y z
#    x 1.764360 0.000000 0.000000 
#    y 0.000000 1.796540 0.000000 
#    z 0.000000 0.000000 3.012060 
# 
# From -- ./inp_files/9513.got.cif
#   From: 2010.05.17/outbox.cif.g08.bks.cpg/sg17_5_cif.got.tgz:9513.got - 2010.06.03 22:34:06.
