data_PCOD9310725
_publ_section_title
;
Structure prediction by ZEFSAII (Michael W. Deem and Ramdas Pophale) SiO2 
 PCOD9310725
Probable space group: P 2 2 21
;
_chemical_formula_sum "Si O2"
_cell_formula_units_Z 22
_cell_length_a 13.589663
_cell_length_b 17.423944
_cell_length_c 5.140183
_cell_angle_alpha 90.000000
_cell_angle_beta 90.000000
_cell_angle_gamma 90.000000
_cell_volume 1217.120941
_symmetry_space_group_name_H-M "P 2 2 21"
_symmetry_group_IT_number 17
_symmetry_cell_setting 'orthorhombic'
loop_
_space_group_symop_operation_xyz
x,y,z
-x,-y,1/2+z
x,-y,-z
-x,y,1/2-z
loop_
_atom_site_type_symbol
_atom_site_label
_atom_site_fract_x
_atom_site_fract_y
_atom_site_fract_z
Si Si1 0.690290 0.279559 0.187770
Si Si2 0.383380 0.447385 0.251654
Si Si3 0.244337 0.192997 0.793917
Si Si4 0.500000 0.804094 0.750000
Si Si5 0.069853 0.912587 0.002862
Si Si6 0.601975 0.075075 0.625439
O O1 0.680252 0.370509 0.219434
O O2 0.714497 0.245727 0.472312
O O3 0.580741 0.248675 0.109921
O O4 0.762282 0.245396 0.965063
O O5 0.366568 0.500000 0.500000
O O6 0.500000 0.426328 0.250000
O O7 0.363759 0.500000 0.000000
O O8 0.318424 0.122940 0.713072
O O9 0.152663 0.149983 0.929704
O O10 0.561882 0.861266 0.571853
O O11 0.000000 0.899484 0.750000
O O12 0.000000 0.911030 0.250000
O O13 0.110846 0.000000 0.000000
O O14 0.500000 0.046893 0.750000
O O15 0.648787 0.000000 0.500000
#
# Coordination Sequence:
#
# PCOD9310725 Si02
#       6
#     4   4   4   2   4   4
#     4  11  21  35  53  78 114 143 191 230 283 331
#     4  10  20  34  53  77 107 153 197 230 269 330
#     4  11  23  35  56  82 108 149 190 239 291 347
#     4  10  20  32  44  68 102 152 184 232 264 316
#     4  10  21  40  61  83 111 147 193 250 302 345
#     4  11  20  32  46  68 106 149 197 229 272 322
#
# _framework density 18.075441999999999
#
# number of rings (size 3 to 8) (size 9 to 14) (size 15 to 20)
#    0.000    1.455    3.636    2.727    0.000    0.000 
#    0.000    2.727    0.000    0.000    0.000    0.000 
#    0.000   40.727    0.000    0.000    0.000    0.000 
#
# Total GULP energy -122546.886260 kJ/mol
# GULP energy per Si atom -5570.313012 kJ/mol
# Density = 1.803430 g / cm^3
# Si number density = 18.075442 Si / 1000 Ang^3
#
#
#
# Elastic Constant Matrix: (Units=GPa)
#
#
# Indices 1 2 3 4 5 6 
#
# 1 45.4223 30.1109 9.6659 0.0000 0.0000 0.0000
# 2 30.1109 127.2328 37.8300 0.0000 0.0000 0.0000
# 3 9.6659 37.8300 103.1184 0.0000 0.0000 0.0000
# 4 0.0000 0.0000 0.0000 10.8607 0.0000 0.0000
# 5 0.0000 0.0000 0.0000 0.0000 16.6173 0.0000
# 6 0.0000 0.0000 0.0000 0.0000 0.0000 29.7781
#
#
#
# Elastic Compliance Matrix: (Units=1/GPa)
#
#
# Indices 1 2 3 4 5 6 
#
# 1 0.026116 -0.006120 -0.000203 0.000000 0.000000 0.000000
# 2 -0.006120 0.010256 -0.003189 0.000000 0.000000 0.000000
# 3 -0.000203 -0.003189 0.010886 0.000000 0.000000 0.000000
# 4 0.000000 0.000000 0.000000 0.092075 0.000000 0.000000
# 5 0.000000 0.000000 0.000000 0.000000 0.060178 0.000000
# 6 0.000000 0.000000 0.000000 0.000000 0.000000 0.033582
#
#
# Mechanical properties :
#
#
# Convention : Reuss Voigt Hill
#
# Bulk Modulus (GPa) = 35.41728 47.88744 41.65236
# Shear Modulus (GPa) = 19.11835 24.66234 21.89035
#
# Velocity S-wave (km/s) = 3.25575 3.69780 3.48380
# Velocity P-wave (km/s) = 5.81119 6.69195 6.26706
#
# Compressibility (1/GPa) = 0.02823480
#
# Stress axis : x y z
#
# Youngs Moduli (GPa) = 38.29072 97.50210 91.85718
#
# Poissons Ratio (x) = 0.59674 0.01862
# Poissons Ratio (y) = 0.23435 0.29292
# Poissons Ratio (z) = 0.00776 0.31092
#
# Static dielectric constant tensor:
#      x y z
#    x 1.633640 0.000000 0.000000 
#    y 0.000000 1.605010 0.000000 
#    z 0.000000 0.000000 1.655810 
# 
# From -- ./inp_files/2146.got.cif
#   From: 2010.05.17/outbox.cif.g08.bks.cpg/sg17_2_cif.got.tgz:2146.got - 2010.06.03 22:34:06.
