data_PCOD9310035
_publ_section_title
;
Structure prediction by ZEFSAII (Michael W. Deem and Ramdas Pophale) SiO2 
 PCOD9310035
Probable space group: P 2 2 2
;
_chemical_formula_sum "Si O2"
_cell_formula_units_Z 24
_cell_length_a 7.950763
_cell_length_b 5.274471
_cell_length_c 27.491564
_cell_angle_alpha 90.000000
_cell_angle_beta 90.000000
_cell_angle_gamma 90.000000
_cell_volume 1152.888121
_symmetry_space_group_name_H-M "P 2 2 2"
_symmetry_group_IT_number 16
_symmetry_cell_setting 'orthorhombic'
loop_
_space_group_symop_operation_xyz
x,y,z
-x,-y,z
x,-y,-z
-x,y,-z
loop_
_atom_site_type_symbol
_atom_site_label
_atom_site_fract_x
_atom_site_fract_y
_atom_site_fract_z
Si Si1 0.703037 0.000857 0.217334
Si Si2 0.302972 0.442364 0.946055
Si Si3 0.294194 0.999782 0.556040
Si Si4 0.194444 0.058071 0.105693
Si Si5 0.293882 0.498910 0.274069
Si Si6 0.294281 0.499354 0.613747
O O1 0.761983 0.754820 0.246827
O O2 0.500000 0.000000 0.219219
O O3 0.752171 0.986254 0.161206
O O4 0.761679 0.255446 0.244021
O O5 0.500000 0.500000 0.947100
O O6 0.281216 0.153989 0.928464
O O7 0.227719 0.652917 0.909897
O O8 0.233521 0.500000 0.000000
O O9 0.240376 0.250402 0.584636
O O10 0.500000 0.000000 0.555611
O O11 0.239514 0.000000 0.500000
O O12 0.240581 0.750424 0.585173
O O13 0.000000 0.000000 0.100917
O O14 0.500000 0.500000 0.274215
O O15 0.240204 0.504497 0.330182
O O16 0.500000 0.500000 0.614105
#
# Coordination Sequence:
#
# PCOD9310035 Si02
#       6
#     4   4   4   4   4   4
#     4  10  19  33  52  73 100 135 178 221 266 323
#     4  11  24  43  66  90 118 155 196 234 276 331
#     4   9  15  21  30  46  73 112 154 197 249 310
#     4  12  25  40  61  90 122 153 188 234 289 340
#     4   9  17  28  45  67  89 122 170 223 267 307
#     4   9  15  23  34  51  77 108 154 210 253 298
#
# _framework density 20.817284000000001
#
# number of rings (size 3 to 8) (size 9 to 14) (size 15 to 20)
#    0.000    2.000    0.000    5.000    0.000   10.667 
#    0.000    0.000    0.000    0.000    0.000    0.000 
#    0.000    0.000    0.000    0.000    0.000   58.333 
#
# Total GULP energy -134142.830957 kJ/mol
# GULP energy per Si atom -5589.284623 kJ/mol
# Density = 2.076990 g / cm^3
# Si number density = 20.817284 Si / 1000 Ang^3
#
#
#
# Elastic Constant Matrix: (Units=GPa)
#
#
# Indices 1 2 3 4 5 6 
#
# 1 22.8275 -2.3832 -7.1813 0.0000 0.0000 0.0000
# 2 -2.3832 116.7069 37.4864 0.0000 0.0000 0.0000
# 3 -7.1813 37.4864 145.1904 0.0000 0.0000 0.0000
# 4 0.0000 0.0000 0.0000 47.5093 0.0000 0.0000
# 5 0.0000 0.0000 0.0000 0.0000 -8.6140 0.0000
# 6 0.0000 0.0000 0.0000 0.0000 0.0000 7.9996
#
#
#
# Elastic Compliance Matrix: (Units=1/GPa)
#
#
# Indices 1 2 3 4 5 6 
#
# 1 0.044504 0.000220 0.002144 0.000000 0.000000 0.000000
# 2 0.000220 0.009344 -0.002402 0.000000 0.000000 0.000000
# 3 0.002144 -0.002402 0.007614 0.000000 0.000000 0.000000
# 4 0.000000 0.000000 0.000000 0.021049 0.000000 0.000000
# 5 0.000000 0.000000 0.000000 0.000000 -0.116090 0.000000
# 6 0.000000 0.000000 0.000000 0.000000 0.000000 0.125006
#
#
# Mechanical properties :
#
#
# Convention : Reuss Voigt Hill
#
# Bulk Modulus (GPa) = 16.28984 37.84095 27.06540
# Shear Modulus (GPa) = 44.65714 26.49917 35.57816
#
# Velocity S-wave (km/s) = 4.63665 3.57170 4.13857
# Velocity P-wave (km/s) = 6.04209 5.93519 5.98888
#
# Compressibility (1/GPa) = 0.06138794
#
# Stress axis : x y z
#
# Youngs Moduli (GPa) = 22.46968 107.01587 131.34271
#
# Poissons Ratio (x) = -0.02355 -0.28166
# Poissons Ratio (y) = -0.00494 0.31545
# Poissons Ratio (z) = -0.04818 0.25702
#
# Static dielectric constant tensor:
#      x y z
#    x 1.746260 0.000000 0.000000 
#    y 0.000000 1.724220 0.000000 
#    z 0.000000 0.000000 1.733650 
# 
# From -- ./inp_files/9540.got.cif
#   From: 2010.05.17/outbox.cif.g08.bks.cpg/sg16_5_cif.got.tgz:9540.got - 2010.06.03 22:28:35.
