data_PCOD9310851
_publ_section_title
;
Structure prediction by ZEFSAII (Michael W. Deem and Ramdas Pophale) SiO2 
 PCOD9310851
Probable space group: P 2 2 21
;
_chemical_formula_sum "Si O2"
_cell_formula_units_Z 26
_cell_length_a 5.357221
_cell_length_b 11.504296
_cell_length_c 19.658695
_cell_angle_alpha 90.000000
_cell_angle_beta 90.000000
_cell_angle_gamma 90.000000
_cell_volume 1211.586135
_symmetry_space_group_name_H-M "P 2 2 21"
_symmetry_group_IT_number 17
_symmetry_cell_setting 'orthorhombic'
loop_
_space_group_symop_operation_xyz
x,y,z
-x,-y,1/2+z
x,-y,-z
-x,y,1/2-z
loop_
_atom_site_type_symbol
_atom_site_label
_atom_site_fract_x
_atom_site_fract_y
_atom_site_fract_z
Si Si1 0.128499 0.494066 0.823233
Si Si2 0.194780 0.280437 0.629772
Si Si3 0.791597 0.309979 0.427291
Si Si4 0.010415 0.032030 0.581328
Si Si5 0.500000 0.342863 0.750000
Si Si6 0.480324 0.940051 0.925135
Si Si7 0.700190 0.629049 0.996195
O O1 0.145575 0.617455 0.859559
O O2 0.385421 0.430301 0.805411
O O3 0.000000 0.508188 0.750000
O O4 0.979861 0.394579 0.864517
O O5 0.074441 0.162642 0.602360
O O6 0.309902 0.268095 0.704996
O O7 0.375249 0.313296 0.567546
O O8 0.647547 0.186333 0.426256
O O9 0.561168 0.383732 0.457572
O O10 0.060572 0.301086 0.465208
O O11 0.985916 0.000000 0.500000
O O12 0.243222 0.952222 0.605205
O O13 0.736647 0.011529 0.611653
O O14 0.510340 0.000000 0.000000
O O15 0.807231 0.500000 0.000000
#
# Coordination Sequence:
#
# PCOD9310851 Si02
#       7
#     4   4   4   4   2   4   4
#     4  10  24  44  66  99 131 191 231 284 346 430
#     4  11  23  41  68  97 138 177 234 286 353 416
#     4  12  24  41  66  99 141 176 228 289 356 419
#     4  10  21  38  62  94 129 170 217 272 340 405
#     4  10  24  44  68  94 134 184 234 278 344 422
#     4  10  20  38  59  92 129 177 215 266 340 406
#     4  12  23  36  61 103 138 166 216 291 356 419
#
# _framework density 21.459472000000002
#
# number of rings (size 3 to 8) (size 9 to 14) (size 15 to 20)
#    0.000    1.231    1.538    6.000    6.462    0.000 
#    0.000    0.000    3.385    0.000    0.000    0.000 
#    0.000    0.000    0.000    0.000    0.000    0.000 
#
# Total GULP energy -144745.457022 kJ/mol
# GULP energy per Si atom -5567.132962 kJ/mol
# Density = 2.141063 g / cm^3
# Si number density = 21.459472 Si / 1000 Ang^3
#
#
#
# Elastic Constant Matrix: (Units=GPa)
#
#
# Indices 1 2 3 4 5 6 
#
# 1 87.3011 -30.2101 4.6182 0.0000 0.0000 0.0000
# 2 -30.2101 60.9304 23.3163 0.0000 0.0000 0.0000
# 3 4.6182 23.3163 57.2142 0.0000 0.0000 0.0000
# 4 0.0000 0.0000 0.0000 18.0898 0.0000 0.0000
# 5 0.0000 0.0000 0.0000 0.0000 31.8813 0.0000
# 6 0.0000 0.0000 0.0000 0.0000 0.0000 17.2607
#
#
#
# Elastic Compliance Matrix: (Units=1/GPa)
#
#
# Indices 1 2 3 4 5 6 
#
# 1 0.014947 0.009327 -0.005008 0.000000 0.000000 0.000000
# 2 0.009327 0.025265 -0.011049 0.000000 0.000000 0.000000
# 3 -0.005008 -0.011049 0.022385 0.000000 0.000000 0.000000
# 4 0.000000 0.000000 0.000000 0.055280 0.000000 0.000000
# 5 0.000000 0.000000 0.000000 0.000000 0.031366 0.000000
# 6 0.000000 0.000000 0.000000 0.000000 0.000000 0.057935
#
#
# Mechanical properties :
#
#
# Convention : Reuss Voigt Hill
#
# Bulk Modulus (GPa) = 20.35061 22.32160 21.33611
# Shear Modulus (GPa) = 21.09559 27.29446 24.19503
#
# Velocity S-wave (km/s) = 3.13875 3.57025 3.36143
# Velocity P-wave (km/s) = 4.75811 5.23640 5.00297
#
# Compressibility (1/GPa) = 0.04913857
#
# Stress axis : x y z
#
# Youngs Moduli (GPa) = 66.90231 39.58061 44.67249
#
# Poissons Ratio (x) = -0.36918 0.22370
# Poissons Ratio (y) = -0.62402 0.49359
# Poissons Ratio (z) = 0.33502 0.43733
#
# Static dielectric constant tensor:
#      x y z
#    x 0.000000 0.000000 0.000000 
#    y 0.000000 0.000000 0.000000 
#    z 0.000000 0.000000 0.000000 
# 
# From -- ./inp_files/9057.got.cif
#   From: 2010.05.17/outbox.cif.g08.bks.cpg/sg17_5_cif.got.tgz:9057.got - 2010.06.03 22:34:06.
