data_PCOD9310755
_publ_section_title
;
Structure prediction by ZEFSAII (Michael W. Deem and Ramdas Pophale) SiO2 
 PCOD9310755
Probable space group: P 2 2 21
;
_chemical_formula_sum "Si O2"
_cell_formula_units_Z 12
_cell_length_a 15.230966
_cell_length_b 8.468239
_cell_length_c 4.997587
_cell_angle_alpha 90.000000
_cell_angle_beta 90.000000
_cell_angle_gamma 90.000000
_cell_volume 644.586074
_symmetry_space_group_name_H-M "P 2 2 21"
_symmetry_group_IT_number 17
_symmetry_cell_setting 'orthorhombic'
loop_
_space_group_symop_operation_xyz
x,y,z
-x,-y,1/2+z
x,-y,-z
-x,y,1/2-z
loop_
_atom_site_type_symbol
_atom_site_label
_atom_site_fract_x
_atom_site_fract_y
_atom_site_fract_z
Si Si1 0.689636 0.323104 0.383784
Si Si2 0.500000 0.387686 0.250000
Si Si3 0.940399 0.000000 0.000000
Si Si4 0.231448 0.167487 0.607532
O O1 0.695830 0.500000 0.500000
O O2 0.586230 0.293088 0.335886
O O3 0.733178 0.209279 0.602092
O O4 0.738610 0.298189 0.104192
O O5 0.474648 0.500000 0.500000
O O6 0.000000 0.047702 0.250000
O O7 0.873050 0.863460 0.096914
O O8 0.268757 0.000000 0.500000
#
# Coordination Sequence:
#
# PCOD9310755 Si02
#       4
#     4   2   2   4
#     4  11  20  37  59  85 117 154 197 236 280 335
#     4  10  20  34  56  84 116 162 202 228 272 350
#     4  10  20  38  64  84 110 152 196 228 286 376
#     4  10  22  36  60  88 113 147 199 235 293 341
#
# _framework density 18.616598
#
# number of rings (size 3 to 8) (size 9 to 14) (size 15 to 20)
#    1.000    0.667    0.000    8.000    0.000    0.000 
#    0.000    3.333    0.000   22.000    0.000    0.000 
#    0.000    0.000    0.000    0.000    0.000    0.000 
#
# Total GULP energy -66912.159456 kJ/mol
# GULP energy per Si atom -5576.013288 kJ/mol
# Density = 1.857423 g / cm^3
# Si number density = 18.616598 Si / 1000 Ang^3
#
#
#
# Elastic Constant Matrix: (Units=GPa)
#
#
# Indices 1 2 3 4 5 6 
#
# 1 146.6064 22.3773 49.2714 0.0000 0.0000 0.0000
# 2 22.3773 34.0937 0.3735 0.0000 0.0000 0.0000
# 3 49.2714 0.3735 112.0777 0.0000 0.0000 0.0000
# 4 0.0000 0.0000 0.0000 39.7782 0.0000 0.0000
# 5 0.0000 0.0000 0.0000 0.0000 34.4159 0.0000
# 6 0.0000 0.0000 0.0000 0.0000 0.0000 120.7780
#
#
#
# Elastic Compliance Matrix: (Units=1/GPa)
#
#
# Indices 1 2 3 4 5 6 
#
# 1 0.009052 -0.005898 -0.003960 0.000000 0.000000 0.000000
# 2 -0.005898 0.033175 0.002482 0.000000 0.000000 0.000000
# 3 -0.003960 0.002482 0.010655 0.000000 0.000000 0.000000
# 4 0.000000 0.000000 0.000000 0.025139 0.000000 0.000000
# 5 0.000000 0.000000 0.000000 0.000000 0.029056 0.000000
# 6 0.000000 0.000000 0.000000 0.000000 0.000000 0.008280
#
#
# Mechanical properties :
#
#
# Convention : Reuss Voigt Hill
#
# Bulk Modulus (GPa) = 26.22541 48.53577 37.38059
# Shear Modulus (GPa) = 35.00953 53.71144 44.36049
#
# Velocity S-wave (km/s) = 4.34124 5.37717 4.88674
# Velocity P-wave (km/s) = 6.26468 8.04238 7.20854
#
# Compressibility (1/GPa) = 0.03813096
#
# Stress axis : x y z
#
# Youngs Moduli (GPa) = 110.47274 30.14334 93.85354
#
# Poissons Ratio (x) = 0.17778 0.37164
# Poissons Ratio (y) = 0.65155 -0.23297
# Poissons Ratio (z) = 0.43745 -0.07482
#
# Static dielectric constant tensor:
#      x y z
#    x 1.644430 0.000000 0.000000 
#    y 0.000000 1.698680 0.000000 
#    z 0.000000 0.000000 1.633380 
# 
# From -- ./inp_files/1894.got.cif
#   From: 2010.05.17/outbox.cif.g08.bks.cpg/sg17_1_cif.got.tgz:1894.got - 2010.06.03 22:34:06.
