data_PCOD9310511
_publ_section_title
;
Structure prediction by ZEFSAII (Michael W. Deem and Ramdas Pophale) SiO2 
 PCOD9310511
Probable space group: P 2 2 21
;
_chemical_formula_sum "Si O2"
_cell_formula_units_Z 24
_cell_length_a 12.330608
_cell_length_b 13.642228
_cell_length_c 5.311424
_cell_angle_alpha 90.000000
_cell_angle_beta 90.000000
_cell_angle_gamma 90.000000
_cell_volume 893.471629
_symmetry_space_group_name_H-M "P 2 2 21"
_symmetry_group_IT_number 17
_symmetry_cell_setting 'orthorhombic'
loop_
_space_group_symop_operation_xyz
x,y,z
-x,-y,1/2+z
x,-y,-z
-x,y,1/2-z
loop_
_atom_site_type_symbol
_atom_site_label
_atom_site_fract_x
_atom_site_fract_y
_atom_site_fract_z
Si Si1 0.621779 0.609255 0.344262
Si Si2 0.620640 0.838105 0.849243
Si Si3 0.719349 0.622727 0.827032
Si Si4 0.697450 0.835743 0.367246
Si Si5 0.072030 0.887402 0.004205
Si Si6 0.057296 0.615543 0.988069
O O1 0.500000 0.597545 0.250000
O O2 0.630704 0.576551 0.637992
O O3 0.640678 0.728248 0.369647
O O4 0.709986 0.586046 0.117866
O O5 0.500000 0.816646 0.750000
O O6 0.690356 0.737006 0.862404
O O7 0.666815 0.895598 0.614465
O O8 0.648112 0.883135 0.117221
O O9 0.821401 0.613432 0.635713
O O10 0.825429 0.820686 0.416099
O O11 0.000000 0.872825 0.750000
O O12 0.000000 0.880799 0.250000
O O13 0.111786 0.000000 0.000000
O O14 0.000000 0.665194 0.750000
O O15 0.029356 0.500000 0.000000
O O16 0.000000 0.652198 0.250000
#
# Coordination Sequence:
#
# PCOD9310511 Si02
#       6
#     4   4   4   4   4   4
#     4  10  19  33  54  83 112 140 172 214 277 336
#     4  10  19  33  54  83 112 140 172 214 277 336
#     4  10  18  32  54  78 105 142 179 216 267 329
#     4  10  18  32  54  78 105 142 179 216 267 329
#     4  10  21  37  55  76 105 145 189 229 269 315
#     4  10  21  37  55  76 105 145 189 229 269 315
#
# _framework density 26.861512000000001
#
# number of rings (size 3 to 8) (size 9 to 14) (size 15 to 20)
#    0.000    2.000    0.000    7.000    0.000    0.000 
#    0.000   13.333    0.000    6.000    0.000    0.000 
#    0.000    0.000    0.000    0.000    0.000    0.000 
#
# Total GULP energy -133626.260611 kJ/mol
# GULP energy per Si atom -5567.760859 kJ/mol
# Density = 2.680037 g / cm^3
# Si number density = 26.861512 Si / 1000 Ang^3
#
#
#
# Elastic Constant Matrix: (Units=GPa)
#
#
# Indices 1 2 3 4 5 6 
#
# 1 125.4973 -30.0795 90.3041 0.0000 0.0000 0.0000
# 2 -30.0795 54.0495 13.3555 0.0000 0.0000 0.0000
# 3 90.3041 13.3555 323.6854 0.0000 0.0000 0.0000
# 4 0.0000 0.0000 0.0000 22.2718 0.0000 0.0000
# 5 0.0000 0.0000 0.0000 0.0000 49.8892 0.0000
# 6 0.0000 0.0000 0.0000 0.0000 0.0000 9.0963
#
#
#
# Elastic Compliance Matrix: (Units=1/GPa)
#
#
# Indices 1 2 3 4 5 6 
#
# 1 0.012668 0.008005 -0.003864 0.000000 0.000000 0.000000
# 2 0.008005 0.023750 -0.003213 0.000000 0.000000 0.000000
# 3 -0.003864 -0.003213 0.004300 0.000000 0.000000 0.000000
# 4 0.000000 0.000000 0.000000 0.044900 0.000000 0.000000
# 5 0.000000 0.000000 0.000000 0.000000 0.020044 0.000000
# 6 0.000000 0.000000 0.000000 0.000000 0.000000 0.109935
#
#
# Mechanical properties :
#
#
# Convention : Reuss Voigt Hill
#
# Bulk Modulus (GPa) = 23.48962 72.26584 47.87773
# Shear Modulus (GPa) = 21.93623 44.89495 33.41559
#
# Velocity S-wave (km/s) = 2.86079 4.09265 3.53086
# Velocity P-wave (km/s) = 4.43575 7.02101 5.87241
#
# Compressibility (1/GPa) = 0.04257200
#
# Stress axis : x y z
#
# Youngs Moduli (GPa) = 78.94201 42.10493 232.55269
#
# Poissons Ratio (x) = -0.33703 0.89867
# Poissons Ratio (y) = -0.63190 0.74722
# Poissons Ratio (z) = 0.30506 0.13529
#
# Static dielectric constant tensor:
#      x y z
#    x 2.245400 0.000000 0.000000 
#    y 0.000000 2.374770 0.000000 
#    z 0.000000 0.000000 2.492640 
# 
# From -- ./inp_files/1676.got.cif
#   From: 2010.05.17/outbox.cif.g08.bks.cpg/sg17_1_cif.got.tgz:1676.got - 2010.06.03 22:34:06.
