data_PCOD9310158
_publ_section_title
;
Structure prediction by ZEFSAII (Michael W. Deem and Ramdas Pophale) SiO2 
 PCOD9310158
Probable space group: P 2 2 2
;
_chemical_formula_sum "Si O2"
_cell_formula_units_Z 32
_cell_length_a 14.993510
_cell_length_b 8.741066
_cell_length_c 12.345710
_cell_angle_alpha 90.000000
_cell_angle_beta 90.000000
_cell_angle_gamma 90.000000
_cell_volume 1618.019623
_symmetry_space_group_name_H-M "P 2 2 2"
_symmetry_group_IT_number 16
_symmetry_cell_setting 'orthorhombic'
loop_
_space_group_symop_operation_xyz
x,y,z
-x,-y,z
x,-y,-z
-x,y,-z
loop_
_atom_site_type_symbol
_atom_site_label
_atom_site_fract_x
_atom_site_fract_y
_atom_site_fract_z
Si Si1 0.914772 0.597613 0.824841
Si Si2 0.868697 0.587552 0.393762
Si Si3 0.253305 0.236815 0.915509
Si Si4 0.492416 0.820861 0.629285
Si Si5 0.308613 0.328671 0.312246
Si Si6 0.411561 0.400237 0.801662
Si Si7 0.963802 0.846004 0.274988
Si Si8 0.213081 0.903059 0.849059
O O1 0.883598 0.508411 0.716770
O O2 0.826925 0.642140 0.892473
O O3 0.000000 0.500000 0.870494
O O4 0.958656 0.754098 0.784696
O O5 0.898210 0.500000 0.500000
O O6 0.764172 0.624962 0.400629
O O7 0.922189 0.740527 0.367578
O O8 0.350326 0.311322 0.890250
O O9 0.241557 0.081076 0.844364
O O10 0.237690 0.170380 0.035347
O O11 0.500000 0.804986 0.500000
O O12 0.394472 0.757263 0.647335
O O13 0.555259 0.717943 0.707841
O O14 0.500000 0.000000 0.657996
O O15 0.343675 0.478199 0.250614
O O16 0.261099 0.207786 0.234747
O O17 0.500000 0.500000 0.836822
O O18 0.890215 0.886283 0.183663
O O19 0.000000 0.000000 0.324030
#
# Coordination Sequence:
#
# PCOD9310158 Si02
#       8
#     4   4   4   4   4   4   4   4
#     4  10  21  38  60  89 130 168 204 270 312 377
#     4  10  22  39  62  90 126 174 210 259 325 385
#     4  11  21  41  64  91 132 169 216 260 330 386
#     4  10  22  39  63  94 123 161 211 268 329 394
#     4  10  21  39  60  90 127 161 209 266 319 380
#     4  10  22  39  64  91 124 165 210 268 320 384
#     4  10  20  40  63  90 130 167 217 269 319 381
#     4  10  23  39  64  94 127 171 212 268 321 397
#
# _framework density 19.777263000000001
#
# number of rings (size 3 to 8) (size 9 to 14) (size 15 to 20)
#    0.000    1.875    2.500    0.750    1.750    5.000 
#    0.000    8.750    0.000    6.750    0.000    0.000 
#    0.000    0.000    0.000    0.000    0.000    0.000 
#
# Total GULP energy -178452.916376 kJ/mol
# GULP energy per Si atom -5576.653637 kJ/mol
# Density = 1.973225 g / cm^3
# Si number density = 19.777263 Si / 1000 Ang^3
#
#
#
# Elastic Constant Matrix: (Units=GPa)
#
#
# Indices 1 2 3 4 5 6 
#
# 1 94.0462 39.4351 14.0545 0.0000 0.0000 0.0000
# 2 39.4351 120.0903 30.9131 0.0000 0.0000 0.0000
# 3 14.0545 30.9131 47.9501 0.0000 0.0000 0.0000
# 4 0.0000 0.0000 0.0000 22.7212 0.0000 0.0000
# 5 0.0000 0.0000 0.0000 0.0000 -23.6066 0.0000
# 6 0.0000 0.0000 0.0000 0.0000 0.0000 25.7907
#
#
#
# Elastic Compliance Matrix: (Units=1/GPa)
#
#
# Indices 1 2 3 4 5 6 
#
# 1 0.012389 -0.003757 -0.001209 0.000000 0.000000 0.000000
# 2 -0.003757 0.011123 -0.006070 0.000000 0.000000 0.000000
# 3 -0.001209 -0.006070 0.025123 0.000000 0.000000 0.000000
# 4 0.000000 0.000000 0.000000 0.044012 0.000000 0.000000
# 5 0.000000 0.000000 0.000000 0.000000 -0.042361 0.000000
# 6 0.000000 0.000000 0.000000 0.000000 0.000000 0.038774
#
#
# Mechanical properties :
#
#
# Convention : Reuss Voigt Hill
#
# Bulk Modulus (GPa) = 37.64660 47.87689 42.76175
# Shear Modulus (GPa) = 41.67156 16.82668 29.24912
#
# Velocity S-wave (km/s) = 4.59523 2.92003 3.84985
# Velocity P-wave (km/s) = 6.87252 5.96903 6.43665
#
# Compressibility (1/GPa) = 0.02656282
#
# Stress axis : x y z
#
# Youngs Moduli (GPa) = 80.71561 89.90143 39.80470
#
# Poissons Ratio (x) = 0.33777 0.04813
# Poissons Ratio (y) = 0.30325 0.24161
# Poissons Ratio (z) = 0.09760 0.54569
#
# Static dielectric constant tensor:
#      x y z
#    x 1.583590 0.000000 0.000000 
#    y 0.000000 1.881000 0.000000 
#    z 0.000000 0.000000 1.707850 
# 
# From -- ./inp_files/7174.got.cif
#   From: 2010.05.17/outbox.cif.g08.bks.cpg/sg16_4_cif.got.tgz:7174.got - 2010.06.03 22:28:35.
