data_PCOD9310827
_publ_section_title
;
Structure prediction by ZEFSAII (Michael W. Deem and Ramdas Pophale) SiO2 
 PCOD9310827
Probable space group: P 2 2 21
;
_chemical_formula_sum "Si O2"
_cell_formula_units_Z 24
_cell_length_a 8.043090
_cell_length_b 8.508101
_cell_length_c 17.614474
_cell_angle_alpha 90.000000
_cell_angle_beta 90.000000
_cell_angle_gamma 90.000000
_cell_volume 1205.383505
_symmetry_space_group_name_H-M "P 2 2 21"
_symmetry_group_IT_number 17
_symmetry_cell_setting 'orthorhombic'
loop_
_space_group_symop_operation_xyz
x,y,z
-x,-y,1/2+z
x,-y,-z
-x,y,1/2-z
loop_
_atom_site_type_symbol
_atom_site_label
_atom_site_fract_x
_atom_site_fract_y
_atom_site_fract_z
Si Si1 0.393264 0.107668 0.312378
Si Si2 0.532437 0.698299 0.422444
Si Si3 0.154092 0.769056 0.804164
Si Si4 0.800094 0.106490 0.924275
Si Si5 0.396196 0.358648 0.096914
Si Si6 0.828650 0.929553 0.414131
O O1 0.500000 0.011553 0.250000
O O2 0.302080 0.228282 0.256909
O O3 0.501832 0.208302 0.371127
O O4 0.258261 0.004443 0.355177
O O5 0.346393 0.765938 0.427588
O O6 0.597617 0.665162 0.507415
O O7 0.531110 0.528761 0.382651
O O8 0.667947 0.824932 0.393322
O O9 0.210934 0.648266 0.868682
O O10 0.000000 0.740582 0.750000
O O11 0.147206 0.932370 0.851669
O O12 0.992027 0.157869 0.916185
O O13 0.792557 0.000000 0.000000
O O14 0.802490 0.000000 0.500000
#
# Coordination Sequence:
#
# PCOD9310827 Si02
#       6
#     4   4   4   4   4   4
#     4  10  20  37  61  85 117 162 210 243 306 368
#     4  11  21  40  63  89 129 157 206 262 314 358
#     4  11  21  40  63  88 123 165 207 255 305 380
#     4  11  21  37  63  95 120 157 207 266 302 361
#     4  10  22  39  59  90 121 170 203 248 315 383
#     4  11  22  39  65  98 120 158 214 264 308 361
#
# _framework density 19.910675999999999
#
# number of rings (size 3 to 8) (size 9 to 14) (size 15 to 20)
#    0.000    1.333    5.000    2.500    0.000    0.000 
#    3.000   10.000    0.000    0.000    0.000    0.000 
#    0.000    0.000    0.000    0.000    0.000    0.000 
#
# Total GULP energy -133657.181355 kJ/mol
# GULP energy per Si atom -5569.049223 kJ/mol
# Density = 1.986536 g / cm^3
# Si number density = 19.910676 Si / 1000 Ang^3
#
#
#
# Elastic Constant Matrix: (Units=GPa)
#
#
# Indices 1 2 3 4 5 6 
#
# 1 93.9851 18.1281 3.0500 0.0000 0.0000 0.0000
# 2 18.1281 56.9545 0.1078 0.0000 0.0000 0.0000
# 3 3.0500 0.1078 55.6604 0.0000 0.0000 0.0000
# 4 0.0000 0.0000 0.0000 12.4076 0.0000 0.0000
# 5 0.0000 0.0000 0.0000 0.0000 30.7022 0.0000
# 6 0.0000 0.0000 0.0000 0.0000 0.0000 -3.7121
#
#
#
# Elastic Compliance Matrix: (Units=1/GPa)
#
#
# Indices 1 2 3 4 5 6 
#
# 1 0.011357 -0.003614 -0.000615 0.000000 0.000000 0.000000
# 2 -0.003614 0.018708 0.000162 0.000000 0.000000 0.000000
# 3 -0.000615 0.000162 0.017999 0.000000 0.000000 0.000000
# 4 0.000000 0.000000 0.000000 0.080596 0.000000 0.000000
# 5 0.000000 0.000000 0.000000 0.000000 0.032571 0.000000
# 6 0.000000 0.000000 0.000000 0.000000 0.000000 -0.269390
#
#
# Mechanical properties :
#
#
# Convention : Reuss Voigt Hill
#
# Bulk Modulus (GPa) = 25.04392 27.68575 26.36483
# Shear Modulus (GPa) = -57.66013 20.23383 -18.71315
#
# Velocity S-wave (km/s) = -5.38723 3.19129 -3.06903
# Velocity P-wave (km/s) = 5.10793 5.24541 0.84362
#
# Compressibility (1/GPa) = 0.03992985
#
# Stress axis : x y z
#
# Youngs Moduli (GPa) = 88.05172 53.45377 55.55713
#
# Poissons Ratio (x) = 0.19316 0.03419
# Poissons Ratio (y) = 0.31819 -0.00899
# Poissons Ratio (z) = 0.05418 -0.00865
#
# Static dielectric constant tensor:
#      x y z
#    x 1.798300 0.000000 0.000000 
#    y 0.000000 1.729240 0.000000 
#    z 0.000000 0.000000 1.748230 
# 
# From -- ./inp_files/9376.got.cif
#   From: 2010.05.17/outbox.cif.g08.bks.cpg/sg17_5_cif.got.tgz:9376.got - 2010.06.03 22:34:06.
