data_PCOD9310735
_publ_section_title
;
Structure prediction by ZEFSAII (Michael W. Deem and Ramdas Pophale) SiO2 
 PCOD9310735
Probable space group: P 2 2 21
;
_chemical_formula_sum "Si O2"
_cell_formula_units_Z 18
_cell_length_a 16.449467
_cell_length_b 10.852732
_cell_length_c 5.460505
_cell_angle_alpha 90.000000
_cell_angle_beta 90.000000
_cell_angle_gamma 90.000000
_cell_volume 974.818400
_symmetry_space_group_name_H-M "P 2 2 21"
_symmetry_group_IT_number 17
_symmetry_cell_setting 'orthorhombic'
loop_
_space_group_symop_operation_xyz
x,y,z
-x,-y,1/2+z
x,-y,-z
-x,y,1/2-z
loop_
_atom_site_type_symbol
_atom_site_label
_atom_site_fract_x
_atom_site_fract_y
_atom_site_fract_z
Si Si1 0.750136 0.860359 0.755336
Si Si2 0.183207 0.855118 0.246705
Si Si3 0.000000 0.078977 0.750000
Si Si4 0.553338 0.500000 0.500000
Si Si5 0.500000 0.075893 0.750000
Si Si6 0.414837 0.232796 0.099497
O O1 0.784112 0.801822 0.506096
O O2 0.653765 0.844282 0.737915
O O3 0.783660 0.001648 0.750996
O O4 0.782312 0.800880 0.003464
O O5 0.085984 0.852499 0.249684
O O6 0.000017 0.000000 0.500000
O O7 0.500000 0.477956 0.750000
O O8 0.603097 0.624255 0.553015
O O9 0.571936 0.164672 0.659824
O O10 0.483946 0.000000 0.500000
O O11 0.500000 0.232930 0.250000
#
# Coordination Sequence:
#
# PCOD9310735 Si02
#       6
#     4   4   2   2   2   4
#     4  10  21  31  49  74 111 138 184 221 285 314
#     4  10  20  33  48  79 109 152 173 227 263 361
#     4  12  16  32  54  72 104 154 188 204 272 334
#     4  10  22  42  64  78  98 144 220 254 280 318
#     4  12  26  36  54  84 112 150 192 232 294 358
#     4  11  25  41  59  80 111 158 199 248 283 339
#
# _framework density 18.464977999999999
#
# number of rings (size 3 to 8) (size 9 to 14) (size 15 to 20)
#    0.000    1.333    6.667    0.000    6.222    1.778 
#    0.000    0.000    0.000    0.000    0.000    0.000 
#    0.000    5.333    0.000    0.000    0.000    0.000 
#
# Total GULP energy -100284.036481 kJ/mol
# GULP energy per Si atom -5571.335360 kJ/mol
# Density = 1.842295 g / cm^3
# Si number density = 18.464978 Si / 1000 Ang^3
#
#
#
# Elastic Constant Matrix: (Units=GPa)
#
#
# Indices 1 2 3 4 5 6 
#
# 1 127.5836 9.0052 38.8796 0.0000 0.0000 0.0000
# 2 9.0052 63.8323 2.0405 0.0000 0.0000 0.0000
# 3 38.8796 2.0405 173.1758 0.0000 0.0000 0.0000
# 4 0.0000 0.0000 0.0000 8.1106 0.0000 0.0000
# 5 0.0000 0.0000 0.0000 0.0000 37.2147 0.0000
# 6 0.0000 0.0000 0.0000 0.0000 0.0000 -48.7710
#
#
#
# Elastic Compliance Matrix: (Units=1/GPa)
#
#
# Indices 1 2 3 4 5 6 
#
# 1 0.008495 -0.001138 -0.001894 0.000000 0.000000 0.000000
# 2 -0.001138 0.015824 0.000069 0.000000 0.000000 0.000000
# 3 -0.001894 0.000069 0.006199 0.000000 0.000000 0.000000
# 4 0.000000 0.000000 0.000000 0.123295 0.000000 0.000000
# 5 0.000000 0.000000 0.000000 0.000000 0.026871 0.000000
# 6 0.000000 0.000000 0.000000 0.000000 0.000000 -0.020504
#
#
# Mechanical properties :
#
#
# Convention : Reuss Voigt Hill
#
# Bulk Modulus (GPa) = 40.66194 51.60471 46.13332
# Shear Modulus (GPa) = 28.68544 20.28863 24.48703
#
# Velocity S-wave (km/s) = 3.94573 3.31836 3.64556
# Velocity P-wave (km/s) = 6.54426 6.53376 6.53901
#
# Compressibility (1/GPa) = 0.02459302
#
# Stress axis : x y z
#
# Youngs Moduli (GPa) = 117.70993 63.19365 161.31991
#
# Poissons Ratio (x) = 0.07191 0.30552
# Poissons Ratio (y) = 0.13395 -0.01113
# Poissons Ratio (z) = 0.22293 -0.00436
#
# Static dielectric constant tensor:
#      x y z
#    x 1.720830 0.000000 0.000000 
#    y 0.000000 1.625060 0.000000 
#    z 0.000000 0.000000 3.036560 
# 
# From -- ./inp_files/2027.got.cif
#   From: 2010.05.17/outbox.cif.g08.bks.cpg/sg17_2_cif.got.tgz:2027.got - 2010.06.03 22:34:06.
