data_PCOD9310218
_publ_section_title
;
Structure prediction by ZEFSAII (Michael W. Deem and Ramdas Pophale) SiO2 
 PCOD9310218
Probable space group: P 2 2 2
;
_chemical_formula_sum "Si O2"
_cell_formula_units_Z 32
_cell_length_a 11.249861
_cell_length_b 15.512085
_cell_length_c 8.749404
_cell_angle_alpha 90.000000
_cell_angle_beta 90.000000
_cell_angle_gamma 90.000000
_cell_volume 1526.847993
_symmetry_space_group_name_H-M "P 2 2 2"
_symmetry_group_IT_number 16
_symmetry_cell_setting 'orthorhombic'
loop_
_space_group_symop_operation_xyz
x,y,z
-x,-y,z
x,-y,-z
-x,y,-z
loop_
_atom_site_type_symbol
_atom_site_label
_atom_site_fract_x
_atom_site_fract_y
_atom_site_fract_z
Si Si1 0.347739 0.061647 0.356148
Si Si2 0.274161 0.310434 0.835972
Si Si3 0.678695 0.662740 0.192161
Si Si4 0.868967 0.973371 0.824083
Si Si5 0.358677 0.515771 0.327988
Si Si6 0.484958 0.809787 0.181600
Si Si7 0.827082 0.218940 0.606817
Si Si8 0.074486 0.786682 0.266984
O O1 0.460947 0.107397 0.271805
O O2 0.269844 0.144217 0.404862
O O3 0.372706 0.000000 0.500000
O O4 0.250723 0.011522 0.250974
O O5 0.320743 0.392419 0.740596
O O6 0.352640 0.226060 0.786725
O O7 0.134343 0.293915 0.814728
O O8 0.293709 0.320679 0.015778
O O9 0.675565 0.561349 0.215651
O O10 0.563121 0.723771 0.217682
O O11 0.767088 0.697859 0.321216
O O12 0.870994 0.871364 0.807657
O O13 0.000000 0.000000 0.755597
O O14 0.868966 0.000000 0.000000
O O15 0.500000 0.500000 0.337581
O O16 0.311545 0.500000 0.500000
O O17 0.500000 0.827998 0.000000
O O18 0.881888 0.225670 0.440348
O O19 0.933829 0.199606 0.724962
#
# Coordination Sequence:
#
# PCOD9310218 Si02
#       8
#     4   4   4   4   4   4   4   4
#     4  11  21  41  69  94 124 171 224 278 328 390
#     4  11  23  40  67  95 133 174 215 269 327 399
#     4  10  21  39  66  97 134 168 218 271 322 390
#     4  11  24  37  61  93 127 167 222 278 325 388
#     4  11  22  39  64 100 132 174 221 266 318 392
#     4   9  21  39  64  95 133 177 214 268 333 390
#     4  10  22  40  65  94 128 166 215 274 335 388
#     4  11  23  40  64  94 127 172 215 271 336 394
#
# _framework density 20.958209
#
# number of rings (size 3 to 8) (size 9 to 14) (size 15 to 20)
#    0.000    1.500    3.750    1.125    5.250    1.250 
#    0.000    1.250    2.750    3.750    0.000    0.000 
#    0.000    0.000    0.000    0.000    0.000    0.000 
#
# Total GULP energy -178473.903989 kJ/mol
# GULP energy per Si atom -5577.309500 kJ/mol
# Density = 2.091051 g / cm^3
# Si number density = 20.958209 Si / 1000 Ang^3
#
#
#
# Elastic Constant Matrix: (Units=GPa)
#
#
# Indices 1 2 3 4 5 6 
#
# 1 63.5824 39.2679 27.7285 0.0000 0.0000 0.0000
# 2 39.2679 105.1101 33.2523 0.0000 0.0000 0.0000
# 3 27.7285 33.2523 69.3204 0.0000 0.0000 0.0000
# 4 0.0000 0.0000 0.0000 31.8860 0.0000 0.0000
# 5 0.0000 0.0000 0.0000 0.0000 28.2594 0.0000
# 6 0.0000 0.0000 0.0000 0.0000 0.0000 26.4807
#
#
#
# Elastic Compliance Matrix: (Units=1/GPa)
#
#
# Indices 1 2 3 4 5 6 
#
# 1 0.022258 -0.006482 -0.005794 0.000000 0.000000 0.000000
# 2 -0.006482 0.013104 -0.003693 0.000000 0.000000 0.000000
# 3 -0.005794 -0.003693 0.018515 0.000000 0.000000 0.000000
# 4 0.000000 0.000000 0.000000 0.031362 0.000000 0.000000
# 5 0.000000 0.000000 0.000000 0.000000 0.035386 0.000000
# 6 0.000000 0.000000 0.000000 0.000000 0.000000 0.037763
#
#
# Mechanical properties :
#
#
# Convention : Reuss Voigt Hill
#
# Bulk Modulus (GPa) = 45.58188 48.72336 47.15262
# Shear Modulus (GPa) = 25.29874 26.50949 25.90411
#
# Velocity S-wave (km/s) = 3.47811 3.56036 3.51948
# Velocity P-wave (km/s) = 6.15839 6.34034 6.25003
#
# Compressibility (1/GPa) = 0.02193854
#
# Stress axis : x y z
#
# Youngs Moduli (GPa) = 44.92822 76.31367 54.01125
#
# Poissons Ratio (x) = 0.49469 0.31292
# Poissons Ratio (y) = 0.29124 0.19945
# Poissons Ratio (z) = 0.26030 0.28181
#
# Static dielectric constant tensor:
#      x y z
#    x 1.884880 0.000000 0.000000 
#    y 0.000000 1.725510 0.000000 
#    z 0.000000 0.000000 1.750100 
# 
# From -- ./inp_files/4852.got.cif
#   From: 2010.05.17/outbox.cif.g08.bks.cpg/sg16_3_cif.got.tgz:4852.got - 2010.06.03 22:28:35.
