data_PCOD9310570
_publ_section_title
;
Structure prediction by ZEFSAII (Michael W. Deem and Ramdas Pophale) SiO2 
 PCOD9310570
Probable space group: P 2 2 21
;
_chemical_formula_sum "Si O2"
_cell_formula_units_Z 32
_cell_length_a 12.372597
_cell_length_b 13.544002
_cell_length_c 8.978428
_cell_angle_alpha 90.000000
_cell_angle_beta 90.000000
_cell_angle_gamma 90.000000
_cell_volume 1504.555390
_symmetry_space_group_name_H-M "P 2 2 21"
_symmetry_group_IT_number 17
_symmetry_cell_setting 'orthorhombic'
loop_
_space_group_symop_operation_xyz
x,y,z
-x,-y,1/2+z
x,-y,-z
-x,y,1/2-z
loop_
_atom_site_type_symbol
_atom_site_label
_atom_site_fract_x
_atom_site_fract_y
_atom_site_fract_z
Si Si1 0.271149 0.279854 0.183619
Si Si2 0.413986 0.649532 0.080824
Si Si3 0.813321 0.891375 0.469250
Si Si4 0.658520 0.581804 0.123132
Si Si5 0.751448 0.774114 0.016600
Si Si6 0.923841 0.580954 0.620999
Si Si7 0.382838 0.863662 0.238772
Si Si8 0.989417 0.750683 0.086695
O O1 0.229943 0.180608 0.100061
O O2 0.291204 0.247346 0.351797
O O3 0.178263 0.362668 0.188955
O O4 0.362696 0.329714 0.080038
O O5 0.538282 0.617589 0.073614
O O6 0.355732 0.572584 0.196434
O O7 0.403288 0.755738 0.163217
O O8 0.710858 0.909055 0.361639
O O9 0.912235 0.828220 0.406083
O O10 0.855697 0.000000 0.500000
O O11 0.742898 0.669742 0.102538
O O12 0.687748 0.500000 0.000000
O O13 0.670400 0.846660 0.100936
O O14 0.876684 0.801535 0.038662
O O15 0.892085 0.500000 0.500000
O O16 0.988188 0.667397 0.535358
O O17 0.000000 0.539609 0.750000
O O18 0.500000 0.913140 0.250000
O O19 0.000000 0.703746 0.250000
#
# Coordination Sequence:
#
# PCOD9310570 Si02
#       8
#     4   4   4   4   4   4   4   4
#     4  10  23  40  63  90 129 167 210 274 329 390
#     4   9  19  39  58  84 123 177 208 258 339 386
#     4  10  23  44  68  96 128 169 212 263 335 394
#     4  10  21  35  58  90 126 168 222 275 316 393
#     4  11  21  39  61  93 125 167 218 262 328 391
#     4  11  23  40  59  89 128 169 213 265 319 385
#     4  10  18  41  69  89 127 171 208 258 319 395
#     4  11  22  42  67  92 125 171 216 269 329 386
#
# _framework density 21.268743000000001
#
# number of rings (size 3 to 8) (size 9 to 14) (size 15 to 20)
#    0.000    1.750    5.000    0.375    1.750    4.500 
#    2.250    1.875    0.000    0.000    0.000    0.000 
#    0.000    0.000    0.000    0.000    0.000    0.000 
#
# Total GULP energy -178465.590725 kJ/mol
# GULP energy per Si atom -5577.049710 kJ/mol
# Density = 2.122033 g / cm^3
# Si number density = 21.268743 Si / 1000 Ang^3
#
#
#
# Elastic Constant Matrix: (Units=GPa)
#
#
# Indices 1 2 3 4 5 6 
#
# 1 72.9449 -12.3853 18.9302 0.0000 0.0000 0.0000
# 2 -12.3853 40.9560 -14.5540 0.0000 0.0000 0.0000
# 3 18.9302 -14.5540 96.9906 0.0000 0.0000 0.0000
# 4 0.0000 0.0000 0.0000 -2.3150 0.0000 0.0000
# 5 0.0000 0.0000 0.0000 0.0000 30.3977 0.0000
# 6 0.0000 0.0000 0.0000 0.0000 0.0000 -14.9107
#
#
#
# Elastic Compliance Matrix: (Units=1/GPa)
#
#
# Indices 1 2 3 4 5 6 
#
# 1 0.014948 0.003680 -0.002365 0.000000 0.000000 0.000000
# 2 0.003680 0.026698 0.003288 0.000000 0.000000 0.000000
# 3 -0.002365 0.003288 0.011265 0.000000 0.000000 0.000000
# 4 0.000000 0.000000 0.000000 -0.431969 0.000000 0.000000
# 5 0.000000 0.000000 0.000000 0.000000 0.032897 0.000000
# 6 0.000000 0.000000 0.000000 0.000000 0.000000 -0.067066
#
#
# Mechanical properties :
#
#
# Convention : Reuss Voigt Hill
#
# Bulk Modulus (GPa) = 16.09911 21.65261 18.87586
# Shear Modulus (GPa) = -12.44628 17.22776 2.39074
#
# Velocity S-wave (km/s) = -2.42170 2.84914 1.06137
# Velocity P-wave (km/s) = 0.48341 4.58542 3.22431
#
# Compressibility (1/GPa) = 0.06211523
#
# Stress axis : x y z
#
# Youngs Moduli (GPa) = 66.90059 37.45655 88.76833
#
# Poissons Ratio (x) = -0.13783 0.20996
# Poissons Ratio (y) = -0.24617 -0.29186
# Poissons Ratio (z) = 0.15824 -0.12315
#
# Static dielectric constant tensor:
#      x y z
#    x 1.799840 0.000000 0.000000 
#    y 0.000000 1.744740 0.000000 
#    z 0.000000 0.000000 1.824230 
# 
# From -- ./inp_files/4957.got.cif
#   From: 2010.05.17/outbox.cif.g08.bks.cpg/sg17_3_cif.got.tgz:4957.got - 2010.06.03 22:34:06.
