data_PCOD9310590
_publ_section_title
;
Structure prediction by ZEFSAII (Michael W. Deem and Ramdas Pophale) SiO2 
 PCOD9310590
Probable space group: P 2 2 21
;
_chemical_formula_sum "Si O2"
_cell_formula_units_Z 32
_cell_length_a 5.287373
_cell_length_b 9.714805
_cell_length_c 29.116904
_cell_angle_alpha 90.000000
_cell_angle_beta 90.000000
_cell_angle_gamma 90.000000
_cell_volume 1495.612999
_symmetry_space_group_name_H-M "P 2 2 21"
_symmetry_group_IT_number 17
_symmetry_cell_setting 'orthorhombic'
loop_
_space_group_symop_operation_xyz
x,y,z
-x,-y,1/2+z
x,-y,-z
-x,y,1/2-z
loop_
_atom_site_type_symbol
_atom_site_label
_atom_site_fract_x
_atom_site_fract_y
_atom_site_fract_z
Si Si1 0.075782 0.930460 0.202957
Si Si2 0.919018 0.484280 0.121348
Si Si3 0.085607 0.353948 0.476934
Si Si4 0.583975 0.221799 0.460554
Si Si5 0.578841 0.921623 0.819325
Si Si6 0.570073 0.940433 0.079868
Si Si7 0.579768 0.359541 0.357766
Si Si8 0.931922 0.793394 0.397412
O O1 0.352616 0.996945 0.205356
O O2 0.000000 0.853788 0.250000
O O3 0.859328 0.047955 0.198587
O O4 0.062268 0.843632 0.155983
O O5 0.902488 0.385467 0.077211
O O6 0.640130 0.474386 0.142444
O O7 0.146529 0.423816 0.151738
O O8 0.998603 0.633691 0.103624
O O9 0.032445 0.500000 0.500000
O O10 0.360679 0.295828 0.488722
O O11 0.854796 0.249570 0.483138
O O12 0.506633 0.064163 0.453629
O O13 0.595363 0.292248 0.409427
O O14 0.576663 0.984584 0.870586
O O15 0.504477 0.762888 0.824372
O O16 0.343853 0.830299 0.083222
O O17 0.847015 0.874833 0.075673
#
# Coordination Sequence:
#
# PCOD9310590 Si02
#       8
#     4   4   4   4   4   4   4   4
#     4  10  19  31  49  71  95 122 152 190 233 279
#     4  10  19  31  49  72  98 127 160 196 238 288
#     4  10  19  31  49  71  96 126 161 204 248 293
#     4   9  17  30  49  71  93 121 158 199 244 282
#     4   9  17  30  49  72  93 117 153 197 236 269
#     4   9  17  30  49  71  94 121 160 202 234 270
#     4   9  17  30  49  72  93 117 153 198 238 273
#     4  10  19  31  49  72  96 125 159 194 232 282
#
# _framework density 21.395910000000001
#
# number of rings (size 3 to 8) (size 9 to 14) (size 15 to 20)
#    0.000    2.500    0.000    3.000    0.000    6.000 
#    0.000    0.000    0.000    9.000    0.000    0.000 
#    0.000    0.000    0.000    0.000    0.000    0.000 
#
# Total GULP energy -178632.918885 kJ/mol
# GULP energy per Si atom -5582.278715 kJ/mol
# Density = 2.134721 g / cm^3
# Si number density = 21.395910 Si / 1000 Ang^3
#
#
#
# Elastic Constant Matrix: (Units=GPa)
#
#
# Indices 1 2 3 4 5 6 
#
# 1 110.3881 3.4838 12.2853 0.0000 0.0000 0.0000
# 2 3.4838 42.6523 -3.4218 0.0000 0.0000 0.0000
# 3 12.2853 -3.4218 36.7413 0.0000 0.0000 0.0000
# 4 0.0000 0.0000 0.0000 7.3799 0.0000 0.0000
# 5 0.0000 0.0000 0.0000 0.0000 21.4326 0.0000
# 6 0.0000 0.0000 0.0000 0.0000 0.0000 28.7671
#
#
#
# Elastic Compliance Matrix: (Units=1/GPa)
#
#
# Indices 1 2 3 4 5 6 
#
# 1 0.009454 -0.001034 -0.003257 0.000000 0.000000 0.000000
# 2 -0.001034 0.023735 0.002556 0.000000 0.000000 0.000000
# 3 -0.003257 0.002556 0.028545 0.000000 0.000000 0.000000
# 4 0.000000 0.000000 0.000000 0.135503 0.000000 0.000000
# 5 0.000000 0.000000 0.000000 0.000000 0.046658 0.000000
# 6 0.000000 0.000000 0.000000 0.000000 0.000000 0.034762
#
#
# Mechanical properties :
#
#
# Convention : Reuss Voigt Hill
#
# Bulk Modulus (GPa) = 17.16332 23.83069 20.49701
# Shear Modulus (GPa) = 16.58112 23.34487 19.96299
#
# Velocity S-wave (km/s) = 2.78684 3.30675 3.05787
# Velocity P-wave (km/s) = 4.28888 5.07362 4.69766
#
# Compressibility (1/GPa) = 0.05826378
#
# Stress axis : x y z
#
# Youngs Moduli (GPa) = 105.77425 42.13212 35.03285
#
# Poissons Ratio (x) = 0.04354 0.11412
# Poissons Ratio (y) = 0.10932 -0.08955
# Poissons Ratio (z) = 0.34456 -0.10769
#
# Static dielectric constant tensor:
#      x y z
#    x 1.765780 0.000000 0.000000 
#    y 0.000000 1.742230 0.000000 
#    z 0.000000 0.000000 1.831450 
# 
# From -- ./inp_files/11189.got.cif
#   From: 2010.05.17/outbox.cif.g08.bks.cpg/sg17_6_cif.got.tgz:11189.got - 2010.06.03 22:34:06.
