data_PCOD9310417
_publ_section_title
;
Structure prediction by ZEFSAII (Michael W. Deem and Ramdas Pophale) SiO2 
 PCOD9310417
Probable space group: P 2 2 2
;
_chemical_formula_sum "Si O2"
_cell_formula_units_Z 21
_cell_length_a 5.243788
_cell_length_b 12.226976
_cell_length_c 13.635561
_cell_angle_alpha 90.000000
_cell_angle_beta 90.000000
_cell_angle_gamma 90.000000
_cell_volume 874.253130
_symmetry_space_group_name_H-M "P 2 2 2"
_symmetry_group_IT_number 16
_symmetry_cell_setting 'orthorhombic'
loop_
_space_group_symop_operation_xyz
x,y,z
-x,-y,z
x,-y,-z
-x,y,-z
loop_
_atom_site_type_symbol
_atom_site_label
_atom_site_fract_x
_atom_site_fract_y
_atom_site_fract_z
Si Si1 0.500000 0.000000 0.500000
Si Si2 0.000000 0.000000 0.000000
Si Si3 0.500000 0.696112 0.000000
Si Si4 0.500000 0.500000 0.500000
Si Si5 0.215235 0.173868 0.367663
Si Si6 0.761682 0.828224 0.144539
Si Si7 0.290779 0.677411 0.361098
Si Si8 0.128732 0.617118 0.145798
O O1 0.308324 0.076246 0.437115
O O2 0.154437 0.077938 0.071785
O O3 0.513590 0.778499 0.093244
O O4 0.283730 0.619889 0.044538
O O5 0.316059 0.574756 0.432925
O O6 0.234000 0.132546 0.255369
O O7 0.441693 0.261519 0.375739
O O8 0.945082 0.237865 0.381072
O O9 0.937430 0.720031 0.140946
O O10 0.275602 0.636753 0.248791
O O11 0.000000 0.500000 0.156674
#
# Coordination Sequence:
#
# PCOD9310417 Si02
#       8
#     1   1   2   1   4   4   4   4
#     4  12  30  54  88 114 168 230 270 370 432 474
#     4  12  24  50  74 114 154 212 264 328 400 476
#     4  12  22  48  78 110 150 213 255 326 400 480
#     4  12  30  50  84 122 152 230 266 346 424 494
#     4  11  28  54  80 119 162 211 281 344 412 494
#     4  11  26  46  74 114 158 204 268 331 396 491
#     4  11  28  52  80 118 165 205 274 342 407 509
#     4  11  26  48  76 115 162 209 262 334 413 492
#
# _framework density 24.020503000000001
#
# number of rings (size 3 to 8) (size 9 to 14) (size 15 to 20)
#    0.000    0.762    3.810    0.571    5.333   13.333 
#    0.000    1.905    0.000    0.000    0.000    0.000 
#    0.000    0.000    0.000    0.000    0.000    0.000 
#
# Total GULP energy -117456.737971 kJ/mol
# GULP energy per Si atom -5593.177999 kJ/mol
# Density = 2.396583 g / cm^3
# Si number density = 24.020503 Si / 1000 Ang^3
#
#
#
# Elastic Constant Matrix: (Units=GPa)
#
#
# Indices 1 2 3 4 5 6 
#
# 1 76.5246 25.9353 18.5495 0.0000 0.0000 0.0000
# 2 25.9353 134.7873 70.5845 0.0000 0.0000 0.0000
# 3 18.5495 70.5845 180.6683 0.0000 0.0000 0.0000
# 4 0.0000 0.0000 0.0000 -21.0140 0.0000 0.0000
# 5 0.0000 0.0000 0.0000 0.0000 39.4771 0.0000
# 6 0.0000 0.0000 0.0000 0.0000 0.0000 24.4709
#
#
#
# Elastic Compliance Matrix: (Units=1/GPa)
#
#
# Indices 1 2 3 4 5 6 
#
# 1 0.014013 -0.002443 -0.000484 0.000000 0.000000 0.000000
# 2 -0.002443 0.009753 -0.003560 0.000000 0.000000 0.000000
# 3 -0.000484 -0.003560 0.006975 0.000000 0.000000 0.000000
# 4 0.000000 0.000000 0.000000 -0.047587 0.000000 0.000000
# 5 0.000000 0.000000 0.000000 0.000000 0.025331 0.000000
# 6 0.000000 0.000000 0.000000 0.000000 0.000000 0.040865
#
#
# Mechanical properties :
#
#
# Convention : Reuss Voigt Hill
#
# Bulk Modulus (GPa) = 56.28040 69.12431 62.70236
# Shear Modulus (GPa) = 73.26377 27.04752 50.15564
#
# Velocity S-wave (km/s) = 5.52872 3.35926 4.57446
# Velocity P-wave (km/s) = 8.01478 6.62464 7.35264
#
# Compressibility (1/GPa) = 0.01776818
#
# Stress axis : x y z
#
# Youngs Moduli (GPa) = 71.36242 102.53055 143.36015
#
# Poissons Ratio (x) = 0.25045 0.06945
# Poissons Ratio (y) = 0.17431 0.51031
# Poissons Ratio (z) = 0.03457 0.36497
#
# Static dielectric constant tensor:
#      x y z
#    x 2.062530 0.000000 0.000000 
#    y 0.000000 1.798740 0.000000 
#    z 0.000000 0.000000 2.100560 
# 
# From -- ./inp_files/7549.got.cif
#   From: 2010.05.17/outbox.cif.g08.bks.cpg/sg16_4_cif.got.tgz:7549.got - 2010.06.03 22:28:35.
