data_PCOD9310876
_publ_section_title
;
Structure prediction by ZEFSAII (Michael W. Deem and Ramdas Pophale) SiO2 
 PCOD9310876
Probable space group: P 2 2 21
;
_chemical_formula_sum "Si O2"
_cell_formula_units_Z 32
_cell_length_a 6.893626
_cell_length_b 16.248564
_cell_length_c 13.933021
_cell_angle_alpha 90.000000
_cell_angle_beta 90.000000
_cell_angle_gamma 90.000000
_cell_volume 1560.658906
_symmetry_space_group_name_H-M "P 2 2 21"
_symmetry_group_IT_number 17
_symmetry_cell_setting 'orthorhombic'
loop_
_space_group_symop_operation_xyz
x,y,z
-x,-y,1/2+z
x,-y,-z
-x,y,1/2-z
loop_
_atom_site_type_symbol
_atom_site_label
_atom_site_fract_x
_atom_site_fract_y
_atom_site_fract_z
Si Si1 0.071953 0.207916 0.860167
Si Si2 0.412303 0.465746 0.144983
Si Si3 0.045308 0.154734 0.143131
Si Si4 0.725297 0.189800 0.009359
Si Si5 0.400907 0.348331 0.852774
Si Si6 0.688916 0.364478 0.027052
Si Si7 0.057831 0.352220 0.140719
Si Si8 0.333593 0.903297 0.012359
O O1 0.227471 0.283385 0.870562
O O2 0.188444 0.129278 0.903787
O O3 0.000000 0.201255 0.750000
O O4 0.879927 0.217148 0.927000
O O5 0.500000 0.455397 0.250000
O O6 0.327298 0.557398 0.140700
O O7 0.586417 0.441186 0.076133
O O8 0.256814 0.396923 0.121411
O O9 0.069680 0.253782 0.142407
O O10 0.000000 0.126468 0.250000
O O11 0.856118 0.135124 0.079478
O O12 0.232170 0.122861 0.087570
O O13 0.537525 0.142859 0.972809
O O14 0.658570 0.271317 0.068331
O O15 0.500000 0.332351 0.750000
O O16 0.582564 0.350621 0.926061
O O17 0.912125 0.376915 0.055272
O O18 0.000000 0.377800 0.250000
O O19 0.360681 0.000000 0.000000
#
# Coordination Sequence:
#
# PCOD9310876 Si02
#       8
#     4   4   4   4   4   4   4   4
#     4  11  25  46  72  97 131 183 233 280 333 413
#     4  11  23  40  61  97 139 174 230 293 338 401
#     4   9  21  40  66  99 131 171 216 263 328 415
#     4  10  22  41  67  96 132 172 226 273 335 413
#     4  11  25  45  64  94 138 185 242 291 335 396
#     4  11  21  41  65  89 131 182 224 285 339 402
#     4  10  20  38  65  93 130 176 221 271 345 401
#     4  11  24  44  70  99 136 168 209 278 346 410
#
# _framework density 20.504159999999999
#
# number of rings (size 3 to 8) (size 9 to 14) (size 15 to 20)
#    0.000    1.500    2.500    1.875    3.500    3.500 
#    4.500    1.250    0.000    0.000    0.000    0.000 
#    0.000    0.000    0.000    0.000    0.000    0.000 
#
# Total GULP energy -178358.467378 kJ/mol
# GULP energy per Si atom -5573.702106 kJ/mol
# Density = 2.045749 g / cm^3
# Si number density = 20.504160 Si / 1000 Ang^3
#
#
#
# Elastic Constant Matrix: (Units=GPa)
#
#
# Indices 1 2 3 4 5 6 
#
# 1 104.2640 45.8266 45.5858 0.0000 0.0000 0.0000
# 2 45.8266 80.1933 20.5336 0.0000 0.0000 0.0000
# 3 45.5858 20.5336 118.7117 0.0000 0.0000 0.0000
# 4 0.0000 0.0000 0.0000 23.4906 0.0000 0.0000
# 5 0.0000 0.0000 0.0000 0.0000 19.8815 0.0000
# 6 0.0000 0.0000 0.0000 0.0000 0.0000 0.5769
#
#
#
# Elastic Compliance Matrix: (Units=1/GPa)
#
#
# Indices 1 2 3 4 5 6 
#
# 1 0.014711 -0.007283 -0.004389 0.000000 0.000000 0.000000
# 2 -0.007283 0.016653 -0.000084 0.000000 0.000000 0.000000
# 3 -0.004389 -0.000084 0.010124 0.000000 0.000000 0.000000
# 4 0.000000 0.000000 0.000000 0.042570 0.000000 0.000000
# 5 0.000000 0.000000 0.000000 0.000000 0.050298 0.000000
# 6 0.000000 0.000000 0.000000 0.000000 0.000000 1.733415
#
#
# Mechanical properties :
#
#
# Convention : Reuss Voigt Hill
#
# Bulk Modulus (GPa) = 55.63005 58.56235 57.09620
# Shear Modulus (GPa) = 2.63536 21.53800 12.08668
#
# Velocity S-wave (km/s) = 1.13493 3.24454 2.43054
# Velocity P-wave (km/s) = 5.37656 6.53140 5.98192
#
# Compressibility (1/GPa) = 0.01797590
#
# Stress axis : x y z
#
# Youngs Moduli (GPa) = 67.97574 60.04888 98.77671
#
# Poissons Ratio (x) = 0.43732 0.43357
# Poissons Ratio (y) = 0.49505 0.00828
# Poissons Ratio (z) = 0.29838 0.00504
#
# Static dielectric constant tensor:
#      x y z
#    x 1.684220 0.000000 0.000000 
#    y 0.000000 1.746260 0.000000 
#    z 0.000000 0.000000 1.795530 
# 
# From -- ./inp_files/7817.got.cif
#   From: 2010.05.17/outbox.cif.g08.bks.cpg/sg17_4_cif.got.tgz:7817.got - 2010.06.03 22:34:06.
