data_PCOD9310188
_publ_section_title
;
Structure prediction by ZEFSAII (Michael W. Deem and Ramdas Pophale) SiO2 
 PCOD9310188
Probable space group: P 2 2 2
;
_chemical_formula_sum "Si O2"
_cell_formula_units_Z 24
_cell_length_a 10.769143
_cell_length_b 11.576487
_cell_length_c 8.980300
_cell_angle_alpha 90.000000
_cell_angle_beta 90.000000
_cell_angle_gamma 90.000000
_cell_volume 1119.563619
_symmetry_space_group_name_H-M "P 2 2 2"
_symmetry_group_IT_number 16
_symmetry_cell_setting 'orthorhombic'
loop_
_space_group_symop_operation_xyz
x,y,z
-x,-y,z
x,-y,-z
-x,y,-z
loop_
_atom_site_type_symbol
_atom_site_label
_atom_site_fract_x
_atom_site_fract_y
_atom_site_fract_z
Si Si1 0.063206 0.125801 0.850737
Si Si2 0.641040 0.486686 0.321937
Si Si3 0.812441 0.868589 0.551865
Si Si4 0.302098 0.266683 0.291309
Si Si5 0.587556 0.234322 0.295201
Si Si6 0.666575 0.870535 0.989098
O O1 0.086881 0.167301 0.679022
O O2 0.203314 0.115714 0.904355
O O3 0.000000 0.000000 0.837169
O O4 0.000000 0.183161 0.000000
O O5 0.500000 0.500000 0.263590
O O6 0.640555 0.500000 0.500000
O O7 0.716527 0.596550 0.262734
O O8 0.668174 0.352642 0.296820
O O9 0.794438 0.785360 0.409305
O O10 0.672128 0.859722 0.621754
O O11 0.836054 0.000000 0.500000
O O12 0.446356 0.255782 0.349450
O O13 0.302002 0.191901 0.142692
O O14 0.579621 0.198589 0.123846
O O15 0.621846 0.000000 0.000000
#
# Coordination Sequence:
#
# PCOD9310188 Si02
#       6
#     4   4   4   4   4   4
#     4  10  21  42  61  74 115 152 195 264 314 369
#     4   9  17  34  55  78 118 170 213 245 281 337
#     4  11  23  34  56  93 119 150 211 241 314 382
#     4  11  21  35  57  88 128 165 207 248 289 362
#     4  10  21  36  56  84 131 176 197 240 297 362
#     4  11  22  37  57  88 123 161 210 242 319 381
#
# _framework density 21.436924999999999
#
# number of rings (size 3 to 8) (size 9 to 14) (size 15 to 20)
#    0.000    1.667    3.333    3.000    0.000    5.000 
#    0.000    2.500    0.000    0.000    0.000    9.333 
#   10.000    0.000    0.000    0.000    0.000    0.000 
#
# Total GULP energy -133678.589125 kJ/mol
# GULP energy per Si atom -5569.941214 kJ/mol
# Density = 2.138813 g / cm^3
# Si number density = 21.436925 Si / 1000 Ang^3
#
#
#
# Elastic Constant Matrix: (Units=GPa)
#
#
# Indices 1 2 3 4 5 6 
#
# 1 74.3663 6.3877 13.4426 0.0000 0.0000 0.0000
# 2 6.3877 123.0300 59.6452 0.0000 0.0000 0.0000
# 3 13.4426 59.6452 124.0725 0.0000 0.0000 0.0000
# 4 0.0000 0.0000 0.0000 2.9953 0.0000 0.0000
# 5 0.0000 0.0000 0.0000 0.0000 44.2880 0.0000
# 6 0.0000 0.0000 0.0000 0.0000 0.0000 1.1715
#
#
#
# Elastic Compliance Matrix: (Units=1/GPa)
#
#
# Indices 1 2 3 4 5 6 
#
# 1 0.013716 0.000011 -0.001491 0.000000 0.000000 0.000000
# 2 0.000011 0.010598 -0.005096 0.000000 0.000000 0.000000
# 3 -0.001491 -0.005096 0.010671 0.000000 0.000000 0.000000
# 4 0.000000 0.000000 0.000000 0.333853 0.000000 0.000000
# 5 0.000000 0.000000 0.000000 0.000000 0.022579 0.000000
# 6 0.000000 0.000000 0.000000 0.000000 0.000000 0.853587
#
#
# Mechanical properties :
#
#
# Convention : Reuss Voigt Hill
#
# Bulk Modulus (GPa) = 45.80414 53.37999 49.59207
# Shear Modulus (GPa) = 3.95121 25.82385 14.88753
#
# Velocity S-wave (km/s) = 1.35911 3.47456 2.63816
# Velocity P-wave (km/s) = 4.88633 6.40717 5.69772
#
# Compressibility (1/GPa) = 0.02183209
#
# Stress axis : x y z
#
# Youngs Moduli (GPa) = 72.90978 94.35673 93.71060
#
# Poissons Ratio (x) = -0.00102 0.13974
# Poissons Ratio (y) = -0.00079 0.47755
# Poissons Ratio (z) = 0.10872 0.48084
#
# Static dielectric constant tensor:
#      x y z
#    x 1.825690 0.000000 0.000000 
#    y 0.000000 1.793160 0.000000 
#    z 0.000000 0.000000 1.881330 
# 
# From -- ./inp_files/4704.got.cif
#   From: 2010.05.17/outbox.cif.g08.bks.cpg/sg16_3_cif.got.tgz:4704.got - 2010.06.03 22:28:35.
