data_PCOD9310248
_publ_section_title
;
Structure prediction by ZEFSAII (Michael W. Deem and Ramdas Pophale) SiO2 
 PCOD9310248
Probable space group: P 2 2 2
;
_chemical_formula_sum "Si O2"
_cell_formula_units_Z 19
_cell_length_a 5.526136
_cell_length_b 19.800862
_cell_length_c 7.529916
_cell_angle_alpha 90.000000
_cell_angle_beta 90.000000
_cell_angle_gamma 90.000000
_cell_volume 823.940399
_symmetry_space_group_name_H-M "P 2 2 2"
_symmetry_group_IT_number 16
_symmetry_cell_setting 'orthorhombic'
loop_
_space_group_symop_operation_xyz
x,y,z
-x,-y,z
x,-y,-z
-x,y,-z
loop_
_atom_site_type_symbol
_atom_site_label
_atom_site_fract_x
_atom_site_fract_y
_atom_site_fract_z
Si Si1 0.114669 0.298284 0.300763
Si Si2 0.142457 0.431356 0.736015
Si Si3 0.500000 0.500000 0.000000
Si Si4 0.000210 0.849743 0.281995
Si Si5 0.500000 0.357088 0.500000
Si Si6 0.501646 0.921758 0.283431
O O1 0.398409 0.309958 0.342807
O O2 0.000000 0.295409 0.500000
O O3 0.018005 0.366666 0.213087
O O4 0.037223 0.227492 0.220258
O O5 0.290682 0.406193 0.565871
O O6 0.000000 0.500000 0.705375
O O7 0.334831 0.451897 0.882679
O O8 0.255884 0.882875 0.227227
O O9 0.000000 0.850188 0.500000
O O10 0.756946 0.889249 0.227112
O O11 0.500000 0.919915 0.500000
O O12 0.500000 0.000000 0.229593
#
# Coordination Sequence:
#
# PCOD9310248 Si02
#       6
#     4   4   1   4   2   4
#     4   9  20  32  51  76 105 138 189 236 289 329
#     4  11  24  40  57  83 108 143 194 232 296 349
#     4  12  26  42  60  74 112 150 184 236 296 348
#     4   9  17  26  43  64  99 138 186 234 276 326
#     4  10  22  37  60  82 111 144 188 250 289 344
#     4   9  16  25  39  62  96 140 186 228 273 328
#
# _framework density 23.059922
#
# number of rings (size 3 to 8) (size 9 to 14) (size 15 to 20)
#    0.000    2.316    0.000    2.211   10.316   12.632 
#    0.000    0.000    0.000    0.000    0.000    0.000 
#    0.000    0.000    0.000    0.947   10.526    4.211 
#
# Total GULP energy -106142.768409 kJ/mol
# GULP energy per Si atom -5586.461495 kJ/mol
# Density = 2.300744 g / cm^3
# Si number density = 23.059922 Si / 1000 Ang^3
#
#
#
# Elastic Constant Matrix: (Units=GPa)
#
#
# Indices 1 2 3 4 5 6 
#
# 1 184.7169 127.2617 12.8192 0.0000 0.0000 0.0000
# 2 127.2617 246.5555 17.3291 0.0000 0.0000 0.0000
# 3 12.8192 17.3291 45.9787 0.0000 0.0000 0.0000
# 4 0.0000 0.0000 0.0000 -13.0318 0.0000 0.0000
# 5 0.0000 0.0000 0.0000 0.0000 -3.1568 0.0000
# 6 0.0000 0.0000 0.0000 0.0000 0.0000 23.1921
#
#
#
# Elastic Compliance Matrix: (Units=1/GPa)
#
#
# Indices 1 2 3 4 5 6 
#
# 1 0.008425 -0.004297 -0.000729 0.000000 0.000000 0.000000
# 2 -0.004297 0.006358 -0.001198 0.000000 0.000000 0.000000
# 3 -0.000729 -0.001198 0.022404 0.000000 0.000000 0.000000
# 4 0.000000 0.000000 0.000000 -0.076735 0.000000 0.000000
# 5 0.000000 0.000000 0.000000 0.000000 -0.316773 0.000000
# 6 0.000000 0.000000 0.000000 0.000000 0.000000 0.043118
#
#
# Mechanical properties :
#
#
# Convention : Reuss Voigt Hill
#
# Bulk Modulus (GPa) = 40.42441 88.00790 64.21616
# Shear Modulus (GPa) = -17.09359 22.72343 2.81492
#
# Velocity S-wave (km/s) = -2.72558 3.14253 1.10605
# Velocity P-wave (km/s) = 2.76824 7.17043 5.43499
#
# Compressibility (1/GPa) = 0.02473753
#
# Stress axis : x y z
#
# Youngs Moduli (GPa) = 118.69424 157.27646 44.63464
#
# Poissons Ratio (x) = 0.67588 0.03255
# Poissons Ratio (y) = 0.51007 0.05348
# Poissons Ratio (z) = 0.08656 0.18845
#
# Static dielectric constant tensor:
#      x y z
#    x 1.946670 0.000000 0.000000 
#    y 0.000000 2.607070 0.000000 
#    z 0.000000 0.000000 1.940180 
# 
# From -- ./inp_files/3158.got.cif
#   From: 2010.05.17/outbox.cif.g08.bks.cpg/sg16_2_cif.got.tgz:3158.got - 2010.06.03 22:28:35.
