data_PCOD9310416
_publ_section_title
;
Structure prediction by ZEFSAII (Michael W. Deem and Ramdas Pophale) SiO2 
 PCOD9310416
Probable space group: P 2 2 2
;
_chemical_formula_sum "Si O2"
_cell_formula_units_Z 14
_cell_length_a 9.107958
_cell_length_b 6.065637
_cell_length_c 11.155123
_cell_angle_alpha 90.000000
_cell_angle_beta 90.000000
_cell_angle_gamma 90.000000
_cell_volume 616.271096
_symmetry_space_group_name_H-M "P 2 2 2"
_symmetry_group_IT_number 16
_symmetry_cell_setting 'orthorhombic'
loop_
_space_group_symop_operation_xyz
x,y,z
-x,-y,z
x,-y,-z
-x,y,-z
loop_
_atom_site_type_symbol
_atom_site_label
_atom_site_fract_x
_atom_site_fract_y
_atom_site_fract_z
Si Si1 0.179990 0.496132 0.359183
Si Si2 0.500000 0.500000 0.000000
Si Si3 0.136675 0.154929 0.818873
Si Si4 0.368903 0.831093 0.807017
Si Si5 0.000000 0.500000 0.000000
O O1 0.209315 0.500000 0.500000
O O2 0.214234 0.724183 0.292420
O O3 0.276030 0.304629 0.294901
O O4 0.000000 0.500000 0.343466
O O5 0.416855 0.342751 0.093163
O O6 0.090362 0.340994 0.912534
O O7 0.252397 0.988043 0.869660
O O8 0.000000 0.000000 0.782744
O O9 0.500000 0.000000 0.768803
#
# Coordination Sequence:
#
# PCOD9310416 Si02
#       5
#     4   1   4   4   1
#     4  11  25  51  78 113 157 201 264 324 372 457
#     4  12  30  54  76 106 166 200 252 314 386 478
#     4  12  25  46  72 111 148 198 255 311 382 452
#     4  12  28  50  77 113 154 204 254 313 396 458
#     4  12  26  42  70 112 154 180 256 314 374 450
#
# _framework density 22.717275999999998
#
# number of rings (size 3 to 8) (size 9 to 14) (size 15 to 20)
#    0.000    0.286    4.286    2.571    0.000   18.286 
#    0.000   10.714    0.000    0.000    0.000    0.000 
#    0.000    0.000    0.000    0.000    0.000    0.000 
#
# Total GULP energy -78227.568684 kJ/mol
# GULP energy per Si atom -5587.683477 kJ/mol
# Density = 2.266557 g / cm^3
# Si number density = 22.717276 Si / 1000 Ang^3
#
#
#
# Elastic Constant Matrix: (Units=GPa)
#
#
# Indices 1 2 3 4 5 6 
#
# 1 131.8649 96.3714 70.8561 0.0000 0.0000 0.0000
# 2 96.3714 203.1088 106.4653 0.0000 0.0000 0.0000
# 3 70.8561 106.4653 209.2850 0.0000 0.0000 0.0000
# 4 0.0000 0.0000 0.0000 9.7433 0.0000 0.0000
# 5 0.0000 0.0000 0.0000 0.0000 3.9883 0.0000
# 6 0.0000 0.0000 0.0000 0.0000 0.0000 70.5946
#
#
#
# Elastic Compliance Matrix: (Units=1/GPa)
#
#
# Indices 1 2 3 4 5 6 
#
# 1 0.011984 -0.004854 -0.001588 0.000000 0.000000 0.000000
# 2 -0.004854 0.008680 -0.002772 0.000000 0.000000 0.000000
# 3 -0.001588 -0.002772 0.006726 0.000000 0.000000 0.000000
# 4 0.000000 0.000000 0.000000 0.102634 0.000000 0.000000
# 5 0.000000 0.000000 0.000000 0.000000 0.250732 0.000000
# 6 0.000000 0.000000 0.000000 0.000000 0.000000 0.014165
#
#
# Mechanical properties :
#
#
# Convention : Reuss Voigt Hill
#
# Bulk Modulus (GPa) = 111.58619 121.29382 116.44000
# Shear Modulus (GPa) = 12.00951 34.90298 23.45625
#
# Velocity S-wave (km/s) = 2.30174 3.92396 3.21678
# Velocity P-wave (km/s) = 7.50268 8.60457 8.07244
#
# Compressibility (1/GPa) = 0.00896168
#
# Stress axis : x y z
#
# Youngs Moduli (GPa) = 83.44278 115.21335 148.67511
#
# Poissons Ratio (x) = 0.55922 0.23614
# Poissons Ratio (y) = 0.40501 0.41214
# Poissons Ratio (z) = 0.13253 0.31938
#
# Static dielectric constant tensor:
#      x y z
#    x 1.997830 0.000000 0.000000 
#    y 0.000000 1.947240 0.000000 
#    z 0.000000 0.000000 1.798660 
# 
# From -- ./inp_files/2922.got.cif
#   From: 2010.05.17/outbox.cif.g08.bks.cpg/sg16_2_cif.got.tgz:2922.got - 2010.06.03 22:28:35.
