data_PCOD9310748
_publ_section_title
;
Structure prediction by ZEFSAII (Michael W. Deem and Ramdas Pophale) SiO2 
 PCOD9310748
Probable space group: P 2 2 21
;
_chemical_formula_sum "Si O2"
_cell_formula_units_Z 24
_cell_length_a 20.650522
_cell_length_b 5.006287
_cell_length_c 11.828414
_cell_angle_alpha 90.000000
_cell_angle_beta 90.000000
_cell_angle_gamma 90.000000
_cell_volume 1222.850299
_symmetry_space_group_name_H-M "P 2 2 21"
_symmetry_group_IT_number 17
_symmetry_cell_setting 'orthorhombic'
loop_
_space_group_symop_operation_xyz
x,y,z
-x,-y,1/2+z
x,-y,-z
-x,y,1/2-z
loop_
_atom_site_type_symbol
_atom_site_label
_atom_site_fract_x
_atom_site_fract_y
_atom_site_fract_z
Si Si1 0.125702 0.548896 0.374755
Si Si2 0.377178 0.377210 0.379709
Si Si3 0.575015 0.123824 0.763525
Si Si4 0.037708 0.951722 0.630181
Si Si5 0.250528 0.608310 0.754228
Si Si6 0.299830 0.894067 0.124652
O O1 0.153609 0.500000 0.500000
O O2 0.064484 0.349485 0.366372
O O3 0.179604 0.473644 0.284206
O O4 0.098734 0.847056 0.366042
O O5 0.391252 0.500000 0.500000
O O6 0.416520 0.565672 0.293505
O O7 0.302131 0.418337 0.347513
O O8 0.396736 0.071946 0.360259
O O9 0.500000 0.061032 0.750000
O O10 0.624833 0.074163 0.660639
O O11 0.000000 0.997478 0.750000
O O12 0.009344 0.000000 0.500000
O O13 0.257899 0.910746 0.795529
O O14 0.276946 0.405847 0.850053
O O15 0.290558 0.000000 0.000000
#
# Coordination Sequence:
#
# PCOD9310748 Si02
#       6
#     4   4   4   4   4   4
#     4  10  20  36  60  84 109 145 184 226 273 322
#     4  10  20  34  54  78 104 130 164 222 276 310
#     4  10  21  36  52  75 102 135 181 219 260 327
#     4  10  21  38  59  85 118 152 188 228 275 328
#     4  10  20  36  56  80 107 135 179 222 264 324
#     4  10  21  36  53  74 108 147 176 219 276 327
#
# _framework density 19.626279
#
# number of rings (size 3 to 8) (size 9 to 14) (size 15 to 20)
#    0.000    2.000    0.000    3.500    0.000    1.333 
#    0.000   10.000    0.000    0.000    0.000    0.000 
#    0.000    0.000    0.000    0.000    0.000    0.000 
#
# Total GULP energy -133780.259974 kJ/mol
# GULP energy per Si atom -5574.177499 kJ/mol
# Density = 1.958161 g / cm^3
# Si number density = 19.626279 Si / 1000 Ang^3
#
#
#
# Elastic Constant Matrix: (Units=GPa)
#
#
# Indices 1 2 3 4 5 6 
#
# 1 43.8387 -10.2988 27.5947 0.0000 0.0000 0.0000
# 2 -10.2988 60.1023 -19.5509 0.0000 0.0000 0.0000
# 3 27.5947 -19.5509 70.2901 0.0000 0.0000 0.0000
# 4 0.0000 0.0000 0.0000 19.5910 0.0000 0.0000
# 5 0.0000 0.0000 0.0000 0.0000 6.1632 0.0000
# 6 0.0000 0.0000 0.0000 0.0000 0.0000 16.1380
#
#
#
# Elastic Compliance Matrix: (Units=1/GPa)
#
#
# Indices 1 2 3 4 5 6 
#
# 1 0.030414 0.001460 -0.011534 0.000000 0.000000 0.000000
# 2 0.001460 0.018364 0.004535 0.000000 0.000000 0.000000
# 3 -0.011534 0.004535 0.020016 0.000000 0.000000 0.000000
# 4 0.000000 0.000000 0.000000 0.051044 0.000000 0.000000
# 5 0.000000 0.000000 0.000000 0.000000 0.162255 0.000000
# 6 0.000000 0.000000 0.000000 0.000000 0.000000 0.061965
#
#
# Mechanical properties :
#
#
# Convention : Reuss Voigt Hill
#
# Bulk Modulus (GPa) = 17.32671 18.85787 18.09229
# Shear Modulus (GPa) = 13.35560 20.14419 16.74989
#
# Velocity S-wave (km/s) = 2.61146 3.20721 2.92454
# Velocity P-wave (km/s) = 4.23562 4.83159 4.54338
#
# Compressibility (1/GPa) = 0.05771436
#
# Stress axis : x y z
#
# Youngs Moduli (GPa) = 32.87960 54.45576 49.95973
#
# Poissons Ratio (x) = -0.07949 0.57624
# Poissons Ratio (y) = -0.04799 -0.22655
# Poissons Ratio (z) = 0.37923 -0.24694
#
# Static dielectric constant tensor:
#      x y z
#    x 1.663150 0.000000 0.000000 
#    y 0.000000 1.660010 0.000000 
#    z 0.000000 0.000000 1.728360 
# 
# From -- ./inp_files/6029.got.cif
#   From: 2010.05.17/outbox.cif.g08.bks.cpg/sg17_4_cif.got.tgz:6029.got - 2010.06.03 22:34:06.
