data_PCOD9310040
_publ_section_title
;
Structure prediction by ZEFSAII (Michael W. Deem and Ramdas Pophale) SiO2 
 PCOD9310040
Probable space group: P 2 2 2
;
_chemical_formula_sum "Si O2"
_cell_formula_units_Z 32
_cell_length_a 8.010677
_cell_length_b 12.334675
_cell_length_c 15.952479
_cell_angle_alpha 90.000000
_cell_angle_beta 90.000000
_cell_angle_gamma 90.000000
_cell_volume 1576.250050
_symmetry_space_group_name_H-M "P 2 2 2"
_symmetry_group_IT_number 16
_symmetry_cell_setting 'orthorhombic'
loop_
_space_group_symop_operation_xyz
x,y,z
-x,-y,z
x,-y,-z
-x,y,-z
loop_
_atom_site_type_symbol
_atom_site_label
_atom_site_fract_x
_atom_site_fract_y
_atom_site_fract_z
Si Si1 0.198806 0.266887 0.841701
Si Si2 0.300866 0.123039 0.000000
Si Si3 0.203809 0.500000 0.098035
Si Si4 0.299616 0.733358 0.342640
Si Si5 0.296289 0.500000 0.598286
Si Si6 0.801195 0.733113 0.158299
Si Si7 0.295331 0.124431 0.500000
Si Si8 0.299616 0.733358 0.657360
O O1 0.264183 0.388925 0.859808
O O2 0.256410 0.229507 0.750469
O O3 0.000000 0.273277 0.841059
O O4 0.248275 0.188784 0.917484
O O5 0.248275 0.188784 0.082516
O O6 0.500000 0.117788 0.000000
O O7 0.234020 0.000000 0.000000
O O8 0.264182 0.388925 0.140192
O O9 0.000000 0.500000 0.101055
O O10 0.249947 0.500000 0.000000
O O11 0.236934 0.610689 0.358700
O O12 0.239998 0.811316 0.417051
O O13 0.500000 0.729618 0.349526
O O14 0.500000 0.500000 0.601335
O O15 0.251217 0.500000 0.500000
O O16 0.236934 0.610689 0.641300
O O17 0.743591 0.770493 0.249531
O O18 0.500000 0.124869 0.500000
O O19 0.239998 0.188684 0.417052
O O20 0.241424 0.000000 0.500000
#
# Coordination Sequence:
#
# PCOD9310040 Si02
#       8
#     4   4   4   4   4   4   4   4
#     4  11  22  38  61  87 118 153 188 229 285 348
#     4  11  25  44  63  84 112 147 192 243 286 331
#     4   9  17  34  58  83 113 151 186 222 273 338
#     4  10  19  33  55  82 112 146 188 236 284 333
#     4   9  15  28  53  82 110 146 192 241 283 326
#     4  11  22  38  61  87 118 153 188 229 285 348
#     4   9  18  33  54  78 105 143 188 232 280 331
#     4  10  19  33  55  82 112 146 188 236 284 333
#
# _framework density 20.301348000000001
#
# number of rings (size 3 to 8) (size 9 to 14) (size 15 to 20)
#    0.000    2.000    2.500    1.875    0.000    2.000 
#    0.000    5.625    0.000    1.500    0.000    0.000 
#    0.000    0.000    0.000    0.000    0.000    0.000 
#
# Total GULP energy -178758.829445 kJ/mol
# GULP energy per Si atom -5586.213420 kJ/mol
# Density = 2.025514 g / cm^3
# Si number density = 20.301348 Si / 1000 Ang^3
#
#
#
# Elastic Constant Matrix: (Units=GPa)
#
#
# Indices 1 2 3 4 5 6 
#
# 1 16.0579 13.3866 4.5598 0.0000 0.0000 0.0000
# 2 13.3866 171.6754 99.9821 0.0000 0.0000 0.0000
# 3 4.5598 99.9821 203.6391 0.0000 0.0000 0.0000
# 4 0.0000 0.0000 0.0000 0.9869 0.0000 0.0000
# 5 0.0000 0.0000 0.0000 0.0000-2580.8138 0.0000
# 6 0.0000 0.0000 0.0000 0.0000 0.0000 11.3891
#
#
#
# Elastic Compliance Matrix: (Units=1/GPa)
#
#
# Indices 1 2 3 4 5 6 
#
# 1 0.066925 -0.006086 0.001490 0.000000 0.000000 0.000000
# 2 -0.006086 0.008711 -0.004141 0.000000 0.000000 0.000000
# 3 0.001490 -0.004141 0.006910 0.000000 0.000000 0.000000
# 4 0.000000 0.000000 0.000000 1.013298 0.000000 0.000000
# 5 0.000000 0.000000 0.000000 0.000000 -0.000387 0.000000
# 6 0.000000 0.000000 0.000000 0.000000 0.000000 0.087803
#
#
# Mechanical properties :
#
#
# Convention : Reuss Voigt Hill
#
# Bulk Modulus (GPa) = 15.36755 69.69217 42.52986
# Shear Modulus (GPa) = 4.09023 -495.45796 -245.68386
#
# Velocity S-wave (km/s) = 1.42096 -15.63910 -11.01278
# Velocity P-wave (km/s) = 3.20598 17.07938 11.86227
#
# Compressibility (1/GPa) = 0.06507220
#
# Stress axis : x y z
#
# Youngs Moduli (GPa) = 14.94204 114.79776 144.71286
#
# Poissons Ratio (x) = 0.69867 -0.21556
# Poissons Ratio (y) = 0.09094 0.59920
# Poissons Ratio (z) = -0.02226 0.47533
#
# Static dielectric constant tensor:
#      x y z
#    x 1.720010 0.000000 0.000000 
#    y 0.000000 1.723140 0.000000 
#    z 0.000000 0.000000 1.638270 
# 
# From -- ./inp_files/7994.got.cif
#   From: 2010.05.17/outbox.cif.g08.bks.cpg/sg16_4_cif.got.tgz:7994.got - 2010.06.03 22:28:35.
