data_PCOD9310615
_publ_section_title
;
Structure prediction by ZEFSAII (Michael W. Deem and Ramdas Pophale) SiO2 
 PCOD9310615
Probable space group: P 2 2 21
;
_chemical_formula_sum "Si O2"
_cell_formula_units_Z 32
_cell_length_a 11.879406
_cell_length_b 9.254162
_cell_length_c 11.946752
_cell_angle_alpha 90.000000
_cell_angle_beta 90.000000
_cell_angle_gamma 90.000000
_cell_volume 1313.353608
_symmetry_space_group_name_H-M "P 2 2 21"
_symmetry_group_IT_number 17
_symmetry_cell_setting 'orthorhombic'
loop_
_space_group_symop_operation_xyz
x,y,z
-x,-y,1/2+z
x,-y,-z
-x,y,1/2-z
loop_
_atom_site_type_symbol
_atom_site_label
_atom_site_fract_x
_atom_site_fract_y
_atom_site_fract_z
Si Si1 0.112923 0.578145 0.178437
Si Si2 0.949322 0.245275 0.375559
Si Si3 0.450572 0.957371 0.132949
Si Si4 0.173638 0.674561 0.525071
Si Si5 0.681603 0.549785 0.801185
Si Si6 0.229739 0.172065 0.963330
Si Si7 0.421011 0.639861 0.923627
Si Si8 0.607467 0.284510 0.931961
O O1 0.093708 0.414913 0.128261
O O2 0.222425 0.555744 0.253167
O O3 0.153008 0.711339 0.102423
O O4 0.000000 0.608670 0.250000
O O5 0.858353 0.137616 0.432899
O O6 0.000000 0.214289 0.250000
O O7 0.055968 0.253038 0.458062
O O8 0.500000 0.034375 0.250000
O O9 0.314573 0.922441 0.119871
O O10 0.528204 0.814900 0.139187
O O11 0.478103 0.000000 0.000000
O O12 0.161616 0.500000 0.500000
O O13 0.241883 0.670297 0.641034
O O14 0.262192 0.753661 0.445206
O O15 0.609098 0.606604 0.701228
O O16 0.611357 0.444207 0.880477
O O17 0.328136 0.250632 0.031874
O O18 0.402996 0.500000 0.000000
O O19 0.542799 0.704612 0.949748
#
# Coordination Sequence:
#
# PCOD9310615 Si02
#       8
#     4   4   4   4   4   4   4   4
#     4  11  19  31  54  90 138 192 225 261 316 418
#     4  11  19  33  54  96 151 191 226 254 312 418
#     4  11  27  56  79  98 127 173 251 333 394 444
#     4  10  19  33  51  88 140 179 214 255 315 407
#     4  11  19  34  50  86 139 182 223 261 314 417
#     4  11  21  37  66  95 131 181 243 287 355 430
#     4  11  19  32  50  84 130 179 214 261 320 407
#     4  10  25  37  60  93 126 175 223 282 352 414
#
# _framework density 24.365106000000001
#
# number of rings (size 3 to 8) (size 9 to 14) (size 15 to 20)
#    0.000    1.250    5.000    3.000    3.500    1.500 
#    6.750    0.000    0.000    1.500    0.000    0.000 
#    0.000    0.000    0.000    0.000    0.000    0.000 
#
# Total GULP energy -178135.567358 kJ/mol
# GULP energy per Si atom -5566.736480 kJ/mol
# Density = 2.430965 g / cm^3
# Si number density = 24.365106 Si / 1000 Ang^3
#
#
#
# Elastic Constant Matrix: (Units=GPa)
#
#
# Indices 1 2 3 4 5 6 
#
# 1 181.1092 31.4900 55.1383 0.0000 0.0000 0.0000
# 2 31.4900 44.2368 22.4998 0.0000 0.0000 0.0000
# 3 55.1383 22.4998 126.1608 0.0000 0.0000 0.0000
# 4 0.0000 0.0000 0.0000 23.7708 0.0000 0.0000
# 5 0.0000 0.0000 0.0000 0.0000 33.7786 0.0000
# 6 0.0000 0.0000 0.0000 0.0000 0.0000 25.7302
#
#
#
# Elastic Compliance Matrix: (Units=1/GPa)
#
#
# Indices 1 2 3 4 5 6 
#
# 1 0.006880 -0.003704 -0.002346 0.000000 0.000000 0.000000
# 2 -0.003704 0.026855 -0.003171 0.000000 0.000000 0.000000
# 3 -0.002346 -0.003171 0.009517 0.000000 0.000000 0.000000
# 4 0.000000 0.000000 0.000000 0.042068 0.000000 0.000000
# 5 0.000000 0.000000 0.000000 0.000000 0.029605 0.000000
# 6 0.000000 0.000000 0.000000 0.000000 0.000000 0.038865
#
#
# Mechanical properties :
#
#
# Convention : Reuss Voigt Hill
#
# Bulk Modulus (GPa) = 40.30566 63.30701 51.80634
# Shear Modulus (GPa) = 27.70056 32.81449 30.25752
#
# Velocity S-wave (km/s) = 3.37544 3.67383 3.52780
# Velocity P-wave (km/s) = 5.63647 6.63590 6.15650
#
# Compressibility (1/GPa) = 0.02481041
#
# Stress axis : x y z
#
# Youngs Moduli (GPa) = 145.35127 37.23701 105.07234
#
# Poissons Ratio (x) = 0.13793 0.24653
# Poissons Ratio (y) = 0.53840 0.33313
# Poissons Ratio (z) = 0.34103 0.11806
#
# Static dielectric constant tensor:
#      x y z
#    x 1.949170 0.000000 0.000000 
#    y 0.000000 2.024200 0.000000 
#    z 0.000000 0.000000 2.077120 
# 
# From -- ./inp_files/7082.got.cif
#   From: 2010.05.17/outbox.cif.g08.bks.cpg/sg17_4_cif.got.tgz:7082.got - 2010.06.03 22:34:06.
