data_PCOD9310029
_publ_section_title
;
Structure prediction by ZEFSAII (Michael W. Deem and Ramdas Pophale) SiO2 
 PCOD9310029
Probable space group: P 2 2 2
;
_chemical_formula_sum "Si O2"
_cell_formula_units_Z 32
_cell_length_a 11.420514
_cell_length_b 11.772462
_cell_length_c 12.819357
_cell_angle_alpha 90.000000
_cell_angle_beta 90.000000
_cell_angle_gamma 90.000000
_cell_volume 1723.531360
_symmetry_space_group_name_H-M "P 2 2 2"
_symmetry_group_IT_number 16
_symmetry_cell_setting 'orthorhombic'
loop_
_space_group_symop_operation_xyz
x,y,z
-x,-y,z
x,-y,-z
-x,y,-z
loop_
_atom_site_type_symbol
_atom_site_label
_atom_site_fract_x
_atom_site_fract_y
_atom_site_fract_z
Si Si1 0.517695 0.706172 0.118804
Si Si2 0.723955 0.577024 0.179915
Si Si3 0.621414 0.952225 0.118783
Si Si4 0.739194 0.304716 0.187974
Si Si5 0.872405 0.292568 0.981407
Si Si6 0.862926 0.626114 0.378279
Si Si7 0.133761 0.349831 0.610063
Si Si8 0.880527 0.050118 0.882784
O O1 0.588770 0.610882 0.179278
O O2 0.599037 0.817648 0.113562
O O3 0.392971 0.734615 0.168690
O O4 0.500000 0.667711 0.000000
O O5 0.739444 0.442305 0.180962
O O6 0.785005 0.642526 0.276417
O O7 0.784453 0.623058 0.075413
O O8 0.751248 0.974525 0.164501
O O9 0.500000 0.000000 0.166875
O O10 0.624200 0.000000 0.000000
O O11 0.817684 0.258598 0.092944
O O12 0.791850 0.286272 0.302336
O O13 0.890406 0.184207 0.906353
O O14 0.000000 0.344956 0.000000
O O15 0.827575 0.674802 0.491320
O O16 0.860276 0.487959 0.384718
O O17 0.996182 0.668895 0.367045
O O18 0.000000 0.000000 0.833379
O O19 0.877003 0.000000 0.000000
#
# Coordination Sequence:
#
# PCOD9310029 Si02
#       8
#     4   4   4   4   4   4   4   4
#     4  12  21  35  50  69 104 151 182 208 256 319
#     4  11  22  34  47  73 108 147 180 207 255 313
#     4  10  19  32  53  71  90 133 182 228 260 302
#     4  11  23  33  48  73 109 146 182 212 247 318
#     4  12  22  32  48  73 107 139 169 214 264 325
#     4   8  15  31  55  70  96 134 178 227 265 302
#     4   8  15  32  52  74  94 132 182 225 266 298
#     4  10  19  34  51  68  97 135 168 223 273 311
#
# _framework density 18.566533
#
# number of rings (size 3 to 8) (size 9 to 14) (size 15 to 20)
#    0.000    1.750    5.000    2.250    1.750    2.500 
#    0.000    0.625    0.000    3.000    0.000    0.000 
#    0.000    6.000    0.000    0.000    0.000    0.000 
#
# Total GULP energy -178348.542603 kJ/mol
# GULP energy per Si atom -5573.391956 kJ/mol
# Density = 1.852427 g / cm^3
# Si number density = 18.566533 Si / 1000 Ang^3
#
#
#
# Elastic Constant Matrix: (Units=GPa)
#
#
# Indices 1 2 3 4 5 6 
#
# 1 138.6517 4.4435 43.1297 0.0000 0.0000 0.0000
# 2 4.4435 41.9859 -3.1173 0.0000 0.0000 0.0000
# 3 43.1297 -3.1173 88.4775 0.0000 0.0000 0.0000
# 4 0.0000 0.0000 0.0000 1.0543 0.0000 0.0000
# 5 0.0000 0.0000 0.0000 0.0000 9.1848 0.0000
# 6 0.0000 0.0000 0.0000 0.0000 0.0000 9.4820
#
#
#
# Elastic Compliance Matrix: (Units=1/GPa)
#
#
# Indices 1 2 3 4 5 6 
#
# 1 0.008563 -0.001219 -0.004217 0.000000 0.000000 0.000000
# 2 -0.001219 0.024054 0.001442 0.000000 0.000000 0.000000
# 3 -0.004217 0.001442 0.013409 0.000000 0.000000 0.000000
# 4 0.000000 0.000000 0.000000 0.948467 0.000000 0.000000
# 5 0.000000 0.000000 0.000000 0.000000 0.108875 0.000000
# 6 0.000000 0.000000 0.000000 0.000000 0.000000 0.105463
#
#
# Mechanical properties :
#
#
# Convention : Reuss Voigt Hill
#
# Bulk Modulus (GPa) = 26.29074 39.78077 33.03575
# Shear Modulus (GPa) = 4.06670 18.92152 11.49411
#
# Velocity S-wave (km/s) = 1.48158 3.19583 2.49082
# Velocity P-wave (km/s) = 4.13737 5.92371 5.10921
#
# Compressibility (1/GPa) = 0.03803621
#
# Stress axis : x y z
#
# Youngs Moduli (GPa) = 116.77840 41.57382 74.57752
#
# Poissons Ratio (x) = 0.05069 0.31451
# Poissons Ratio (y) = 0.14240 -0.10753
# Poissons Ratio (z) = 0.49248 -0.05994
#
# Static dielectric constant tensor:
#      x y z
#    x 1.697810 0.000000 0.000000 
#    y 0.000000 1.694320 0.000000 
#    z 0.000000 0.000000 1.630320 
# 
# From -- ./inp_files/6950.got.cif
#   From: 2010.05.17/outbox.cif.g08.bks.cpg/sg16_4_cif.got.tgz:6950.got - 2010.06.03 22:28:35.
