data_PCOD9310618
_publ_section_title
;
Structure prediction by ZEFSAII (Michael W. Deem and Ramdas Pophale) SiO2 
 PCOD9310618
Probable space group: P 2 2 21
;
_chemical_formula_sum "Si O2"
_cell_formula_units_Z 22
_cell_length_a 5.751082
_cell_length_b 12.171779
_cell_length_c 15.015601
_cell_angle_alpha 90.000000
_cell_angle_beta 90.000000
_cell_angle_gamma 90.000000
_cell_volume 1051.105571
_symmetry_space_group_name_H-M "P 2 2 21"
_symmetry_group_IT_number 17
_symmetry_cell_setting 'orthorhombic'
loop_
_space_group_symop_operation_xyz
x,y,z
-x,-y,1/2+z
x,-y,-z
-x,y,1/2-z
loop_
_atom_site_type_symbol
_atom_site_label
_atom_site_fract_x
_atom_site_fract_y
_atom_site_fract_z
Si Si1 0.683227 0.037348 0.395444
Si Si2 0.334228 0.198361 0.832279
Si Si3 0.356502 0.307987 0.527146
Si Si4 0.987404 0.598664 0.348168
Si Si5 0.176193 0.894924 0.569123
Si Si6 0.663544 0.500000 0.500000
O O1 0.426189 0.089645 0.381066
O O2 0.925399 0.101921 0.383253
O O3 0.680823 0.000000 0.500000
O O4 0.714925 0.929587 0.335037
O O5 0.500000 0.225694 0.750000
O O6 0.471502 0.226127 0.922156
O O7 0.118367 0.279439 0.833849
O O8 0.188073 0.224939 0.476744
O O9 0.505808 0.395802 0.473089
O O10 0.227824 0.381041 0.601542
O O11 0.820762 0.536185 0.416797
O O12 0.000000 0.547707 0.250000
O O13 0.171709 0.000000 0.500000
#
# Coordination Sequence:
#
# PCOD9310618 Si02
#       6
#     4   4   4   4   4   2
#     4  10  19  33  53  90 124 168 204 242 322 397
#     4  11  21  34  58  98 134 163 206 279 347 402
#     4  11  21  40  58  94 133 167 225 277 342 408
#     4  11  22  39  65  95 133 172 222 292 361 405
#     4  10  19  33  59  87 125 169 209 253 316 402
#     4  10  26  38  62 100 132 176 230 300 342 422
#
# _framework density 20.930342
#
# number of rings (size 3 to 8) (size 9 to 14) (size 15 to 20)
#    0.000    1.455    5.455    2.727    2.545    0.000 
#    0.000    0.000    0.000    0.000    9.455    0.000 
#    0.000    0.000    0.000    0.000    0.000    0.000 
#
# Total GULP energy -122699.142808 kJ/mol
# GULP energy per Si atom -5577.233764 kJ/mol
# Density = 2.088270 g / cm^3
# Si number density = 20.930342 Si / 1000 Ang^3
#
#
#
# Elastic Constant Matrix: (Units=GPa)
#
#
# Indices 1 2 3 4 5 6 
#
# 1 123.5461 20.6139 21.9181 0.0000 0.0000 0.0000
# 2 20.6139 74.8388 32.8812 0.0000 0.0000 0.0000
# 3 21.9181 32.8812 42.9568 0.0000 0.0000 0.0000
# 4 0.0000 0.0000 0.0000 18.5709 0.0000 0.0000
# 5 0.0000 0.0000 0.0000 0.0000 29.4423 0.0000
# 6 0.0000 0.0000 0.0000 0.0000 0.0000 -15.4533
#
#
#
# Elastic Compliance Matrix: (Units=1/GPa)
#
#
# Indices 1 2 3 4 5 6 
#
# 1 0.008923 -0.000689 -0.004025 0.000000 0.000000 0.000000
# 2 -0.000689 0.020186 -0.015100 0.000000 0.000000 0.000000
# 3 -0.004025 -0.015100 0.036891 0.000000 0.000000 0.000000
# 4 0.000000 0.000000 0.000000 0.053848 0.000000 0.000000
# 5 0.000000 0.000000 0.000000 0.000000 0.033965 0.000000
# 6 0.000000 0.000000 0.000000 0.000000 0.000000 -0.064711
#
#
# Mechanical properties :
#
#
# Convention : Reuss Voigt Hill
#
# Bulk Modulus (GPa) = 37.91931 43.57423 40.74677
# Shear Modulus (GPa) = 36.35799 17.57386 26.96593
#
# Velocity S-wave (km/s) = 4.17237 2.90079 3.59327
# Velocity P-wave (km/s) = 6.43178 5.66421 6.06016
#
# Compressibility (1/GPa) = 0.02637179
#
# Stress axis : x y z
#
# Youngs Moduli (GPa) = 112.06629 49.53896 27.10682
#
# Poissons Ratio (x) = 0.03415 0.10911
# Poissons Ratio (y) = 0.07725 0.40930
# Poissons Ratio (z) = 0.45111 0.74802
#
# Static dielectric constant tensor:
#      x y z
#    x 1.797920 0.000000 0.000000 
#    y 0.000000 1.749360 0.000000 
#    z 0.000000 0.000000 1.809920 
# 
# From -- ./inp_files/7660.got.cif
#   From: 2010.05.17/outbox.cif.g08.bks.cpg/sg17_4_cif.got.tgz:7660.got - 2010.06.03 22:34:06.
