data_PCOD9310884
_publ_section_title
;
Structure prediction by ZEFSAII (Michael W. Deem and Ramdas Pophale) SiO2 
 PCOD9310884
Probable space group: P 2 2 21
;
_chemical_formula_sum "Si O2"
_cell_formula_units_Z 30
_cell_length_a 8.257469
_cell_length_b 15.406700
_cell_length_c 12.012647
_cell_angle_alpha 90.000000
_cell_angle_beta 90.000000
_cell_angle_gamma 90.000000
_cell_volume 1528.253127
_symmetry_space_group_name_H-M "P 2 2 21"
_symmetry_group_IT_number 17
_symmetry_cell_setting 'orthorhombic'
loop_
_space_group_symop_operation_xyz
x,y,z
-x,-y,1/2+z
x,-y,-z
-x,y,1/2-z
loop_
_atom_site_type_symbol
_atom_site_label
_atom_site_fract_x
_atom_site_fract_y
_atom_site_fract_z
Si Si1 0.417522 0.361978 0.861544
Si Si2 0.165928 0.934073 0.699488
Si Si3 0.500000 0.473497 0.250000
Si Si4 0.590297 0.667247 0.913355
Si Si5 0.685854 0.116549 0.781467
Si Si6 0.793796 0.203895 0.565206
Si Si7 0.630197 0.179693 0.342594
Si Si8 0.161138 0.807637 0.502880
O O1 0.500000 0.323875 0.750000
O O2 0.388531 0.461070 0.822926
O O3 0.276785 0.297882 0.899963
O O4 0.540560 0.364208 0.964362
O O5 0.210972 0.852836 0.779598
O O6 0.157581 0.893825 0.577769
O O7 0.000000 0.969230 0.750000
O O8 0.287193 0.014469 0.700076
O O9 0.394419 0.413513 0.331226
O O10 0.440145 0.724007 0.863223
O O11 0.738918 0.733360 0.930991
O O12 0.500000 0.131514 0.750000
O O13 0.790085 0.146315 0.675391
O O14 0.743056 0.169587 0.889783
O O15 0.675432 0.159183 0.471901
O O16 0.975218 0.215149 0.520973
O O17 0.500000 0.144370 0.250000
#
# Coordination Sequence:
#
# PCOD9310884 Si02
#       8
#     4   4   2   4   4   4   4   4
#     4   9  21  37  66  96 128 160 226 266 327 401
#     4  12  24  43  62  98 135 174 217 286 331 386
#     4  10  20  38  68 102 124 166 220 276 328 388
#     4  11  20  38  67  95 128 171 217 268 327 398
#     4  12  27  43  65  95 131 180 234 275 331 390
#     4  11  23  43  65  98 131 184 213 280 339 402
#     4  11  21  39  66  94 129 168 228 261 322 395
#     4  12  24  42  68  96 136 176 228 270 344 402
#
# _framework density 19.630257
#
# number of rings (size 3 to 8) (size 9 to 14) (size 15 to 20)
#    0.400    0.533    3.333    5.200    0.000    0.533 
#    2.400    0.000    0.000    9.600    0.000    0.000 
#    0.000    0.000    0.000    0.000    0.000    0.000 
#
# Total GULP energy -167029.161667 kJ/mol
# GULP energy per Si atom -5567.638722 kJ/mol
# Density = 1.958558 g / cm^3
# Si number density = 19.630257 Si / 1000 Ang^3
#
#
#
# Elastic Constant Matrix: (Units=GPa)
#
#
# Indices 1 2 3 4 5 6 
#
# 1 59.4545 52.0692 25.6231 0.0000 0.0000 0.0000
# 2 52.0692 110.3529 55.3635 0.0000 0.0000 0.0000
# 3 25.6231 55.3635 123.8228 0.0000 0.0000 0.0000
# 4 0.0000 0.0000 0.0000 122.3003 0.0000 0.0000
# 5 0.0000 0.0000 0.0000 0.0000 28.8332 0.0000
# 6 0.0000 0.0000 0.0000 0.0000 0.0000 9.0879
#
#
#
# Elastic Compliance Matrix: (Units=1/GPa)
#
#
# Indices 1 2 3 4 5 6 
#
# 1 0.028667 -0.013601 0.000149 0.000000 0.000000 0.000000
# 2 -0.013601 0.018135 -0.005294 0.000000 0.000000 0.000000
# 3 0.000149 -0.005294 0.010412 0.000000 0.000000 0.000000
# 4 0.000000 0.000000 0.000000 0.008177 0.000000 0.000000
# 5 0.000000 0.000000 0.000000 0.000000 0.034682 0.000000
# 6 0.000000 0.000000 0.000000 0.000000 0.000000 0.110036
#
#
# Mechanical properties :
#
#
# Convention : Reuss Voigt Hill
#
# Bulk Modulus (GPa) = 50.70361 62.19351 56.44856
# Shear Modulus (GPa) = 19.67141 42.74924 31.21032
#
# Velocity S-wave (km/s) = 3.16902 4.67167 3.99169
# Velocity P-wave (km/s) = 6.26703 7.80068 7.07553
#
# Compressibility (1/GPa) = 0.01972246
#
# Stress axis : x y z
#
# Youngs Moduli (GPa) = 34.88340 55.14054 96.04005
#
# Poissons Ratio (x) = 0.74997 -0.01432
# Poissons Ratio (y) = 0.47445 0.50845
# Poissons Ratio (z) = -0.00520 0.29192
#
# Static dielectric constant tensor:
#      x y z
#    x 1.689590 0.000000 0.000000 
#    y 0.000000 1.683670 0.000000 
#    z 0.000000 0.000000 1.729970 
# 
# From -- ./inp_files/6711.got.cif
#   From: 2010.05.17/outbox.cif.g08.bks.cpg/sg17_4_cif.got.tgz:6711.got - 2010.06.03 22:34:06.
