data_PCOD9310977
_publ_section_title
;
Structure prediction by ZEFSAII (Michael W. Deem and Ramdas Pophale) SiO2 
 PCOD9310977
Probable space group: P 2 2 21
;
_chemical_formula_sum "Si O2"
_cell_formula_units_Z 20
_cell_length_a 7.380269
_cell_length_b 14.651321
_cell_length_c 7.796620
_cell_angle_alpha 90.000000
_cell_angle_beta 90.000000
_cell_angle_gamma 90.000000
_cell_volume 843.053902
_symmetry_space_group_name_H-M "P 2 2 21"
_symmetry_group_IT_number 17
_symmetry_cell_setting 'orthorhombic'
loop_
_space_group_symop_operation_xyz
x,y,z
-x,-y,1/2+z
x,-y,-z
-x,y,1/2-z
loop_
_atom_site_type_symbol
_atom_site_label
_atom_site_fract_x
_atom_site_fract_y
_atom_site_fract_z
Si Si1 0.290844 0.620500 0.686666
Si Si2 0.804521 0.817452 0.892660
Si Si3 0.788145 0.102900 0.437333
Si Si4 0.287601 0.427278 0.717264
Si Si5 0.787196 0.227781 0.732921
O O1 0.500000 0.631771 0.750000
O O2 0.195908 0.718091 0.700166
O O3 0.215177 0.526918 0.771479
O O4 0.272645 0.595091 0.484914
O O5 0.712513 0.882947 0.753547
O O6 0.002264 0.861817 0.923585
O O7 0.715967 0.798427 0.077927
O O8 0.705198 0.168374 0.581620
O O9 0.783850 0.000000 0.500000
O O10 0.500000 0.434065 0.750000
O O11 0.223073 0.335419 0.808640
O O12 0.000000 0.207858 0.750000
#
# Coordination Sequence:
#
# PCOD9310977 Si02
#       5
#     4   4   4   4   4
#     4   9  18  34  55  78 114 146 181 223 268 331
#     4   9  20  34  53  81 108 138 177 229 273 325
#     4  10  21  34  57  81 106 139 187 229 282 336
#     4   9  18  33  56  82 110 151 188 216 270 337
#     4   9  19  35  53  82 112 144 179 229 279 320
#
# _framework density 23.723274
#
# number of rings (size 3 to 8) (size 9 to 14) (size 15 to 20)
#    0.000    2.800    0.000    0.000   11.200    0.000 
#    3.600    0.000    0.000    2.400    0.000    0.000 
#    0.000    0.000    0.000    0.000    0.000    0.000 
#
# Total GULP energy -111468.609382 kJ/mol
# GULP energy per Si atom -5573.430469 kJ/mol
# Density = 2.366928 g / cm^3
# Si number density = 23.723274 Si / 1000 Ang^3
#
#
#
# Elastic Constant Matrix: (Units=GPa)
#
#
# Indices 1 2 3 4 5 6 
#
# 1 70.5687 7.2213 -0.3504 0.0000 0.0000 0.0000
# 2 7.2213 170.4292 68.6253 0.0000 0.0000 0.0000
# 3 -0.3504 68.6253 81.9875 0.0000 0.0000 0.0000
# 4 0.0000 0.0000 0.0000 40.5325 0.0000 0.0000
# 5 0.0000 0.0000 0.0000 0.0000 3.1323 0.0000
# 6 0.0000 0.0000 0.0000 0.0000 0.0000 39.8635
#
#
#
# Elastic Compliance Matrix: (Units=1/GPa)
#
#
# Indices 1 2 3 4 5 6 
#
# 1 0.014272 -0.000949 0.000855 0.000000 0.000000 0.000000
# 2 -0.000949 0.008914 -0.007465 0.000000 0.000000 0.000000
# 3 0.000855 -0.007465 0.018449 0.000000 0.000000 0.000000
# 4 0.000000 0.000000 0.000000 0.024672 0.000000 0.000000
# 5 0.000000 0.000000 0.000000 0.000000 0.319257 0.000000
# 6 0.000000 0.000000 0.000000 0.000000 0.000000 0.025086
#
#
# Mechanical properties :
#
#
# Convention : Reuss Voigt Hill
#
# Bulk Modulus (GPa) = 37.71129 52.66419 45.18774
# Shear Modulus (GPa) = 11.50469 33.20495 22.35482
#
# Velocity S-wave (km/s) = 2.20456 3.74529 3.07305
# Velocity P-wave (km/s) = 4.73402 6.39925 5.62856
#
# Compressibility (1/GPa) = 0.02651725
#
# Stress axis : x y z
#
# Youngs Moduli (GPa) = 70.06743 112.18819 54.20368
#
# Poissons Ratio (x) = 0.10649 -0.04637
# Poissons Ratio (y) = 0.06651 0.40463
# Poissons Ratio (z) = -0.05994 0.83748
#
# Static dielectric constant tensor:
#      x y z
#    x 1.889040 0.000000 0.000000 
#    y 0.000000 1.921910 0.000000 
#    z 0.000000 0.000000 2.004480 
# 
# From -- ./inp_files/4026.got.cif
#   From: 2010.05.17/outbox.cif.g08.bks.cpg/sg17_3_cif.got.tgz:4026.got - 2010.06.03 22:34:06.
