data_PCOD9310090
_publ_section_title
;
Structure prediction by ZEFSAII (Michael W. Deem and Ramdas Pophale) SiO2 
 PCOD9310090
Probable space group: P 2 2 2
;
_chemical_formula_sum "Si O2"
_cell_formula_units_Z 25
_cell_length_a 11.133746
_cell_length_b 9.770578
_cell_length_c 11.893240
_cell_angle_alpha 90.000000
_cell_angle_beta 90.000000
_cell_angle_gamma 90.000000
_cell_volume 1293.783917
_symmetry_space_group_name_H-M "P 2 2 2"
_symmetry_group_IT_number 16
_symmetry_cell_setting 'orthorhombic'
loop_
_space_group_symop_operation_xyz
x,y,z
-x,-y,z
x,-y,-z
-x,y,-z
loop_
_atom_site_type_symbol
_atom_site_label
_atom_site_fract_x
_atom_site_fract_y
_atom_site_fract_z
Si Si1 0.506347 0.834082 0.370089
Si Si2 0.681851 0.872375 0.174277
Si Si3 0.888891 0.675349 0.190299
Si Si4 0.735381 0.818234 0.758674
Si Si5 0.851805 0.596147 0.890328
Si Si6 0.500000 0.000000 0.000000
Si Si7 0.978927 0.842094 0.631440
O O1 0.500000 0.786172 0.500000
O O2 0.620164 0.810510 0.287718
O O3 0.388670 0.786730 0.303259
O O4 0.500000 0.000000 0.374769
O O5 0.787815 0.771625 0.136056
O O6 0.731835 0.023586 0.203108
O O7 0.581346 0.904998 0.080705
O O8 0.843919 0.520944 0.205533
O O9 0.014152 0.659532 0.121209
O O10 0.926875 0.748526 0.303983
O O11 0.760750 0.716637 0.862196
O O12 0.846257 0.803044 0.672751
O O13 0.835068 0.500000 0.000000
O O14 0.000000 0.830913 0.500000
O O15 0.000000 0.000000 0.664400
#
# Coordination Sequence:
#
# PCOD9310090 Si02
#       7
#     4   4   4   4   4   1   4
#     4   9  19  35  62  94 125 163 205 258 322 374
#     4  11  22  38  64  90 126 158 214 262 314 364
#     4  10  21  39  58  88 118 160 200 250 307 378
#     4  10  20  39  60  91 123 162 206 258 311 377
#     4  10  23  42  62  82 123 166 207 250 316 376
#     4  12  24  40  54 100 124 164 208 280 298 368
#     4  10  20  32  59  94 124 150 195 255 313 373
#
# _framework density 19.323164999999999
#
# number of rings (size 3 to 8) (size 9 to 14) (size 15 to 20)
#    0.000    1.920    4.000    0.960    4.480    1.280 
#    0.000    7.200    0.000    3.840    0.000    0.000 
#    0.000    0.000    0.000    0.000    0.000    0.000 
#
# Total GULP energy -139349.105755 kJ/mol
# GULP energy per Si atom -5573.964230 kJ/mol
# Density = 1.927918 g / cm^3
# Si number density = 19.323165 Si / 1000 Ang^3
#
#
#
# Elastic Constant Matrix: (Units=GPa)
#
#
# Indices 1 2 3 4 5 6 
#
# 1 107.1342 53.7294 48.1209 0.0000 0.0000 0.0000
# 2 53.7294 86.1821 45.6476 0.0000 0.0000 0.0000
# 3 48.1209 45.6476 92.9057 0.0000 0.0000 0.0000
# 4 0.0000 0.0000 0.0000 25.9540 0.0000 0.0000
# 5 0.0000 0.0000 0.0000 0.0000 20.3111 0.0000
# 6 0.0000 0.0000 0.0000 0.0000 0.0000 19.4901
#
#
#
# Elastic Compliance Matrix: (Units=1/GPa)
#
#
# Indices 1 2 3 4 5 6 
#
# 1 0.014703 -0.006939 -0.004206 0.000000 0.000000 0.000000
# 2 -0.006939 0.018960 -0.005722 0.000000 0.000000 0.000000
# 3 -0.004206 -0.005722 0.015754 0.000000 0.000000 0.000000
# 4 0.000000 0.000000 0.000000 0.038530 0.000000 0.000000
# 5 0.000000 0.000000 0.000000 0.000000 0.049234 0.000000
# 6 0.000000 0.000000 0.000000 0.000000 0.000000 0.051308
#
#
# Mechanical properties :
#
#
# Convention : Reuss Voigt Hill
#
# Bulk Modulus (GPa) = 63.76270 64.57975 64.17122
# Shear Modulus (GPa) = 21.98287 22.39930 22.19109
#
# Velocity S-wave (km/s) = 3.37656 3.40839 3.39251
# Velocity P-wave (km/s) = 6.94775 6.99878 6.97331
#
# Compressibility (1/GPa) = 0.01568315
#
# Stress axis : x y z
#
# Youngs Moduli (GPa) = 68.01192 52.74342 63.47755
#
# Poissons Ratio (x) = 0.36597 0.26702
# Poissons Ratio (y) = 0.47191 0.36320
# Poissons Ratio (z) = 0.28609 0.30178
#
# Static dielectric constant tensor:
#      x y z
#    x 1.700900 0.000000 0.000000 
#    y 0.000000 1.665250 0.000000 
#    z 0.000000 0.000000 1.731820 
# 
# From -- ./inp_files/6841.got.cif
#   From: 2010.05.17/outbox.cif.g08.bks.cpg/sg16_4_cif.got.tgz:6841.got - 2010.06.03 22:28:35.
