data_PCOD9310650
_publ_section_title
;
Structure prediction by ZEFSAII (Michael W. Deem and Ramdas Pophale) SiO2 
 PCOD9310650
Probable space group: P 2 2 21
;
_chemical_formula_sum "Si O2"
_cell_formula_units_Z 32
_cell_length_a 14.458875
_cell_length_b 9.237280
_cell_length_c 11.642308
_cell_angle_alpha 90.000000
_cell_angle_beta 90.000000
_cell_angle_gamma 90.000000
_cell_volume 1554.954537
_symmetry_space_group_name_H-M "P 2 2 21"
_symmetry_group_IT_number 17
_symmetry_cell_setting 'orthorhombic'
loop_
_space_group_symop_operation_xyz
x,y,z
-x,-y,1/2+z
x,-y,-z
-x,y,1/2-z
loop_
_atom_site_type_symbol
_atom_site_label
_atom_site_fract_x
_atom_site_fract_y
_atom_site_fract_z
Si Si1 0.916377 0.325017 0.008311
Si Si2 0.415280 0.264112 0.319829
Si Si3 0.454465 0.852267 0.438631
Si Si4 0.212328 0.631667 0.721783
Si Si5 0.930651 0.791436 0.654859
Si Si6 0.891665 0.334721 0.758039
Si Si7 0.833325 0.064088 0.628560
Si Si8 0.374543 0.059219 0.782915
O O1 0.839160 0.308218 0.107026
O O2 0.009950 0.242515 0.043131
O O3 0.933504 0.500000 0.000000
O O4 0.882744 0.268293 0.885677
O O5 0.500000 0.331118 0.250000
O O6 0.442854 0.256486 0.454926
O O7 0.319884 0.346063 0.297190
O O8 0.401413 0.102018 0.263457
O O9 0.556207 0.886937 0.384357
O O10 0.391700 0.834455 0.325606
O O11 0.423360 0.000000 0.500000
O O12 0.168483 0.716488 0.830125
O O13 0.176582 0.470144 0.740437
O O14 0.000000 0.727291 0.750000
O O15 0.908310 0.956351 0.683880
O O16 0.865054 0.224685 0.658617
O O17 0.000000 0.378215 0.750000
O O18 0.730316 0.052196 0.677899
O O19 0.831031 0.000000 0.500000
#
# Coordination Sequence:
#
# PCOD9310650 Si02
#       8
#     4   4   4   4   4   4   4   4
#     4   9  19  38  65  90 123 176 228 272 341 413
#     4  11  20  35  63  96 127 171 223 279 335 407
#     4   9  17  33  58  86 125 165 214 260 336 400
#     4  10  21  38  65  92 125 171 227 272 327 412
#     4  10  20  37  58  91 124 161 213 278 323 395
#     4  11  23  43  63  89 129 178 223 276 344 407
#     4  12  25  36  59  91 131 166 217 276 339 397
#     4  10  19  35  56  91 126 172 211 272 337 410
#
# _framework density 20.57938
#
# number of rings (size 3 to 8) (size 9 to 14) (size 15 to 20)
#    0.000    1.750    3.750    3.375    1.750    0.000 
#    0.000    1.875    2.750    0.000    0.000    0.000 
#    0.000    0.000    0.000    0.000    0.000    0.000 
#
# Total GULP energy -178333.281188 kJ/mol
# GULP energy per Si atom -5572.915037 kJ/mol
# Density = 2.053254 g / cm^3
# Si number density = 20.579380 Si / 1000 Ang^3
#
#
#
# Elastic Constant Matrix: (Units=GPa)
#
#
# Indices 1 2 3 4 5 6 
#
# 1 173.3003 47.8079 65.2063 0.0000 0.0000 0.0000
# 2 47.8079 47.5004 36.7072 0.0000 0.0000 0.0000
# 3 65.2063 36.7072 99.6348 0.0000 0.0000 0.0000
# 4 0.0000 0.0000 0.0000 16.7419 0.0000 0.0000
# 5 0.0000 0.0000 0.0000 0.0000 25.0096 0.0000
# 6 0.0000 0.0000 0.0000 0.0000 0.0000 23.1416
#
#
#
# Elastic Compliance Matrix: (Units=1/GPa)
#
#
# Indices 1 2 3 4 5 6 
#
# 1 0.008774 -0.006142 -0.003479 0.000000 0.000000 0.000000
# 2 -0.006142 0.033731 -0.008408 0.000000 0.000000 0.000000
# 3 -0.003479 -0.008408 0.015411 0.000000 0.000000 0.000000
# 4 0.000000 0.000000 0.000000 0.059730 0.000000 0.000000
# 5 0.000000 0.000000 0.000000 0.000000 0.039985 0.000000
# 6 0.000000 0.000000 0.000000 0.000000 0.000000 0.043212
#
#
# Mechanical properties :
#
#
# Convention : Reuss Voigt Hill
#
# Bulk Modulus (GPa) = 45.74833 68.87537 57.31185
# Shear Modulus (GPa) = 20.47609 24.35956 22.41783
#
# Velocity S-wave (km/s) = 3.15775 3.44421 3.30409
# Velocity P-wave (km/s) = 5.96437 7.02549 6.51656
#
# Compressibility (1/GPa) = 0.02185872
#
# Stress axis : x y z
#
# Youngs Moduli (GPa) = 113.97593 29.64607 64.88801
#
# Poissons Ratio (x) = 0.18208 0.22576
# Poissons Ratio (y) = 0.70003 0.54555
# Poissons Ratio (z) = 0.39655 0.24925
#
# Static dielectric constant tensor:
#      x y z
#    x 1.723360 0.000000 0.000000 
#    y 0.000000 1.764690 0.000000 
#    z 0.000000 0.000000 1.829530 
# 
# From -- ./inp_files/7287.got.cif
#   From: 2010.05.17/outbox.cif.g08.bks.cpg/sg17_4_cif.got.tgz:7287.got - 2010.06.03 22:34:06.
