data_PCOD9310232
_publ_section_title
;
Structure prediction by ZEFSAII (Michael W. Deem and Ramdas Pophale) SiO2 
 PCOD9310232
Probable space group: P 2 2 2
;
_chemical_formula_sum "Si O2"
_cell_formula_units_Z 20
_cell_length_a 9.042238
_cell_length_b 11.129133
_cell_length_c 7.809514
_cell_angle_alpha 90.000000
_cell_angle_beta 90.000000
_cell_angle_gamma 90.000000
_cell_volume 785.889116
_symmetry_space_group_name_H-M "P 2 2 2"
_symmetry_group_IT_number 16
_symmetry_cell_setting 'orthorhombic'
loop_
_space_group_symop_operation_xyz
x,y,z
-x,-y,z
x,-y,-z
-x,y,-z
loop_
_atom_site_type_symbol
_atom_site_label
_atom_site_fract_x
_atom_site_fract_y
_atom_site_fract_z
Si Si1 0.357225 0.436492 0.687082
Si Si2 0.060221 0.324440 0.681365
Si Si3 0.194905 0.912652 0.226212
Si Si4 0.493467 0.172213 0.693937
Si Si5 0.817240 0.825954 0.158811
O O1 0.500000 0.500000 0.775644
O O2 0.342607 0.500000 0.500000
O O3 0.188316 0.413547 0.751697
O O4 0.417541 0.302010 0.676330
O O5 0.137038 0.192482 0.650934
O O6 0.000000 0.367381 0.500000
O O7 0.917731 0.287008 0.792243
O O8 0.372772 0.913313 0.220448
O O9 0.143868 0.048440 0.254349
O O10 0.158810 0.861066 0.038157
O O11 0.500000 0.128749 0.500000
O O12 0.646997 0.192955 0.790566
#
# Coordination Sequence:
#
# PCOD9310232 Si02
#       5
#     4   4   4   4   4
#     4  10  21  42  66  91 124 168 217 286 359 414
#     4  11  24  38  64 105 123 170 230 289 334 404
#     4  10  23  40  62  92 148 193 213 259 348 421
#     4  11  21  37  65 103 126 180 237 288 322 399
#     4  11  22  40  62  97 142 189 221 265 338 420
#
# _framework density 25.448885000000001
#
# number of rings (size 3 to 8) (size 9 to 14) (size 15 to 20)
#    0.000    1.400    2.000    4.800    0.000    8.400 
#    0.000    0.000    0.000    9.600   10.400    0.000 
#    0.000    0.000    0.000    0.000    0.000    0.000 
#
# Total GULP energy -111674.991497 kJ/mol
# GULP energy per Si atom -5583.749575 kJ/mol
# Density = 2.539096 g / cm^3
# Si number density = 25.448885 Si / 1000 Ang^3
#
#
#
# Elastic Constant Matrix: (Units=GPa)
#
#
# Indices 1 2 3 4 5 6 
#
# 1 200.6919 36.6156 33.0563 0.0000 0.0000 0.0000
# 2 36.6156 118.3357 14.6905 0.0000 0.0000 0.0000
# 3 33.0563 14.6905 48.6112 0.0000 0.0000 0.0000
# 4 0.0000 0.0000 0.0000 2.4717 0.0000 0.0000
# 5 0.0000 0.0000 0.0000 0.0000 19.3164 0.0000
# 6 0.0000 0.0000 0.0000 0.0000 0.0000 -116.8803
#
#
#
# Elastic Compliance Matrix: (Units=1/GPa)
#
#
# Indices 1 2 3 4 5 6 
#
# 1 0.005814 -0.001359 -0.003543 0.000000 0.000000 0.000000
# 2 -0.001359 0.009098 -0.001825 0.000000 0.000000 0.000000
# 3 -0.003543 -0.001825 0.023532 0.000000 0.000000 0.000000
# 4 0.000000 0.000000 0.000000 0.404585 0.000000 0.000000
# 5 0.000000 0.000000 0.000000 0.000000 0.051769 0.000000
# 6 0.000000 0.000000 0.000000 0.000000 0.000000 -0.008556
#
#
# Mechanical properties :
#
#
# Convention : Reuss Voigt Hill
#
# Bulk Modulus (GPa) = 40.01670 59.59594 49.80632
# Shear Modulus (GPa) = 9.84198 -0.13335 4.85432
#
# Velocity S-wave (km/s) = 1.96869 -0.22916 1.38261
# Velocity P-wave (km/s) = 4.57451 4.83722 4.70770
#
# Compressibility (1/GPa) = 0.02498956
#
# Stress axis : x y z
#
# Youngs Moduli (GPa) = 171.98881 109.91816 42.49489
#
# Poissons Ratio (x) = 0.14940 0.15056
# Poissons Ratio (y) = 0.23377 0.07756
# Poissons Ratio (z) = 0.60937 0.20061
#
# Static dielectric constant tensor:
#      x y z
#    x 2.232830 0.000000 0.000000 
#    y 0.000000 2.057920 0.000000 
#    z 0.000000 0.000000 2.003420 
# 
# From -- ./inp_files/3797.got.cif
#   From: 2010.05.17/outbox.cif.g08.bks.cpg/sg16_2_cif.got.tgz:3797.got - 2010.06.03 22:28:35.
