data_PCOD9310698
_publ_section_title
;
Structure prediction by ZEFSAII (Michael W. Deem and Ramdas Pophale) SiO2 
 PCOD9310698
Probable space group: P 2 2 21
;
_chemical_formula_sum "Si O2"
_cell_formula_units_Z 24
_cell_length_a 7.692811
_cell_length_b 16.707775
_cell_length_c 8.099743
_cell_angle_alpha 90.000000
_cell_angle_beta 90.000000
_cell_angle_gamma 90.000000
_cell_volume 1041.057986
_symmetry_space_group_name_H-M "P 2 2 21"
_symmetry_group_IT_number 17
_symmetry_cell_setting 'orthorhombic'
loop_
_space_group_symop_operation_xyz
x,y,z
-x,-y,1/2+z
x,-y,-z
-x,y,1/2-z
loop_
_atom_site_type_symbol
_atom_site_label
_atom_site_fract_x
_atom_site_fract_y
_atom_site_fract_z
Si Si1 0.983238 0.585682 0.445171
Si Si2 0.661511 0.763658 0.484639
Si Si3 0.568038 0.587779 0.436666
Si Si4 0.665324 0.000000 0.000000
Si Si5 0.198028 0.144756 0.687759
Si Si6 0.500000 0.874496 0.750000
Si Si7 0.052886 0.257489 0.432198
O O1 0.051931 0.500000 0.500000
O O2 0.775408 0.582942 0.471369
O O3 0.000000 0.600945 0.250000
O O4 0.095272 0.649280 0.550552
O O5 0.545225 0.682640 0.489925
O O6 0.667219 0.820908 0.322489
O O7 0.625892 0.815810 0.647331
O O8 0.865232 0.740563 0.478975
O O9 0.500798 0.500000 0.500000
O O10 0.500000 0.589705 0.250000
O O11 0.766364 0.054957 0.869675
O O12 0.566505 0.934523 0.891241
O O13 0.188668 0.202471 0.527150
O O14 0.000000 0.145602 0.750000
O O15 0.000000 0.231812 0.250000
#
# Coordination Sequence:
#
# PCOD9310698 Si02
#       7
#     4   4   4   2   4   2   4
#     4  10  20  37  58  90 124 165 213 265 323 376
#     4  10  23  42  63  92 128 171 211 264 324 392
#     4  10  23  40  61  91 131 169 213 260 312 386
#     4  12  26  42  64  94 124 166 214 272 330 394
#     4  10  23  42  67  93 125 164 213 273 336 386
#     4  12  26  42  64  92 130 170 222 262 328 410
#     4  10  19  38  63  91 123 160 211 266 324 389
#
# _framework density 23.053471999999999
#
# number of rings (size 3 to 8) (size 9 to 14) (size 15 to 20)
#    0.000    1.667    0.000    5.000    3.500    4.000 
#    3.000    0.000    0.000    0.000    0.000    0.000 
#    0.000    0.000    0.000    0.000    0.000    0.000 
#
# Total GULP energy -133643.726360 kJ/mol
# GULP energy per Si atom -5568.488598 kJ/mol
# Density = 2.300100 g / cm^3
# Si number density = 23.053472 Si / 1000 Ang^3
#
#
#
# Elastic Constant Matrix: (Units=GPa)
#
#
# Indices 1 2 3 4 5 6 
#
# 1 32.2417 23.7755 -5.0102 0.0000 0.0000 0.0000
# 2 23.7755 160.1578 26.5907 0.0000 0.0000 0.0000
# 3 -5.0102 26.5907 81.3873 0.0000 0.0000 0.0000
# 4 0.0000 0.0000 0.0000 54.6068 0.0000 0.0000
# 5 0.0000 0.0000 0.0000 0.0000 33.8412 0.0000
# 6 0.0000 0.0000 0.0000 0.0000 0.0000 17.9929
#
#
#
# Elastic Compliance Matrix: (Units=1/GPa)
#
#
# Indices 1 2 3 4 5 6 
#
# 1 0.036141 -0.006063 0.004206 0.000000 0.000000 0.000000
# 2 -0.006063 0.007619 -0.002863 0.000000 0.000000 0.000000
# 3 0.004206 -0.002863 0.013481 0.000000 0.000000 0.000000
# 4 0.000000 0.000000 0.000000 0.018313 0.000000 0.000000
# 5 0.000000 0.000000 0.000000 0.000000 0.029550 0.000000
# 6 0.000000 0.000000 0.000000 0.000000 0.000000 0.055578
#
#
# Mechanical properties :
#
#
# Convention : Reuss Voigt Hill
#
# Bulk Modulus (GPa) = 20.92027 40.49988 30.71008
# Shear Modulus (GPa) = 26.87381 36.51688 31.69535
#
# Velocity S-wave (km/s) = 3.41796 3.98428 3.71194
# Velocity P-wave (km/s) = 4.96699 6.22671 5.63218
#
# Compressibility (1/GPa) = 0.04780053
#
# Stress axis : x y z
#
# Youngs Moduli (GPa) = 27.66978 131.24698 74.17792
#
# Poissons Ratio (x) = 0.79580 -0.31198
# Poissons Ratio (y) = 0.16777 0.21234
# Poissons Ratio (z) = -0.11637 0.37571
#
# Static dielectric constant tensor:
#      x y z
#    x 1.879760 0.000000 0.000000 
#    y 0.000000 2.139060 0.000000 
#    z 0.000000 0.000000 1.965960 
# 
# From -- ./inp_files/4303.got.cif
#   From: 2010.05.17/outbox.cif.g08.bks.cpg/sg17_3_cif.got.tgz:4303.got - 2010.06.03 22:34:06.
