data_PCOD9310664
_publ_section_title
;
Structure prediction by ZEFSAII (Michael W. Deem and Ramdas Pophale) SiO2 
 PCOD9310664
Probable space group: P 2 2 21
;
_chemical_formula_sum "Si O2"
_cell_formula_units_Z 32
_cell_length_a 11.788025
_cell_length_b 13.324314
_cell_length_c 11.026687
_cell_angle_alpha 90.000000
_cell_angle_beta 90.000000
_cell_angle_gamma 90.000000
_cell_volume 1731.932468
_symmetry_space_group_name_H-M "P 2 2 21"
_symmetry_group_IT_number 17
_symmetry_cell_setting 'orthorhombic'
loop_
_space_group_symop_operation_xyz
x,y,z
-x,-y,1/2+z
x,-y,-z
-x,y,1/2-z
loop_
_atom_site_type_symbol
_atom_site_label
_atom_site_fract_x
_atom_site_fract_y
_atom_site_fract_z
Si Si1 0.122866 0.549151 0.384381
Si Si2 0.157867 0.236169 0.099612
Si Si3 0.940828 0.221436 0.938092
Si Si4 0.346308 0.881345 0.033349
Si Si5 0.224018 0.887735 0.290923
Si Si6 0.806228 0.876484 0.838742
Si Si7 0.392626 0.878393 0.501909
Si Si8 0.134914 0.469654 0.131771
O O1 0.184490 0.500000 0.500000
O O2 0.097977 0.663912 0.418008
O O3 0.175817 0.529147 0.251716
O O4 0.999979 0.493783 0.375575
O O5 0.138297 0.172486 0.221051
O O6 0.154486 0.351341 0.141000
O O7 0.275591 0.191178 0.053199
O O8 0.068750 0.223643 0.988847
O O9 0.893686 0.168358 0.817206
O O10 0.878293 0.160419 0.046248
O O11 0.286033 0.874673 0.163646
O O12 0.477701 0.850634 0.020906
O O13 0.337922 0.000000 0.000000
O O14 0.314267 0.847287 0.389529
O O15 0.198906 0.004553 0.317904
O O16 0.675847 0.847295 0.876286
O O17 0.391991 0.000000 0.500000
O O18 0.182940 0.500000 0.000000
#
# Coordination Sequence:
#
# PCOD9310664 Si02
#       8
#     4   4   4   4   4   4   4   4
#     4  10  19  36  59  80 105 151 214 248 296 350
#     4  12  23  36  56  87 123 155 194 244 310 372
#     4  11  22  36  59  83 121 163 200 241 295 374
#     4  11  22  36  56  88 118 156 202 249 296 354
#     4  10  21  39  56  84 123 163 204 238 298 361
#     4  10  21  39  58  85 122 162 202 238 303 366
#     4   8  18  37  62  81 110 153 204 257 289 340
#     4  10  21  36  56  79 113 146 201 259 302 350
#
# _framework density 18.476472000000001
#
# number of rings (size 3 to 8) (size 9 to 14) (size 15 to 20)
#    0.000    1.750    3.750    2.625    3.500    2.000 
#    2.250    0.000    0.000    0.000    0.000   10.500 
#    0.000    0.000    0.000    0.000    0.000    0.000 
#
# Total GULP energy -178180.781962 kJ/mol
# GULP energy per Si atom -5568.149436 kJ/mol
# Density = 1.843442 g / cm^3
# Si number density = 18.476472 Si / 1000 Ang^3
#
#
#
# Elastic Constant Matrix: (Units=GPa)
#
#
# Indices 1 2 3 4 5 6 
#
# 1 50.3313 -7.8631 8.9587 0.0000 0.0000 0.0000
# 2 -7.8631 38.3062 -10.3598 0.0000 0.0000 0.0000
# 3 8.9587 -10.3598 86.5643 0.0000 0.0000 0.0000
# 4 0.0000 0.0000 0.0000 22.8760 0.0000 0.0000
# 5 0.0000 0.0000 0.0000 0.0000 17.2575 0.0000
# 6 0.0000 0.0000 0.0000 0.0000 0.0000 -14.9232
#
#
#
# Elastic Compliance Matrix: (Units=1/GPa)
#
#
# Indices 1 2 3 4 5 6 
#
# 1 0.020764 0.003804 -0.001694 0.000000 0.000000 0.000000
# 2 0.003804 0.027676 0.002918 0.000000 0.000000 0.000000
# 3 -0.001694 0.002918 0.012077 0.000000 0.000000 0.000000
# 4 0.000000 0.000000 0.000000 0.043714 0.000000 0.000000
# 5 0.000000 0.000000 0.000000 0.000000 0.057946 0.000000
# 6 0.000000 0.000000 0.000000 0.000000 0.000000 -0.067010
#
#
# Mechanical properties :
#
#
# Convention : Reuss Voigt Hill
#
# Bulk Modulus (GPa) = 14.16944 17.40815 15.78879
# Shear Modulus (GPa) = 46.02649 17.33979 31.68314
#
# Velocity S-wave (km/s) = 4.99649 3.06679 4.14549
# Velocity P-wave (km/s) = 6.40095 4.68855 5.61046
#
# Compressibility (1/GPa) = 0.07057443
#
# Stress axis : x y z
#
# Youngs Moduli (GPa) = 48.15995 36.13288 82.80433
#
# Poissons Ratio (x) = -0.13746 0.14024
# Poissons Ratio (y) = -0.18321 -0.24166
# Poissons Ratio (z) = 0.08157 -0.10545
#
# Static dielectric constant tensor:
#      x y z
#    x 1.546780 0.000000 0.000000 
#    y 0.000000 1.643230 0.000000 
#    z 0.000000 0.000000 1.716700 
# 
# From -- ./inp_files/7088.got.cif
#   From: 2010.05.17/outbox.cif.g08.bks.cpg/sg17_4_cif.got.tgz:7088.got - 2010.06.03 22:34:06.
