data_PCOD9310580
_publ_section_title
;
Structure prediction by ZEFSAII (Michael W. Deem and Ramdas Pophale) SiO2 
 PCOD9310580
Probable space group: P 2 2 21
;
_chemical_formula_sum "Si O2"
_cell_formula_units_Z 24
_cell_length_a 5.388925
_cell_length_b 14.286685
_cell_length_c 18.466388
_cell_angle_alpha 90.000000
_cell_angle_beta 90.000000
_cell_angle_gamma 90.000000
_cell_volume 1421.724885
_symmetry_space_group_name_H-M "P 2 2 21"
_symmetry_group_IT_number 17
_symmetry_cell_setting 'orthorhombic'
loop_
_space_group_symop_operation_xyz
x,y,z
-x,-y,1/2+z
x,-y,-z
-x,y,1/2-z
loop_
_atom_site_type_symbol
_atom_site_label
_atom_site_fract_x
_atom_site_fract_y
_atom_site_fract_z
Si Si1 0.923691 0.823304 0.170764
Si Si2 0.785894 0.535490 0.916820
Si Si3 0.285839 0.403210 0.045375
Si Si4 0.267758 0.896945 0.467768
Si Si5 0.251900 0.620923 0.296133
Si Si6 0.777186 0.211352 0.536637
O O1 0.781569 0.895616 0.119112
O O2 0.763456 0.728859 0.178980
O O3 0.162763 0.792684 0.122606
O O4 0.000000 0.856073 0.250000
O O5 0.546064 0.601477 0.913109
O O6 0.751964 0.447662 0.864530
O O7 0.046244 0.586682 0.903907
O O8 0.801431 0.500000 0.000000
O O9 0.301031 0.500000 0.000000
O O10 0.249322 0.316293 0.991954
O O11 0.527791 0.845078 0.480942
O O12 0.027767 0.837382 0.494819
O O13 0.268037 0.000000 0.500000
O O14 0.500000 0.605202 0.250000
O O15 0.000000 0.605254 0.250000
#
# Coordination Sequence:
#
# PCOD9310580 Si02
#       6
#     4   4   4   4   4   4
#     4   9  22  33  57  80 119 146 179 222 296 359
#     4  10  20  32  51  74 114 146 197 217 259 324
#     4  10  19  30  52  80 110 147 187 227 260 317
#     4  10  22  37  56  79 117 146 186 237 293 340
#     4  11  23  35  52  81 122 155 182 229 294 344
#     4  10  21  34  57  81 119 141 186 233 287 325
#
# _framework density 16.880903
#
# number of rings (size 3 to 8) (size 9 to 14) (size 15 to 20)
#    1.000    1.000    0.000    4.500    9.333    0.000 
#    0.000    0.000    0.000    0.000    0.000   11.667 
#    0.000    0.000    0.000    0.000    0.000    0.000 
#
# Total GULP energy -133652.837299 kJ/mol
# GULP energy per Si atom -5568.868221 kJ/mol
# Density = 1.684248 g / cm^3
# Si number density = 16.880903 Si / 1000 Ang^3
#
#
#
# Elastic Constant Matrix: (Units=GPa)
#
#
# Indices 1 2 3 4 5 6 
#
# 1 105.7029 9.1505 6.3366 0.0000 0.0000 0.0000
# 2 9.1505 75.9691 35.9555 0.0000 0.0000 0.0000
# 3 6.3366 35.9555 71.0120 0.0000 0.0000 0.0000
# 4 0.0000 0.0000 0.0000 28.5313 0.0000 0.0000
# 5 0.0000 0.0000 0.0000 0.0000 11.2472 0.0000
# 6 0.0000 0.0000 0.0000 0.0000 0.0000 21.8108
#
#
#
# Elastic Compliance Matrix: (Units=1/GPa)
#
#
# Indices 1 2 3 4 5 6 
#
# 1 0.009567 -0.000984 -0.000355 0.000000 0.000000 0.000000
# 2 -0.000984 0.017413 -0.008729 0.000000 0.000000 0.000000
# 3 -0.000355 -0.008729 0.018534 0.000000 0.000000 0.000000
# 4 0.000000 0.000000 0.000000 0.035049 0.000000 0.000000
# 5 0.000000 0.000000 0.000000 0.000000 0.088911 0.000000
# 6 0.000000 0.000000 0.000000 0.000000 0.000000 0.045849
#
#
# Mechanical properties :
#
#
# Convention : Reuss Voigt Hill
#
# Bulk Modulus (GPa) = 39.40624 39.50768 39.45696
# Shear Modulus (GPa) = 20.49863 25.73394 23.11629
#
# Velocity S-wave (km/s) = 3.48847 3.90864 3.70452
# Velocity P-wave (km/s) = 6.29447 6.62001 6.45929
#
# Compressibility (1/GPa) = 0.02537669
#
# Stress axis : x y z
#
# Youngs Moduli (GPa) = 104.52623 57.42798 53.95612
#
# Poissons Ratio (x) = 0.05652 0.01918
# Poissons Ratio (y) = 0.10287 0.47098
# Poissons Ratio (z) = 0.03715 0.50129
#
# Static dielectric constant tensor:
#      x y z
#    x 1.683690 0.000000 0.000000 
#    y 0.000000 1.529750 0.000000 
#    z 0.000000 0.000000 1.563310 
# 
# From -- ./inp_files/9029.got.cif
#   From: 2010.05.17/outbox.cif.g08.bks.cpg/sg17_5_cif.got.tgz:9029.got - 2010.06.03 22:34:06.
