data_PCOD9310507
_publ_section_title
;
Structure prediction by ZEFSAII (Michael W. Deem and Ramdas Pophale) SiO2 
 PCOD9310507
Probable space group: P 2 2 21
;
_chemical_formula_sum "Si O2"
_cell_formula_units_Z 18
_cell_length_a 9.360086
_cell_length_b 13.961087
_cell_length_c 5.538000
_cell_angle_alpha 90.000000
_cell_angle_beta 90.000000
_cell_angle_gamma 90.000000
_cell_volume 723.689087
_symmetry_space_group_name_H-M "P 2 2 21"
_symmetry_group_IT_number 17
_symmetry_cell_setting 'orthorhombic'
loop_
_space_group_symop_operation_xyz
x,y,z
-x,-y,1/2+z
x,-y,-z
-x,y,1/2-z
loop_
_atom_site_type_symbol
_atom_site_label
_atom_site_fract_x
_atom_site_fract_y
_atom_site_fract_z
Si Si1 0.006941 0.664820 0.500654
Si Si2 0.662946 0.463738 0.256003
Si Si3 0.737085 0.185739 0.927713
Si Si4 0.298351 0.248014 0.082726
Si Si5 0.081730 0.000000 0.500000
O O1 0.872770 0.737840 0.531831
O O2 0.000000 0.611418 0.250000
O O3 0.149233 0.728089 0.473024
O O4 0.000000 0.609303 0.750000
O O5 0.736369 0.500000 0.500000
O O6 0.500000 0.504203 0.250000
O O7 0.652339 0.351560 0.318484
O O8 0.724109 0.500000 0.000000
O O9 0.654195 0.213621 0.682801
O O10 0.665250 0.180299 0.192087
O O11 0.824169 0.088210 0.903236
O O12 0.000000 0.031073 0.250000
#
# Coordination Sequence:
#
# PCOD9310507 Si02
#       5
#     4   4   4   4   2
#     4   8  14  25  41  63  92 130 166 196 235 289
#     4  10  21  37  57  81 104 127 170 236 293 334
#     4  10  19  30  48  75 107 144 178 213 253 307
#     4  10  18  32  51  72 102 139 172 211 268 324
#     4  12  20  30  48  78 116 150 188 228 264 294
#
# _framework density 24.87256
#
# number of rings (size 3 to 8) (size 9 to 14) (size 15 to 20)
#    0.000    2.222    0.000    6.667    0.000    0.000 
#    0.000    0.000    0.000   24.000    0.000    3.111 
#    0.000    0.000    0.000    0.000    0.000    0.000 
#
# Total GULP energy -100297.315710 kJ/mol
# GULP energy per Si atom -5572.073095 kJ/mol
# Density = 2.481595 g / cm^3
# Si number density = 24.872560 Si / 1000 Ang^3
#
#
#
# Elastic Constant Matrix: (Units=GPa)
#
#
# Indices 1 2 3 4 5 6 
#
# 1 69.3009 6.3985 38.5196 0.0000 0.0000 0.0000
# 2 6.3985 91.4744 47.4403 0.0000 0.0000 0.0000
# 3 38.5196 47.4403 347.0954 0.0000 0.0000 0.0000
# 4 0.0000 0.0000 0.0000 35.6569 0.0000 0.0000
# 5 0.0000 0.0000 0.0000 0.0000 -1.5257 0.0000
# 6 0.0000 0.0000 0.0000 0.0000 0.0000 159.2574
#
#
#
# Elastic Compliance Matrix: (Units=1/GPa)
#
#
# Indices 1 2 3 4 5 6 
#
# 1 0.015382 -0.000205 -0.001679 0.000000 0.000000 0.000000
# 2 -0.000205 0.011769 -0.001586 0.000000 0.000000 0.000000
# 3 -0.001679 -0.001586 0.003284 0.000000 0.000000 0.000000
# 4 0.000000 0.000000 0.000000 0.028045 0.000000 0.000000
# 5 0.000000 0.000000 0.000000 0.000000 -0.655427 0.000000
# 6 0.000000 0.000000 0.000000 0.000000 0.000000 0.006279
#
#
# Mechanical properties :
#
#
# Convention : Reuss Voigt Hill
#
# Bulk Modulus (GPa) = 42.56223 76.95416 59.75819
# Shear Modulus (GPa) = -8.68212 66.37853 28.84820
#
# Velocity S-wave (km/s) = -1.87035 5.17159 3.40934
# Velocity P-wave (km/s) = 3.53341 8.16499 6.29095
#
# Compressibility (1/GPa) = 0.02349501
#
# Stress axis : x y z
#
# Youngs Moduli (GPa) = 65.01101 84.97054 304.49536
#
# Poissons Ratio (x) = 0.01743 0.51125
# Poissons Ratio (y) = 0.01334 0.48286
# Poissons Ratio (z) = 0.10915 0.13474
#
# Static dielectric constant tensor:
#      x y z
#    x 2.082200 0.000000 0.000000 
#    y 0.000000 1.941530 0.000000 
#    z 0.000000 0.000000 1.746280 
# 
# From -- ./inp_files/1331.got.cif
#   From: 2010.05.17/outbox.cif.g08.bks.cpg/sg17_1_cif.got.tgz:1331.got - 2010.06.03 22:34:06.
