data_PCOD9310969
_publ_section_title
;
Structure prediction by ZEFSAII (Michael W. Deem and Ramdas Pophale) SiO2 
 PCOD9310969
Probable space group: P 2 2 21
;
_chemical_formula_sum "Si O2"
_cell_formula_units_Z 16
_cell_length_a 5.226354
_cell_length_b 23.572279
_cell_length_c 5.419860
_cell_angle_alpha 90.000000
_cell_angle_beta 90.000000
_cell_angle_gamma 90.000000
_cell_volume 667.710897
_symmetry_space_group_name_H-M "P 2 2 21"
_symmetry_group_IT_number 17
_symmetry_cell_setting 'orthorhombic'
loop_
_space_group_symop_operation_xyz
x,y,z
-x,-y,1/2+z
x,-y,-z
-x,y,1/2-z
loop_
_atom_site_type_symbol
_atom_site_label
_atom_site_fract_x
_atom_site_fract_y
_atom_site_fract_z
Si Si1 0.500000 0.594105 0.250000
Si Si2 0.249982 0.668155 0.610620
Si Si3 0.000000 0.891456 0.250000
Si Si4 0.764125 0.215582 0.903902
Si Si5 0.500000 0.035025 0.750000
Si Si6 0.170684 0.500000 0.000000
O O1 0.285674 0.637055 0.352813
O O2 0.642627 0.552364 0.439050
O O3 0.500000 0.649024 0.750000
O O4 0.267139 0.736765 0.605544
O O5 0.000000 0.650843 0.750000
O O6 0.119742 0.847123 0.451632
O O7 0.754208 0.928696 0.317887
O O8 0.500000 0.209747 0.750000
O O9 0.000000 0.241682 0.750000
O O10 0.438304 0.000000 0.500000
O O11 0.000000 0.507912 0.750000
#
# Coordination Sequence:
#
# PCOD9310969 Si02
#       6
#     2   4   2   4   2   2
#     4  12  32  53  78 118 165 208 272 350 402 512
#     4  12  29  47  80 120 156 209 260 331 418 490
#     4  10  22  46  74 108 154 206 262 328 396 456
#     4  10  20  45  71 105 157 196 255 321 393 480
#     4  12  26  49  74 112 157 208 272 324 388 458
#     4  12  32  56  86 116 160 214 282 336 414 492
#
# _framework density 23.962468999999999
#
# number of rings (size 3 to 8) (size 9 to 14) (size 15 to 20)
#    0.750    0.000    2.500    3.000    8.750    0.000 
#    6.750    0.000    0.000    0.000    0.000    0.000 
#    0.000    0.000    0.000    0.000    0.000    0.000 
#
# Total GULP energy -89294.055508 kJ/mol
# GULP energy per Si atom -5580.878469 kJ/mol
# Density = 2.390793 g / cm^3
# Si number density = 23.962469 Si / 1000 Ang^3
#
#
#
# Elastic Constant Matrix: (Units=GPa)
#
#
# Indices 1 2 3 4 5 6 
#
# 1 217.8516 60.9337 54.3603 0.0000 0.0000 0.0000
# 2 60.9337 140.4233 39.0624 0.0000 0.0000 0.0000
# 3 54.3603 39.0624 84.9496 0.0000 0.0000 0.0000
# 4 0.0000 0.0000 0.0000 22.1476 0.0000 0.0000
# 5 0.0000 0.0000 0.0000 0.0000 43.5612 0.0000
# 6 0.0000 0.0000 0.0000 0.0000 0.0000 16.5336
#
#
#
# Elastic Compliance Matrix: (Units=1/GPa)
#
#
# Indices 1 2 3 4 5 6 
#
# 1 0.005796 -0.001701 -0.002927 0.000000 0.000000 0.000000
# 2 -0.001701 0.008665 -0.002896 0.000000 0.000000 0.000000
# 3 -0.002927 -0.002896 0.014976 0.000000 0.000000 0.000000
# 4 0.000000 0.000000 0.000000 0.045152 0.000000 0.000000
# 5 0.000000 0.000000 0.000000 0.000000 0.022956 0.000000
# 6 0.000000 0.000000 0.000000 0.000000 0.000000 0.060483
#
#
# Mechanical properties :
#
#
# Convention : Reuss Voigt Hill
#
# Bulk Modulus (GPa) = 69.49340 83.54860 76.52100
# Shear Modulus (GPa) = 28.10992 35.70635 31.90814
#
# Velocity S-wave (km/s) = 3.42874 3.86436 3.65305
# Velocity P-wave (km/s) = 6.68872 7.40629 7.05663
#
# Compressibility (1/GPa) = 0.01438986
#
# Stress axis : x y z
#
# Youngs Moduli (GPa) = 172.51973 115.40651 66.77185
#
# Poissons Ratio (x) = 0.19631 0.19544
# Poissons Ratio (y) = 0.29346 0.19337
# Poissons Ratio (z) = 0.50497 0.33421
#
# Static dielectric constant tensor:
#      x y z
#    x 1.825630 0.000000 0.000000 
#    y 0.000000 1.920750 0.000000 
#    z 0.000000 0.000000 2.105200 
# 
# From -- ./inp_files/301.got.cif
#   From: 2010.05.17/outbox.cif.g08.bks.cpg/sg17_1_cif.got.tgz:301.got - 2010.06.03 22:34:06.
