data_PCOD9310151
_publ_section_title
;
Structure prediction by ZEFSAII (Michael W. Deem and Ramdas Pophale) SiO2 
 PCOD9310151
Probable space group: P 2 2 2
;
_chemical_formula_sum "Si O2"
_cell_formula_units_Z 32
_cell_length_a 5.684333
_cell_length_b 13.727881
_cell_length_c 19.141349
_cell_angle_alpha 90.000000
_cell_angle_beta 90.000000
_cell_angle_gamma 90.000000
_cell_volume 1493.673099
_symmetry_space_group_name_H-M "P 2 2 2"
_symmetry_group_IT_number 16
_symmetry_cell_setting 'orthorhombic'
loop_
_space_group_symop_operation_xyz
x,y,z
-x,-y,z
x,-y,-z
-x,y,-z
loop_
_atom_site_type_symbol
_atom_site_label
_atom_site_fract_x
_atom_site_fract_y
_atom_site_fract_z
Si Si1 0.250363 0.367546 0.467367
Si Si2 0.677582 0.304172 0.826359
Si Si3 0.250833 0.612106 0.973478
Si Si4 0.718266 0.756803 0.736906
Si Si5 0.078327 0.389049 0.312773
Si Si6 0.082512 0.101665 0.188325
Si Si7 0.243630 0.138125 0.470139
Si Si8 0.635794 0.906358 0.324060
O O1 0.500000 0.401660 0.500000
O O2 0.228031 0.384009 0.383864
O O3 0.249817 0.253016 0.482611
O O4 0.000000 0.402113 0.500000
O O5 0.734547 0.373986 0.890533
O O6 0.407056 0.297216 0.802121
O O7 0.796267 0.346563 0.756321
O O8 0.771572 0.193761 0.844372
O O9 0.251319 0.500000 0.000000
O O10 0.500000 0.656182 0.000000
O O11 0.000000 0.654011 0.000000
O O12 0.526291 0.814653 0.692850
O O13 0.853900 0.683109 0.686330
O O14 0.874676 0.839782 0.773342
O O15 0.000000 0.500000 0.302215
O O16 0.242137 0.065242 0.252254
O O17 0.000000 0.000000 0.151660
O O18 0.500000 0.104359 0.500000
O O19 0.205469 0.124078 0.387562
O O20 0.000000 0.099676 0.500000
O O21 0.500000 0.000000 0.349766
#
# Coordination Sequence:
#
# PCOD9310151 Si02
#       8
#     4   4   4   4   4   4   4   4
#     4  10  23  44  69  88 125 180 240 295 359 427
#     4  10  24  41  69 108 144 184 234 295 351 424
#     4  10  24  43  72 106 149 195 234 276 343 429
#     4  10  22  40  68  97 140 169 235 287 366 416
#     4  11  26  42  68 101 136 182 234 302 369 425
#     4  10  20  38  66  99 133 175 230 284 349 409
#     4  10  23  38  61  84 118 171 221 285 355 428
#     4  11  22  37  62  93 126 174 224 291 359 431
#
# _framework density 21.423698000000002
#
# number of rings (size 3 to 8) (size 9 to 14) (size 15 to 20)
#    0.000    1.750    1.250    2.250   14.000    2.000 
#    0.000    1.250    0.000    0.375    0.000    0.000 
#    0.000    0.000    0.000    0.000    0.000    0.000 
#
# Total GULP energy -178380.790195 kJ/mol
# GULP energy per Si atom -5574.399694 kJ/mol
# Density = 2.137494 g / cm^3
# Si number density = 21.423698 Si / 1000 Ang^3
#
#
#
# Elastic Constant Matrix: (Units=GPa)
#
#
# Indices 1 2 3 4 5 6 
#
# 1 96.4710 32.2777 39.4326 0.0000 0.0000 0.0000
# 2 32.2777 127.6931 22.0124 0.0000 0.0000 0.0000
# 3 39.4326 22.0124 98.4999 0.0000 0.0000 0.0000
# 4 0.0000 0.0000 0.0000 25.1406 0.0000 0.0000
# 5 0.0000 0.0000 0.0000 0.0000 -232.5165 0.0000
# 6 0.0000 0.0000 0.0000 0.0000 0.0000 -13.2135
#
#
#
# Elastic Compliance Matrix: (Units=1/GPa)
#
#
# Indices 1 2 3 4 5 6 
#
# 1 0.013123 -0.002508 -0.004693 0.000000 0.000000 0.000000
# 2 -0.002508 0.008624 -0.000923 0.000000 0.000000 0.000000
# 3 -0.004693 -0.000923 0.012237 0.000000 0.000000 0.000000
# 4 0.000000 0.000000 0.000000 0.039776 0.000000 0.000000
# 5 0.000000 0.000000 0.000000 0.000000 -0.004301 0.000000
# 6 0.000000 0.000000 0.000000 0.000000 0.000000 -0.075680
#
#
# Mechanical properties :
#
#
# Convention : Reuss Voigt Hill
#
# Bulk Modulus (GPa) = 56.38256 56.67882 56.53069
# Shear Modulus (GPa) = 313.64249 -28.85511 142.39369
#
# Velocity S-wave (km/s) = 12.11270 -3.67397 8.16148
# Velocity P-wave (km/s) = 14.89961 2.91825 10.73580
#
# Compressibility (1/GPa) = 0.01773598
#
# Stress axis : x y z
#
# Youngs Moduli (GPa) = 76.19997 115.94943 81.71650
#
# Poissons Ratio (x) = 0.29083 0.38351
# Poissons Ratio (y) = 0.19113 0.07544
# Poissons Ratio (z) = 0.35762 0.10705
#
# Static dielectric constant tensor:
#      x y z
#    x 1.906170 0.000000 0.000000 
#    y 0.000000 1.810050 0.000000 
#    z 0.000000 0.000000 1.753400 
# 
# From -- ./inp_files/8693.got.cif
#   From: 2010.05.17/outbox.cif.g08.bks.cpg/sg16_5_cif.got.tgz:8693.got - 2010.06.03 22:28:35.
