data_PCOD9310466
_publ_section_title
;
Structure prediction by ZEFSAII (Michael W. Deem and Ramdas Pophale) SiO2 
 PCOD9310466
Probable space group: P 2 2 21
;
_chemical_formula_sum "Si O2"
_cell_formula_units_Z 22
_cell_length_a 7.915010
_cell_length_b 8.658345
_cell_length_c 15.024016
_cell_angle_alpha 90.000000
_cell_angle_beta 90.000000
_cell_angle_gamma 90.000000
_cell_volume 1029.609147
_symmetry_space_group_name_H-M "P 2 2 21"
_symmetry_group_IT_number 17
_symmetry_cell_setting 'orthorhombic'
loop_
_space_group_symop_operation_xyz
x,y,z
-x,-y,1/2+z
x,-y,-z
-x,y,1/2-z
loop_
_atom_site_type_symbol
_atom_site_label
_atom_site_fract_x
_atom_site_fract_y
_atom_site_fract_z
Si Si1 0.220686 0.854160 0.638220
Si Si2 0.020319 0.416730 0.907801
Si Si3 0.343391 0.659548 0.463512
Si Si4 0.530092 0.053262 0.603901
Si Si5 0.101398 0.061134 0.899755
Si Si6 0.000000 0.631831 0.750000
O O1 0.258520 0.760913 0.544827
O O2 0.150806 0.733276 0.709058
O O3 0.390378 0.950274 0.652030
O O4 0.066561 0.977276 0.634059
O O5 0.087297 0.244677 0.900543
O O6 0.072084 0.525307 0.827727
O O7 0.816928 0.397420 0.906980
O O8 0.065192 0.500000 0.000000
O O9 0.424137 0.500000 0.500000
O O10 0.465186 0.770499 0.407093
O O11 0.716406 0.027503 0.642670
O O12 0.533200 0.000000 0.500000
O O13 0.111283 0.000000 0.000000
#
# Coordination Sequence:
#
# PCOD9310466 Si02
#       6
#     4   4   4   4   4   2
#     4  11  20  38  61  87 123 161 210 256 303 376
#     4  11  21  38  65  97 128 164 215 258 316 382
#     4  10  17  36  62  88 125 159 201 258 301 368
#     4   9  20  34  62  95 120 164 207 248 315 374
#     4  11  19  37  66  94 125 164 208 260 318 373
#     4  12  24  38  68  92 118 182 208 254 336 364
#
# _framework density 21.367331
#
# number of rings (size 3 to 8) (size 9 to 14) (size 15 to 20)
#    0.000    1.455    7.273    0.545    0.000    1.455 
#    0.000    2.727    4.000    0.000    0.000    0.000 
#    0.000    0.000    0.000    0.000    0.000    0.000 
#
# Total GULP energy -122819.553946 kJ/mol
# GULP energy per Si atom -5582.706998 kJ/mol
# Density = 2.131870 g / cm^3
# Si number density = 21.367331 Si / 1000 Ang^3
#
#
#
# Elastic Constant Matrix: (Units=GPa)
#
#
# Indices 1 2 3 4 5 6 
#
# 1 118.2696 54.2151 17.9020 0.0000 0.0000 0.0000
# 2 54.2151 159.8152 36.5006 0.0000 0.0000 0.0000
# 3 17.9020 36.5006 69.2086 0.0000 0.0000 0.0000
# 4 0.0000 0.0000 0.0000 25.5326 0.0000 0.0000
# 5 0.0000 0.0000 0.0000 0.0000 5.4837 0.0000
# 6 0.0000 0.0000 0.0000 0.0000 0.0000 2.1807
#
#
#
# Elastic Compliance Matrix: (Units=1/GPa)
#
#
# Indices 1 2 3 4 5 6 
#
# 1 0.010063 -0.003205 -0.000912 0.000000 0.000000 0.000000
# 2 -0.003205 0.008135 -0.003461 0.000000 0.000000 0.000000
# 3 -0.000912 -0.003461 0.016511 0.000000 0.000000 0.000000
# 4 0.000000 0.000000 0.000000 0.039166 0.000000 0.000000
# 5 0.000000 0.000000 0.000000 0.000000 0.182358 0.000000
# 6 0.000000 0.000000 0.000000 0.000000 0.000000 0.458567
#
#
# Mechanical properties :
#
#
# Convention : Reuss Voigt Hill
#
# Bulk Modulus (GPa) = 51.15008 62.72542 56.93775
# Shear Modulus (GPa) = 6.78911 22.55110 14.67010
#
# Velocity S-wave (km/s) = 1.78444 3.25222 2.62308
# Velocity P-wave (km/s) = 5.31376 6.59712 5.98991
#
# Compressibility (1/GPa) = 0.01955031
#
# Stress axis : x y z
#
# Youngs Moduli (GPa) = 99.37736 122.92397 60.56704
#
# Poissons Ratio (x) = 0.39400 0.05526
# Poissons Ratio (y) = 0.31853 0.20965
# Poissons Ratio (z) = 0.09068 0.42549
#
# Static dielectric constant tensor:
#      x y z
#    x 1.792400 0.000000 0.000000 
#    y 0.000000 1.797400 0.000000 
#    z 0.000000 0.000000 1.811590 
# 
# From -- ./inp_files/8115.got.cif
#   From: 2010.05.17/outbox.cif.g08.bks.cpg/sg17_5_cif.got.tgz:8115.got - 2010.06.03 22:34:06.
