data_PCOD9310241
_publ_section_title
;
Structure prediction by ZEFSAII (Michael W. Deem and Ramdas Pophale) SiO2 
 PCOD9310241
Probable space group: P 2 2 2
;
_chemical_formula_sum "Si O2"
_cell_formula_units_Z 28
_cell_length_a 11.844799
_cell_length_b 5.587618
_cell_length_c 20.859769
_cell_angle_alpha 90.000000
_cell_angle_beta 90.000000
_cell_angle_gamma 90.000000
_cell_volume 1380.587376
_symmetry_space_group_name_H-M "P 2 2 2"
_symmetry_group_IT_number 16
_symmetry_cell_setting 'orthorhombic'
loop_
_space_group_symop_operation_xyz
x,y,z
-x,-y,z
x,-y,-z
-x,y,-z
loop_
_atom_site_type_symbol
_atom_site_label
_atom_site_fract_x
_atom_site_fract_y
_atom_site_fract_z
Si Si1 0.801731 0.182313 0.747210
Si Si2 0.364834 0.493031 0.427598
Si Si3 0.500000 0.000000 0.098852
Si Si4 0.383353 0.611056 0.817203
Si Si5 0.884730 0.120954 0.134067
Si Si6 0.362642 0.990722 0.353671
Si Si7 0.000000 0.500000 0.773542
Si Si8 0.692500 0.324310 0.059517
O O1 0.703979 0.374064 0.760423
O O2 0.734244 0.003435 0.701136
O O3 0.919511 0.319121 0.733406
O O4 0.825292 0.056560 0.815511
O O5 0.500000 0.500000 0.432457
O O6 0.317546 0.500000 0.500000
O O7 0.340344 0.237505 0.393633
O O8 0.339976 0.742060 0.390908
O O9 0.419871 0.146637 0.147005
O O10 0.580641 0.165127 0.056818
O O11 0.500000 0.500000 0.793978
O O12 0.328761 0.462328 0.874225
O O13 0.921385 0.345618 0.178458
O O14 0.804771 0.177905 0.074643
O O15 0.000000 0.000000 0.111685
O O16 0.500000 0.000000 0.335743
O O17 0.701797 0.500000 0.000000
#
# Coordination Sequence:
#
# PCOD9310241 Si02
#       8
#     4   4   2   4   4   4   2   4
#     4  11  22  38  63  90 127 162 210 266 321 385
#     4   9  18  36  56  87 138 188 221 255 312 379
#     4  10  22  41  56  88 118 150 191 232 318 394
#     4  10  22  36  60  87 119 161 189 247 317 386
#     4  10  22  42  66  84 115 156 205 262 324 371
#     4  10  22  33  59  99 135 177 220 271 317 389
#     4  10  22  42  65  82 121 164 208 264 318 396
#     4  11  23  40  66  88 114 154 200 252 311 392
#
# _framework density 20.281220000000001
#
# number of rings (size 3 to 8) (size 9 to 14) (size 15 to 20)
#    0.000    1.857    2.857    0.429    3.000    7.143 
#    0.000    0.357    3.143    0.857    0.000    0.500 
#    0.000    0.000    0.000    0.000    0.000    0.000 
#
# Total GULP energy -156138.969800 kJ/mol
# GULP energy per Si atom -5576.391779 kJ/mol
# Density = 2.023506 g / cm^3
# Si number density = 20.281220 Si / 1000 Ang^3
#
#
#
# Elastic Constant Matrix: (Units=GPa)
#
#
# Indices 1 2 3 4 5 6 
#
# 1 124.1750 42.8282 53.1504 0.0000 0.0000 0.0000
# 2 42.8282 97.3105 36.0496 0.0000 0.0000 0.0000
# 3 53.1504 36.0496 61.1003 0.0000 0.0000 0.0000
# 4 0.0000 0.0000 0.0000 24.0090 0.0000 0.0000
# 5 0.0000 0.0000 0.0000 0.0000 243.9416 0.0000
# 6 0.0000 0.0000 0.0000 0.0000 0.0000 155.7706
#
#
#
# Elastic Compliance Matrix: (Units=1/GPa)
#
#
# Indices 1 2 3 4 5 6 
#
# 1 0.013122 -0.001979 -0.010247 0.000000 0.000000 0.000000
# 2 -0.001979 0.013449 -0.006214 0.000000 0.000000 0.000000
# 3 -0.010247 -0.006214 0.028946 0.000000 0.000000 0.000000
# 4 0.000000 0.000000 0.000000 0.041651 0.000000 0.000000
# 5 0.000000 0.000000 0.000000 0.000000 0.004099 0.000000
# 6 0.000000 0.000000 0.000000 0.000000 0.000000 0.006420
#
#
# Mechanical properties :
#
#
# Convention : Reuss Voigt Hill
#
# Bulk Modulus (GPa) = 53.65301 60.73802 57.19551
# Shear Modulus (GPa) = 33.16121 94.78140 63.97130
#
# Velocity S-wave (km/s) = 4.04799 6.84361 5.62233
# Velocity P-wave (km/s) = 6.95415 9.61559 8.39106
#
# Compressibility (1/GPa) = 0.01863828
#
# Stress axis : x y z
#
# Youngs Moduli (GPa) = 76.21012 74.35325 34.54702
#
# Poissons Ratio (x) = 0.14715 0.35399
# Poissons Ratio (y) = 0.15083 0.21466
# Poissons Ratio (z) = 0.78090 0.46200
#
# Static dielectric constant tensor:
#      x y z
#    x 1.837260 0.000000 0.000000 
#    y 0.000000 1.474420 0.000000 
#    z 0.000000 0.000000 1.631840 
# 
# From -- ./inp_files/9353.got.cif
#   From: 2010.05.17/outbox.cif.g08.bks.cpg/sg16_5_cif.got.tgz:9353.got - 2010.06.03 22:28:35.
