data_PCOD9310930
_publ_section_title
;
Structure prediction by ZEFSAII (Michael W. Deem and Ramdas Pophale) SiO2 
 PCOD9310930
Probable space group: P 2 2 21
;
_chemical_formula_sum "Si O2"
_cell_formula_units_Z 18
_cell_length_a 9.394469
_cell_length_b 9.926068
_cell_length_c 8.064521
_cell_angle_alpha 90.000000
_cell_angle_beta 90.000000
_cell_angle_gamma 90.000000
_cell_volume 752.017697
_symmetry_space_group_name_H-M "P 2 2 21"
_symmetry_group_IT_number 17
_symmetry_cell_setting 'orthorhombic'
loop_
_space_group_symop_operation_xyz
x,y,z
-x,-y,1/2+z
x,-y,-z
-x,y,1/2-z
loop_
_atom_site_type_symbol
_atom_site_label
_atom_site_fract_x
_atom_site_fract_y
_atom_site_fract_z
Si Si1 0.759050 0.500000 0.500000
Si Si2 0.420875 0.844686 0.497404
Si Si3 0.803309 0.279285 0.781152
Si Si4 0.302442 0.231832 0.151360
Si Si5 0.972928 0.151610 0.512317
O O1 0.821446 0.407981 0.656778
O O2 0.678598 0.614343 0.598226
O O3 0.352160 0.758071 0.349100
O O4 0.590318 0.842747 0.525457
O O5 0.356015 0.786907 0.665509
O O6 0.376013 0.000000 0.500000
O O7 0.863568 0.158194 0.668012
O O8 0.908280 0.263179 0.940552
O O9 0.136848 0.191640 0.132941
O O10 0.028694 0.000000 0.500000
#
# Coordination Sequence:
#
# PCOD9310930 Si02
#       5
#     2   4   4   4   4
#     4  10  24  46  62  96 134 182 236 272 348 414
#     4  11  23  41  68 106 138 180 230 288 355 400
#     4  10  23  41  68  95 138 183 222 286 341 415
#     4  10  24  41  66  97 140 180 224 287 333 417
#     4  10  20  40  66  97 129 173 227 284 345 402
#
# _framework density 23.935607000000001
#
# number of rings (size 3 to 8) (size 9 to 14) (size 15 to 20)
#    0.000    1.778    0.000    2.667    0.000   16.000 
#    0.000   26.667    0.000    1.333    0.000    0.000 
#    0.000    0.000    0.000    0.000    0.000    0.000 
#
# Total GULP energy -100236.964443 kJ/mol
# GULP energy per Si atom -5568.720247 kJ/mol
# Density = 2.388113 g / cm^3
# Si number density = 23.935607 Si / 1000 Ang^3
#
#
#
# Elastic Constant Matrix: (Units=GPa)
#
#
# Indices 1 2 3 4 5 6 
#
# 1 132.6696 27.2552 52.4529 0.0000 0.0000 0.0000
# 2 27.2552 142.1067 41.4219 0.0000 0.0000 0.0000
# 3 52.4529 41.4219 95.1889 0.0000 0.0000 0.0000
# 4 0.0000 0.0000 0.0000 40.8564 0.0000 0.0000
# 5 0.0000 0.0000 0.0000 0.0000 51.1726 0.0000
# 6 0.0000 0.0000 0.0000 0.0000 0.0000-3435.0224
#
#
#
# Elastic Compliance Matrix: (Units=1/GPa)
#
#
# Indices 1 2 3 4 5 6 
#
# 1 0.009652 -0.000345 -0.005169 0.000000 0.000000 0.000000
# 2 -0.000345 0.008072 -0.003322 0.000000 0.000000 0.000000
# 3 -0.005169 -0.003322 0.014799 0.000000 0.000000 0.000000
# 4 0.000000 0.000000 0.000000 0.024476 0.000000 0.000000
# 5 0.000000 0.000000 0.000000 0.000000 0.019542 0.000000
# 6 0.000000 0.000000 0.000000 0.000000 0.000000 -0.000291
#
#
# Mechanical properties :
#
#
# Convention : Reuss Voigt Hill
#
# Bulk Modulus (GPa) = 67.33404 68.02502 67.67953
# Shear Modulus (GPa) = 50.57102 -652.00966 -300.71932
#
# Velocity S-wave (km/s) = 4.60150 -16.52250 -11.22094
# Velocity P-wave (km/s) = 7.51160 18.31690 11.81280
#
# Compressibility (1/GPa) = 0.01485133
#
# Stress axis : x y z
#
# Youngs Moduli (GPa) = 103.60775 123.89261 67.57076
#
# Poissons Ratio (x) = 0.04269 0.34924
# Poissons Ratio (y) = 0.03570 0.22450
# Poissons Ratio (z) = 0.53550 0.41163
#
# Static dielectric constant tensor:
#      x y z
#    x 2.044820 0.000000 0.000000 
#    y 0.000000 1.906200 0.000000 
#    z 0.000000 0.000000 5.414530 
# 
# From -- ./inp_files/4629.got.cif
#   From: 2010.05.17/outbox.cif.g08.bks.cpg/sg17_3_cif.got.tgz:4629.got - 2010.06.03 22:34:06.
