data_PCOD9310168
_publ_section_title
;
Structure prediction by ZEFSAII (Michael W. Deem and Ramdas Pophale) SiO2 
 PCOD9310168
Probable space group: P 2 2 2
;
_chemical_formula_sum "Si O2"
_cell_formula_units_Z 26
_cell_length_a 16.976468
_cell_length_b 7.926667
_cell_length_c 9.379458
_cell_angle_alpha 90.000000
_cell_angle_beta 90.000000
_cell_angle_gamma 90.000000
_cell_volume 1262.163730
_symmetry_space_group_name_H-M "P 2 2 2"
_symmetry_group_IT_number 16
_symmetry_cell_setting 'orthorhombic'
loop_
_space_group_symop_operation_xyz
x,y,z
-x,-y,z
x,-y,-z
-x,y,-z
loop_
_atom_site_type_symbol
_atom_site_label
_atom_site_fract_x
_atom_site_fract_y
_atom_site_fract_z
Si Si1 0.805484 0.842475 0.814266
Si Si2 0.388714 0.753515 0.663297
Si Si3 0.500000 0.500000 0.500000
Si Si4 0.984295 0.203339 0.159768
Si Si5 0.239796 0.699504 0.474570
Si Si6 0.853118 0.777617 0.277853
Si Si7 0.722124 0.324432 0.920455
Si Si8 0.500000 0.000000 0.500000
O O1 0.893221 0.762154 0.811394
O O2 0.757416 0.761261 0.685485
O O3 0.825504 0.039296 0.783691
O O4 0.757537 0.800351 0.958037
O O5 0.440851 0.596788 0.607147
O O6 0.313235 0.767686 0.562091
O O7 0.351752 0.737122 0.822388
O O8 0.444522 0.902710 0.611671
O O9 0.056499 0.268638 0.252791
O O10 0.000000 0.000000 0.162691
O O11 0.000000 0.261787 0.000000
O O12 0.238702 0.500000 0.500000
O O13 0.164332 0.774591 0.555161
O O14 0.794389 0.653290 0.192066
O O15 0.704173 0.500000 0.000000
#
# Coordination Sequence:
#
# PCOD9310168 Si02
#       8
#     4   4   1   4   4   4   4   1
#     4  11  21  37  65  90 126 171 221 270 321 362
#     4  10  23  43  71  95 128 159 210 252 320 395
#     4  10  20  46  70  90 120 180 198 238 324 402
#     4   9  17  34  55  84 123 170 215 272 319 372
#     4  11  23  40  63  93 128 168 209 264 320 393
#     4  10  21  38  60  91 124 171 233 263 313 369
#     4  11  23  39  62  97 134 169 206 259 320 386
#     4  10  24  46  76 104 120 156 214 274 316 390
#
# _framework density 20.599547999999999
#
# number of rings (size 3 to 8) (size 9 to 14) (size 15 to 20)
#    0.000    1.692    2.308    2.769    4.308    0.615 
#    0.000    7.308    0.000    0.923    0.000    0.000 
#    0.000    0.000    0.000    0.000    0.000    0.000 
#
# Total GULP energy -144917.206079 kJ/mol
# GULP energy per Si atom -5573.738695 kJ/mol
# Density = 2.055266 g / cm^3
# Si number density = 20.599548 Si / 1000 Ang^3
#
#
#
# Elastic Constant Matrix: (Units=GPa)
#
#
# Indices 1 2 3 4 5 6 
#
# 1 118.3664 34.1883 47.7604 0.0000 0.0000 0.0000
# 2 34.1883 61.4695 30.4337 0.0000 0.0000 0.0000
# 3 47.7604 30.4337 124.3422 0.0000 0.0000 0.0000
# 4 0.0000 0.0000 0.0000 4.5989 0.0000 0.0000
# 5 0.0000 0.0000 0.0000 0.0000 37.9065 0.0000
# 6 0.0000 0.0000 0.0000 0.0000 0.0000 12.4340
#
#
#
# Elastic Compliance Matrix: (Units=1/GPa)
#
#
# Indices 1 2 3 4 5 6 
#
# 1 0.011031 -0.004594 -0.003113 0.000000 0.000000 0.000000
# 2 -0.004594 0.020425 -0.003234 0.000000 0.000000 0.000000
# 3 -0.003113 -0.003234 0.010030 0.000000 0.000000 0.000000
# 4 0.000000 0.000000 0.000000 0.217443 0.000000 0.000000
# 5 0.000000 0.000000 0.000000 0.000000 0.026381 0.000000
# 6 0.000000 0.000000 0.000000 0.000000 0.000000 0.080425
#
#
# Mechanical properties :
#
#
# Convention : Reuss Voigt Hill
#
# Bulk Modulus (GPa) = 51.01297 58.77144 54.89220
# Shear Modulus (GPa) = 12.68550 23.77426 18.22988
#
# Velocity S-wave (km/s) = 2.48425 3.40091 2.97806
# Velocity P-wave (km/s) = 5.74861 6.63430 6.20728
#
# Compressibility (1/GPa) = 0.01960286
#
# Stress axis : x y z
#
# Youngs Moduli (GPa) = 90.65115 48.95985 99.70512
#
# Poissons Ratio (x) = 0.22494 0.31035
# Poissons Ratio (y) = 0.41648 0.32249
# Poissons Ratio (z) = 0.28217 0.15836
#
# Static dielectric constant tensor:
#      x y z
#    x 1.863190 0.000000 0.000000 
#    y 0.000000 1.859240 0.000000 
#    z 0.000000 0.000000 1.722960 
# 
# From -- ./inp_files/5521.got.cif
#   From: 2010.05.17/outbox.cif.g08.bks.cpg/sg16_3_cif.got.tgz:5521.got - 2010.06.03 22:28:35.
