data_PCOD9310396
_publ_section_title
;
Structure prediction by ZEFSAII (Michael W. Deem and Ramdas Pophale) SiO2 
 PCOD9310396
Probable space group: P 2 2 2
;
_chemical_formula_sum "Si O2"
_cell_formula_units_Z 32
_cell_length_a 11.864254
_cell_length_b 14.911161
_cell_length_c 8.772016
_cell_angle_alpha 90.000000
_cell_angle_beta 90.000000
_cell_angle_gamma 90.000000
_cell_volume 1551.855610
_symmetry_space_group_name_H-M "P 2 2 2"
_symmetry_group_IT_number 16
_symmetry_cell_setting 'orthorhombic'
loop_
_space_group_symop_operation_xyz
x,y,z
-x,-y,z
x,-y,-z
-x,y,-z
loop_
_atom_site_type_symbol
_atom_site_label
_atom_site_fract_x
_atom_site_fract_y
_atom_site_fract_z
Si Si1 0.826640 0.621660 0.345324
Si Si2 0.599129 0.332621 0.807113
Si Si3 0.674134 0.983031 0.675769
Si Si4 0.006022 0.266128 0.822357
Si Si5 0.476515 0.143368 0.316524
Si Si6 0.933847 0.918209 0.664500
Si Si7 0.158764 0.417201 0.698094
Si Si8 0.630762 0.589072 0.897957
O O1 0.695032 0.632678 0.306425
O O2 0.891042 0.701575 0.259819
O O3 0.849682 0.618633 0.525536
O O4 0.867324 0.522978 0.292489
O O5 0.548703 0.239509 0.752456
O O6 0.493697 0.398973 0.830983
O O7 0.649989 0.331655 0.978491
O O8 0.589980 0.907150 0.738729
O O9 0.803322 0.950459 0.669034
O O10 0.642804 0.000000 0.500000
O O11 0.629527 0.079645 0.733891
O O12 0.053811 0.178334 0.739800
O O13 0.083659 0.353203 0.800137
O O14 0.000000 0.246559 0.000000
O O15 0.500000 0.154928 0.500000
O O16 0.000000 0.910374 0.500000
O O17 0.000000 0.000000 0.744931
O O18 0.284451 0.408227 0.759736
O O19 0.650925 0.500000 0.000000
#
# Coordination Sequence:
#
# PCOD9310396 Si02
#       8
#     4   4   4   4   4   4   4   4
#     4  11  25  44  70 102 136 176 240 295 337 401
#     4  11  23  38  65  97 136 177 224 282 335 414
#     4   9  18  40  62  98 130 172 220 278 349 401
#     4  12  28  45  69 101 142 186 231 280 355 428
#     4   9  21  35  64  97 133 171 228 285 332 407
#     4  11  23  41  71 101 134 179 227 292 346 411
#     4  11  25  45  71  98 135 182 235 295 339 404
#     4  11  24  44  65  93 141 186 224 272 349 421
#
# _framework density 20.620474999999999
#
# number of rings (size 3 to 8) (size 9 to 14) (size 15 to 20)
#    0.000    1.375    2.500    3.750    5.250    2.750 
#    0.000    1.250    0.000    6.000    0.000    0.000 
#    0.000    0.000    0.000    0.000    0.000    0.000 
#
# Total GULP energy -178391.786802 kJ/mol
# GULP energy per Si atom -5574.743338 kJ/mol
# Density = 2.057354 g / cm^3
# Si number density = 20.620475 Si / 1000 Ang^3
#
#
#
# Elastic Constant Matrix: (Units=GPa)
#
#
# Indices 1 2 3 4 5 6 
#
# 1 98.5249 37.5003 22.8295 0.0000 0.0000 0.0000
# 2 37.5003 129.7453 46.0724 0.0000 0.0000 0.0000
# 3 22.8295 46.0724 40.7826 0.0000 0.0000 0.0000
# 4 0.0000 0.0000 0.0000 20.6606 0.0000 0.0000
# 5 0.0000 0.0000 0.0000 0.0000 18.7045 0.0000
# 6 0.0000 0.0000 0.0000 0.0000 0.0000 30.8162
#
#
#
# Elastic Compliance Matrix: (Units=1/GPa)
#
#
# Indices 1 2 3 4 5 6 
#
# 1 0.011908 -0.001795 -0.004638 0.000000 0.000000 0.000000
# 2 -0.001795 0.013141 -0.013841 0.000000 0.000000 0.000000
# 3 -0.004638 -0.013841 0.042753 0.000000 0.000000 0.000000
# 4 0.000000 0.000000 0.000000 0.048401 0.000000 0.000000
# 5 0.000000 0.000000 0.000000 0.000000 0.053463 0.000000
# 6 0.000000 0.000000 0.000000 0.000000 0.000000 0.032450
#
#
# Mechanical properties :
#
#
# Convention : Reuss Voigt Hill
#
# Bulk Modulus (GPa) = 36.69209 53.53969 45.11589
# Shear Modulus (GPa) = 19.86112 24.87965 22.37038
#
# Velocity S-wave (km/s) = 3.10687 3.47731 3.29730
# Velocity P-wave (km/s) = 5.54102 6.49176 6.03514
#
# Compressibility (1/GPa) = 0.02725383
#
# Stress axis : x y z
#
# Youngs Moduli (GPa) = 83.98054 76.09796 23.39026
#
# Poissons Ratio (x) = 0.13656 0.10849
# Poissons Ratio (y) = 0.15071 0.32374
# Poissons Ratio (z) = 0.38953 1.05326
#
# Static dielectric constant tensor:
#      x y z
#    x 1.802370 0.000000 0.000000 
#    y 0.000000 1.742470 0.000000 
#    z 0.000000 0.000000 1.750890 
# 
# From -- ./inp_files/4884.got.cif
#   From: 2010.05.17/outbox.cif.g08.bks.cpg/sg16_3_cif.got.tgz:4884.got - 2010.06.03 22:28:35.
