data_PCOD9310924
_publ_section_title
;
Structure prediction by ZEFSAII (Michael W. Deem and Ramdas Pophale) SiO2 
 PCOD9310924
Probable space group: P 2 2 21
;
_chemical_formula_sum "Si O2"
_cell_formula_units_Z 22
_cell_length_a 15.355842
_cell_length_b 8.113957
_cell_length_c 9.365830
_cell_angle_alpha 90.000000
_cell_angle_beta 90.000000
_cell_angle_gamma 90.000000
_cell_volume 1166.950965
_symmetry_space_group_name_H-M "P 2 2 21"
_symmetry_group_IT_number 17
_symmetry_cell_setting 'orthorhombic'
loop_
_space_group_symop_operation_xyz
x,y,z
-x,-y,1/2+z
x,-y,-z
-x,y,1/2-z
loop_
_atom_site_type_symbol
_atom_site_label
_atom_site_fract_x
_atom_site_fract_y
_atom_site_fract_z
Si Si1 0.083994 0.000000 0.000000
Si Si2 0.000000 0.784191 0.250000
Si Si3 0.702634 0.500000 0.000000
Si Si4 0.392358 0.161776 0.092375
Si Si5 0.793802 0.724019 0.555305
Si Si6 0.169360 0.416750 0.759816
Si Si7 0.589126 0.175167 0.072238
O O1 0.027744 0.894398 0.113092
O O2 0.150433 0.114871 0.088624
O O3 0.080212 0.665366 0.291786
O O4 0.763819 0.546584 0.133808
O O5 0.645907 0.335922 0.034146
O O6 0.308621 0.278216 0.085865
O O7 0.487594 0.216578 0.037999
O O8 0.403721 0.134453 0.260346
O O9 0.369911 0.000000 0.000000
O O10 0.797347 0.704545 0.384316
O O11 0.840122 0.582526 0.646993
O O12 0.612355 0.000000 0.000000
#
# Coordination Sequence:
#
# PCOD9310924 Si02
#       7
#     2   2   2   4   4   4   4
#     4  10  22  40  68  92 120 156 220 256 320 392
#     4  10  24  44  60  96 120 164 206 270 330 378
#     4  12  24  42  62  98 132 172 206 272 328 384
#     4  10  20  41  65  89 128 171 213 264 309 375
#     4  10  20  40  64  90 118 169 213 253 303 398
#     4  10  24  40  62  88 128 162 209 261 326 377
#     4  10  24  41  61  97 133 167 215 266 321 376
#
# _framework density 18.852549
#
# number of rings (size 3 to 8) (size 9 to 14) (size 15 to 20)
#    0.000    1.818    2.727    0.000    2.545    6.545 
#    1.636    0.000    0.000    0.000    0.000    0.000 
#    0.000    0.000    0.000    0.000    0.000    0.000 
#
# Total GULP energy -122497.550732 kJ/mol
# GULP energy per Si atom -5568.070488 kJ/mol
# Density = 1.880964 g / cm^3
# Si number density = 18.852549 Si / 1000 Ang^3
#
#
#
# Elastic Constant Matrix: (Units=GPa)
#
#
# Indices 1 2 3 4 5 6 
#
# 1 117.0022 72.0261 43.4357 0.0000 0.0000 0.0000
# 2 72.0261 117.7162 43.1351 0.0000 0.0000 0.0000
# 3 43.4357 43.1351 79.2232 0.0000 0.0000 0.0000
# 4 0.0000 0.0000 0.0000 25.2654 0.0000 0.0000
# 5 0.0000 0.0000 0.0000 0.0000 24.8226 0.0000
# 6 0.0000 0.0000 0.0000 0.0000 0.0000 52.2264
#
#
#
# Elastic Compliance Matrix: (Units=1/GPa)
#
#
# Indices 1 2 3 4 5 6 
#
# 1 0.014630 -0.007511 -0.003932 0.000000 0.000000 0.000000
# 2 -0.007511 0.014468 -0.003760 0.000000 0.000000 0.000000
# 3 -0.003932 -0.003760 0.016825 0.000000 0.000000 0.000000
# 4 0.000000 0.000000 0.000000 0.039580 0.000000 0.000000
# 5 0.000000 0.000000 0.000000 0.000000 0.040286 0.000000
# 6 0.000000 0.000000 0.000000 0.000000 0.000000 0.019147
#
#
# Mechanical properties :
#
#
# Convention : Reuss Voigt Hill
#
# Bulk Modulus (GPa) = 64.43672 70.12616 67.28144
# Shear Modulus (GPa) = 27.69861 30.81919 29.25890
#
# Velocity S-wave (km/s) = 3.83720 4.04759 3.94380
# Velocity P-wave (km/s) = 7.34069 7.68908 7.51690
#
# Compressibility (1/GPa) = 0.01551910
#
# Stress axis : x y z
#
# Youngs Moduli (GPa) = 68.35188 69.11661 59.43450
#
# Poissons Ratio (x) = 0.51913 0.23368
# Poissons Ratio (y) = 0.51339 0.22345
# Poissons Ratio (z) = 0.26874 0.25985
#
# Static dielectric constant tensor:
#      x y z
#    x 1.691260 0.000000 0.000000 
#    y 0.000000 1.692880 0.000000 
#    z 0.000000 0.000000 1.685400 
# 
# From -- ./inp_files/5160.got.cif
#   From: 2010.05.17/outbox.cif.g08.bks.cpg/sg17_3_cif.got.tgz:5160.got - 2010.06.03 22:34:06.
