data_PCOD9310297
_publ_section_title
;
Structure prediction by ZEFSAII (Michael W. Deem and Ramdas Pophale) SiO2 
 PCOD9310297
Probable space group: P 2 2 2
;
_chemical_formula_sum "Si O2"
_cell_formula_units_Z 12
_cell_length_a 7.603622
_cell_length_b 13.040227
_cell_length_c 5.213438
_cell_angle_alpha 90.000000
_cell_angle_beta 90.000000
_cell_angle_gamma 90.000000
_cell_volume 516.927793
_symmetry_space_group_name_H-M "P 2 2 2"
_symmetry_group_IT_number 16
_symmetry_cell_setting 'orthorhombic'
loop_
_space_group_symop_operation_xyz
x,y,z
-x,-y,z
x,-y,-z
-x,y,-z
loop_
_atom_site_type_symbol
_atom_site_label
_atom_site_fract_x
_atom_site_fract_y
_atom_site_fract_z
Si Si1 0.702653 0.379389 0.935508
Si Si2 0.808419 0.736010 0.587525
Si Si3 0.697676 0.046480 0.256591
O O1 0.822347 0.328510 0.152826
O O2 0.720518 0.500000 0.000000
O O3 0.500000 0.353309 0.000000
O O4 0.738414 0.334615 0.649517
O O5 0.694339 0.833189 0.682809
O O6 0.000000 0.772626 0.500000
O O7 0.500000 0.000000 0.252403
O O8 0.792101 0.000000 0.500000
O O9 0.779311 0.000000 0.000000
#
# Coordination Sequence:
#
# PCOD9310297 Si02
#       3
#     4   4   4
#     4  11  26  46  73 106 143 192 242 290 354 443
#     4  12  26  44  72 109 145 185 238 302 369 426
#     4  10  23  41  68  99 131 187 235 289 346 421
#
# _framework density 23.214075999999999
#
# number of rings (size 3 to 8) (size 9 to 14) (size 15 to 20)
#    0.000    1.000    0.000    5.000   14.000    7.333 
#    0.000    1.667    0.000    0.000    0.000    0.000 
#    0.000    0.000    0.000    0.000    0.000    0.000 
#
# Total GULP energy -66930.367947 kJ/mol
# GULP energy per Si atom -5577.530662 kJ/mol
# Density = 2.316124 g / cm^3
# Si number density = 23.214076 Si / 1000 Ang^3
#
#
#
# Elastic Constant Matrix: (Units=GPa)
#
#
# Indices 1 2 3 4 5 6 
#
# 1 94.5479 44.7875 24.9200 0.0000 0.0000 0.0000
# 2 44.7875 161.3468 78.5454 0.0000 0.0000 0.0000
# 3 24.9200 78.5454 245.4424 0.0000 0.0000 0.0000
# 4 0.0000 0.0000 0.0000 47.4756 0.0000 0.0000
# 5 0.0000 0.0000 0.0000 0.0000 10.7928 0.0000
# 6 0.0000 0.0000 0.0000 0.0000 0.0000 8.9092
#
#
#
# Elastic Compliance Matrix: (Units=1/GPa)
#
#
# Indices 1 2 3 4 5 6 
#
# 1 0.012185 -0.003293 -0.000183 0.000000 0.000000 0.000000
# 2 -0.003293 0.008232 -0.002300 0.000000 0.000000 0.000000
# 3 -0.000183 -0.002300 0.004829 0.000000 0.000000 0.000000
# 4 0.000000 0.000000 0.000000 0.021063 0.000000 0.000000
# 5 0.000000 0.000000 0.000000 0.000000 0.092654 0.000000
# 6 0.000000 0.000000 0.000000 0.000000 0.000000 0.112243
#
#
# Mechanical properties :
#
#
# Convention : Reuss Voigt Hill
#
# Bulk Modulus (GPa) = 73.03121 88.64920 80.84020
# Shear Modulus (GPa) = 18.70394 36.97448 27.83921
#
# Velocity S-wave (km/s) = 2.84159 3.99527 3.46676
# Velocity P-wave (km/s) = 6.50341 7.71709 7.13610
#
# Compressibility (1/GPa) = 0.01369278
#
# Stress axis : x y z
#
# Youngs Moduli (GPa) = 82.06862 121.48375 207.08734
#
# Poissons Ratio (x) = 0.40006 0.03796
# Poissons Ratio (y) = 0.27026 0.47627
# Poissons Ratio (z) = 0.01504 0.27940
#
# Static dielectric constant tensor:
#      x y z
#    x 1.872630 0.000000 0.000000 
#    y 0.000000 2.058600 0.000000 
#    z 0.000000 0.000000 1.891170 
# 
# From -- ./inp_files/476.got.cif
#   From: 2010.05.17/outbox.cif.g08.bks.cpg/sg16_1_cif.got.tgz:476.got - 2010.06.03 22:28:35.
