data_PCOD9310098
_publ_section_title
;
Structure prediction by ZEFSAII (Michael W. Deem and Ramdas Pophale) SiO2 
 PCOD9310098
Probable space group: P 2 2 2
;
_chemical_formula_sum "Si O2"
_cell_formula_units_Z 32
_cell_length_a 9.100070
_cell_length_b 12.253702
_cell_length_c 14.926117
_cell_angle_alpha 90.000000
_cell_angle_beta 90.000000
_cell_angle_gamma 90.000000
_cell_volume 1664.404530
_symmetry_space_group_name_H-M "P 2 2 2"
_symmetry_group_IT_number 16
_symmetry_cell_setting 'orthorhombic'
loop_
_space_group_symop_operation_xyz
x,y,z
-x,-y,z
x,-y,-z
-x,y,-z
loop_
_atom_site_type_symbol
_atom_site_label
_atom_site_fract_x
_atom_site_fract_y
_atom_site_fract_z
Si Si1 0.334956 0.023831 0.292770
Si Si2 0.290759 0.837429 0.415441
Si Si3 0.619663 0.216738 0.607457
Si Si4 0.765579 0.011676 0.099935
Si Si5 0.095992 0.370243 0.588604
Si Si6 0.666844 0.543352 0.346670
Si Si7 0.082304 0.606128 0.772956
Si Si8 0.993573 0.808831 0.100917
O O1 0.245802 0.940275 0.354989
O O2 0.329284 0.999177 0.188575
O O3 0.500000 0.000000 0.325974
O O4 0.304210 0.150278 0.312577
O O5 0.333943 0.851761 0.519578
O O6 0.443877 0.785985 0.378391
O O7 0.164353 0.749145 0.413640
O O8 0.662985 0.342279 0.599472
O O9 0.852934 0.125853 0.112719
O O10 0.878489 0.909418 0.103562
O O11 0.699323 0.000000 0.000000
O O12 0.230217 0.454670 0.604437
O O13 0.000000 0.387225 0.500000
O O14 0.993738 0.377785 0.675920
O O15 0.500000 0.500000 0.336735
O O16 0.750136 0.574154 0.253327
O O17 0.051032 0.713391 0.831365
O O18 0.000000 0.500000 0.813429
O O19 0.000000 0.763567 0.000000
#
# Coordination Sequence:
#
# PCOD9310098 Si02
#       8
#     4   4   4   4   4   4   4   4
#     4  10  20  34  55  81 113 149 185 232 289 349
#     4  10  20  35  53  77 109 150 194 236 285 341
#     4  10  20  34  54  79 106 151 197 237 276 350
#     4   9  18  33  56  84 110 143 183 232 286 345
#     4  11  23  39  54  81 118 153 193 250 294 335
#     4  11  22  39  57  81 116 158 204 248 300 347
#     4  10  22  35  54  84 113 149 190 241 286 346
#     4   9  18  36  60  83 110 143 186 234 286 348
#
# _framework density 19.226095999999998
#
# number of rings (size 3 to 8) (size 9 to 14) (size 15 to 20)
#    0.000    2.000    1.250    3.375    0.000    7.750 
#    0.000    0.000    0.000    3.000    0.000    3.500 
#    0.000    0.000    0.000    0.000    0.000    0.000 
#
# Total GULP energy -178365.294058 kJ/mol
# GULP energy per Si atom -5573.915439 kJ/mol
# Density = 1.918234 g / cm^3
# Si number density = 19.226096 Si / 1000 Ang^3
#
#
#
# Elastic Constant Matrix: (Units=GPa)
#
#
# Indices 1 2 3 4 5 6 
#
# 1 79.3194 40.2799 35.2056 0.0000 0.0000 0.0000
# 2 40.2799 111.2632 64.1423 0.0000 0.0000 0.0000
# 3 35.2056 64.1423 103.6590 0.0000 0.0000 0.0000
# 4 0.0000 0.0000 0.0000 26.2898 0.0000 0.0000
# 5 0.0000 0.0000 0.0000 0.0000 16.2384 0.0000
# 6 0.0000 0.0000 0.0000 0.0000 0.0000 18.1729
#
#
#
# Elastic Compliance Matrix: (Units=1/GPa)
#
#
# Indices 1 2 3 4 5 6 
#
# 1 0.015979 -0.004129 -0.002872 0.000000 0.000000 0.000000
# 2 -0.004129 0.015039 -0.007903 0.000000 0.000000 0.000000
# 3 -0.002872 -0.007903 0.015513 0.000000 0.000000 0.000000
# 4 0.000000 0.000000 0.000000 0.038038 0.000000 0.000000
# 5 0.000000 0.000000 0.000000 0.000000 0.061582 0.000000
# 6 0.000000 0.000000 0.000000 0.000000 0.000000 0.055027
#
#
# Mechanical properties :
#
#
# Convention : Reuss Voigt Hill
#
# Bulk Modulus (GPa) = 59.80233 63.72193 61.76213
# Shear Modulus (GPa) = 21.13632 22.44780 21.79206
#
# Velocity S-wave (km/s) = 3.31925 3.42068 3.37035
# Velocity P-wave (km/s) = 6.77216 6.98690 6.88037
#
# Compressibility (1/GPa) = 0.01672176
#
# Stress axis : x y z
#
# Youngs Moduli (GPa) = 62.58312 66.49505 64.46292
#
# Poissons Ratio (x) = 0.27456 0.18513
# Poissons Ratio (y) = 0.25841 0.50947
# Poissons Ratio (z) = 0.17973 0.52553
#
# Static dielectric constant tensor:
#      x y z
#    x 1.720240 0.000000 0.000000 
#    y 0.000000 1.729430 0.000000 
#    z 0.000000 0.000000 1.674040 
# 
# From -- ./inp_files/7981.got.cif
#   From: 2010.05.17/outbox.cif.g08.bks.cpg/sg16_4_cif.got.tgz:7981.got - 2010.06.03 22:28:35.
