data_PCOD9310077
_publ_section_title
;
Structure prediction by ZEFSAII (Michael W. Deem and Ramdas Pophale) SiO2 
 PCOD9310077
Probable space group: P 2 2 2
;
_chemical_formula_sum "Si O2"
_cell_formula_units_Z 32
_cell_length_a 8.670532
_cell_length_b 15.315773
_cell_length_c 10.935792
_cell_angle_alpha 90.000000
_cell_angle_beta 90.000000
_cell_angle_gamma 90.000000
_cell_volume 1452.228340
_symmetry_space_group_name_H-M "P 2 2 2"
_symmetry_group_IT_number 16
_symmetry_cell_setting 'orthorhombic'
loop_
_space_group_symop_operation_xyz
x,y,z
-x,-y,z
x,-y,-z
-x,y,-z
loop_
_atom_site_type_symbol
_atom_site_label
_atom_site_fract_x
_atom_site_fract_y
_atom_site_fract_z
Si Si1 0.394802 0.767715 0.621035
Si Si2 0.954885 0.770100 0.365297
Si Si3 0.790084 0.540641 0.135633
Si Si4 0.110444 0.368339 0.791573
Si Si5 0.900243 0.077221 0.200885
Si Si6 0.413170 0.296213 0.128967
Si Si7 0.338932 0.027970 0.359521
Si Si8 0.820917 0.216540 0.028835
O O1 0.500000 0.755282 0.500000
O O2 0.219109 0.730642 0.626201
O O3 0.482575 0.735742 0.743308
O O4 0.348987 0.868541 0.636107
O O5 0.000000 0.801772 0.500000
O O6 0.066646 0.691400 0.322620
O O7 0.996045 0.849401 0.271436
O O8 0.793148 0.456773 0.224347
O O9 0.649821 0.606578 0.148207
O O10 0.946638 0.596357 0.155133
O O11 0.791068 0.500000 0.000000
O O12 0.190012 0.304448 0.889908
O O13 0.789617 0.131580 0.109940
O O14 0.798457 0.022773 0.295905
O O15 0.000000 0.000000 0.140245
O O16 0.500000 0.292406 0.000000
O O17 0.271555 0.231173 0.095119
O O18 0.500000 0.000000 0.300033
O O19 0.336326 0.000000 0.500000
O O20 0.000000 0.207248 0.000000
#
# Coordination Sequence:
#
# PCOD9310077 Si02
#       8
#     4   4   4   4   4   4   4   4
#     4  12  25  47  70  96 145 192 237 292 358 431
#     4  11  23  40  69 103 136 183 242 298 358 420
#     4  11  19  38  70  99 131 172 224 284 343 419
#     4  10  19  37  70 103 131 169 224 290 349 416
#     4  11  24  38  64  99 133 174 239 305 357 413
#     4  12  27  43  70 106 142 184 236 291 353 435
#     4  11  23  41  65  92 128 189 249 286 339 421
#     4  11  21  42  64  95 137 173 224 291 365 415
#
# _framework density 22.035101000000001
#
# number of rings (size 3 to 8) (size 9 to 14) (size 15 to 20)
#    0.000    0.875    6.250    2.250    1.750    1.500 
#    0.000    1.250    0.000    0.000    0.000    0.000 
#    0.000    0.000    0.000    0.000    0.000    0.000 
#
# Total GULP energy -178661.368397 kJ/mol
# GULP energy per Si atom -5583.167762 kJ/mol
# Density = 2.198495 g / cm^3
# Si number density = 22.035101 Si / 1000 Ang^3
#
#
#
# Elastic Constant Matrix: (Units=GPa)
#
#
# Indices 1 2 3 4 5 6 
#
# 1 56.4404 7.6164 36.3759 0.0000 0.0000 0.0000
# 2 7.6164 125.0250 55.4239 0.0000 0.0000 0.0000
# 3 36.3759 55.4239 120.1816 0.0000 0.0000 0.0000
# 4 0.0000 0.0000 0.0000 57.8026 0.0000 0.0000
# 5 0.0000 0.0000 0.0000 0.0000 -77.6240 0.0000
# 6 0.0000 0.0000 0.0000 0.0000 0.0000 247.3274
#
#
#
# Elastic Compliance Matrix: (Units=1/GPa)
#
#
# Indices 1 2 3 4 5 6 
#
# 1 0.022428 0.002065 -0.007741 0.000000 0.000000 0.000000
# 2 0.002065 0.010244 -0.005349 0.000000 0.000000 0.000000
# 3 -0.007741 -0.005349 0.013131 0.000000 0.000000 0.000000
# 4 0.000000 0.000000 0.000000 0.017300 0.000000 0.000000
# 5 0.000000 0.000000 0.000000 0.000000 -0.012883 0.000000
# 6 0.000000 0.000000 0.000000 0.000000 0.000000 0.004043
#
#
# Mechanical properties :
#
#
# Convention : Reuss Voigt Hill
#
# Bulk Modulus (GPa) = 42.10012 55.60882 48.85447
# Shear Modulus (GPa) = 59.36070 58.98328 59.17199
#
# Velocity S-wave (km/s) = 5.19593 5.17938 5.18766
# Velocity P-wave (km/s) = 7.42592 7.81404 7.62245
#
# Compressibility (1/GPa) = 0.02375290
#
# Stress axis : x y z
#
# Youngs Moduli (GPa) = 44.58695 97.61880 76.15799
#
# Poissons Ratio (x) = -0.20161 0.58953
# Poissons Ratio (y) = -0.09208 0.40739
# Poissons Ratio (z) = 0.34514 0.52219
#
# Static dielectric constant tensor:
#      x y z
#    x 1.452230 0.000000 0.000000 
#    y 0.000000 1.831550 0.000000 
#    z 0.000000 0.000000 1.797320 
# 
# From -- ./inp_files/6649.got.cif
#   From: 2010.05.17/outbox.cif.g08.bks.cpg/sg16_4_cif.got.tgz:6649.got - 2010.06.03 22:28:35.
