data_PCOD9310867
_publ_section_title
;
Structure prediction by ZEFSAII (Michael W. Deem and Ramdas Pophale) SiO2 
 PCOD9310867
Probable space group: P 2 2 21
;
_chemical_formula_sum "Si O2"
_cell_formula_units_Z 18
_cell_length_a 9.314212
_cell_length_b 5.610703
_cell_length_c 12.957794
_cell_angle_alpha 90.000000
_cell_angle_beta 90.000000
_cell_angle_gamma 90.000000
_cell_volume 677.164949
_symmetry_space_group_name_H-M "P 2 2 21"
_symmetry_group_IT_number 17
_symmetry_cell_setting 'orthorhombic'
loop_
_space_group_symop_operation_xyz
x,y,z
-x,-y,1/2+z
x,-y,-z
-x,y,1/2-z
loop_
_atom_site_type_symbol
_atom_site_label
_atom_site_fract_x
_atom_site_fract_y
_atom_site_fract_z
Si Si1 0.993607 0.330937 0.366128
Si Si2 0.679405 0.400150 0.132237
Si Si3 0.389689 0.107802 0.656225
Si Si4 0.236207 0.691550 0.181574
Si Si5 0.212805 0.000000 0.000000
O O1 0.156555 0.360825 0.401861
O O2 0.000000 0.238205 0.250000
O O3 0.914634 0.587132 0.355725
O O4 0.890590 0.167690 0.432996
O O5 0.598206 0.154802 0.114161
O O6 0.688848 0.465690 0.257971
O O7 0.615118 0.649032 0.092046
O O8 0.500000 0.135751 0.750000
O O9 0.238992 0.128805 0.721177
O O10 0.296525 0.831113 0.081550
#
# Coordination Sequence:
#
# PCOD9310867 Si02
#       5
#     4   4   4   4   2
#     4  10  21  37  59  95 135 167 210 273 337 392
#     4   9  21  35  61  92 127 161 211 266 321 381
#     4  10  20  38  63  93 122 167 221 261 313 385
#     4   9  21  35  57  92 128 162 212 265 324 380
#     4  12  22  36  64  98 136 172 216 270 338 398
#
# _framework density 26.581412
#
# number of rings (size 3 to 8) (size 9 to 14) (size 15 to 20)
#    1.333    0.889    0.000    4.000    3.111    0.889 
#    0.000    0.000    0.000    1.333    0.000    0.000 
#    0.000    0.000    0.000    0.000    0.000    0.000 
#
# Total GULP energy -100394.300435 kJ/mol
# GULP energy per Si atom -5577.461135 kJ/mol
# Density = 2.652091 g / cm^3
# Si number density = 26.581412 Si / 1000 Ang^3
#
#
#
# Elastic Constant Matrix: (Units=GPa)
#
#
# Indices 1 2 3 4 5 6 
#
# 1 64.0514 35.6107 -6.7175 0.0000 0.0000 0.0000
# 2 35.6107 186.0906 45.3187 0.0000 0.0000 0.0000
# 3 -6.7175 45.3187 113.9752 0.0000 0.0000 0.0000
# 4 0.0000 0.0000 0.0000 44.6040 0.0000 0.0000
# 5 0.0000 0.0000 0.0000 0.0000 20.8654 0.0000
# 6 0.0000 0.0000 0.0000 0.0000 0.0000 40.6606
#
#
#
# Elastic Compliance Matrix: (Units=1/GPa)
#
#
# Indices 1 2 3 4 5 6 
#
# 1 0.018203 -0.004146 0.002721 0.000000 0.000000 0.000000
# 2 -0.004146 0.006894 -0.002986 0.000000 0.000000 0.000000
# 3 0.002721 -0.002986 0.010121 0.000000 0.000000 0.000000
# 4 0.000000 0.000000 0.000000 0.022420 0.000000 0.000000
# 5 0.000000 0.000000 0.000000 0.000000 0.047926 0.000000
# 6 0.000000 0.000000 0.000000 0.000000 0.000000 0.024594
#
#
# Mechanical properties :
#
#
# Convention : Reuss Voigt Hill
#
# Bulk Modulus (GPa) = 37.88175 56.94902 47.41538
# Shear Modulus (GPa) = 33.83447 40.55301 37.19374
#
# Velocity S-wave (km/s) = 3.57159 3.91015 3.74470
# Velocity P-wave (km/s) = 5.59379 6.46967 6.04761
#
# Compressibility (1/GPa) = 0.02639794
#
# Stress axis : x y z
#
# Youngs Moduli (GPa) = 54.93603 145.04872 98.80074
#
# Poissons Ratio (x) = 0.60139 -0.26888
# Poissons Ratio (y) = 0.22777 0.29498
# Poissons Ratio (z) = -0.14950 0.43306
#
# Static dielectric constant tensor:
#      x y z
#    x 2.172990 0.000000 0.000000 
#    y 0.000000 2.104740 0.000000 
#    z 0.000000 0.000000 2.284300 
# 
# From -- ./inp_files/8350.got.cif
#   From: 2010.05.17/outbox.cif.g08.bks.cpg/sg17_5_cif.got.tgz:8350.got - 2010.06.03 22:34:06.
