data_PCOD9310017
_publ_section_title
;
Structure prediction by ZEFSAII (Michael W. Deem and Ramdas Pophale) SiO2 
 PCOD9310017
Probable space group: P 2 2 2
;
_chemical_formula_sum "Si O2"
_cell_formula_units_Z 18
_cell_length_a 11.200732
_cell_length_b 8.941536
_cell_length_c 8.909580
_cell_angle_alpha 90.000000
_cell_angle_beta 90.000000
_cell_angle_gamma 90.000000
_cell_volume 892.310015
_symmetry_space_group_name_H-M "P 2 2 2"
_symmetry_group_IT_number 16
_symmetry_cell_setting 'orthorhombic'
loop_
_space_group_symop_operation_xyz
x,y,z
-x,-y,z
x,-y,-z
-x,y,-z
loop_
_atom_site_type_symbol
_atom_site_label
_atom_site_fract_x
_atom_site_fract_y
_atom_site_fract_z
Si Si1 0.500000 0.000000 0.000000
Si Si2 0.882257 0.581536 0.335756
Si Si3 0.363321 0.528657 0.319421
Si Si4 0.500000 0.000000 0.500000
Si Si5 0.879597 0.936846 0.330814
Si Si6 0.338928 0.133526 0.750975
O O1 0.581196 0.102700 0.104863
O O2 0.874375 0.500000 0.500000
O O3 0.749497 0.568807 0.264750
O O4 0.896339 0.759471 0.345673
O O5 0.000000 0.500000 0.266205
O O6 0.500000 0.500000 0.264303
O O7 0.370970 0.500000 0.500000
O O8 0.315350 0.692564 0.273707
O O9 0.581810 0.902026 0.605347
O O10 0.869730 0.000000 0.500000
O O11 0.767596 0.012946 0.249012
O O12 0.000000 0.000000 0.259673
#
# Coordination Sequence:
#
# PCOD9310017 Si02
#       6
#     1   4   4   1   4   4
#     4  10  28  42  64  82 140 178 226 252 316 398
#     4  10  19  31  49  83 130 162 192 255 331 392
#     4  10  20  32  57  90 123 154 201 264 326 375
#     4  10  20  30  64  82 116 158 214 268 312 358
#     4  11  20  33  61  95 125 162 214 275 331 385
#     4  11  22  40  60  91 126 171 219 265 322 386
#
# _framework density 20.172363000000001
#
# number of rings (size 3 to 8) (size 9 to 14) (size 15 to 20)
#    0.000    1.556    1.111    8.000    6.222    0.000 
#    0.000    1.111    0.000    0.000    0.000    0.000 
#    0.000    0.000    0.000    0.000    0.000    0.000 
#
# Total GULP energy -100235.562467 kJ/mol
# GULP energy per Si atom -5568.642359 kJ/mol
# Density = 2.012645 g / cm^3
# Si number density = 20.172363 Si / 1000 Ang^3
#
#
#
# Elastic Constant Matrix: (Units=GPa)
#
#
# Indices 1 2 3 4 5 6 
#
# 1 170.7554 48.9587 16.2790 0.0000 0.0000 0.0000
# 2 48.9587 184.5823 15.5086 0.0000 0.0000 0.0000
# 3 16.2790 15.5086 46.8438 0.0000 0.0000 0.0000
# 4 0.0000 0.0000 0.0000 694.8088 0.0000 0.0000
# 5 0.0000 0.0000 0.0000 0.0000 34.4702 0.0000
# 6 0.0000 0.0000 0.0000 0.0000 0.0000 35.4158
#
#
#
# Elastic Compliance Matrix: (Units=1/GPa)
#
#
# Indices 1 2 3 4 5 6 
#
# 1 0.006472 -0.001571 -0.001729 0.000000 0.000000 0.000000
# 2 -0.001571 0.005954 -0.001425 0.000000 0.000000 0.000000
# 3 -0.001729 -0.001425 0.022420 0.000000 0.000000 0.000000
# 4 0.000000 0.000000 0.000000 0.001439 0.000000 0.000000
# 5 0.000000 0.000000 0.000000 0.000000 0.029011 0.000000
# 6 0.000000 0.000000 0.000000 0.000000 0.000000 0.028236
#
#
# Mechanical properties :
#
#
# Convention : Reuss Voigt Hill
#
# Bulk Modulus (GPa) = 39.37719 62.63044 51.00382
# Shear Modulus (GPa) = 44.86417 174.36796 109.61607
#
# Velocity S-wave (km/s) = 4.72109 9.30735 7.37955
# Velocity P-wave (km/s) = 7.02004 12.10856 9.89693
#
# Compressibility (1/GPa) = 0.02539541
#
# Stress axis : x y z
#
# Youngs Moduli (GPa) = 154.51975 167.95000 44.60272
#
# Poissons Ratio (x) = 0.26390 0.07711
# Poissons Ratio (y) = 0.24280 0.06357
# Poissons Ratio (z) = 0.26713 0.23936
#
# Static dielectric constant tensor:
#      x y z
#    x 0.667480 0.000000 0.000000 
#    y 0.000000 1.057090 0.000000 
#    z 0.000000 0.000000 1.679810 
# 
# From -- ./inp_files/3835.got.cif
#   From: 2010.05.17/outbox.cif.g08.bks.cpg/sg16_2_cif.got.tgz:3835.got - 2010.06.03 22:28:35.
