data_PCOD9310468
_publ_section_title
;
Structure prediction by ZEFSAII (Michael W. Deem and Ramdas Pophale) SiO2 
 PCOD9310468
Probable space group: P 2 2 21
;
_chemical_formula_sum "Si O2"
_cell_formula_units_Z 18
_cell_length_a 11.569754
_cell_length_b 13.949965
_cell_length_c 5.623226
_cell_angle_alpha 90.000000
_cell_angle_beta 90.000000
_cell_angle_gamma 90.000000
_cell_volume 907.575537
_symmetry_space_group_name_H-M "P 2 2 21"
_symmetry_group_IT_number 17
_symmetry_cell_setting 'orthorhombic'
loop_
_space_group_symop_operation_xyz
x,y,z
-x,-y,1/2+z
x,-y,-z
-x,y,1/2-z
loop_
_atom_site_type_symbol
_atom_site_label
_atom_site_fract_x
_atom_site_fract_y
_atom_site_fract_z
Si Si1 0.195431 0.114771 0.923022
Si Si2 0.693865 0.000000 0.000000
Si Si3 0.372558 0.805288 0.690226
Si Si4 0.000000 0.554888 0.250000
Si Si5 0.170989 0.286736 0.566699
Si Si6 0.000000 0.834274 0.750000
O O1 0.230800 0.031458 0.733728
O O2 0.170402 0.209338 0.773001
O O3 0.301384 0.151338 0.087006
O O4 0.077415 0.103729 0.072008
O O5 0.620746 0.903565 0.963860
O O6 0.500000 0.771634 0.750000
O O7 0.296772 0.724030 0.556813
O O8 0.111189 0.618691 0.330056
O O9 0.971793 0.500000 0.500000
O O10 0.087359 0.237693 0.376462
#
# Coordination Sequence:
#
# PCOD9310468 Si02
#       6
#     4   2   4   2   4   2
#     4  10  20  36  63  82 128 175 216 275 325 395
#     4  10  22  34  56  92 124 170 238 284 318 368
#     4  10  23  38  64  89 126 182 226 280 327 388
#     4  12  25  40  74 115 136 170 212 289 352 425
#     4  10  21  39  64  94 132 166 212 263 339 421
#     4  10  17  36  66  81 130 178 208 259 334 401
#
# _framework density 19.833058999999999
#
# number of rings (size 3 to 8) (size 9 to 14) (size 15 to 20)
#    0.000    1.778    2.222    1.333    6.222    2.667 
#    0.000    0.000  176.000    0.000    5.778    0.000 
#    0.000    0.000    0.000    0.000    0.000    0.000 
#
# Total GULP energy -100243.786999 kJ/mol
# GULP energy per Si atom -5569.099278 kJ/mol
# Density = 1.978792 g / cm^3
# Si number density = 19.833059 Si / 1000 Ang^3
#
#
#
# Elastic Constant Matrix: (Units=GPa)
#
#
# Indices 1 2 3 4 5 6 
#
# 1 156.9548 43.9884 58.7318 0.0000 0.0000 0.0000
# 2 43.9884 90.1317 38.8858 0.0000 0.0000 0.0000
# 3 58.7318 38.8858 103.4861 0.0000 0.0000 0.0000
# 4 0.0000 0.0000 0.0000 172.8108 0.0000 0.0000
# 5 0.0000 0.0000 0.0000 0.0000 20.2044 0.0000
# 6 0.0000 0.0000 0.0000 0.0000 0.0000 24.0642
#
#
#
# Elastic Compliance Matrix: (Units=1/GPa)
#
#
# Indices 1 2 3 4 5 6 
#
# 1 0.008528 -0.002475 -0.003910 0.000000 0.000000 0.000000
# 2 -0.002475 0.013960 -0.003841 0.000000 0.000000 0.000000
# 3 -0.003910 -0.003841 0.013325 0.000000 0.000000 0.000000
# 4 0.000000 0.000000 0.000000 0.005787 0.000000 0.000000
# 5 0.000000 0.000000 0.000000 0.000000 0.049494 0.000000
# 6 0.000000 0.000000 0.000000 0.000000 0.000000 0.041556
#
#
# Mechanical properties :
#
#
# Convention : Reuss Voigt Hill
#
# Bulk Modulus (GPa) = 65.09764 70.42051 67.75907
# Shear Modulus (GPa) = 31.60117 57.34698 44.47408
#
# Velocity S-wave (km/s) = 3.99602 5.38309 4.74056
# Velocity P-wave (km/s) = 7.36104 8.61513 8.01266
#
# Compressibility (1/GPa) = 0.01536154
#
# Stress axis : x y z
#
# Youngs Moduli (GPa) = 117.26056 71.63354 75.04519
#
# Poissons Ratio (x) = 0.17731 0.29341
# Poissons Ratio (y) = 0.29025 0.28823
# Poissons Ratio (z) = 0.45847 0.27513
#
# Static dielectric constant tensor:
#      x y z
#    x 1.628720 0.000000 0.000000 
#    y 0.000000 1.714790 0.000000 
#    z 0.000000 0.000000 1.802600 
# 
# From -- ./inp_files/1436.got.cif
#   From: 2010.05.17/outbox.cif.g08.bks.cpg/sg17_1_cif.got.tgz:1436.got - 2010.06.03 22:34:06.
