data_PCOD9310283
_publ_section_title
;
Structure prediction by ZEFSAII (Michael W. Deem and Ramdas Pophale) SiO2 
 PCOD9310283
Probable space group: P 2 2 2
;
_chemical_formula_sum "Si O2"
_cell_formula_units_Z 22
_cell_length_a 9.573757
_cell_length_b 11.908301
_cell_length_c 9.224533
_cell_angle_alpha 90.000000
_cell_angle_beta 90.000000
_cell_angle_gamma 90.000000
_cell_volume 1051.662995
_symmetry_space_group_name_H-M "P 2 2 2"
_symmetry_group_IT_number 16
_symmetry_cell_setting 'orthorhombic'
loop_
_space_group_symop_operation_xyz
x,y,z
-x,-y,z
x,-y,-z
-x,y,-z
loop_
_atom_site_type_symbol
_atom_site_label
_atom_site_fract_x
_atom_site_fract_y
_atom_site_fract_z
Si Si1 0.500000 0.849438 0.500000
Si Si2 0.928573 0.380393 0.147250
Si Si3 0.297751 0.164781 0.239691
Si Si4 0.016844 0.829157 0.329854
Si Si5 0.685937 0.084491 0.235537
Si Si6 0.350952 0.303196 0.962198
O O1 0.608564 0.798694 0.379215
O O2 0.391348 0.908113 0.390632
O O3 0.763944 0.381776 0.111851
O O4 0.000000 0.500000 0.169519
O O5 0.952772 0.298617 0.281288
O O6 0.000000 0.331733 0.000000
O O7 0.136365 0.144494 0.273553
O O8 0.345415 0.041586 0.183079
O O9 0.300501 0.257067 0.116179
O O10 0.000000 0.844754 0.500000
O O11 0.148570 0.895465 0.263197
O O12 0.636400 0.190136 0.138013
O O13 0.500000 0.354526 0.000000
#
# Coordination Sequence:
#
# PCOD9310283 Si02
#       6
#     2   4   4   4   4   4
#     4  12  23  34  54  86 131 176 203 242 296 350
#     4  10  22  44  67  87 115 148 200 266 315 363
#     4  12  22  37  55  88 131 170 206 247 287 350
#     4  11  23  38  60  89 120 164 210 249 300 362
#     4  11  23  35  56  89 130 171 208 242 291 352
#     4  11  23  39  62  93 121 160 205 251 306 363
#
# _framework density 20.919249000000001
#
# number of rings (size 3 to 8) (size 9 to 14) (size 15 to 20)
#    0.000    0.909    5.455    2.727    0.000    1.818 
#    0.000    3.636    0.000    0.000    0.000    1.273 
#    0.000    0.000    0.000    0.000    0.000    0.000 
#
# Total GULP energy -122710.136994 kJ/mol
# GULP energy per Si atom -5577.733500 kJ/mol
# Density = 2.087164 g / cm^3
# Si number density = 20.919249 Si / 1000 Ang^3
#
#
#
# Elastic Constant Matrix: (Units=GPa)
#
#
# Indices 1 2 3 4 5 6 
#
# 1 154.5559 30.4319 6.7440 0.0000 0.0000 0.0000
# 2 30.4319 76.2522 10.0245 0.0000 0.0000 0.0000
# 3 6.7440 10.0245 46.0316 0.0000 0.0000 0.0000
# 4 0.0000 0.0000 0.0000 62.7511 0.0000 0.0000
# 5 0.0000 0.0000 0.0000 0.0000 40.5546 0.0000
# 6 0.0000 0.0000 0.0000 0.0000 0.0000 24.9591
#
#
#
# Elastic Compliance Matrix: (Units=1/GPa)
#
#
# Indices 1 2 3 4 5 6 
#
# 1 0.007030 -0.002749 -0.000431 0.000000 0.000000 0.000000
# 2 -0.002749 0.014576 -0.002771 0.000000 0.000000 0.000000
# 3 -0.000431 -0.002771 0.022391 0.000000 0.000000 0.000000
# 4 0.000000 0.000000 0.000000 0.015936 0.000000 0.000000
# 5 0.000000 0.000000 0.000000 0.000000 0.024658 0.000000
# 6 0.000000 0.000000 0.000000 0.000000 0.000000 0.040065
#
#
# Mechanical properties :
#
#
# Convention : Reuss Voigt Hill
#
# Bulk Modulus (GPa) = 31.15905 41.24893 36.20399
# Shear Modulus (GPa) = 33.95398 40.96226 37.45812
#
# Velocity S-wave (km/s) = 4.03314 4.42986 4.23615
# Velocity P-wave (km/s) = 6.05108 6.77686 6.42423
#
# Compressibility (1/GPa) = 0.03209340
#
# Stress axis : x y z
#
# Youngs Moduli (GPa) = 142.24236 68.60663 44.66085
#
# Poissons Ratio (x) = 0.18860 0.01926
# Poissons Ratio (y) = 0.39103 0.12378
# Poissons Ratio (z) = 0.06135 0.19014
#
# Static dielectric constant tensor:
#      x y z
#    x 1.553490 0.000000 0.000000 
#    y 0.000000 1.781610 0.000000 
#    z 0.000000 0.000000 1.659410 
# 
# From -- ./inp_files/4067.got.cif
#   From: 2010.05.17/outbox.cif.g08.bks.cpg/sg16_3_cif.got.tgz:4067.got - 2010.06.03 22:28:35.
