data_PCOD9310410
_publ_section_title
;
Structure prediction by ZEFSAII (Michael W. Deem and Ramdas Pophale) SiO2 
 PCOD9310410
Probable space group: P 2 2 2
;
_chemical_formula_sum "Si O2"
_cell_formula_units_Z 21
_cell_length_a 12.066324
_cell_length_b 13.862732
_cell_length_c 5.335229
_cell_angle_alpha 90.000000
_cell_angle_beta 90.000000
_cell_angle_gamma 90.000000
_cell_volume 892.435577
_symmetry_space_group_name_H-M "P 2 2 2"
_symmetry_group_IT_number 16
_symmetry_cell_setting 'orthorhombic'
loop_
_space_group_symop_operation_xyz
x,y,z
-x,-y,z
x,-y,-z
-x,y,-z
loop_
_atom_site_type_symbol
_atom_site_label
_atom_site_fract_x
_atom_site_fract_y
_atom_site_fract_z
Si Si1 0.000000 0.500000 0.500000
Si Si2 0.178006 0.141826 0.720104
Si Si3 0.677672 0.000000 0.000000
Si Si4 0.676664 0.361551 0.775080
Si Si5 0.387027 0.153293 0.348758
Si Si6 0.500000 0.500000 0.000000
Si Si7 0.000000 0.000000 0.500000
Si Si8 0.179040 0.362714 0.734319
O O1 0.078699 0.432797 0.668529
O O2 0.276311 0.144024 0.515527
O O3 0.140598 0.251278 0.751783
O O4 0.078863 0.071253 0.652377
O O5 0.241020 0.089278 0.943702
O O6 0.605215 0.051757 0.791851
O O7 0.632189 0.251985 0.806112
O O8 0.734632 0.370457 0.501813
O O9 0.576330 0.433857 0.823636
O O10 0.762556 0.382297 0.000487
O O11 0.500000 0.169091 0.500000
#
# Coordination Sequence:
#
# PCOD9310410 Si02
#       8
#     1   4   2   4   4   1   1   4
#     4  12  26  50  88 110 164 222 262 346 412 454
#     4  11  25  44  70 109 154 199 264 319 388 473
#     4  12  22  48  74 110 150 209 253 328 392 470
#     4  11  27  48  76 110 162 192 268 324 391 480
#     4  11  26  47  74 111 156 206 257 329 402 480
#     4  12  28  46  76 114 136 222 244 326 396 478
#     4  12  22  46  66 102 150 200 254 316 380 468
#     4  11  26  50  74 117 153 205 264 335 385 474
#
# _framework density 23.531109000000001
#
# number of rings (size 3 to 8) (size 9 to 14) (size 15 to 20)
#    0.000    0.762    3.810    1.714    5.333    5.714 
#    0.000    3.810    0.000    0.000    0.000    0.000 
#    0.000    0.000    0.000    0.000    0.000    0.000 
#
# Total GULP energy -117564.607017 kJ/mol
# GULP energy per Si atom -5598.314620 kJ/mol
# Density = 2.347755 g / cm^3
# Si number density = 23.531109 Si / 1000 Ang^3
#
#
#
# Elastic Constant Matrix: (Units=GPa)
#
#
# Indices 1 2 3 4 5 6 
#
# 1 123.6863 79.7196 24.4870 0.0000 0.0000 0.0000
# 2 79.7196 153.3291 6.1664 0.0000 0.0000 0.0000
# 3 24.4870 6.1664 61.8236 0.0000 0.0000 0.0000
# 4 0.0000 0.0000 0.0000 28.1048 0.0000 0.0000
# 5 0.0000 0.0000 0.0000 0.0000 0.5131 0.0000
# 6 0.0000 0.0000 0.0000 0.0000 0.0000 69.9941
#
#
#
# Elastic Compliance Matrix: (Units=1/GPa)
#
#
# Indices 1 2 3 4 5 6 
#
# 1 0.013354 -0.006758 -0.004615 0.000000 0.000000 0.000000
# 2 -0.006758 0.009968 0.001682 0.000000 0.000000 0.000000
# 3 -0.004615 0.001682 0.017835 0.000000 0.000000 0.000000
# 4 0.000000 0.000000 0.000000 0.035581 0.000000 0.000000
# 5 0.000000 0.000000 0.000000 0.000000 1.948939 0.000000
# 6 0.000000 0.000000 0.000000 0.000000 0.000000 0.014287
#
#
# Mechanical properties :
#
#
# Convention : Reuss Voigt Hill
#
# Bulk Modulus (GPa) = 45.92190 62.17610 54.04900
# Shear Modulus (GPa) = 2.41943 34.95346 18.68645
#
# Velocity S-wave (km/s) = 1.01509 3.85829 2.82106
# Velocity P-wave (km/s) = 4.57511 6.80653 5.79916
#
# Compressibility (1/GPa) = 0.02177610
#
# Stress axis : x y z
#
# Youngs Moduli (GPa) = 74.88327 100.32442 56.06864
#
# Poissons Ratio (x) = 0.67794 0.25877
# Poissons Ratio (y) = 0.50603 -0.09433
# Poissons Ratio (z) = 0.34561 -0.16878
#
# Static dielectric constant tensor:
#      x y z
#    x 1.828260 0.000000 0.000000 
#    y 0.000000 1.909640 0.000000 
#    z 0.000000 0.000000 1.996300 
# 
# From -- ./inp_files/1493.got.cif
#   From: 2010.05.17/outbox.cif.g08.bks.cpg/sg16_1_cif.got.tgz:1493.got - 2010.06.03 22:28:35.
