data_PCOD9310509
_publ_section_title
;
Structure prediction by ZEFSAII (Michael W. Deem and Ramdas Pophale) SiO2 
 PCOD9310509
Probable space group: P 2 2 21
;
_chemical_formula_sum "Si O2"
_cell_formula_units_Z 28
_cell_length_a 12.523197
_cell_length_b 6.009613
_cell_length_c 18.436830
_cell_angle_alpha 90.000000
_cell_angle_beta 90.000000
_cell_angle_gamma 90.000000
_cell_volume 1387.547852
_symmetry_space_group_name_H-M "P 2 2 21"
_symmetry_group_IT_number 17
_symmetry_cell_setting 'orthorhombic'
loop_
_space_group_symop_operation_xyz
x,y,z
-x,-y,1/2+z
x,-y,-z
-x,y,1/2-z
loop_
_atom_site_type_symbol
_atom_site_label
_atom_site_fract_x
_atom_site_fract_y
_atom_site_fract_z
Si Si1 0.452207 0.000000 0.000000
Si Si2 0.332900 0.988645 0.321757
Si Si3 0.804768 0.263872 0.710010
Si Si4 0.709078 0.398370 0.920087
Si Si5 0.150301 0.641686 0.680679
Si Si6 0.325950 0.380813 0.922874
Si Si7 0.485288 0.689527 0.621565
Si Si8 0.000000 0.055713 0.250000
O O1 0.384235 0.850897 0.056089
O O2 0.515576 0.184596 0.044281
O O3 0.298762 0.829433 0.255070
O O4 0.309230 0.856441 0.397064
O O5 0.245803 0.182317 0.318522
O O6 0.447047 0.112939 0.324966
O O7 0.841045 0.489228 0.748731
O O8 0.771245 0.316275 0.628517
O O9 0.902078 0.092869 0.721403
O O10 0.820965 0.478331 0.885107
O O11 0.608161 0.509243 0.879008
O O12 0.706134 0.500000 0.000000
O O13 0.044058 0.785696 0.686135
O O14 0.404156 0.552045 0.878609
O O15 0.301687 0.500000 0.000000
#
# Coordination Sequence:
#
# PCOD9310509 Si02
#       8
#     2   4   4   4   4   4   4   2
#     4  10  20  36  54  78 114 162 200 228 286 352
#     4   9  19  34  54  83 116 156 197 238 293 349
#     4  10  21  40  61  85 115 151 204 260 310 368
#     4  10  18  32  55  84 121 156 190 236 290 357
#     4   9  20  36  58  84 108 146 193 241 302 360
#     4  10  22  37  58  85 119 162 204 248 300 365
#     4  10  18  32  52  80 117 160 200 229 276 345
#     4  10  20  38  66  82 104 150 198 256 320 368
#
# _framework density 20.179486000000001
#
# number of rings (size 3 to 8) (size 9 to 14) (size 15 to 20)
#    0.000    2.286    0.000    3.429    0.000    6.286 
#    0.000   17.143    0.000   27.429    0.000    0.000 
#    0.000    0.000    0.000    0.000    0.000    0.000 
#
# Total GULP energy -155931.267369 kJ/mol
# GULP energy per Si atom -5568.973835 kJ/mol
# Density = 2.013356 g / cm^3
# Si number density = 20.179486 Si / 1000 Ang^3
#
#
#
# Elastic Constant Matrix: (Units=GPa)
#
#
# Indices 1 2 3 4 5 6 
#
# 1 77.2025 39.9949 45.3661 0.0000 0.0000 0.0000
# 2 39.9949 106.8023 25.9503 0.0000 0.0000 0.0000
# 3 45.3661 25.9503 70.4398 0.0000 0.0000 0.0000
# 4 0.0000 0.0000 0.0000 21.1178 0.0000 0.0000
# 5 0.0000 0.0000 0.0000 0.0000 18.4502 0.0000
# 6 0.0000 0.0000 0.0000 0.0000 0.0000 -3.0837
#
#
#
# Elastic Compliance Matrix: (Units=1/GPa)
#
#
# Indices 1 2 3 4 5 6 
#
# 1 0.023579 -0.005645 -0.013106 0.000000 0.000000 0.000000
# 2 -0.005645 0.011635 -0.000651 0.000000 0.000000 0.000000
# 3 -0.013106 -0.000651 0.022877 0.000000 0.000000 0.000000
# 4 0.000000 0.000000 0.000000 0.047353 0.000000 0.000000
# 5 0.000000 0.000000 0.000000 0.000000 0.054200 0.000000
# 6 0.000000 0.000000 0.000000 0.000000 0.000000 -0.324285
#
#
# Mechanical properties :
#
#
# Convention : Reuss Voigt Hill
#
# Bulk Modulus (GPa) = 51.84786 53.00747 52.42767
# Shear Modulus (GPa) = -41.87335 16.83908 -12.51713
#
# Velocity S-wave (km/s) = -4.56021 2.89185 -2.49326
# Velocity P-wave (km/s) = 1.40649 6.12171 4.21291
#
# Compressibility (1/GPa) = 0.01928720
#
# Stress axis : x y z
#
# Youngs Moduli (GPa) = 42.41075 85.94588 43.71198
#
# Poissons Ratio (x) = 0.48519 0.57289
# Poissons Ratio (y) = 0.23942 0.02844
# Poissons Ratio (z) = 0.55584 0.05592
#
# Static dielectric constant tensor:
#      x y z
#    x 1.744420 0.000000 0.000000 
#    y 0.000000 1.766260 0.000000 
#    z 0.000000 0.000000 1.756430 
# 
# From -- ./inp_files/10219.got.cif
#   From: 2010.05.17/outbox.cif.g08.bks.cpg/sg17_6_cif.got.tgz:10219.got - 2010.06.03 22:34:06.
