data_PCOD9310838
_publ_section_title
;
Structure prediction by ZEFSAII (Michael W. Deem and Ramdas Pophale) SiO2 
 PCOD9310838
Probable space group: P 2 2 21
;
_chemical_formula_sum "Si O2"
_cell_formula_units_Z 30
_cell_length_a 9.091983
_cell_length_b 10.182888
_cell_length_c 14.812462
_cell_angle_alpha 90.000000
_cell_angle_beta 90.000000
_cell_angle_gamma 90.000000
_cell_volume 1371.376905
_symmetry_space_group_name_H-M "P 2 2 21"
_symmetry_group_IT_number 17
_symmetry_cell_setting 'orthorhombic'
loop_
_space_group_symop_operation_xyz
x,y,z
-x,-y,1/2+z
x,-y,-z
-x,y,1/2-z
loop_
_atom_site_type_symbol
_atom_site_label
_atom_site_fract_x
_atom_site_fract_y
_atom_site_fract_z
Si Si1 0.030938 0.235792 0.918142
Si Si2 0.768314 0.050067 0.906039
Si Si3 0.116158 0.532291 0.328467
Si Si4 0.298068 0.748677 0.214825
Si Si5 0.667818 0.944281 0.746547
Si Si6 0.756958 0.860560 0.551593
Si Si7 0.512884 0.254656 0.943955
Si Si8 0.289643 0.500000 0.500000
O O1 0.169248 0.214505 0.854462
O O2 0.897991 0.149066 0.879668
O O3 0.982171 0.381949 0.897312
O O4 0.093212 0.207545 0.017443
O O5 0.747202 0.925094 0.841352
O O6 0.617450 0.127880 0.930231
O O7 0.827648 0.000000 0.000000
O O8 0.231626 0.631783 0.276552
O O9 0.206527 0.455881 0.406303
O O10 0.000000 0.483432 0.250000
O O11 0.332099 0.894935 0.251849
O O12 0.435577 0.710705 0.151696
O O13 0.500000 0.899383 0.750000
O O14 0.743148 0.889685 0.657444
O O15 0.615937 0.779634 0.515013
O O16 0.750530 0.000000 0.500000
O O17 0.612228 0.375172 0.973523
#
# Coordination Sequence:
#
# PCOD9310838 Si02
#       8
#     4   4   4   4   4   4   4   2
#     4  10  20  38  59  96 131 161 208 272 321 392
#     4  12  23  35  61  96 131 169 221 265 324 397
#     4  10  22  42  70  98 127 167 232 286 327 389
#     4  10  20  37  66  98 122 156 221 277 319 382
#     4  12  20  34  63  94 130 176 209 263 327 391
#     4  11  21  38  63  98 139 165 205 266 340 395
#     4  11  22  41  66  97 132 170 222 277 331 390
#     4  12  24  42  72  94 130 178 226 288 336 384
#
# _framework density 21.875824000000001
#
# number of rings (size 3 to 8) (size 9 to 14) (size 15 to 20)
#    0.000    1.067    6.667    1.600    0.000    0.000 
#    0.000    6.000   14.667    0.000    0.000    0.000 
#    0.000    0.000    0.000    0.000    0.000    0.000 
#
# Total GULP energy -167195.231223 kJ/mol
# GULP energy per Si atom -5573.174374 kJ/mol
# Density = 2.182603 g / cm^3
# Si number density = 21.875824 Si / 1000 Ang^3
#
#
#
# Elastic Constant Matrix: (Units=GPa)
#
#
# Indices 1 2 3 4 5 6 
#
# 1 94.7389 7.0884 26.2439 0.0000 0.0000 0.0000
# 2 7.0884 10.7024 18.1266 0.0000 0.0000 0.0000
# 3 26.2439 18.1266 128.0273 0.0000 0.0000 0.0000
# 4 0.0000 0.0000 0.0000 20.6858 0.0000 0.0000
# 5 0.0000 0.0000 0.0000 0.0000 8.6766 0.0000
# 6 0.0000 0.0000 0.0000 0.0000 0.0000 12.4135
#
#
#
# Elastic Compliance Matrix: (Units=1/GPa)
#
#
# Indices 1 2 3 4 5 6 
#
# 1 0.011369 -0.004713 -0.001663 0.000000 0.000000 0.000000
# 2 -0.004713 0.124865 -0.016713 0.000000 0.000000 0.000000
# 3 -0.001663 -0.016713 0.010518 0.000000 0.000000 0.000000
# 4 0.000000 0.000000 0.000000 0.048342 0.000000 0.000000
# 5 0.000000 0.000000 0.000000 0.000000 0.115253 0.000000
# 6 0.000000 0.000000 0.000000 0.000000 0.000000 0.080557
#
#
# Mechanical properties :
#
#
# Convention : Reuss Voigt Hill
#
# Bulk Modulus (GPa) = 9.94293 37.37626 23.65960
# Shear Modulus (GPa) = 10.62460 20.48916 15.55688
#
# Velocity S-wave (km/s) = 2.20620 3.06373 2.66962
# Velocity P-wave (km/s) = 3.32337 5.44408 4.51014
#
# Compressibility (1/GPa) = 0.10057394
#
# Stress axis : x y z
#
# Youngs Moduli (GPa) = 87.96114 8.00867 95.07497
#
# Poissons Ratio (x) = 0.03774 0.15813
# Poissons Ratio (y) = 0.41454 1.58896
# Poissons Ratio (z) = 0.14629 0.13385
#
# Static dielectric constant tensor:
#      x y z
#    x 1.840550 0.000000 0.000000 
#    y 0.000000 1.918050 0.000000 
#    z 0.000000 0.000000 2.183370 
# 
# From -- ./inp_files/8234.got.cif
#   From: 2010.05.17/outbox.cif.g08.bks.cpg/sg17_5_cif.got.tgz:8234.got - 2010.06.03 22:34:06.
