data_PCOD9310626
_publ_section_title
;
Structure prediction by ZEFSAII (Michael W. Deem and Ramdas Pophale) SiO2 
 PCOD9310626
Probable space group: P 2 2 21
;
_chemical_formula_sum "Si O2"
_cell_formula_units_Z 16
_cell_length_a 11.583421
_cell_length_b 13.182563
_cell_length_c 5.597071
_cell_angle_alpha 90.000000
_cell_angle_beta 90.000000
_cell_angle_gamma 90.000000
_cell_volume 854.668136
_symmetry_space_group_name_H-M "P 2 2 21"
_symmetry_group_IT_number 17
_symmetry_cell_setting 'orthorhombic'
loop_
_space_group_symop_operation_xyz
x,y,z
-x,-y,1/2+z
x,-y,-z
-x,y,1/2-z
loop_
_atom_site_type_symbol
_atom_site_label
_atom_site_fract_x
_atom_site_fract_y
_atom_site_fract_z
Si Si1 0.500000 0.061796 0.750000
Si Si2 0.500000 0.261778 0.250000
Si Si3 0.685134 0.791097 0.395313
Si Si4 0.381837 0.405806 0.629891
Si Si5 0.064830 0.122142 0.998959
O O1 0.385053 0.133114 0.719404
O O2 0.510738 0.000000 0.500000
O O3 0.598596 0.202094 0.383136
O O4 0.431909 0.331957 0.431684
O O5 0.682947 0.673529 0.304356
O O6 0.810093 0.827544 0.471437
O O7 0.319821 0.500000 0.500000
O O8 0.500000 0.447517 0.750000
O O9 0.000000 0.148551 0.750000
O O10 0.000000 0.149397 0.250000
O O11 0.077540 0.000000 0.000000
#
# Coordination Sequence:
#
# PCOD9310626 Si02
#       5
#     2   2   4   4   4
#     4  12  25  35  56  92 134 170 195 249 328 380
#     4  10  19  35  58  90 126 156 193 247 320 376
#     4  11  23  37  59  92 126 160 206 257 314 374
#     4  10  19  33  58  90 126 161 199 249 312 384
#     4  10  24  43  63  87 120 170 220 257 298 361
#
# _framework density 18.720718000000002
#
# number of rings (size 3 to 8) (size 9 to 14) (size 15 to 20)
#    0.000    1.500    5.000    1.500    3.500    3.000 
#    0.000    0.000    0.000    0.000    6.500    0.000 
#    0.000    0.000    0.000    0.000    0.000    0.000 
#
# Total GULP energy -89086.363966 kJ/mol
# GULP energy per Si atom -5567.897748 kJ/mol
# Density = 1.867811 g / cm^3
# Si number density = 18.720718 Si / 1000 Ang^3
#
#
#
# Elastic Constant Matrix: (Units=GPa)
#
#
# Indices 1 2 3 4 5 6 
#
# 1 142.8192 64.2807 61.6632 0.0000 0.0000 0.0000
# 2 64.2807 88.1804 50.5519 0.0000 0.0000 0.0000
# 3 61.6632 50.5519 118.7965 0.0000 0.0000 0.0000
# 4 0.0000 0.0000 0.0000 27.5984 0.0000 0.0000
# 5 0.0000 0.0000 0.0000 0.0000 24.6835 0.0000
# 6 0.0000 0.0000 0.0000 0.0000 0.0000 12.0523
#
#
#
# Elastic Compliance Matrix: (Units=1/GPa)
#
#
# Indices 1 2 3 4 5 6 
#
# 1 0.011223 -0.006404 -0.003100 0.000000 0.000000 0.000000
# 2 -0.006404 0.018653 -0.004614 0.000000 0.000000 0.000000
# 3 -0.003100 -0.004614 0.011990 0.000000 0.000000 0.000000
# 4 0.000000 0.000000 0.000000 0.036234 0.000000 0.000000
# 5 0.000000 0.000000 0.000000 0.000000 0.040513 0.000000
# 6 0.000000 0.000000 0.000000 0.000000 0.000000 0.082972
#
#
# Mechanical properties :
#
#
# Convention : Reuss Voigt Hill
#
# Bulk Modulus (GPa) = 73.36231 78.08754 75.72492
# Shear Modulus (GPa) = 21.33434 24.42019 22.87727
#
# Velocity S-wave (km/s) = 3.37948 3.61563 3.49955
# Velocity P-wave (km/s) = 7.38246 7.69628 7.54100
#
# Compressibility (1/GPa) = 0.01363098
#
# Stress axis : x y z
#
# Youngs Moduli (GPa) = 89.10599 53.60973 83.40043
#
# Poissons Ratio (x) = 0.34329 0.25857
# Poissons Ratio (y) = 0.57059 0.38479
# Poissons Ratio (z) = 0.27626 0.24734
#
# Static dielectric constant tensor:
#      x y z
#    x 1.602760 0.000000 0.000000 
#    y 0.000000 1.757580 0.000000 
#    z 0.000000 0.000000 1.810350 
# 
# From -- ./inp_files/1232.got.cif
#   From: 2010.05.17/outbox.cif.g08.bks.cpg/sg17_1_cif.got.tgz:1232.got - 2010.06.03 22:34:06.
