data_PCOD9310853
_publ_section_title
;
Structure prediction by ZEFSAII (Michael W. Deem and Ramdas Pophale) SiO2 
 PCOD9310853
Probable space group: P 2 2 21
;
_chemical_formula_sum "Si O2"
_cell_formula_units_Z 20
_cell_length_a 7.222789
_cell_length_b 5.945670
_cell_length_c 22.355862
_cell_angle_alpha 90.000000
_cell_angle_beta 90.000000
_cell_angle_gamma 90.000000
_cell_volume 960.057289
_symmetry_space_group_name_H-M "P 2 2 21"
_symmetry_group_IT_number 17
_symmetry_cell_setting 'orthorhombic'
loop_
_space_group_symop_operation_xyz
x,y,z
-x,-y,1/2+z
x,-y,-z
-x,y,1/2-z
loop_
_atom_site_type_symbol
_atom_site_label
_atom_site_fract_x
_atom_site_fract_y
_atom_site_fract_z
Si Si1 0.473851 0.405571 0.859623
Si Si2 0.937534 0.745559 0.386540
Si Si3 0.060665 0.000000 0.500000
Si Si4 0.500000 0.748626 0.750000
Si Si5 0.775714 0.642925 0.921489
Si Si6 0.238090 0.023739 0.680436
O O1 0.270256 0.322012 0.873481
O O2 0.467979 0.589685 0.806869
O O3 0.581358 0.514774 0.915808
O O4 0.605276 0.203297 0.837918
O O5 0.947224 0.921213 0.441897
O O6 0.059445 0.530569 0.406902
O O7 0.043599 0.849035 0.328666
O O8 0.183839 0.786735 0.519638
O O9 0.318805 0.903361 0.739008
O O10 0.770986 0.827386 0.868780
#
# Coordination Sequence:
#
# PCOD9310853 Si02
#       6
#     4   4   2   2   4   4
#     4  10  21  40  62  87 121 157 202 251 298 358
#     4  10  21  40  61  87 120 156 201 250 295 357
#     4  10  20  38  60  86 124 160 194 242 306 360
#     4  10  20  38  60  86 122 160 194 244 308 360
#     4   9  20  39  59  84 120 156 194 245 293 351
#     4   9  20  39  59  83 118 154 194 243 292 353
#
# _framework density 20.832090000000001
#
# number of rings (size 3 to 8) (size 9 to 14) (size 15 to 20)
#    0.000    2.400    0.000    1.200    0.000    6.400 
#    0.000   48.000    0.000    0.000    0.000    0.000 
#    0.000    0.000    0.000    0.000    0.000    0.000 
#
# Total GULP energy -111610.759459 kJ/mol
# GULP energy per Si atom -5580.537973 kJ/mol
# Density = 2.078468 g / cm^3
# Si number density = 20.832090 Si / 1000 Ang^3
#
#
#
# Elastic Constant Matrix: (Units=GPa)
#
#
# Indices 1 2 3 4 5 6 
#
# 1 181.2770 55.5629 34.4210 0.0000 0.0000 0.0000
# 2 55.5629 100.8654 22.4117 0.0000 0.0000 0.0000
# 3 34.4210 22.4117 56.8998 0.0000 0.0000 0.0000
# 4 0.0000 0.0000 0.0000 45.3771 0.0000 0.0000
# 5 0.0000 0.0000 0.0000 0.0000 17.0406 0.0000
# 6 0.0000 0.0000 0.0000 0.0000 0.0000 20.6540
#
#
#
# Elastic Compliance Matrix: (Units=1/GPa)
#
#
# Indices 1 2 3 4 5 6 
#
# 1 0.007078 -0.003230 -0.003009 0.000000 0.000000 0.000000
# 2 -0.003230 0.012339 -0.002906 0.000000 0.000000 0.000000
# 3 -0.003009 -0.002906 0.020540 0.000000 0.000000 0.000000
# 4 0.000000 0.000000 0.000000 0.022038 0.000000 0.000000
# 5 0.000000 0.000000 0.000000 0.000000 0.058683 0.000000
# 6 0.000000 0.000000 0.000000 0.000000 0.000000 0.048417
#
#
# Mechanical properties :
#
#
# Convention : Reuss Voigt Hill
#
# Bulk Modulus (GPa) = 46.15599 62.64816 54.40207
# Shear Modulus (GPa) = 25.69264 31.72413 28.70838
#
# Velocity S-wave (km/s) = 3.51568 3.90660 3.71628
# Velocity P-wave (km/s) = 6.21967 7.10542 6.67724
#
# Compressibility (1/GPa) = 0.02166566
#
# Stress axis : x y z
#
# Youngs Moduli (GPa) = 141.28368 81.04141 48.68572
#
# Poissons Ratio (x) = 0.26179 0.14651
# Poissons Ratio (y) = 0.45639 0.14149
# Poissons Ratio (z) = 0.42518 0.23551
#
# Static dielectric constant tensor:
#      x y z
#    x 1.714980 0.000000 0.000000 
#    y 0.000000 1.771290 0.000000 
#    z 0.000000 0.000000 1.793290 
# 
# From -- ./inp_files/10760.got.cif
#   From: 2010.05.17/outbox.cif.g08.bks.cpg/sg17_6_cif.got.tgz:10760.got - 2010.06.03 22:34:06.
