data_PCOD9310569
_publ_section_title
;
Structure prediction by ZEFSAII (Michael W. Deem and Ramdas Pophale) SiO2 
 PCOD9310569
Probable space group: P 2 2 21
;
_chemical_formula_sum "Si O2"
_cell_formula_units_Z 18
_cell_length_a 7.707510
_cell_length_b 8.290541
_cell_length_c 12.464178
_cell_angle_alpha 90.000000
_cell_angle_beta 90.000000
_cell_angle_gamma 90.000000
_cell_volume 796.453840
_symmetry_space_group_name_H-M "P 2 2 21"
_symmetry_group_IT_number 17
_symmetry_cell_setting 'orthorhombic'
loop_
_space_group_symop_operation_xyz
x,y,z
-x,-y,1/2+z
x,-y,-z
-x,y,1/2-z
loop_
_atom_site_type_symbol
_atom_site_label
_atom_site_fract_x
_atom_site_fract_y
_atom_site_fract_z
Si Si1 0.740836 0.665080 0.052342
Si Si2 0.316601 0.853452 0.250239
Si Si3 0.872872 0.905749 0.903459
Si Si4 0.152328 0.395993 0.898013
Si Si5 0.000000 0.635937 0.750000
O O1 0.651187 0.712969 0.162055
O O2 0.948252 0.644237 0.078028
O O3 0.681148 0.500000 0.000000
O O4 0.721500 0.815657 0.971100
O O5 0.500000 0.943381 0.250000
O O6 0.245331 0.766495 0.143771
O O7 0.182334 0.972266 0.309913
O O8 0.961513 0.754240 0.847898
O O9 0.969369 0.000000 0.000000
O O10 0.146193 0.517944 0.796503
O O11 0.217555 0.500000 0.000000
#
# Coordination Sequence:
#
# PCOD9310569 Si02
#       5
#     4   4   4   4   2
#     4  10  18  41  67  88 117 160 221 263 306 360
#     4  11  24  40  59  90 137 171 196 249 322 388
#     4  10  23  36  62  92 125 163 198 256 324 358
#     4  11  21  39  67  98 116 157 225 268 300 359
#     4  12  20  36  66  96 114 154 214 274 308 346
#
# _framework density 22.600179000000001
#
# number of rings (size 3 to 8) (size 9 to 14) (size 15 to 20)
#    0.000    1.333    6.667    0.000    6.222    0.889 
#    0.000   11.111    0.000    0.000    0.000    0.000 
#    0.000    0.000    0.000    0.000    0.000    0.000 
#
# Total GULP energy -100286.651758 kJ/mol
# GULP energy per Si atom -5571.480653 kJ/mol
# Density = 2.254874 g / cm^3
# Si number density = 22.600179 Si / 1000 Ang^3
#
#
#
# Elastic Constant Matrix: (Units=GPa)
#
#
# Indices 1 2 3 4 5 6 
#
# 1 47.7997 4.1509 11.3083 0.0000 0.0000 0.0000
# 2 4.1509 104.7570 29.4975 0.0000 0.0000 0.0000
# 3 11.3083 29.4975 96.2417 0.0000 0.0000 0.0000
# 4 0.0000 0.0000 0.0000 68.1684 0.0000 0.0000
# 5 0.0000 0.0000 0.0000 0.0000 11.9984 0.0000
# 6 0.0000 0.0000 0.0000 0.0000 0.0000 1.9592
#
#
#
# Elastic Compliance Matrix: (Units=1/GPa)
#
#
# Indices 1 2 3 4 5 6 
#
# 1 0.021521 -0.000154 -0.002482 0.000000 0.000000 0.000000
# 2 -0.000154 0.010449 -0.003184 0.000000 0.000000 0.000000
# 3 -0.002482 -0.003184 0.011658 0.000000 0.000000 0.000000
# 4 0.000000 0.000000 0.000000 0.014670 0.000000 0.000000
# 5 0.000000 0.000000 0.000000 0.000000 0.083345 0.000000
# 6 0.000000 0.000000 0.000000 0.000000 0.000000 0.510410
#
#
# Mechanical properties :
#
#
# Convention : Reuss Voigt Hill
#
# Bulk Modulus (GPa) = 31.26164 37.63463 34.44813
# Shear Modulus (GPa) = 7.41449 30.01464 18.71457
#
# Velocity S-wave (km/s) = 1.81324 3.64822 2.88075
# Velocity P-wave (km/s) = 4.27157 5.86810 5.13229
#
# Compressibility (1/GPa) = 0.03198809
#
# Stress axis : x y z
#
# Youngs Moduli (GPa) = 46.46604 95.70607 85.77749
#
# Poissons Ratio (x) = 0.01474 0.21286
# Poissons Ratio (y) = 0.00716 0.27315
# Poissons Ratio (z) = 0.11531 0.30476
#
# Static dielectric constant tensor:
#      x y z
#    x 1.852540 0.000000 0.000000 
#    y 0.000000 1.883740 0.000000 
#    z 0.000000 0.000000 1.951370 
# 
# From -- ./inp_files/6386.got.cif
#   From: 2010.05.17/outbox.cif.g08.bks.cpg/sg17_4_cif.got.tgz:6386.got - 2010.06.03 22:34:06.
