data_PCOD9310784
_publ_section_title
;
Structure prediction by ZEFSAII (Michael W. Deem and Ramdas Pophale) SiO2 
 PCOD9310784
Probable space group: P 2 2 21
;
_chemical_formula_sum "Si O2"
_cell_formula_units_Z 32
_cell_length_a 12.237236
_cell_length_b 13.868496
_cell_length_c 8.058403
_cell_angle_alpha 90.000000
_cell_angle_beta 90.000000
_cell_angle_gamma 90.000000
_cell_volume 1367.608161
_symmetry_space_group_name_H-M "P 2 2 21"
_symmetry_group_IT_number 17
_symmetry_cell_setting 'orthorhombic'
loop_
_space_group_symop_operation_xyz
x,y,z
-x,-y,1/2+z
x,-y,-z
-x,y,1/2-z
loop_
_atom_site_type_symbol
_atom_site_label
_atom_site_fract_x
_atom_site_fract_y
_atom_site_fract_z
Si Si1 0.390430 0.468425 0.194484
Si Si2 0.838052 0.128076 0.364614
Si Si3 0.058811 0.833162 0.513039
Si Si4 0.009351 0.606546 0.448502
Si Si5 0.225137 0.339779 0.061809
Si Si6 0.373532 0.676965 0.266794
Si Si7 0.630629 0.038605 0.244860
Si Si8 0.714324 0.140674 0.909451
O O1 0.500000 0.416256 0.250000
O O2 0.287279 0.401781 0.197212
O O3 0.377484 0.563490 0.305008
O O4 0.400885 0.500000 0.000000
O O5 0.895089 0.121451 0.184533
O O6 0.804709 0.238557 0.367110
O O7 0.722652 0.073848 0.374874
O O8 0.936386 0.123633 0.499738
O O9 0.154814 0.864544 0.388773
O O10 0.053273 0.713985 0.508668
O O11 0.057337 0.500000 0.500000
O O12 0.885123 0.607353 0.512487
O O13 0.000000 0.611539 0.250000
O O14 0.303256 0.320340 0.902983
O O15 0.500000 0.706479 0.250000
O O16 0.317969 0.748423 0.394264
O O17 0.500000 0.055555 0.250000
O O18 0.652416 0.924739 0.224281
O O19 0.672276 0.095052 0.080692
#
# Coordination Sequence:
#
# PCOD9310784 Si02
#       8
#     4   4   4   4   4   4   4   4
#     4   9  19  38  57  85 129 174 218 265 324 387
#     4   9  20  39  65  91 128 167 215 272 322 398
#     4   9  20  41  64  87 130 171 216 261 328 384
#     4  11  23  37  66  94 132 173 224 271 326 393
#     4  10  21  38  62  89 130 172 217 269 326 382
#     4  10  20  35  59  86 124 165 207 269 324 379
#     4  10  22  40  68  97 124 163 216 273 346 402
#     4  10  21  41  67  89 128 163 210 274 325 404
#
# _framework density 23.398515
#
# number of rings (size 3 to 8) (size 9 to 14) (size 15 to 20)
#    0.000    2.250    0.000    2.250    5.250    0.500 
#   11.250    0.000   52.250    0.000    0.000    0.000 
#    0.000    0.000    0.000    0.000    0.000    0.000 
#
# Total GULP energy -178365.292792 kJ/mol
# GULP energy per Si atom -5573.915400 kJ/mol
# Density = 2.334526 g / cm^3
# Si number density = 23.398515 Si / 1000 Ang^3
#
#
#
# Elastic Constant Matrix: (Units=GPa)
#
#
# Indices 1 2 3 4 5 6 
#
# 1 186.9826 49.7267 13.3529 0.0000 0.0000 0.0000
# 2 49.7267 81.2305 21.3006 0.0000 0.0000 0.0000
# 3 13.3529 21.3006 31.2028 0.0000 0.0000 0.0000
# 4 0.0000 0.0000 0.0000 29.7884 0.0000 0.0000
# 5 0.0000 0.0000 0.0000 0.0000 17.8739 0.0000
# 6 0.0000 0.0000 0.0000 0.0000 0.0000 30.6173
#
#
#
# Elastic Compliance Matrix: (Units=1/GPa)
#
#
# Indices 1 2 3 4 5 6 
#
# 1 0.006388 -0.003890 -0.000078 0.000000 0.000000 0.000000
# 2 -0.003890 0.017364 -0.010189 0.000000 0.000000 0.000000
# 3 -0.000078 -0.010189 0.039037 0.000000 0.000000 0.000000
# 4 0.000000 0.000000 0.000000 0.033570 0.000000 0.000000
# 5 0.000000 0.000000 0.000000 0.000000 0.055948 0.000000
# 6 0.000000 0.000000 0.000000 0.000000 0.000000 0.032661
#
#
# Mechanical properties :
#
#
# Convention : Reuss Voigt Hill
#
# Bulk Modulus (GPa) = 29.00631 52.01958 40.51295
# Shear Modulus (GPa) = 22.24459 29.99164 26.11812
#
# Velocity S-wave (km/s) = 3.08666 3.58407 3.34463
# Velocity P-wave (km/s) = 5.01267 6.27756 5.68043
#
# Compressibility (1/GPa) = 0.03447526
#
# Stress axis : x y z
#
# Youngs Moduli (GPa) = 156.53775 57.59110 25.61661
#
# Poissons Ratio (x) = 0.22404 0.00200
# Poissons Ratio (y) = 0.60896 0.26100
# Poissons Ratio (z) = 0.01223 0.58678
#
# Static dielectric constant tensor:
#      x y z
#    x 1.904740 0.000000 0.000000 
#    y 0.000000 1.903700 0.000000 
#    z 0.000000 0.000000 1.931380 
# 
# From -- ./inp_files/4963.got.cif
#   From: 2010.05.17/outbox.cif.g08.bks.cpg/sg17_3_cif.got.tgz:4963.got - 2010.06.03 22:34:06.
