data_PCOD9310913
_publ_section_title
;
Structure prediction by ZEFSAII (Michael W. Deem and Ramdas Pophale) SiO2 
 PCOD9310913
Probable space group: P 2 2 21
;
_chemical_formula_sum "Si O2"
_cell_formula_units_Z 30
_cell_length_a 8.629492
_cell_length_b 5.115608
_cell_length_c 26.844440
_cell_angle_alpha 90.000000
_cell_angle_beta 90.000000
_cell_angle_gamma 90.000000
_cell_volume 1185.050443
_symmetry_space_group_name_H-M "P 2 2 21"
_symmetry_group_IT_number 17
_symmetry_cell_setting 'orthorhombic'
loop_
_space_group_symop_operation_xyz
x,y,z
-x,-y,1/2+z
x,-y,-z
-x,y,1/2-z
loop_
_atom_site_type_symbol
_atom_site_label
_atom_site_fract_x
_atom_site_fract_y
_atom_site_fract_z
Si Si1 0.083634 0.000000 0.000000
Si Si2 0.388307 0.475864 0.840760
Si Si3 0.669360 0.251060 0.191034
Si Si4 0.690808 0.856070 0.571685
Si Si5 0.095996 0.268107 0.867606
Si Si6 0.881375 0.629318 0.054567
Si Si7 0.859796 0.778344 0.211916
Si Si8 0.600909 0.091265 0.897259
O O1 0.205315 0.202981 0.023721
O O2 0.967847 0.899600 0.041413
O O3 0.214883 0.394047 0.827214
O O4 0.501920 0.238626 0.854393
O O5 0.488749 0.661989 0.805636
O O6 0.351626 0.616792 0.893276
O O7 0.735562 0.006729 0.221935
O O8 0.675827 0.150384 0.132944
O O9 0.774597 0.503350 0.202189
O O10 0.792275 0.064718 0.603764
O O11 0.524421 0.990503 0.562971
O O12 0.007096 0.471845 0.904796
O O13 0.953117 0.142944 0.838525
O O14 0.719558 0.707378 0.078543
O O15 0.868532 0.500000 0.000000
O O16 0.000000 0.763436 0.250000
#
# Coordination Sequence:
#
# PCOD9310913 Si02
#       8
#     2   4   4   4   4   4   4   4
#     4  10  22  36  50  90 134 176 228 292 334 412
#     4  10  20  39  70  90 131 180 227 279 346 412
#     4  11  22  45  69  98 138 175 224 280 344 416
#     4   9  21  37  61  88 131 180 228 282 345 411
#     4  10  22  41  65  99 132 180 232 279 354 415
#     4  11  22  37  60  95 135 177 233 292 348 409
#     4  12  26  45  75 103 139 177 229 289 354 422
#     4  10  21  39  63  95 127 187 228 286 346 417
#
# _framework density 25.315379
#
# number of rings (size 3 to 8) (size 9 to 14) (size 15 to 20)
#    0.000    1.600    2.667    1.200    1.867    4.800 
#    0.000    2.000    5.867    0.000    0.000    0.000 
#    0.000    0.000    0.000    0.000    0.000    0.000 
#
# Total GULP energy -167388.378933 kJ/mol
# GULP energy per Si atom -5579.612631 kJ/mol
# Density = 2.525776 g / cm^3
# Si number density = 25.315379 Si / 1000 Ang^3
#
#
#
# Elastic Constant Matrix: (Units=GPa)
#
#
# Indices 1 2 3 4 5 6 
#
# 1 117.7448 37.3213 19.9936 0.0000 0.0000 0.0000
# 2 37.3213 101.5295 4.1809 0.0000 0.0000 0.0000
# 3 19.9936 4.1809 52.3569 0.0000 0.0000 0.0000
# 4 0.0000 0.0000 0.0000 21.0730 0.0000 0.0000
# 5 0.0000 0.0000 0.0000 0.0000 34.7579 0.0000
# 6 0.0000 0.0000 0.0000 0.0000 0.0000 30.7362
#
#
#
# Elastic Compliance Matrix: (Units=1/GPa)
#
#
# Indices 1 2 3 4 5 6 
#
# 1 0.010257 -0.003621 -0.003628 0.000000 0.000000 0.000000
# 2 -0.003621 0.011160 0.000492 0.000000 0.000000 0.000000
# 3 -0.003628 0.000492 0.020446 0.000000 0.000000 0.000000
# 4 0.000000 0.000000 0.000000 0.047454 0.000000 0.000000
# 5 0.000000 0.000000 0.000000 0.000000 0.028770 0.000000
# 6 0.000000 0.000000 0.000000 0.000000 0.000000 0.032535
#
#
# Mechanical properties :
#
#
# Convention : Reuss Voigt Hill
#
# Bulk Modulus (GPa) = 35.27509 43.84698 39.56104
# Shear Modulus (GPa) = 28.80430 31.32244 30.06337
#
# Velocity S-wave (km/s) = 3.37682 3.52133 3.44983
# Velocity P-wave (km/s) = 5.40077 5.82159 5.61512
#
# Compressibility (1/GPa) = 0.02834861
#
# Stress axis : x y z
#
# Youngs Moduli (GPa) = 97.49802 89.60486 48.91001
#
# Poissons Ratio (x) = 0.32445 0.17742
# Poissons Ratio (y) = 0.35303 -0.02404
# Poissons Ratio (z) = 0.35368 -0.04404
#
# Static dielectric constant tensor:
#      x y z
#    x 1.972080 0.000000 0.000000 
#    y 0.000000 2.052840 0.000000 
#    z 0.000000 0.000000 2.143270 
# 
# From -- ./inp_files/11227.got.cif
#   From: 2010.05.17/outbox.cif.g08.bks.cpg/sg17_6_cif.got.tgz:11227.got - 2010.06.03 22:34:06.
