data_PCOD9310849
_publ_section_title
;
Structure prediction by ZEFSAII (Michael W. Deem and Ramdas Pophale) SiO2 
 PCOD9310849
Probable space group: P 2 2 21
;
_chemical_formula_sum "Si O2"
_cell_formula_units_Z 32
_cell_length_a 14.642068
_cell_length_b 13.121905
_cell_length_c 8.657208
_cell_angle_alpha 90.000000
_cell_angle_beta 90.000000
_cell_angle_gamma 90.000000
_cell_volume 1663.325175
_symmetry_space_group_name_H-M "P 2 2 21"
_symmetry_group_IT_number 17
_symmetry_cell_setting 'orthorhombic'
loop_
_space_group_symop_operation_xyz
x,y,z
-x,-y,1/2+z
x,-y,-z
-x,y,1/2-z
loop_
_atom_site_type_symbol
_atom_site_label
_atom_site_fract_x
_atom_site_fract_y
_atom_site_fract_z
Si Si1 0.860033 0.735887 0.860606
Si Si2 0.799139 0.094949 0.594668
Si Si3 0.100471 0.962418 0.673581
Si Si4 0.857645 0.386088 0.454560
Si Si5 0.494063 0.390284 0.933492
Si Si6 0.031512 0.218218 0.920245
Si Si7 0.298484 0.618924 0.456553
Si Si8 0.691732 0.696299 0.395764
O O1 0.847516 0.853888 0.813259
O O2 0.880576 0.662751 0.712888
O O3 0.774981 0.687494 0.952563
O O4 0.947612 0.751317 0.971902
O O5 0.895241 0.135240 0.520988
O O6 0.731895 0.189731 0.609165
O O7 0.761429 0.000000 0.500000
O O8 0.834411 0.047865 0.753611
O O9 0.000000 0.953895 0.750000
O O10 0.084427 0.000000 0.500000
O O11 0.881499 0.500000 0.500000
O O12 0.906915 0.318607 0.584757
O O13 0.750826 0.366562 0.480509
O O14 0.500000 0.405039 0.750000
O O15 0.594421 0.361809 0.996444
O O16 0.412764 0.309865 0.949515
O O17 0.467186 0.500000 0.000000
O O18 0.000000 0.189521 0.750000
O O19 0.280804 0.500000 0.500000
O O20 0.293513 0.644131 0.272891
#
# Coordination Sequence:
#
# PCOD9310849 Si02
#       8
#     4   4   4   4   4   4   4   4
#     4  12  23  37  56  84 118 150 195 245 286 342
#     4  11  22  38  58  82 112 150 198 241 291 343
#     4  12  22  35  57  82 112 152 195 246 291 335
#     4  11  23  36  53  81 115 154 189 230 288 349
#     4   9  19  36  62  89 114 145 184 230 284 344
#     4  11  23  38  56  81 113 153 197 243 290 344
#     4  10  21  38  60  87 115 150 189 231 286 350
#     4  10  20  38  59  82 114 148 188 238 289 345
#
# _framework density 19.238572999999999
#
# number of rings (size 3 to 8) (size 9 to 14) (size 15 to 20)
#    0.000    1.250    0.000    9.000    0.000    3.500 
#    0.000    0.000    0.000    5.250    0.000    0.000 
#    0.000    0.000    0.000    0.000    0.000    0.000 
#
# Total GULP energy -178528.216737 kJ/mol
# GULP energy per Si atom -5579.006773 kJ/mol
# Density = 1.919479 g / cm^3
# Si number density = 19.238573 Si / 1000 Ang^3
#
#
#
# Elastic Constant Matrix: (Units=GPa)
#
#
# Indices 1 2 3 4 5 6 
#
# 1 119.4744 58.6427 32.4256 0.0000 0.0000 0.0000
# 2 58.6427 128.9411 22.8228 0.0000 0.0000 0.0000
# 3 32.4256 22.8228 69.0350 0.0000 0.0000 0.0000
# 4 0.0000 0.0000 0.0000 33.6193 0.0000 0.0000
# 5 0.0000 0.0000 0.0000 0.0000 22.6836 0.0000
# 6 0.0000 0.0000 0.0000 0.0000 0.0000 31.3408
#
#
#
# Elastic Compliance Matrix: (Units=1/GPa)
#
#
# Indices 1 2 3 4 5 6 
#
# 1 0.011720 -0.004627 -0.003975 0.000000 0.000000 0.000000
# 2 -0.004627 0.010064 -0.001154 0.000000 0.000000 0.000000
# 3 -0.003975 -0.001154 0.016734 0.000000 0.000000 0.000000
# 4 0.000000 0.000000 0.000000 0.029745 0.000000 0.000000
# 5 0.000000 0.000000 0.000000 0.000000 0.044085 0.000000
# 6 0.000000 0.000000 0.000000 0.000000 0.000000 0.031907
#
#
# Mechanical properties :
#
#
# Convention : Reuss Voigt Hill
#
# Bulk Modulus (GPa) = 52.61454 60.58143 56.59798
# Shear Modulus (GPa) = 29.39421 31.09936 30.24678
#
# Velocity S-wave (km/s) = 3.91305 4.02495 3.96939
# Velocity P-wave (km/s) = 6.91547 7.29097 7.10570
#
# Compressibility (1/GPa) = 0.01900615
#
# Stress axis : x y z
#
# Youngs Moduli (GPa) = 85.32585 99.36488 59.75826
#
# Poissons Ratio (x) = 0.45972 0.23755
# Poissons Ratio (y) = 0.39477 0.06896
# Poissons Ratio (z) = 0.33919 0.11467
#
# Static dielectric constant tensor:
#      x y z
#    x 1.692150 0.000000 0.000000 
#    y 0.000000 1.691320 0.000000 
#    z 0.000000 0.000000 1.727640 
# 
# From -- ./inp_files/5294.got.cif
#   From: 2010.05.17/outbox.cif.g08.bks.cpg/sg17_3_cif.got.tgz:5294.got - 2010.06.03 22:34:06.
