data_PCOD9310279
_publ_section_title
;
Structure prediction by ZEFSAII (Michael W. Deem and Ramdas Pophale) SiO2 
 PCOD9310279
Probable space group: P 2 2 2
;
_chemical_formula_sum "Si O2"
_cell_formula_units_Z 19
_cell_length_a 8.669303
_cell_length_b 17.313566
_cell_length_c 4.955740
_cell_angle_alpha 90.000000
_cell_angle_beta 90.000000
_cell_angle_gamma 90.000000
_cell_volume 743.839475
_symmetry_space_group_name_H-M "P 2 2 2"
_symmetry_group_IT_number 16
_symmetry_cell_setting 'orthorhombic'
loop_
_space_group_symop_operation_xyz
x,y,z
-x,-y,z
x,-y,-z
-x,y,-z
loop_
_atom_site_type_symbol
_atom_site_label
_atom_site_fract_x
_atom_site_fract_y
_atom_site_fract_z
Si Si1 0.252319 0.293400 0.200534
Si Si2 0.740210 0.394617 0.303744
Si Si3 0.754752 0.081659 0.349104
Si Si4 0.500000 0.185879 0.500000
Si Si5 0.000000 0.500000 0.500000
Si Si6 0.000000 0.000000 0.000000
Si Si7 0.500000 0.500000 0.000000
Si Si8 0.000000 0.206948 0.500000
O O1 0.280569 0.367844 0.388884
O O2 0.388331 0.236635 0.308054
O O3 0.081561 0.262844 0.281300
O O4 0.256621 0.318700 0.889156
O O5 0.894297 0.445378 0.314178
O O6 0.606186 0.446891 0.186920
O O7 0.597539 0.127306 0.309605
O O8 0.859233 0.146424 0.487873
O O9 0.728312 0.000000 0.500000
O O10 0.874777 0.058046 0.121845
#
# Coordination Sequence:
#
# PCOD9310279 Si02
#       8
#     4   4   4   2   1   1   1   2
#     4  11  26  47  72 111 157 205 256 329 388 493
#     4  12  28  51  77 115 158 200 266 321 403 466
#     4  11  22  47  70 109 153 198 265 331 388 473
#     4  10  25  48  74 109 156 214 266 326 414 475
#     4  12  30  52  88 124 152 212 270 342 392 490
#     4  12  22  40  82 106 148 202 258 338 400 448
#     4  12  28  48  80 106 156 208 246 326 400 476
#     4  10  22  42  72 100 150 204 252 316 406 462
#
# _framework density 25.543146
#
# number of rings (size 3 to 8) (size 9 to 14) (size 15 to 20)
#    0.000    0.842    2.105    3.474    0.000   14.316 
#    3.789    1.053    0.000    0.000    0.000    0.000 
#    0.000    0.000    0.000    0.000    0.000    0.000 
#
# Total GULP energy -106141.438280 kJ/mol
# GULP energy per Si atom -5586.391488 kJ/mol
# Density = 2.548501 g / cm^3
# Si number density = 25.543146 Si / 1000 Ang^3
#
#
#
# Elastic Constant Matrix: (Units=GPa)
#
#
# Indices 1 2 3 4 5 6 
#
# 1 161.0860 78.5276 28.3811 0.0000 0.0000 0.0000
# 2 78.5276 119.0668 16.8131 0.0000 0.0000 0.0000
# 3 28.3811 16.8131 65.5649 0.0000 0.0000 0.0000
# 4 0.0000 0.0000 0.0000 26.1745 0.0000 0.0000
# 5 0.0000 0.0000 0.0000 0.0000 49.0885 0.0000
# 6 0.0000 0.0000 0.0000 0.0000 0.0000 59.1012
#
#
#
# Elastic Compliance Matrix: (Units=1/GPa)
#
#
# Indices 1 2 3 4 5 6 
#
# 1 0.009564 -0.005938 -0.002617 0.000000 0.000000 0.000000
# 2 -0.005938 0.012401 -0.000610 0.000000 0.000000 0.000000
# 3 -0.002617 -0.000610 0.016541 0.000000 0.000000 0.000000
# 4 0.000000 0.000000 0.000000 0.038205 0.000000 0.000000
# 5 0.000000 0.000000 0.000000 0.000000 0.020371 0.000000
# 6 0.000000 0.000000 0.000000 0.000000 0.000000 0.016920
#
#
# Mechanical properties :
#
#
# Convention : Reuss Voigt Hill
#
# Bulk Modulus (GPa) = 49.56280 65.90679 57.73480
# Shear Modulus (GPa) = 35.95640 41.67258 38.81449
#
# Velocity S-wave (km/s) = 3.75597 4.04351 3.90239
# Velocity P-wave (km/s) = 6.18510 6.90349 6.55414
#
# Compressibility (1/GPa) = 0.02017642
#
# Stress axis : x y z
#
# Youngs Moduli (GPa) = 104.56286 80.63905 60.45483
#
# Poissons Ratio (x) = 0.47883 0.15822
# Poissons Ratio (y) = 0.62088 0.03686
# Poissons Ratio (z) = 0.27365 0.04916
#
# Static dielectric constant tensor:
#      x y z
#    x 2.027530 0.000000 0.000000 
#    y 0.000000 2.278410 0.000000 
#    z 0.000000 0.000000 2.092380 
# 
# From -- ./inp_files/934.got.cif
#   From: 2010.05.17/outbox.cif.g08.bks.cpg/sg16_1_cif.got.tgz:934.got - 2010.06.03 22:28:35.
