data_PCOD9310161
_publ_section_title
;
Structure prediction by ZEFSAII (Michael W. Deem and Ramdas Pophale) SiO2 
 PCOD9310161
Probable space group: P 2 2 2
;
_chemical_formula_sum "Si O2"
_cell_formula_units_Z 24
_cell_length_a 14.145833
_cell_length_b 9.346664
_cell_length_c 9.408907
_cell_angle_alpha 90.000000
_cell_angle_beta 90.000000
_cell_angle_gamma 90.000000
_cell_volume 1244.011323
_symmetry_space_group_name_H-M "P 2 2 2"
_symmetry_group_IT_number 16
_symmetry_cell_setting 'orthorhombic'
loop_
_space_group_symop_operation_xyz
x,y,z
-x,-y,z
x,-y,-z
-x,y,-z
loop_
_atom_site_type_symbol
_atom_site_label
_atom_site_fract_x
_atom_site_fract_y
_atom_site_fract_z
Si Si1 0.303229 0.333472 0.456419
Si Si2 0.407666 0.177091 0.226594
Si Si3 0.909841 0.652034 0.079927
Si Si4 0.623997 0.851463 0.711852
Si Si5 0.264463 0.837764 0.016481
Si Si6 0.911000 0.346455 0.580026
O O1 0.306656 0.500000 0.500000
O O2 0.357336 0.304838 0.310030
O O3 0.355957 0.234141 0.569634
O O4 0.193921 0.284586 0.441939
O O5 0.519953 0.188438 0.231342
O O6 0.361763 0.170621 0.071930
O O7 0.379226 0.024280 0.298481
O O8 0.814331 0.736592 0.048474
O O9 0.926192 0.638914 0.249838
O O10 0.899888 0.500000 0.000000
O O11 0.000000 0.721630 0.000000
O O12 0.706410 0.809728 0.822020
O O13 0.229762 0.000000 0.000000
O O14 0.905237 0.500000 0.500000
O O15 0.000000 0.273056 0.500000
#
# Coordination Sequence:
#
# PCOD9310161 Si02
#       6
#     4   4   4   4   4   4
#     4  11  23  36  59  89 119 152 193 245 293 344
#     4  10  20  42  57  87 114 158 202 236 287 350
#     4  11  23  38  65  91 116 154 198 237 290 358
#     4  10  22  36  65  81 117 160 198 237 286 351
#     4  10  22  39  61  88 119 151 195 248 291 339
#     4  10  21  38  60  85 120 152 192 236 289 347
#
# _framework density 19.292428999999998
#
# number of rings (size 3 to 8) (size 9 to 14) (size 15 to 20)
#    0.000    1.667    1.667    3.500    7.000    5.000 
#    0.000    0.000    0.000    5.000    0.000    0.000 
#    0.000    0.000    0.000    0.000    0.000    0.000 
#
# Total GULP energy -133867.199582 kJ/mol
# GULP energy per Si atom -5577.799983 kJ/mol
# Density = 1.924852 g / cm^3
# Si number density = 19.292429 Si / 1000 Ang^3
#
#
#
# Elastic Constant Matrix: (Units=GPa)
#
#
# Indices 1 2 3 4 5 6 
#
# 1 110.0227 25.1981 22.2924 0.0000 0.0000 0.0000
# 2 25.1981 24.9647 22.3621 0.0000 0.0000 0.0000
# 3 22.2924 22.3621 101.4823 0.0000 0.0000 0.0000
# 4 0.0000 0.0000 0.0000 16.2135 0.0000 0.0000
# 5 0.0000 0.0000 0.0000 0.0000 31.1972 0.0000
# 6 0.0000 0.0000 0.0000 0.0000 0.0000 15.2626
#
#
#
# Elastic Compliance Matrix: (Units=1/GPa)
#
#
# Indices 1 2 3 4 5 6 
#
# 1 0.011822 -0.011969 0.000040 0.000000 0.000000 0.000000
# 2 -0.011969 0.062025 -0.011038 0.000000 0.000000 0.000000
# 3 0.000040 -0.011038 0.012277 0.000000 0.000000 0.000000
# 4 0.000000 0.000000 0.000000 0.061677 0.000000 0.000000
# 5 0.000000 0.000000 0.000000 0.000000 0.032054 0.000000
# 6 0.000000 0.000000 0.000000 0.000000 0.000000 0.065519
#
#
# Mechanical properties :
#
#
# Convention : Reuss Voigt Hill
#
# Bulk Modulus (GPa) = 24.88127 41.79724 33.33926
# Shear Modulus (GPa) = 16.40933 23.64248 20.02591
#
# Velocity S-wave (km/s) = 2.91960 3.50448 3.22533
# Velocity P-wave (km/s) = 4.92852 6.17149 5.58469
#
# Compressibility (1/GPa) = 0.04019087
#
# Stress axis : x y z
#
# Youngs Moduli (GPa) = 84.58814 16.12263 81.45053
#
# Poissons Ratio (x) = 0.19297 -0.00329
# Poissons Ratio (y) = 1.01241 0.89907
# Poissons Ratio (z) = -0.00342 0.17797
#
# Static dielectric constant tensor:
#      x y z
#    x 1.698130 0.000000 0.000000 
#    y 0.000000 1.671110 0.000000 
#    z 0.000000 0.000000 1.669940 
# 
# From -- ./inp_files/5107.got.cif
#   From: 2010.05.17/outbox.cif.g08.bks.cpg/sg16_3_cif.got.tgz:5107.got - 2010.06.03 22:28:35.
