data_PCOD9310389
_publ_section_title
;
Structure prediction by ZEFSAII (Michael W. Deem and Ramdas Pophale) SiO2 
 PCOD9310389
Probable space group: P 2 2 2
;
_chemical_formula_sum "Si O2"
_cell_formula_units_Z 20
_cell_length_a 11.458665
_cell_length_b 8.020167
_cell_length_c 9.432222
_cell_angle_alpha 90.000000
_cell_angle_beta 90.000000
_cell_angle_gamma 90.000000
_cell_volume 866.825040
_symmetry_space_group_name_H-M "P 2 2 2"
_symmetry_group_IT_number 16
_symmetry_cell_setting 'orthorhombic'
loop_
_space_group_symop_operation_xyz
x,y,z
-x,-y,z
x,-y,-z
-x,y,-z
loop_
_atom_site_type_symbol
_atom_site_label
_atom_site_fract_x
_atom_site_fract_y
_atom_site_fract_z
Si Si1 0.880921 0.687468 0.063342
Si Si2 0.500000 0.000000 0.750920
Si Si3 0.733819 0.849038 0.840210
Si Si4 0.500000 0.241704 0.500000
Si Si5 0.760274 0.670677 0.564136
Si Si6 0.116191 0.114620 0.331249
O O1 0.895633 0.721060 0.230221
O O2 0.872747 0.500000 0.000000
O O3 0.776388 0.791562 0.992646
O O4 0.000000 0.762522 0.000000
O O5 0.400241 0.094416 0.836639
O O6 0.543660 0.135825 0.636112
O O7 0.768521 0.699261 0.731900
O O8 0.799502 0.999397 0.762294
O O9 0.380207 0.327259 0.544033
O O10 0.806616 0.500000 0.500000
O O11 0.824359 0.817476 0.475464
O O12 0.000000 0.000000 0.345528
#
# Coordination Sequence:
#
# PCOD9310389 Si02
#       6
#     4   2   4   2   4   4
#     4  11  24  44  67  95 133 174 218 270 334 394
#     4   9  18  36  65  96 130 165 223 270 310 377
#     4  11  22  41  69  97 129 174 221 268 319 392
#     4   9  17  36  64  96 132 172 214 264 326 388
#     4  11  23  40  66 101 137 172 215 274 331 383
#     4  12  24  43  66  97 132 172 220 270 320 391
#
# _framework density 23.072709
#
# number of rings (size 3 to 8) (size 9 to 14) (size 15 to 20)
#    0.000    1.200    4.000    2.700    0.000    1.600 
#    0.000    3.000    0.000    1.200    0.000    0.000 
#    0.000    0.000    0.000    0.000    0.000    0.000 
#
# Total GULP energy -111574.633780 kJ/mol
# GULP energy per Si atom -5578.731689 kJ/mol
# Density = 2.302019 g / cm^3
# Si number density = 23.072709 Si / 1000 Ang^3
#
#
#
# Elastic Constant Matrix: (Units=GPa)
#
#
# Indices 1 2 3 4 5 6 
#
# 1 92.5050 18.0218 35.7766 0.0000 0.0000 0.0000
# 2 18.0218 94.6075 23.9628 0.0000 0.0000 0.0000
# 3 35.7766 23.9628 130.7680 0.0000 0.0000 0.0000
# 4 0.0000 0.0000 0.0000 25.5352 0.0000 0.0000
# 5 0.0000 0.0000 0.0000 0.0000 17.0163 0.0000
# 6 0.0000 0.0000 0.0000 0.0000 0.0000 -0.8700
#
#
#
# Elastic Compliance Matrix: (Units=1/GPa)
#
#
# Indices 1 2 3 4 5 6 
#
# 1 0.012306 -0.001564 -0.003080 0.000000 0.000000 0.000000
# 2 -0.001564 0.011283 -0.001640 0.000000 0.000000 0.000000
# 3 -0.003080 -0.001640 0.008790 0.000000 0.000000 0.000000
# 4 0.000000 0.000000 0.000000 0.039162 0.000000 0.000000
# 5 0.000000 0.000000 0.000000 0.000000 0.058767 0.000000
# 6 0.000000 0.000000 0.000000 0.000000 0.000000 -1.149454
#
#
# Mechanical properties :
#
#
# Convention : Reuss Voigt Hill
#
# Bulk Modulus (GPa) = 50.47493 52.60032 51.53763
# Shear Modulus (GPa) = -5.00013 24.34426 9.67207
#
# Velocity S-wave (km/s) = -1.47371 3.25177 2.04966
# Velocity P-wave (km/s) = 4.36213 6.07831 5.29027
#
# Compressibility (1/GPa) = 0.01981181
#
# Stress axis : x y z
#
# Youngs Moduli (GPa) = 81.25972 88.62706 113.76154
#
# Poissons Ratio (x) = 0.13862 0.35041
# Poissons Ratio (y) = 0.12709 0.18654
# Poissons Ratio (z) = 0.25030 0.14532
#
# Static dielectric constant tensor:
#      x y z
#    x 1.902260 0.000000 0.000000 
#    y 0.000000 1.971940 0.000000 
#    z 0.000000 0.000000 1.935200 
# 
# From -- ./inp_files/4527.got.cif
#   From: 2010.05.17/outbox.cif.g08.bks.cpg/sg16_3_cif.got.tgz:4527.got - 2010.06.03 22:28:35.
