data_PCOD9310149
_publ_section_title
;
Structure prediction by ZEFSAII (Michael W. Deem and Ramdas Pophale) SiO2 
 PCOD9310149
Probable space group: P 2 2 2
;
_chemical_formula_sum "Si O2"
_cell_formula_units_Z 20
_cell_length_a 9.485907
_cell_length_b 5.401110
_cell_length_c 18.211082
_cell_angle_alpha 90.000000
_cell_angle_beta 90.000000
_cell_angle_gamma 90.000000
_cell_volume 933.034354
_symmetry_space_group_name_H-M "P 2 2 2"
_symmetry_group_IT_number 16
_symmetry_cell_setting 'orthorhombic'
loop_
_space_group_symop_operation_xyz
x,y,z
-x,-y,z
x,-y,-z
-x,y,-z
loop_
_atom_site_type_symbol
_atom_site_label
_atom_site_fract_x
_atom_site_fract_y
_atom_site_fract_z
Si Si1 0.157897 0.610327 0.223687
Si Si2 0.210719 0.084605 0.419971
Si Si3 0.000000 0.000000 0.301743
Si Si4 0.500000 0.000000 0.000000
Si Si5 0.749671 0.695236 0.934484
Si Si6 0.000000 0.000000 0.000000
Si Si7 0.662257 0.441584 0.365805
O O1 0.235237 0.587227 0.146457
O O2 0.253844 0.515603 0.289650
O O3 0.000000 0.500000 0.220241
O O4 0.118198 0.888103 0.248884
O O5 0.297016 0.839981 0.390754
O O6 0.161680 0.000000 0.500000
O O7 0.086569 0.154096 0.362487
O O8 0.295334 0.341190 0.422680
O O9 0.607092 0.848474 0.948095
O O10 0.749002 0.500000 0.000000
O O11 0.893014 0.848786 0.948725
O O12 0.500000 0.500000 0.351521
#
# Coordination Sequence:
#
# PCOD9310149 Si02
#       7
#     4   4   2   1   4   1   4
#     4  11  22  42  68  91 135 174 226 285 346 411
#     4  11  23  42  70  97 135 179 227 285 346 415
#     4  10  22  42  62 102 132 170 226 282 346 412
#     4  10  26  46  60 100 140 170 248 278 348 416
#     4  11  23  42  67  98 134 180 230 288 345 417
#     4  10  20  38  64 102 128 166 240 282 346 404
#     4  11  25  43  63 101 137 178 229 280 348 418
#
# _framework density 21.435438000000001
#
# number of rings (size 3 to 8) (size 9 to 14) (size 15 to 20)
#    0.000    1.200    2.000    3.900    0.000    5.600 
#    7.200    2.000    0.000    0.000    0.000    0.000 
#    0.000    0.000    0.000    0.000    0.000    0.000 
#
# Total GULP energy -111448.017528 kJ/mol
# GULP energy per Si atom -5572.400876 kJ/mol
# Density = 2.138665 g / cm^3
# Si number density = 21.435438 Si / 1000 Ang^3
#
#
#
# Elastic Constant Matrix: (Units=GPa)
#
#
# Indices 1 2 3 4 5 6 
#
# 1 120.7288 25.8552 27.0607 0.0000 0.0000 0.0000
# 2 25.8552 71.9301 27.6809 0.0000 0.0000 0.0000
# 3 27.0607 27.6809 136.5290 0.0000 0.0000 0.0000
# 4 0.0000 0.0000 0.0000 24.5460 0.0000 0.0000
# 5 0.0000 0.0000 0.0000 0.0000 23.4459 0.0000
# 6 0.0000 0.0000 0.0000 0.0000 0.0000 -6.5198
#
#
#
# Elastic Compliance Matrix: (Units=1/GPa)
#
#
# Indices 1 2 3 4 5 6 
#
# 1 0.009165 -0.002815 -0.001246 0.000000 0.000000 0.000000
# 2 -0.002815 0.015943 -0.002675 0.000000 0.000000 0.000000
# 3 -0.001246 -0.002675 0.008114 0.000000 0.000000 0.000000
# 4 0.000000 0.000000 0.000000 0.040740 0.000000 0.000000
# 5 0.000000 0.000000 0.000000 0.000000 0.042651 0.000000
# 6 0.000000 0.000000 0.000000 0.000000 0.000000 -0.153380
#
#
# Mechanical properties :
#
#
# Convention : Reuss Voigt Hill
#
# Bulk Modulus (GPa) = 50.62904 54.48685 52.55795
# Shear Modulus (GPa) = -299.18757 24.86717 -137.16020
#
# Velocity S-wave (km/s) = -11.82705 3.40971 -8.00790
# Velocity P-wave (km/s) = 12.76068 6.40123 7.80574
#
# Compressibility (1/GPa) = 0.01975151
#
# Stress axis : x y z
#
# Youngs Moduli (GPa) = 109.10923 62.72165 123.24916
#
# Poissons Ratio (x) = 0.17656 0.15355
# Poissons Ratio (y) = 0.30714 0.32964
# Poissons Ratio (z) = 0.13593 0.16775
#
# Static dielectric constant tensor:
#      x y z
#    x 1.756440 0.000000 0.000000 
#    y 0.000000 1.955220 0.000000 
#    z 0.000000 0.000000 1.784470 
# 
# From -- ./inp_files/8815.got.cif
#   From: 2010.05.17/outbox.cif.g08.bks.cpg/sg16_5_cif.got.tgz:8815.got - 2010.06.03 22:28:35.
