data_PCOD9310118
_publ_section_title
;
Structure prediction by ZEFSAII (Michael W. Deem and Ramdas Pophale) SiO2 
 PCOD9310118
Probable space group: P 2 2 2
;
_chemical_formula_sum "Si O2"
_cell_formula_units_Z 32
_cell_length_a 11.380699
_cell_length_b 8.460692
_cell_length_c 16.885276
_cell_angle_alpha 90.000000
_cell_angle_beta 90.000000
_cell_angle_gamma 90.000000
_cell_volume 1625.859401
_symmetry_space_group_name_H-M "P 2 2 2"
_symmetry_group_IT_number 16
_symmetry_cell_setting 'orthorhombic'
loop_
_space_group_symop_operation_xyz
x,y,z
-x,-y,z
x,-y,-z
-x,y,-z
loop_
_atom_site_type_symbol
_atom_site_label
_atom_site_fract_x
_atom_site_fract_y
_atom_site_fract_z
Si Si1 0.006304 0.188904 0.589265
Si Si2 0.226783 0.757534 0.686476
Si Si3 0.634225 0.453356 0.591598
Si Si4 0.124231 0.315356 0.866476
Si Si5 0.630403 0.044929 0.254107
Si Si6 0.842641 0.666356 0.137658
Si Si7 0.780095 0.309345 0.310454
Si Si8 0.266914 0.996903 0.088101
O O1 0.127836 0.233501 0.629768
O O2 0.000000 0.252129 0.500000
O O3 0.896207 0.246879 0.640603
O O4 0.000000 0.000000 0.586639
O O5 0.331194 0.719160 0.623008
O O6 0.205229 0.669951 0.771299
O O7 0.265564 0.931325 0.715518
O O8 0.500000 0.500000 0.609587
O O9 0.653124 0.500000 0.500000
O O10 0.730845 0.538978 0.645756
O O11 0.175440 0.486436 0.895672
O O12 0.155288 0.318049 0.773372
O O13 0.983303 0.313802 0.870155
O O14 0.176545 0.153337 0.903507
O O15 0.663501 0.211545 0.290522
O O16 0.500000 0.000000 0.277238
O O17 0.643117 0.037165 0.159180
O O18 0.788180 0.827259 0.101096
O O19 0.317018 0.000000 0.000000
#
# Coordination Sequence:
#
# PCOD9310118 Si02
#       8
#     4   4   4   4   4   4   4   4
#     4  11  22  35  57  89 123 156 195 256 319 362
#     4  11  20  38  60  84 118 154 200 250 297 358
#     4  11  24  39  55  81 120 162 204 252 298 346
#     4  10  20  35  59  88 120 158 194 238 295 361
#     4  10  22  39  64  87 108 154 205 245 296 354
#     4  10  20  35  59  88 120 158 194 238 295 361
#     4  11  20  38  60  84 118 154 200 250 297 358
#     4  10  23  39  60  88 121 155 193 243 301 361
#
# _framework density 19.681901
#
# number of rings (size 3 to 8) (size 9 to 14) (size 15 to 20)
#    0.000    1.500    3.750    1.875    0.000    2.250 
#    0.000    2.500    0.000    3.000    0.000    3.500 
#    0.000    0.000    0.000    0.000    0.000    0.000 
#
# Total GULP energy -178185.536180 kJ/mol
# GULP energy per Si atom -5568.298006 kJ/mol
# Density = 1.963710 g / cm^3
# Si number density = 19.681901 Si / 1000 Ang^3
#
#
#
# Elastic Constant Matrix: (Units=GPa)
#
#
# Indices 1 2 3 4 5 6 
#
# 1 56.7119 -3.4449 9.1112 0.0000 0.0000 0.0000
# 2 -3.4449 59.9244 11.3692 0.0000 0.0000 0.0000
# 3 9.1112 11.3692 96.7471 0.0000 0.0000 0.0000
# 4 0.0000 0.0000 0.0000 14.9728 0.0000 0.0000
# 5 0.0000 0.0000 0.0000 0.0000 -1.6339 0.0000
# 6 0.0000 0.0000 0.0000 0.0000 0.0000 20.8835
#
#
#
# Elastic Compliance Matrix: (Units=1/GPa)
#
#
# Indices 1 2 3 4 5 6 
#
# 1 0.018016 0.001389 -0.001860 0.000000 0.000000 0.000000
# 2 0.001389 0.017175 -0.002149 0.000000 0.000000 0.000000
# 3 -0.001860 -0.002149 0.010764 0.000000 0.000000 0.000000
# 4 0.000000 0.000000 0.000000 0.066788 0.000000 0.000000
# 5 0.000000 0.000000 0.000000 0.000000 -0.612022 0.000000
# 6 0.000000 0.000000 0.000000 0.000000 0.000000 0.047885
#
#
# Mechanical properties :
#
#
# Convention : Reuss Voigt Hill
#
# Bulk Modulus (GPa) = 24.56128 27.49495 26.02811
# Shear Modulus (GPa) = -11.55851 19.93433 4.18791
#
# Velocity S-wave (km/s) = -2.42599 3.18594 1.46028
# Velocity P-wave (km/s) = 2.15847 5.24725 4.01202
#
# Compressibility (1/GPa) = 0.04071449
#
# Stress axis : x y z
#
# Youngs Moduli (GPa) = 55.50586 58.22329 92.90287
#
# Poissons Ratio (x) = -0.08085 0.17279
# Poissons Ratio (y) = -0.07707 0.19966
# Poissons Ratio (z) = 0.10323 0.12513
#
# Static dielectric constant tensor:
#      x y z
#    x 1.639010 0.000000 0.000000 
#    y 0.000000 1.844550 0.000000 
#    z 0.000000 0.000000 1.707480 
# 
# From -- ./inp_files/4877.got.cif
#   From: 2010.05.17/outbox.cif.g08.bks.cpg/sg16_3_cif.got.tgz:4877.got - 2010.06.03 22:28:35.
