data_PCOD9310230
_publ_section_title
;
Structure prediction by ZEFSAII (Michael W. Deem and Ramdas Pophale) SiO2 
 PCOD9310230
Probable space group: P 2 2 2
;
_chemical_formula_sum "Si O2"
_cell_formula_units_Z 19
_cell_length_a 6.054813
_cell_length_b 16.849376
_cell_length_c 8.641012
_cell_angle_alpha 90.000000
_cell_angle_beta 90.000000
_cell_angle_gamma 90.000000
_cell_volume 881.554496
_symmetry_space_group_name_H-M "P 2 2 2"
_symmetry_group_IT_number 16
_symmetry_cell_setting 'orthorhombic'
loop_
_space_group_symop_operation_xyz
x,y,z
-x,-y,z
x,-y,-z
-x,y,-z
loop_
_atom_site_type_symbol
_atom_site_label
_atom_site_fract_x
_atom_site_fract_y
_atom_site_fract_z
Si Si1 0.000000 0.271271 0.000000
Si Si2 0.500000 0.500000 0.000000
Si Si3 0.707755 0.372264 0.227678
Si Si4 0.000000 0.327488 0.500000
Si Si5 0.000000 0.000000 0.500000
Si Si6 0.323462 0.242700 0.260973
Si Si7 0.681081 0.068793 0.746365
Si Si8 0.000000 0.000000 0.000000
O O1 0.187370 0.230500 0.101702
O O2 0.878019 0.325112 0.123056
O O3 0.638543 0.553745 0.879144
O O4 0.837272 0.380064 0.390855
O O5 0.498269 0.313920 0.248411
O O6 0.844692 0.270858 0.605114
O O7 0.155064 0.054076 0.395604
O O8 0.425182 0.155340 0.279798
O O9 0.838718 0.053491 0.894559
O O10 0.500000 0.000000 0.749547
#
# Coordination Sequence:
#
# PCOD9310230 Si02
#       8
#     2   1   4   2   1   4   4   1
#     4  10  21  41  70 100 126 182 216 271 341 407
#     4  12  24  50  78 104 144 174 232 286 352 430
#     4  11  24  45  73 102 138 175 224 282 338 421
#     4  10  25  44  71 102 138 184 226 283 354 405
#     4  10  24  42  56  90 124 186 232 284 328 408
#     4  11  22  43  67 100 135 179 233 284 341 414
#     4  11  24  40  64  93 136 181 230 285 344 390
#     4  10  24  42  56  98 140 176 234 292 332 400
#
# _framework density 21.552835000000002
#
# number of rings (size 3 to 8) (size 9 to 14) (size 15 to 20)
#    0.000    1.263    2.105    2.526    0.000   13.895 
#    0.000    3.158    0.000    0.000    0.000    0.000 
#    0.000    0.000    0.000    0.000    0.000    0.000 
#
# Total GULP energy -106043.265855 kJ/mol
# GULP energy per Si atom -5581.224519 kJ/mol
# Density = 2.150378 g / cm^3
# Si number density = 21.552835 Si / 1000 Ang^3
#
#
#
# Elastic Constant Matrix: (Units=GPa)
#
#
# Indices 1 2 3 4 5 6 
#
# 1 105.7381 47.7079 46.4136 0.0000 0.0000 0.0000
# 2 47.7079 125.9320 43.8007 0.0000 0.0000 0.0000
# 3 46.4136 43.8007 134.6283 0.0000 0.0000 0.0000
# 4 0.0000 0.0000 0.0000 -0.9512 0.0000 0.0000
# 5 0.0000 0.0000 0.0000 0.0000 92.1306 0.0000
# 6 0.0000 0.0000 0.0000 0.0000 0.0000 27.0642
#
#
#
# Elastic Compliance Matrix: (Units=1/GPa)
#
#
# Indices 1 2 3 4 5 6 
#
# 1 0.012466 -0.003640 -0.003114 0.000000 0.000000 0.000000
# 2 -0.003640 0.010017 -0.002004 0.000000 0.000000 0.000000
# 3 -0.003114 -0.002004 0.009153 0.000000 0.000000 0.000000
# 4 0.000000 0.000000 0.000000 -1.051328 0.000000 0.000000
# 5 0.000000 0.000000 0.000000 0.000000 0.010854 0.000000
# 6 0.000000 0.000000 0.000000 0.000000 0.000000 0.036949
#
#
# Mechanical properties :
#
#
# Convention : Reuss Voigt Hill
#
# Bulk Modulus (GPa) = 70.81450 71.34922 71.08186
# Shear Modulus (GPa) = -5.26501 38.87380 16.80439
#
# Velocity S-wave (km/s) = -1.56465 4.25155 2.79531
# Velocity P-wave (km/s) = 5.44641 7.56816 6.59320
#
# Compressibility (1/GPa) = 0.01412140
#
# Stress axis : x y z
#
# Youngs Moduli (GPa) = 80.21652 99.83322 109.25013
#
# Poissons Ratio (x) = 0.36337 0.34016
# Poissons Ratio (y) = 0.29197 0.21895
# Poissons Ratio (z) = 0.24976 0.20007
#
# Static dielectric constant tensor:
#      x y z
#    x 1.775170 0.000000 0.000000 
#    y 0.000000 1.792380 0.000000 
#    z 0.000000 0.000000 1.902690 
# 
# From -- ./inp_files/2352.got.cif
#   From: 2010.05.17/outbox.cif.g08.bks.cpg/sg16_2_cif.got.tgz:2352.got - 2010.06.03 22:28:35.
