data_PCOD9310435
_publ_section_title
;
Structure prediction by ZEFSAII (Michael W. Deem and Ramdas Pophale) SiO2 
 PCOD9310435
Probable space group: P 2 2 21
;
_chemical_formula_sum "Si O2"
_cell_formula_units_Z 22
_cell_length_a 18.215983
_cell_length_b 14.782468
_cell_length_c 4.943919
_cell_angle_alpha 90.000000
_cell_angle_beta 90.000000
_cell_angle_gamma 90.000000
_cell_volume 1331.284595
_symmetry_space_group_name_H-M "P 2 2 21"
_symmetry_group_IT_number 17
_symmetry_cell_setting 'orthorhombic'
loop_
_space_group_symop_operation_xyz
x,y,z
-x,-y,1/2+z
x,-y,-z
-x,y,1/2-z
loop_
_atom_site_type_symbol
_atom_site_label
_atom_site_fract_x
_atom_site_fract_y
_atom_site_fract_z
Si Si1 0.264282 0.109229 0.029749
Si Si2 0.350626 0.890781 0.476206
Si Si3 0.873889 0.804712 0.839641
Si Si4 0.085294 0.309911 0.831877
Si Si5 0.000000 0.058194 0.250000
Si Si6 0.947932 0.500000 0.500000
Si Si7 0.500000 0.933948 0.250000
O O1 0.332586 0.137328 0.221137
O O2 0.195238 0.149132 0.190355
O O3 0.287340 0.140224 0.730676
O O4 0.255778 0.000000 0.000000
O O5 0.431255 0.876514 0.356431
O O6 0.346104 0.000000 0.500000
O O7 0.905163 0.736346 0.618601
O O8 0.935309 0.881797 0.877692
O O9 0.867442 0.746047 0.113003
O O10 0.000000 0.301922 0.750000
O O11 0.097686 0.416739 0.876517
O O12 0.969517 0.000000 0.500000
O O13 0.000000 0.467654 0.250000
O O14 0.522749 0.000000 0.500000
#
# Coordination Sequence:
#
# PCOD9310435 Si02
#       7
#     4   4   4   4   2   2   2
#     4  10  20  32  44  63  90 126 163 198 235 276
#     4   9  17  29  44  62  87 114 154 199 239 282
#     4  12  22  35  50  66  92 124 163 203 244 279
#     4  11  20  36  52  72  91 113 149 200 250 300
#     4  12  24  36  46  62  86 124 170 212 238 262
#     4  10  20  34  56  78  94 110 138 192 264 316
#     4  10  16  26  44  66  84 110 148 200 246 276
#
# _framework density 16.525393999999999
#
# number of rings (size 3 to 8) (size 9 to 14) (size 15 to 20)
#    0.000    1.455    1.818    7.636    0.000    2.182 
#    0.000    0.000    0.000    0.000    0.000    0.000 
#    0.000    0.000    0.000    0.000    0.000   50.909 
#
# Total GULP energy -122590.572412 kJ/mol
# GULP energy per Si atom -5572.298746 kJ/mol
# Density = 1.648778 g / cm^3
# Si number density = 16.525394 Si / 1000 Ang^3
#
#
#
# Elastic Constant Matrix: (Units=GPa)
#
#
# Indices 1 2 3 4 5 6 
#
# 1 65.0440 20.4607 4.0035 0.0000 0.0000 0.0000
# 2 20.4607 63.7595 25.9991 0.0000 0.0000 0.0000
# 3 4.0035 25.9991 87.6427 0.0000 0.0000 0.0000
# 4 0.0000 0.0000 0.0000 25.6177 0.0000 0.0000
# 5 0.0000 0.0000 0.0000 0.0000 24.8954 0.0000
# 6 0.0000 0.0000 0.0000 0.0000 0.0000 6.9750
#
#
#
# Elastic Compliance Matrix: (Units=1/GPa)
#
#
# Indices 1 2 3 4 5 6 
#
# 1 0.017172 -0.005905 0.000967 0.000000 0.000000 0.000000
# 2 -0.005905 0.019873 -0.005625 0.000000 0.000000 0.000000
# 3 0.000967 -0.005625 0.013035 0.000000 0.000000 0.000000
# 4 0.000000 0.000000 0.000000 0.039036 0.000000 0.000000
# 5 0.000000 0.000000 0.000000 0.000000 0.040168 0.000000
# 6 0.000000 0.000000 0.000000 0.000000 0.000000 0.143370
#
#
# Mechanical properties :
#
#
# Convention : Reuss Voigt Hill
#
# Bulk Modulus (GPa) = 34.53865 35.26363 34.90114
# Shear Modulus (GPa) = 16.47821 22.56313 19.52067
#
# Velocity S-wave (km/s) = 3.16119 3.69909 3.44066
# Velocity P-wave (km/s) = 5.85405 6.29521 6.07863
#
# Compressibility (1/GPa) = 0.02895307
#
# Stress axis : x y z
#
# Youngs Moduli (GPa) = 58.23355 50.31999 76.71907
#
# Poissons Ratio (x) = 0.29714 -0.07421
# Poissons Ratio (y) = 0.34387 0.43158
# Poissons Ratio (z) = -0.05633 0.28307
#
# Static dielectric constant tensor:
#      x y z
#    x 1.605520 0.000000 0.000000 
#    y 0.000000 1.564310 0.000000 
#    z 0.000000 0.000000 1.593130 
# 
# From -- ./inp_files/2666.got.cif
#   From: 2010.05.17/outbox.cif.g08.bks.cpg/sg17_2_cif.got.tgz:2666.got - 2010.06.03 22:34:06.
