data_PCOD9310886
_publ_section_title
;
Structure prediction by ZEFSAII (Michael W. Deem and Ramdas Pophale) SiO2 
 PCOD9310886
Probable space group: P 2 2 21
;
_chemical_formula_sum "Si O2"
_cell_formula_units_Z 24
_cell_length_a 8.544793
_cell_length_b 8.946854
_cell_length_c 15.983309
_cell_angle_alpha 90.000000
_cell_angle_beta 90.000000
_cell_angle_gamma 90.000000
_cell_volume 1221.908236
_symmetry_space_group_name_H-M "P 2 2 21"
_symmetry_group_IT_number 17
_symmetry_cell_setting 'orthorhombic'
loop_
_space_group_symop_operation_xyz
x,y,z
-x,-y,1/2+z
x,-y,-z
-x,y,1/2-z
loop_
_atom_site_type_symbol
_atom_site_label
_atom_site_fract_x
_atom_site_fract_y
_atom_site_fract_z
Si Si1 0.226659 0.053463 0.835232
Si Si2 0.445733 0.715962 0.583925
Si Si3 0.184310 0.435136 0.319344
Si Si4 0.000000 0.839442 0.750000
Si Si5 0.442705 0.000000 0.000000
Si Si6 0.858032 0.393438 0.660839
Si Si7 0.500000 0.095878 0.250000
Si Si8 0.690643 0.500000 0.500000
O O1 0.326465 0.034201 0.921220
O O2 0.158001 0.218089 0.822982
O O3 0.085580 0.937511 0.820437
O O4 0.350623 0.009443 0.763242
O O5 0.304379 0.602004 0.606475
O O6 0.446005 0.857807 0.520584
O O7 0.484930 0.796414 0.671025
O O8 0.584972 0.616864 0.549148
O O9 0.238275 0.516673 0.233235
O O10 0.123228 0.272342 0.292006
O O11 0.032800 0.536846 0.340618
O O12 0.791257 0.418947 0.569472
#
# Coordination Sequence:
#
# PCOD9310886 Si02
#       8
#     4   4   4   2   2   4   2   2
#     4  11  21  41  67 101 132 174 221 279 327 396
#     4  11  22  44  61  99 127 177 217 273 329 398
#     4  10  23  42  66  93 134 172 226 265 326 409
#     4  10  20  38  68  96 124 174 216 268 334 388
#     4  10  24  40  68  96 138 168 224 278 342 382
#     4  10  23  41  63 100 129 174 220 272 331 392
#     4  10  22  38  74  92 134 166 228 264 336 400
#     4  12  24  38  68  92 140 172 216 280 344 380
#
# _framework density 19.641408999999999
#
# number of rings (size 3 to 8) (size 9 to 14) (size 15 to 20)
#    0.000    1.667    3.333    2.000    7.000    2.000 
#    0.000    2.500    0.000    0.000    0.000    0.000 
#    0.000    0.000    0.000    0.000    0.000    0.000 
#
# Total GULP energy -133759.597720 kJ/mol
# GULP energy per Si atom -5573.316572 kJ/mol
# Density = 1.959670 g / cm^3
# Si number density = 19.641409 Si / 1000 Ang^3
#
#
#
# Elastic Constant Matrix: (Units=GPa)
#
#
# Indices 1 2 3 4 5 6 
#
# 1 58.7681 44.4006 41.6689 0.0000 0.0000 0.0000
# 2 44.4006 141.1952 41.0415 0.0000 0.0000 0.0000
# 3 41.6689 41.0415 95.6596 0.0000 0.0000 0.0000
# 4 0.0000 0.0000 0.0000 29.3912 0.0000 0.0000
# 5 0.0000 0.0000 0.0000 0.0000 41.2834 0.0000
# 6 0.0000 0.0000 0.0000 0.0000 0.0000 23.0392
#
#
#
# Elastic Compliance Matrix: (Units=1/GPa)
#
#
# Indices 1 2 3 4 5 6 
#
# 1 0.028633 -0.006145 -0.009836 0.000000 0.000000 0.000000
# 2 -0.006145 0.009410 -0.001361 0.000000 0.000000 0.000000
# 3 -0.009836 -0.001361 0.015322 0.000000 0.000000 0.000000
# 4 0.000000 0.000000 0.000000 0.034024 0.000000 0.000000
# 5 0.000000 0.000000 0.000000 0.000000 0.024223 0.000000
# 6 0.000000 0.000000 0.000000 0.000000 0.000000 0.043404
#
#
# Mechanical properties :
#
#
# Convention : Reuss Voigt Hill
#
# Bulk Modulus (GPa) = 53.52739 61.09389 57.31064
# Shear Modulus (GPa) = 25.51986 29.97688 27.74837
#
# Velocity S-wave (km/s) = 3.60847 3.91091 3.76273
# Velocity P-wave (km/s) = 6.68378 7.18093 6.93681
#
# Compressibility (1/GPa) = 0.01868202
#
# Stress axis : x y z
#
# Youngs Moduli (GPa) = 34.92521 106.26741 65.26570
#
# Poissons Ratio (x) = 0.65300 0.64195
# Poissons Ratio (y) = 0.21461 0.08880
# Poissons Ratio (z) = 0.34352 0.14459
#
# Static dielectric constant tensor:
#      x y z
#    x 1.743140 0.000000 0.000000 
#    y 0.000000 1.691110 0.000000 
#    z 0.000000 0.000000 1.737270 
# 
# From -- ./inp_files/8166.got.cif
#   From: 2010.05.17/outbox.cif.g08.bks.cpg/sg17_5_cif.got.tgz:8166.got - 2010.06.03 22:34:06.
