data_PCOD9310603
_publ_section_title
;
Structure prediction by ZEFSAII (Michael W. Deem and Ramdas Pophale) SiO2 
 PCOD9310603
Probable space group: P 2 2 21
;
_chemical_formula_sum "Si O2"
_cell_formula_units_Z 24
_cell_length_a 16.323454
_cell_length_b 12.825878
_cell_length_c 5.225588
_cell_angle_alpha 90.000000
_cell_angle_beta 90.000000
_cell_angle_gamma 90.000000
_cell_volume 1094.042845
_symmetry_space_group_name_H-M "P 2 2 21"
_symmetry_group_IT_number 17
_symmetry_cell_setting 'orthorhombic'
loop_
_space_group_symop_operation_xyz
x,y,z
-x,-y,1/2+z
x,-y,-z
-x,y,1/2-z
loop_
_atom_site_type_symbol
_atom_site_label
_atom_site_fract_x
_atom_site_fract_y
_atom_site_fract_z
Si Si1 0.836480 0.190493 0.330452
Si Si2 0.737522 0.341108 0.607658
Si Si3 0.447166 0.626324 0.002000
Si Si4 0.322914 0.927611 0.746310
Si Si5 0.177252 0.602855 0.605019
Si Si6 0.500000 0.926727 0.750000
Si Si7 0.051004 0.000000 0.000000
O O1 0.795996 0.239762 0.585715
O O2 0.754180 0.146113 0.203039
O O3 0.896016 0.097332 0.398352
O O4 0.869823 0.287921 0.161756
O O5 0.643157 0.326575 0.540225
O O6 0.753365 0.382919 0.888966
O O7 0.776303 0.407330 0.374124
O O8 0.500000 0.655042 0.250000
O O9 0.435119 0.500000 0.000000
O O10 0.500000 0.651490 0.750000
O O11 0.411788 0.872084 0.759603
O O12 0.326611 0.000000 0.500000
O O13 0.311446 0.000000 0.000000
O O14 0.130957 0.500000 0.500000
O O15 0.500754 0.000000 0.500000
O O16 0.000000 0.965905 0.250000
#
# Coordination Sequence:
#
# PCOD9310603 Si02
#       7
#     4   4   4   4   4   2   2
#     4  10  26  41  72 100 138 173 230 282 352 429
#     4  10  22  37  61  90 134 183 238 290 341 415
#     4  10  19  32  53  83 130 184 238 296 346 390
#     4  10  20  35  62  84 131 168 225 275 328 397
#     4  10  21  37  65  98 132 172 230 285 337 417
#     4   8  16  32  50  82 114 176 214 272 328 372
#     4  12  30  50  78 110 142 178 220 298 378 458
#
# _framework density 21.936985
#
# number of rings (size 3 to 8) (size 9 to 14) (size 15 to 20)
#    1.000    1.000    0.833    2.500    5.833    1.333 
#    1.500    0.000    1.833    0.000    4.333    0.000 
#    0.000    0.000    0.000    0.000    0.000    0.000 
#
# Total GULP energy -133665.549582 kJ/mol
# GULP energy per Si atom -5569.397899 kJ/mol
# Density = 2.188706 g / cm^3
# Si number density = 21.936985 Si / 1000 Ang^3
#
#
#
# Elastic Constant Matrix: (Units=GPa)
#
#
# Indices 1 2 3 4 5 6 
#
# 1 59.9217 43.6227 14.0087 0.0000 0.0000 0.0000
# 2 43.6227 117.0833 31.1990 0.0000 0.0000 0.0000
# 3 14.0087 31.1990 135.9569 0.0000 0.0000 0.0000
# 4 0.0000 0.0000 0.0000 30.4532 0.0000 0.0000
# 5 0.0000 0.0000 0.0000 0.0000 12.4530 0.0000
# 6 0.0000 0.0000 0.0000 0.0000 0.0000 1.3928
#
#
#
# Elastic Compliance Matrix: (Units=1/GPa)
#
#
# Indices 1 2 3 4 5 6 
#
# 1 0.022923 -0.008427 -0.000428 0.000000 0.000000 0.000000
# 2 -0.008427 0.012195 -0.001930 0.000000 0.000000 0.000000
# 3 -0.000428 -0.001930 0.007842 0.000000 0.000000 0.000000
# 4 0.000000 0.000000 0.000000 0.032837 0.000000 0.000000
# 5 0.000000 0.000000 0.000000 0.000000 0.080302 0.000000
# 6 0.000000 0.000000 0.000000 0.000000 0.000000 0.717975
#
#
# Mechanical properties :
#
#
# Convention : Reuss Voigt Hill
#
# Bulk Modulus (GPa) = 46.75023 54.51365 50.63194
# Shear Modulus (GPa) = 5.53848 23.80189 14.67019
#
# Velocity S-wave (km/s) = 1.59066 3.29753 2.58881
# Velocity P-wave (km/s) = 4.97303 6.27712 5.66274
#
# Compressibility (1/GPa) = 0.02139027
#
# Stress axis : x y z
#
# Youngs Moduli (GPa) = 43.62429 82.00219 127.51311
#
# Poissons Ratio (x) = 0.69099 0.05461
# Poissons Ratio (y) = 0.36760 0.24612
# Poissons Ratio (z) = 0.01868 0.15828
#
# Static dielectric constant tensor:
#      x y z
#    x 1.779150 0.000000 0.000000 
#    y 0.000000 2.009140 0.000000 
#    z 0.000000 0.000000 1.767960 
# 
# From -- ./inp_files/2616.got.cif
#   From: 2010.05.17/outbox.cif.g08.bks.cpg/sg17_2_cif.got.tgz:2616.got - 2010.06.03 22:34:06.
