data_PCOD9310914
_publ_section_title
;
Structure prediction by ZEFSAII (Michael W. Deem and Ramdas Pophale) SiO2 
 PCOD9310914
Probable space group: P 2 2 21
;
_chemical_formula_sum "Si O2"
_cell_formula_units_Z 32
_cell_length_a 12.451948
_cell_length_b 13.472589
_cell_length_c 9.135605
_cell_angle_alpha 90.000000
_cell_angle_beta 90.000000
_cell_angle_gamma 90.000000
_cell_volume 1532.588891
_symmetry_space_group_name_H-M "P 2 2 21"
_symmetry_group_IT_number 17
_symmetry_cell_setting 'orthorhombic'
loop_
_space_group_symop_operation_xyz
x,y,z
-x,-y,1/2+z
x,-y,-z
-x,y,1/2-z
loop_
_atom_site_type_symbol
_atom_site_label
_atom_site_fract_x
_atom_site_fract_y
_atom_site_fract_z
Si Si1 0.789730 0.287911 0.025402
Si Si2 0.261317 0.747714 0.859075
Si Si3 0.385302 0.410843 0.605196
Si Si4 0.718054 0.853901 0.221231
Si Si5 0.602028 0.324492 0.604336
Si Si6 0.016376 0.770389 0.920814
Si Si7 0.607250 0.047297 0.338293
Si Si8 0.075250 0.067222 0.874656
O O1 0.749910 0.281985 0.191093
O O2 0.918380 0.299214 0.031051
O O3 0.731474 0.377160 0.944520
O O4 0.746899 0.190911 0.937194
O O5 0.141745 0.743072 0.928680
O O6 0.314219 0.858058 0.860684
O O7 0.336165 0.675582 0.952906
O O8 0.418425 0.500000 0.500000
O O9 0.474739 0.324978 0.577613
O O10 0.382580 0.415841 0.781854
O O11 0.648900 0.772034 0.310871
O O12 0.832665 0.870224 0.298186
O O13 0.660336 0.959798 0.239770
O O14 0.000000 0.793149 0.750000
O O15 0.000752 0.863636 0.026381
O O16 0.500000 0.078433 0.250000
O O17 0.585313 0.000000 0.500000
O O18 0.000000 0.019956 0.750000
O O19 0.128031 0.000000 0.000000
#
# Coordination Sequence:
#
# PCOD9310914 Si02
#       8
#     4   4   4   4   4   4   4   4
#     4  10  24  39  67  96 127 169 226 277 336 414
#     4  11  23  40  64  94 132 178 226 272 329 387
#     4  10  24  45  69  99 130 161 208 278 348 432
#     4  11  22  41  59  92 132 183 227 279 335 391
#     4  10  22  40  72  94 129 174 212 266 346 416
#     4  10  20  40  59  89 127 171 220 270 327 385
#     4  12  27  39  59  88 138 180 231 281 320 379
#     4  12  22  36  58  86 128 180 237 285 328 380
#
# _framework density 20.879704
#
# number of rings (size 3 to 8) (size 9 to 14) (size 15 to 20)
#    0.000    1.250    3.750    1.500    7.000    3.000 
#    0.000    0.000    0.000    5.250    0.000    0.000 
#    0.000    0.000    0.000    0.000    0.000    0.000 
#
# Total GULP energy -178405.334751 kJ/mol
# GULP energy per Si atom -5575.166711 kJ/mol
# Density = 2.083218 g / cm^3
# Si number density = 20.879704 Si / 1000 Ang^3
#
#
#
# Elastic Constant Matrix: (Units=GPa)
#
#
# Indices 1 2 3 4 5 6 
#
# 1 120.7223 19.8759 33.1661 0.0000 0.0000 0.0000
# 2 19.8759 32.1382 12.2598 0.0000 0.0000 0.0000
# 3 33.1661 12.2598 100.6954 0.0000 0.0000 0.0000
# 4 0.0000 0.0000 0.0000 34.2619 0.0000 0.0000
# 5 0.0000 0.0000 0.0000 0.0000 31.9920 0.0000
# 6 0.0000 0.0000 0.0000 0.0000 0.0000 12.6667
#
#
#
# Elastic Compliance Matrix: (Units=1/GPa)
#
#
# Indices 1 2 3 4 5 6 
#
# 1 0.009841 -0.005086 -0.002622 0.000000 0.000000 0.000000
# 2 -0.005086 0.035260 -0.002618 0.000000 0.000000 0.000000
# 3 -0.002622 -0.002618 0.011113 0.000000 0.000000 0.000000
# 4 0.000000 0.000000 0.000000 0.029187 0.000000 0.000000
# 5 0.000000 0.000000 0.000000 0.000000 0.031258 0.000000
# 6 0.000000 0.000000 0.000000 0.000000 0.000000 0.078947
#
#
# Mechanical properties :
#
#
# Convention : Reuss Voigt Hill
#
# Bulk Modulus (GPa) = 28.11962 42.68436 35.40199
# Shear Modulus (GPa) = 21.91907 28.33441 25.12674
#
# Velocity S-wave (km/s) = 3.24354 3.68779 3.47278
# Velocity P-wave (km/s) = 5.24634 6.21453 5.75085
#
# Compressibility (1/GPa) = 0.03556236
#
# Stress axis : x y z
#
# Youngs Moduli (GPa) = 101.61321 28.36104 89.98211
#
# Poissons Ratio (x) = 0.14425 0.23595
# Poissons Ratio (y) = 0.51681 0.23555
# Poissons Ratio (z) = 0.26645 0.07424
#
# Static dielectric constant tensor:
#      x y z
#    x 1.778680 0.000000 0.000000 
#    y 0.000000 1.782900 0.000000 
#    z 0.000000 0.000000 1.775720 
# 
# From -- ./inp_files/4934.got.cif
#   From: 2010.05.17/outbox.cif.g08.bks.cpg/sg17_3_cif.got.tgz:4934.got - 2010.06.03 22:34:06.
