data_PCOD9310475
_publ_section_title
;
Structure prediction by ZEFSAII (Michael W. Deem and Ramdas Pophale) SiO2 
 PCOD9310475
Probable space group: P 2 2 21
;
_chemical_formula_sum "Si O2"
_cell_formula_units_Z 18
_cell_length_a 14.405698
_cell_length_b 13.866101
_cell_length_c 5.124153
_cell_angle_alpha 90.000000
_cell_angle_beta 90.000000
_cell_angle_gamma 90.000000
_cell_volume 1023.553986
_symmetry_space_group_name_H-M "P 2 2 21"
_symmetry_group_IT_number 17
_symmetry_cell_setting 'orthorhombic'
loop_
_space_group_symop_operation_xyz
x,y,z
-x,-y,1/2+z
x,-y,-z
-x,y,1/2-z
loop_
_atom_site_type_symbol
_atom_site_label
_atom_site_fract_x
_atom_site_fract_y
_atom_site_fract_z
Si Si1 0.064708 0.386350 0.001086
Si Si2 0.369174 0.229887 0.562680
Si Si3 0.652958 0.500000 0.500000
Si Si4 0.500000 0.937834 0.250000
Si Si5 0.738515 0.697159 0.577074
Si Si6 0.500000 0.375106 0.750000
O O1 0.152262 0.315041 0.023704
O O2 0.000000 0.373512 0.250000
O O3 0.094460 0.500000 0.000000
O O4 0.000000 0.370428 0.750000
O O5 0.417228 0.129022 0.635293
O O6 0.301947 0.239554 0.314567
O O7 0.457602 0.302692 0.534514
O O8 0.312122 0.266020 0.815673
O O9 0.709099 0.585865 0.633858
O O10 0.584497 0.444424 0.690294
O O11 0.531925 0.000000 0.500000
#
# Coordination Sequence:
#
# PCOD9310475 Si02
#       6
#     4   4   2   2   4   2
#     4  10  20  34  50  72 105 148 195 235 275 319
#     4  10  22  34  53  77 106 138 179 235 265 324
#     4  10  18  28  46  68  98 152 180 220 256 302
#     4  11  22  40  61  82 112 148 179 220 298 353
#     4  11  20  34  50  76 107 142 191 228 271 308
#     4   9  18  30  43  68 102 136 183 216 258 305
#
# _framework density 17.585785999999999
#
# number of rings (size 3 to 8) (size 9 to 14) (size 15 to 20)
#    0.000    1.778    1.111    4.000    0.000    8.889 
#    0.000    0.000    0.000    0.000    0.000    0.000 
#    0.000   49.778    0.000    0.000    0.000    0.000 
#
# Total GULP energy -100303.206260 kJ/mol
# GULP energy per Si atom -5572.400348 kJ/mol
# Density = 1.754576 g / cm^3
# Si number density = 17.585786 Si / 1000 Ang^3
#
#
#
# Elastic Constant Matrix: (Units=GPa)
#
#
# Indices 1 2 3 4 5 6 
#
# 1 108.2049 33.2673 52.6728 0.0000 0.0000 0.0000
# 2 33.2673 70.4027 34.0967 0.0000 0.0000 0.0000
# 3 52.6728 34.0967 138.7569 0.0000 0.0000 0.0000
# 4 0.0000 0.0000 0.0000 24.4092 0.0000 0.0000
# 5 0.0000 0.0000 0.0000 0.0000 13.6416 0.0000
# 6 0.0000 0.0000 0.0000 0.0000 0.0000 18.8457
#
#
#
# Elastic Compliance Matrix: (Units=1/GPa)
#
#
# Indices 1 2 3 4 5 6 
#
# 1 0.012262 -0.004018 -0.003667 0.000000 0.000000 0.000000
# 2 -0.004018 0.017439 -0.002760 0.000000 0.000000 0.000000
# 3 -0.003667 -0.002760 0.009277 0.000000 0.000000 0.000000
# 4 0.000000 0.000000 0.000000 0.040968 0.000000 0.000000
# 5 0.000000 0.000000 0.000000 0.000000 0.073305 0.000000
# 6 0.000000 0.000000 0.000000 0.000000 0.000000 0.053062
#
#
# Mechanical properties :
#
#
# Convention : Reuss Voigt Hill
#
# Bulk Modulus (GPa) = 55.28625 61.93758 58.61191
# Shear Modulus (GPa) = 21.43756 24.53448 22.98602
#
# Velocity S-wave (km/s) = 3.49525 3.73920 3.61928
# Velocity P-wave (km/s) = 6.91341 7.34431 7.13211
#
# Compressibility (1/GPa) = 0.01808768
#
# Stress axis : x y z
#
# Youngs Moduli (GPa) = 81.55031 57.34134 107.79023
#
# Poissons Ratio (x) = 0.23040 0.39532
# Poissons Ratio (y) = 0.32768 0.29751
# Poissons Ratio (z) = 0.29908 0.15827
#
# Static dielectric constant tensor:
#      x y z
#    x 1.613850 0.000000 0.000000 
#    y 0.000000 1.636030 0.000000 
#    z 0.000000 0.000000 1.597280 
# 
# From -- ./inp_files/2015.got.cif
#   From: 2010.05.17/outbox.cif.g08.bks.cpg/sg17_2_cif.got.tgz:2015.got - 2010.06.03 22:34:06.
