data_PCOD9310779
_publ_section_title
;
Structure prediction by ZEFSAII (Michael W. Deem and Ramdas Pophale) SiO2 
 PCOD9310779
Probable space group: P 2 2 21
;
_chemical_formula_sum "Si O2"
_cell_formula_units_Z 32
_cell_length_a 5.262639
_cell_length_b 11.921662
_cell_length_c 27.425145
_cell_angle_alpha 90.000000
_cell_angle_beta 90.000000
_cell_angle_gamma 90.000000
_cell_volume 1720.637235
_symmetry_space_group_name_H-M "P 2 2 21"
_symmetry_group_IT_number 17
_symmetry_cell_setting 'orthorhombic'
loop_
_space_group_symop_operation_xyz
x,y,z
-x,-y,1/2+z
x,-y,-z
-x,y,1/2-z
loop_
_atom_site_type_symbol
_atom_site_label
_atom_site_fract_x
_atom_site_fract_y
_atom_site_fract_z
Si Si1 0.112144 0.254885 0.050505
Si Si2 0.510426 0.577029 0.535102
Si Si3 0.958913 0.002458 0.441184
Si Si4 0.509219 0.748653 0.192953
Si Si5 0.546691 0.877379 0.096124
Si Si6 0.990877 0.402486 0.693621
Si Si7 0.888439 0.476733 0.103011
Si Si8 0.156100 0.318068 0.543627
O O1 0.077634 0.133297 0.072355
O O2 0.992446 0.361945 0.079369
O O3 0.397602 0.298489 0.047792
O O4 0.020588 0.251948 0.994094
O O5 0.692322 0.500000 0.500000
O O6 0.406191 0.525758 0.585321
O O7 0.305858 0.603432 0.493600
O O8 0.989141 0.000000 0.500000
O O9 0.212550 0.957080 0.415164
O O10 0.710037 0.930994 0.425785
O O11 0.500000 0.784632 0.250000
O O12 0.501420 0.846205 0.152664
O O13 0.773306 0.682334 0.185550
O O14 0.272184 0.663968 0.184875
O O15 0.644904 0.762323 0.070569
O O16 0.041450 0.507738 0.658652
O O17 0.000000 0.436088 0.750000
O O18 0.981542 0.595826 0.080029
#
# Coordination Sequence:
#
# PCOD9310779 Si02
#       8
#     4   4   4   4   4   4   4   4
#     4  11  22  36  55  83 126 167 211 246 299 373
#     4   9  19  33  52  82 117 163 200 245 288 361
#     4  12  26  40  59  87 128 174 217 255 307 368
#     4  10  22  41  66  94 125 155 204 271 329 377
#     4  12  24  40  63  89 123 166 209 266 314 374
#     4  10  21  38  62  95 126 154 195 261 333 388
#     4  10  21  34  58  87 120 162 201 253 311 378
#     4  10  20  35  56  86 120 156 206 247 312 361
#
# _framework density 18.597761999999999
#
# number of rings (size 3 to 8) (size 9 to 14) (size 15 to 20)
#    0.000    1.500    2.500    3.750    5.250    0.000 
#    0.000    0.000    0.000    1.500    0.000    0.000 
#    0.000    0.000    0.000    0.000    0.000    0.000 
#
# Total GULP energy -178196.228251 kJ/mol
# GULP energy per Si atom -5568.632133 kJ/mol
# Density = 1.855543 g / cm^3
# Si number density = 18.597762 Si / 1000 Ang^3
#
#
#
# Elastic Constant Matrix: (Units=GPa)
#
#
# Indices 1 2 3 4 5 6 
#
# 1 74.0570 20.9191 36.7244 0.0000 0.0000 0.0000
# 2 20.9191 113.7488 52.5743 0.0000 0.0000 0.0000
# 3 36.7244 52.5743 116.6966 0.0000 0.0000 0.0000
# 4 0.0000 0.0000 0.0000 29.1437 0.0000 0.0000
# 5 0.0000 0.0000 0.0000 0.0000 19.2731 0.0000
# 6 0.0000 0.0000 0.0000 0.0000 0.0000 22.5223
#
#
#
# Elastic Compliance Matrix: (Units=1/GPa)
#
#
# Indices 1 2 3 4 5 6 
#
# 1 0.016055 -0.000780 -0.004701 0.000000 0.000000 0.000000
# 2 -0.000780 0.011141 -0.004774 0.000000 0.000000 0.000000
# 3 -0.004701 -0.004774 0.012199 0.000000 0.000000 0.000000
# 4 0.000000 0.000000 0.000000 0.034313 0.000000 0.000000
# 5 0.000000 0.000000 0.000000 0.000000 0.051886 0.000000
# 6 0.000000 0.000000 0.000000 0.000000 0.000000 0.044400
#
#
# Mechanical properties :
#
#
# Convention : Reuss Voigt Hill
#
# Bulk Modulus (GPa) = 52.95018 58.32646 55.63832
# Shear Modulus (GPa) = 25.40663 27.14013 26.27338
#
# Velocity S-wave (km/s) = 3.70011 3.82425 3.76269
# Velocity P-wave (km/s) = 6.84014 7.13653 6.98990
#
# Compressibility (1/GPa) = 0.01888568
#
# Stress axis : x y z
#
# Youngs Moduli (GPa) = 62.28742 89.75685 81.97092
#
# Poissons Ratio (x) = 0.06998 0.38535
# Poissons Ratio (y) = 0.04857 0.39133
# Poissons Ratio (z) = 0.29282 0.42850
#
# Static dielectric constant tensor:
#      x y z
#    x 1.817340 0.000000 0.000000 
#    y 0.000000 1.742930 0.000000 
#    z 0.000000 0.000000 1.717490 
# 
# From -- ./inp_files/10924.got.cif
#   From: 2010.05.17/outbox.cif.g08.bks.cpg/sg17_6_cif.got.tgz:10924.got - 2010.06.03 22:34:06.
