data_PCOD9310453
_publ_section_title
;
Structure prediction by ZEFSAII (Michael W. Deem and Ramdas Pophale) SiO2 
 PCOD9310453
Probable space group: P 2 2 21
;
_chemical_formula_sum "Si O2"
_cell_formula_units_Z 32
_cell_length_a 19.373416
_cell_length_b 5.334230
_cell_length_c 14.958595
_cell_angle_alpha 90.000000
_cell_angle_beta 90.000000
_cell_angle_gamma 90.000000
_cell_volume 1545.854966
_symmetry_space_group_name_H-M "P 2 2 21"
_symmetry_group_IT_number 17
_symmetry_cell_setting 'orthorhombic'
loop_
_space_group_symop_operation_xyz
x,y,z
-x,-y,1/2+z
x,-y,-z
-x,y,1/2-z
loop_
_atom_site_type_symbol
_atom_site_label
_atom_site_fract_x
_atom_site_fract_y
_atom_site_fract_z
Si Si1 0.707614 0.507152 0.397579
Si Si2 0.150886 0.433208 0.824265
Si Si3 0.362662 0.006871 0.109884
Si Si4 0.828967 0.923258 0.908308
Si Si5 0.240488 0.421770 0.642394
Si Si6 0.478262 0.000539 0.391128
Si Si7 0.602246 0.500181 0.890764
Si Si8 0.919392 0.933460 0.729129
O O1 0.683185 0.500000 0.500000
O O2 0.789731 0.539968 0.397433
O O3 0.671908 0.751307 0.356559
O O4 0.681927 0.244364 0.358248
O O5 0.199222 0.431005 0.735583
O O6 0.102028 0.675220 0.819087
O O7 0.108090 0.176473 0.824089
O O8 0.442218 0.023716 0.137166
O O9 0.360469 0.000000 0.000000
O O10 0.794149 0.651250 0.911798
O O11 0.879218 0.932582 0.823775
O O12 0.772549 0.143474 0.895370
O O13 0.866075 0.000000 0.000000
O O14 0.321124 0.474884 0.646938
O O15 0.443685 0.739129 0.363999
O O16 0.479036 0.000000 0.500000
O O17 0.434235 0.241668 0.363404
O O18 0.607742 0.500000 0.000000
O O19 0.000000 0.947740 0.750000
#
# Coordination Sequence:
#
# PCOD9310453 Si02
#       8
#     4   4   4   4   4   4   4   4
#     4  10  19  33  55  78  99 128 172 221 260 296
#     4  10  21  37  56  78 103 134 169 205 251 308
#     4   9  17  30  49  72  98 130 169 215 263 305
#     4  10  19  33  53  78 104 134 176 209 238 291
#     4  10  20  32  50  73 104 139 168 210 257 298
#     4   9  17  27  42  67  97 129 167 210 255 302
#     4  10  17  26  43  67  95 127 166 210 253 295
#     4  10  21  38  58  79 108 141 165 196 249 307
#
# _framework density 20.700517000000001
#
# number of rings (size 3 to 8) (size 9 to 14) (size 15 to 20)
#    0.000    2.250    0.000    3.750    0.000    4.000 
#    0.000    1.250    0.000    4.500    0.000    0.000 
#    0.000    0.000    0.000    0.000    0.000    0.000 
#
# Total GULP energy -178708.218241 kJ/mol
# GULP energy per Si atom -5584.631820 kJ/mol
# Density = 2.065340 g / cm^3
# Si number density = 20.700517 Si / 1000 Ang^3
#
#
#
# Elastic Constant Matrix: (Units=GPa)
#
#
# Indices 1 2 3 4 5 6 
#
# 1 138.7546 70.5609 -15.0046 0.0000 0.0000 0.0000
# 2 70.5609 182.1130 9.1198 0.0000 0.0000 0.0000
# 3 -15.0046 9.1198 21.1282 0.0000 0.0000 0.0000
# 4 0.0000 0.0000 0.0000 5.9091 0.0000 0.0000
# 5 0.0000 0.0000 0.0000 0.0000 8.2685 0.0000
# 6 0.0000 0.0000 0.0000 0.0000 0.0000 28.6241
#
#
#
# Elastic Compliance Matrix: (Units=1/GPa)
#
#
# Indices 1 2 3 4 5 6 
#
# 1 0.010550 -0.004561 0.009461 0.000000 0.000000 0.000000
# 2 -0.004561 0.007585 -0.006513 0.000000 0.000000 0.000000
# 3 0.009461 -0.006513 0.056860 0.000000 0.000000 0.000000
# 4 0.000000 0.000000 0.000000 0.169231 0.000000 0.000000
# 5 0.000000 0.000000 0.000000 0.000000 0.120941 0.000000
# 6 0.000000 0.000000 0.000000 0.000000 0.000000 0.034936
#
#
# Mechanical properties :
#
#
# Convention : Reuss Voigt Hill
#
# Bulk Modulus (GPa) = 13.93397 52.37202 33.15300
# Shear Modulus (GPa) = 11.70271 27.04832 19.37551
#
# Velocity S-wave (km/s) = 2.38025 3.61868 3.06272
# Velocity P-wave (km/s) = 3.78153 6.54329 5.34390
#
# Compressibility (1/GPa) = 0.07176704
#
# Stress axis : x y z
#
# Youngs Moduli (GPa) = 94.79052 131.84693 17.58705
#
# Poissons Ratio (x) = 0.60139 -0.16639
# Poissons Ratio (y) = 0.43237 0.11455
# Poissons Ratio (z) = -0.89679 0.85873
#
# Static dielectric constant tensor:
#      x y z
#    x 1.677160 0.000000 0.000000 
#    y 0.000000 1.764790 0.000000 
#    z 0.000000 0.000000 1.828370 
# 
# From -- ./inp_files/9741.got.cif
#   From: 2010.05.17/outbox.cif.g08.bks.cpg/sg17_5_cif.got.tgz:9741.got - 2010.06.03 22:34:06.
