data_PCOD9310608
_publ_section_title
;
Structure prediction by ZEFSAII (Michael W. Deem and Ramdas Pophale) SiO2 
 PCOD9310608
Probable space group: P 2 2 21
;
_chemical_formula_sum "Si O2"
_cell_formula_units_Z 30
_cell_length_a 7.986415
_cell_length_b 12.021670
_cell_length_c 16.400794
_cell_angle_alpha 90.000000
_cell_angle_beta 90.000000
_cell_angle_gamma 90.000000
_cell_volume 1574.640980
_symmetry_space_group_name_H-M "P 2 2 21"
_symmetry_group_IT_number 17
_symmetry_cell_setting 'orthorhombic'
loop_
_space_group_symop_operation_xyz
x,y,z
-x,-y,1/2+z
x,-y,-z
-x,y,1/2-z
loop_
_atom_site_type_symbol
_atom_site_label
_atom_site_fract_x
_atom_site_fract_y
_atom_site_fract_z
Si Si1 0.473285 0.334694 0.607315
Si Si2 0.815422 0.209478 0.983349
Si Si3 0.935620 0.174025 0.659811
Si Si4 0.112414 0.419812 0.433791
Si Si5 0.332332 0.465485 0.286020
Si Si6 0.817585 0.574994 0.372055
Si Si7 0.568672 0.907238 0.338846
Si Si8 0.383372 0.000000 0.500000
O O1 0.340758 0.287769 0.543061
O O2 0.389197 0.423004 0.666886
O O3 0.646473 0.393401 0.579779
O O4 0.518897 0.223011 0.656142
O O5 0.918718 0.160951 0.907001
O O6 0.929005 0.298161 0.031301
O O7 0.732638 0.103955 0.025700
O O8 0.891870 0.305248 0.651802
O O9 0.769665 0.098974 0.650132
O O10 0.000000 0.153195 0.750000
O O11 0.204193 0.500000 0.500000
O O12 0.223445 0.402642 0.353054
O O13 0.953283 0.496648 0.413640
O O14 0.500000 0.409256 0.250000
O O15 0.229700 0.508301 0.209229
O O16 0.500000 0.947839 0.250000
O O17 0.488352 0.964191 0.419439
#
# Coordination Sequence:
#
# PCOD9310608 Si02
#       8
#     4   4   4   4   4   4   4   2
#     4   9  17  34  57  87 121 154 196 248 313 366
#     4  11  22  39  60  88 124 161 202 262 303 358
#     4  11  19  32  62  95 120 149 196 257 326 364
#     4  12  21  35  54  87 125 152 190 247 310 368
#     4  10  19  34  54  82 119 165 197 238 299 381
#     4  10  19  32  55  86 125 159 189 238 310 385
#     4  10  20  37  62  91 122 158 207 262 314 373
#     4  10  24  44  62  84 120 168 216 264 310 360
#
# _framework density 19.051962
#
# number of rings (size 3 to 8) (size 9 to 14) (size 15 to 20)
#    0.000    1.600    2.667    5.600    0.000    0.533 
#    4.800    0.667    0.000    6.400    0.000    0.000 
#    0.000    0.000    0.000    0.000    0.000    0.000 
#
# Total GULP energy -167150.465948 kJ/mol
# GULP energy per Si atom -5571.682198 kJ/mol
# Density = 1.900860 g / cm^3
# Si number density = 19.051962 Si / 1000 Ang^3
#
#
#
# Elastic Constant Matrix: (Units=GPa)
#
#
# Indices 1 2 3 4 5 6 
#
# 1 81.1017 33.3704 43.7554 0.0000 0.0000 0.0000
# 2 33.3704 69.2295 32.7215 0.0000 0.0000 0.0000
# 3 43.7554 32.7215 78.4320 0.0000 0.0000 0.0000
# 4 0.0000 0.0000 0.0000 14.6155 0.0000 0.0000
# 5 0.0000 0.0000 0.0000 0.0000 10.0053 0.0000
# 6 0.0000 0.0000 0.0000 0.0000 0.0000 10.5626
#
#
#
# Elastic Compliance Matrix: (Units=1/GPa)
#
#
# Indices 1 2 3 4 5 6 
#
# 1 0.019019 -0.005173 -0.008452 0.000000 0.000000 0.000000
# 2 -0.005173 0.019399 -0.005208 0.000000 0.000000 0.000000
# 3 -0.008452 -0.005208 0.019638 0.000000 0.000000 0.000000
# 4 0.000000 0.000000 0.000000 0.068420 0.000000 0.000000
# 5 0.000000 0.000000 0.000000 0.000000 0.099947 0.000000
# 6 0.000000 0.000000 0.000000 0.000000 0.000000 0.094674
#
#
# Mechanical properties :
#
#
# Convention : Reuss Voigt Hill
#
# Bulk Modulus (GPa) = 49.04100 49.82864 49.43482
# Shear Modulus (GPa) = 13.67770 14.96440 14.32105
#
# Velocity S-wave (km/s) = 2.68230 2.80563 2.74466
# Velocity P-wave (km/s) = 5.94891 6.05857 6.00399
#
# Compressibility (1/GPa) = 0.02039110
#
# Stress axis : x y z
#
# Youngs Moduli (GPa) = 52.58038 51.54788 50.92233
#
# Poissons Ratio (x) = 0.26663 0.43040
# Poissons Ratio (y) = 0.27197 0.26519
# Poissons Ratio (z) = 0.44441 0.26845
#
# Static dielectric constant tensor:
#      x y z
#    x 1.772970 0.000000 0.000000 
#    y 0.000000 1.630320 0.000000 
#    z 0.000000 0.000000 1.705850 
# 
# From -- ./inp_files/8242.got.cif
#   From: 2010.05.17/outbox.cif.g08.bks.cpg/sg17_5_cif.got.tgz:8242.got - 2010.06.03 22:34:06.
