data_PCOD9310822
_publ_section_title
;
Structure prediction by ZEFSAII (Michael W. Deem and Ramdas Pophale) SiO2 
 PCOD9310822
Probable space group: P 2 2 21
;
_chemical_formula_sum "Si O2"
_cell_formula_units_Z 20
_cell_length_a 5.090170
_cell_length_b 13.303310
_cell_length_c 16.108953
_cell_angle_alpha 90.000000
_cell_angle_beta 90.000000
_cell_angle_gamma 90.000000
_cell_volume 1090.835625
_symmetry_space_group_name_H-M "P 2 2 21"
_symmetry_group_IT_number 17
_symmetry_cell_setting 'orthorhombic'
loop_
_space_group_symop_operation_xyz
x,y,z
-x,-y,1/2+z
x,-y,-z
-x,y,1/2-z
loop_
_atom_site_type_symbol
_atom_site_label
_atom_site_fract_x
_atom_site_fract_y
_atom_site_fract_z
Si Si1 0.268073 0.231417 0.493396
Si Si2 0.434598 0.754542 0.154205
Si Si3 0.128582 0.557004 0.580569
Si Si4 0.357392 0.472487 0.838459
Si Si5 0.761089 0.883824 0.485649
O O1 0.316889 0.257340 0.591252
O O2 0.176133 0.327830 0.443161
O O3 0.549225 0.186478 0.467292
O O4 0.051409 0.145509 0.487790
O O5 0.500000 0.773651 0.250000
O O6 0.279014 0.844848 0.109313
O O7 0.295137 0.645809 0.149134
O O8 0.018157 0.500000 0.500000
O O9 0.411712 0.509170 0.600551
O O10 0.907524 0.535710 0.649435
O O11 0.500000 0.482108 0.750000
O O12 0.705384 0.000000 0.500000
#
# Coordination Sequence:
#
# PCOD9310822 Si02
#       5
#     4   4   4   4   4
#     4  10  21  35  58  88 109 154 189 244 284 348
#     4   9  21  37  57  89 120 146 189 248 301 349
#     4  12  20  36  57  85 118 153 198 232 287 354
#     4  11  23  36  56  85 123 158 193 236 296 346
#     4  10  20  37  58  85 112 146 195 246 301 341
#
# _framework density 18.334567
#
# number of rings (size 3 to 8) (size 9 to 14) (size 15 to 20)
#    1.200    0.400    2.000    4.200    0.000    0.800 
#    0.000    0.000    0.000    7.200    0.000    0.000 
#    0.000    0.000    0.000    0.000    0.000    0.000 
#
# Total GULP energy -111392.200292 kJ/mol
# GULP energy per Si atom -5569.610015 kJ/mol
# Density = 1.829284 g / cm^3
# Si number density = 18.334567 Si / 1000 Ang^3
#
#
#
# Elastic Constant Matrix: (Units=GPa)
#
#
# Indices 1 2 3 4 5 6 
#
# 1 68.1839 -0.0198 9.3104 0.0000 0.0000 0.0000
# 2 -0.0198 85.8599 31.7247 0.0000 0.0000 0.0000
# 3 9.3104 31.7247 57.0278 0.0000 0.0000 0.0000
# 4 0.0000 0.0000 0.0000 21.5959 0.0000 0.0000
# 5 0.0000 0.0000 0.0000 0.0000 16.2561 0.0000
# 6 0.0000 0.0000 0.0000 0.0000 0.0000 11.9215
#
#
#
# Elastic Compliance Matrix: (Units=1/GPa)
#
#
# Indices 1 2 3 4 5 6 
#
# 1 0.015090 0.001150 -0.003104 0.000000 0.000000 0.000000
# 2 0.001150 0.014748 -0.008392 0.000000 0.000000 0.000000
# 3 -0.003104 -0.008392 0.022711 0.000000 0.000000 0.000000
# 4 0.000000 0.000000 0.000000 0.046305 0.000000 0.000000
# 5 0.000000 0.000000 0.000000 0.000000 0.061515 0.000000
# 6 0.000000 0.000000 0.000000 0.000000 0.000000 0.083882
#
#
# Mechanical properties :
#
#
# Convention : Reuss Voigt Hill
#
# Bulk Modulus (GPa) = 31.38928 32.56690 31.97809
# Shear Modulus (GPa) = 18.14480 21.29182 19.71831
#
# Velocity S-wave (km/s) = 3.14928 3.41147 3.28300
# Velocity P-wave (km/s) = 5.51193 5.77223 5.64358
#
# Compressibility (1/GPa) = 0.03185801
#
# Stress axis : x y z
#
# Youngs Moduli (GPa) = 66.26764 67.80589 44.03239
#
# Poissons Ratio (x) = -0.07799 0.13665
# Poissons Ratio (y) = -0.07622 0.36953
# Poissons Ratio (z) = 0.20566 0.56904
#
# Static dielectric constant tensor:
#      x y z
#    x 1.656980 0.000000 0.000000 
#    y 0.000000 1.601370 0.000000 
#    z 0.000000 0.000000 1.729950 
# 
# From -- ./inp_files/5950.got.cif
#   From: 2010.05.17/outbox.cif.g08.bks.cpg/sg17_3_cif.got.tgz:5950.got - 2010.06.03 22:34:06.
