data_PCOD9310796
_publ_section_title
;
Structure prediction by ZEFSAII (Michael W. Deem and Ramdas Pophale) SiO2 
 PCOD9310796
Probable space group: P 2 2 21
;
_chemical_formula_sum "Si O2"
_cell_formula_units_Z 32
_cell_length_a 15.861979
_cell_length_b 12.162322
_cell_length_c 8.648661
_cell_angle_alpha 90.000000
_cell_angle_beta 90.000000
_cell_angle_gamma 90.000000
_cell_volume 1668.486674
_symmetry_space_group_name_H-M "P 2 2 21"
_symmetry_group_IT_number 17
_symmetry_cell_setting 'orthorhombic'
loop_
_space_group_symop_operation_xyz
x,y,z
-x,-y,1/2+z
x,-y,-z
-x,y,1/2-z
loop_
_atom_site_type_symbol
_atom_site_label
_atom_site_fract_x
_atom_site_fract_y
_atom_site_fract_z
Si Si1 0.910761 0.267931 0.316088
Si Si2 0.910761 0.732065 0.316088
Si Si3 0.346025 0.500001 0.687761
Si Si4 0.851776 0.500002 0.814061
Si Si5 0.589991 0.736903 0.813441
Si Si6 0.410009 0.263099 0.686558
Si Si7 0.244093 0.128526 0.313419
Si Si8 0.755908 0.871471 0.186580
O O1 0.914262 0.271903 0.500000
O O2 0.893520 0.389968 0.250621
O O3 0.834184 0.191565 0.260960
O O4 0.000000 0.228004 0.250000
O O5 0.893520 0.610027 0.250627
O O6 0.834184 0.808431 0.260956
O O7 0.000000 0.771991 0.250000
O O8 0.348399 0.500000 0.500000
O O9 0.247354 0.500003 0.730062
O O10 0.389882 0.612254 0.740548
O O11 0.389882 0.387748 0.740546
O O12 0.857236 0.500000 0.000000
O O13 0.500000 0.773187 0.750000
O O14 0.668353 0.813330 0.767077
O O15 0.586864 0.736419 1.000000
O O16 0.500000 0.226816 0.750000
O O17 0.331646 0.186672 0.732923
O O18 0.237122 0.139246 0.500000
O O19 0.244376 0.999998 0.274289
#
# Coordination Sequence:
#
# PCOD9310796 Si02
#       8
#     4   4   4   4   4   4   4   4
#     4  12  25  41  63  93 125 159 200 248 304 366
#     4  12  25  41  63  93 125 159 200 248 304 366
#     4   9  17  33  59  85 117 157 195 238 300 359
#     4  11  20  39  66  91 124 162 200 245 300 363
#     4  10  20  36  58  88 121 159 199 246 303 362
#     4  10  20  36  58  88 121 159 199 246 303 362
#     4  10  22  42  65  87 117 161 210 257 306 358
#     4  10  22  42  65  87 117 161 210 257 306 358
#
# _framework density 19.179055999999999
#
# number of rings (size 3 to 8) (size 9 to 14) (size 15 to 20)
#    0.000    1.500    2.500    3.375    0.000    2.500 
#    0.000    0.000    0.000    0.000    0.000    0.000 
#    0.000    0.000    0.000    0.000    0.000    0.000 
#
# Total GULP energy -178898.724099 kJ/mol
# GULP energy per Si atom -5590.585128 kJ/mol
# Density = 1.913540 g / cm^3
# Si number density = 19.179056 Si / 1000 Ang^3
#
#
#
# Elastic Constant Matrix: (Units=GPa)
#
#
# Indices 1 2 3 4 5 6 
#
# 1 200.8017 84.7267 58.1111 0.0000 0.0000 0.0000
# 2 84.7267 137.0057 56.3481 0.0000 0.0000 0.0000
# 3 58.1111 56.3481 55.0583 0.0000 0.0000 0.0000
# 4 0.0000 0.0000 0.0000 7.7018 0.0000 0.0000
# 5 0.0000 0.0000 0.0000 0.0000 34.3287 0.0000
# 6 0.0000 0.0000 0.0000 0.0000 0.0000 -11.8536
#
#
#
# Elastic Compliance Matrix: (Units=1/GPa)
#
#
# Indices 1 2 3 4 5 6 
#
# 1 0.007609 -0.002422 -0.005552 0.000000 0.000000 0.000000
# 2 -0.002422 0.013375 -0.011132 0.000000 0.000000 0.000000
# 3 -0.005552 -0.011132 0.035415 0.000000 0.000000 0.000000
# 4 0.000000 0.000000 0.000000 0.129840 0.000000 0.000000
# 5 0.000000 0.000000 0.000000 0.000000 0.029130 0.000000
# 6 0.000000 0.000000 0.000000 0.000000 0.000000 -0.084362
#
#
# Mechanical properties :
#
#
# Convention : Reuss Voigt Hill
#
# Bulk Modulus (GPa) = 54.98430 87.91528 71.44979
# Shear Modulus (GPa) = 28.52556 18.94735 23.73645
#
# Velocity S-wave (km/s) = 3.86077 3.14653 3.52180
# Velocity P-wave (km/s) = 6.97175 7.69023 7.33978
#
# Compressibility (1/GPa) = 0.01818701
#
# Stress axis : x y z
#
# Youngs Moduli (GPa) = 131.42971 74.76468 28.23629
#
# Poissons Ratio (x) = 0.18108 0.15676
# Poissons Ratio (y) = 0.31831 0.31434
# Poissons Ratio (z) = 0.72967 0.83231
#
# Static dielectric constant tensor:
#      x y z
#    x 1.652620 0.000000 0.000000 
#    y 0.000000 1.649620 0.000000 
#    z 0.000000 0.000000 1.647960 
# 
# From -- ./inp_files/5260.got.cif
#   From: 2010.05.17/outbox.cif.g08.bks.cpg/sg17_3_cif.got.tgz:5260.got - 2010.06.03 22:34:06.
