data_PCOD9310048
_publ_section_title
;
Structure prediction by ZEFSAII (Michael W. Deem and Ramdas Pophale) SiO2 
 PCOD9310048
Probable space group: P 2 2 2
;
_chemical_formula_sum "Si O2"
_cell_formula_units_Z 27
_cell_length_a 18.612309
_cell_length_b 16.457619
_cell_length_c 5.238167
_cell_angle_alpha 90.000000
_cell_angle_beta 90.000000
_cell_angle_gamma 90.000000
_cell_volume 1604.525407
_symmetry_space_group_name_H-M "P 2 2 2"
_symmetry_group_IT_number 16
_symmetry_cell_setting 'orthorhombic'
loop_
_space_group_symop_operation_xyz
x,y,z
-x,-y,z
x,-y,-z
-x,y,-z
loop_
_atom_site_type_symbol
_atom_site_label
_atom_site_fract_x
_atom_site_fract_y
_atom_site_fract_z
Si Si1 0.574167 0.908444 0.112733
Si Si2 0.266474 0.849605 0.946673
Si Si3 0.500000 0.000000 0.500000
Si Si4 0.845572 0.595208 0.486099
Si Si5 0.189267 0.694017 0.999546
Si Si6 0.000000 0.664308 0.500000
Si Si7 0.818516 0.906487 0.563464
Si Si8 0.063765 0.802788 0.151875
O O1 0.649572 0.867311 0.075416
O O2 0.556833 0.932850 0.399363
O O3 0.500000 0.871453 0.000000
O O4 0.577217 0.000000 0.000000
O O5 0.224551 0.870763 0.681621
O O6 0.255537 0.754971 0.013452
O O7 0.231295 0.899326 0.182847
O O8 0.830696 0.500000 0.500000
O O9 0.823817 0.642016 0.745335
O O10 0.930753 0.610179 0.441644
O O11 0.808264 0.637371 0.245464
O O12 0.123398 0.758973 0.976160
O O13 0.024386 0.726718 0.282368
O O14 0.890139 0.855764 0.645896
O O15 0.835343 0.000000 0.500000
O O16 0.000000 0.847995 0.000000
#
# Coordination Sequence:
#
# PCOD9310048 Si02
#       8
#     4   4   1   4   4   2   4   4
#     4   9  19  32  52  82 115 150 183 220 275 313
#     4  11  22  38  59  78 112 150 186 230 268 334
#     4   8  18  32  48  82 116 144 182 220 274 304
#     4  11  21  35  55  80 107 130 170 221 272 342
#     4  10  21  37  53  80 101 141 177 214 274 330
#     4  10  19  34  53  76 100 134 170 212 285 342
#     4  11  24  37  56  79 102 144 201 241 279 317
#     4  10  20  36  59  67 105 138 184 232 283 325
#
# _framework density 16.827404999999999
#
# number of rings (size 3 to 8) (size 9 to 14) (size 15 to 20)
#    0.000    1.926    1.481    4.667    7.259    0.000 
#    0.000    1.852    6.519    0.000    0.000    0.000 
#    0.000    3.556    0.000    0.000    0.000    0.000 
#
# Total GULP energy -150309.866469 kJ/mol
# GULP energy per Si atom -5567.032091 kJ/mol
# Density = 1.678910 g / cm^3
# Si number density = 16.827405 Si / 1000 Ang^3
#
#
#
# Elastic Constant Matrix: (Units=GPa)
#
#
# Indices 1 2 3 4 5 6 
#
# 1 109.5418 54.1804 43.7982 0.0000 0.0000 0.0000
# 2 54.1804 107.3060 34.9133 0.0000 0.0000 0.0000
# 3 43.7982 34.9133 87.3627 0.0000 0.0000 0.0000
# 4 0.0000 0.0000 0.0000 25.8642 0.0000 0.0000
# 5 0.0000 0.0000 0.0000 0.0000 26.4027 0.0000
# 6 0.0000 0.0000 0.0000 0.0000 0.0000 -3.2842
#
#
#
# Elastic Compliance Matrix: (Units=1/GPa)
#
#
# Indices 1 2 3 4 5 6 
#
# 1 0.013666 -0.005369 -0.004706 0.000000 0.000000 0.000000
# 2 -0.005369 0.012821 -0.002432 0.000000 0.000000 0.000000
# 3 -0.004706 -0.002432 0.014778 0.000000 0.000000 0.000000
# 4 0.000000 0.000000 0.000000 0.038663 0.000000 0.000000
# 5 0.000000 0.000000 0.000000 0.000000 0.037875 0.000000
# 6 0.000000 0.000000 0.000000 0.000000 0.000000 -0.304492
#
#
# Mechanical properties :
#
#
# Convention : Reuss Voigt Hill
#
# Bulk Modulus (GPa) = 61.53365 63.33271 62.43318
# Shear Modulus (GPa) = -31.99837 21.21779 -5.39029
#
# Velocity S-wave (km/s) = -4.36542 3.55478 -1.79171
# Velocity P-wave (km/s) = 3.35227 7.38694 5.73605
#
# Compressibility (1/GPa) = 0.01625127
#
# Stress axis : x y z
#
# Youngs Moduli (GPa) = 73.17425 77.99434 67.67000
#
# Poissons Ratio (x) = 0.41876 0.31843
# Poissons Ratio (y) = 0.39288 0.16458
# Poissons Ratio (z) = 0.34433 0.18969
#
# Static dielectric constant tensor:
#      x y z
#    x 1.592010 0.000000 0.000000 
#    y 0.000000 1.554410 0.000000 
#    z 0.000000 0.000000 1.472560 
# 
# From -- ./inp_files/2464.got.cif
#   From: 2010.05.17/outbox.cif.g08.bks.cpg/sg16_2_cif.got.tgz:2464.got - 2010.06.03 22:28:35.
