data_PCOD9310267
_publ_section_title
;
Structure prediction by ZEFSAII (Michael W. Deem and Ramdas Pophale) SiO2 
 PCOD9310267
Probable space group: P 2 2 2
;
_chemical_formula_sum "Si O2"
_cell_formula_units_Z 19
_cell_length_a 11.424731
_cell_length_b 6.384467
_cell_length_c 14.667027
_cell_angle_alpha 90.000000
_cell_angle_beta 90.000000
_cell_angle_gamma 90.000000
_cell_volume 1069.824948
_symmetry_space_group_name_H-M "P 2 2 2"
_symmetry_group_IT_number 16
_symmetry_cell_setting 'orthorhombic'
loop_
_space_group_symop_operation_xyz
x,y,z
-x,-y,z
x,-y,-z
-x,y,-z
loop_
_atom_site_type_symbol
_atom_site_label
_atom_site_fract_x
_atom_site_fract_y
_atom_site_fract_z
Si Si1 0.307726 0.285336 0.780501
Si Si2 0.500000 0.000000 0.500000
Si Si3 0.621233 0.379169 0.409215
Si Si4 0.322825 0.349113 0.089009
Si Si5 0.500000 0.000000 0.139252
Si Si6 0.863513 0.988498 0.109857
O O1 0.293210 0.349524 0.675769
O O2 0.351623 0.490804 0.831840
O O3 0.410747 0.119772 0.795529
O O4 0.201615 0.175309 0.835927
O O5 0.580170 0.150817 0.440286
O O6 0.500000 0.500000 0.382234
O O7 0.665056 0.500000 0.500000
O O8 0.421342 0.167544 0.082549
O O9 0.205451 0.229759 0.122785
O O10 0.311139 0.500000 0.000000
O O11 0.000000 0.000000 0.132818
O O12 0.852480 0.000000 0.000000
#
# Coordination Sequence:
#
# PCOD9310267 Si02
#       6
#     4   1   4   4   2   4
#     4  11  21  36  56  84 115 155 185 228 290 332
#     4   8  16  32  54  78 112 156 176 224 282 312
#     4   9  18  31  52  83 116 147 188 223 271 346
#     4  11  22  37  54  81 109 154 185 226 284 331
#     4  10  23  33  51  79 122 148 187 221 271 355
#     4  10  22  41  57  78 108 145 207 249 277 334
#
# _framework density 17.759914999999999
#
# number of rings (size 3 to 8) (size 9 to 14) (size 15 to 20)
#    0.000    2.105    2.105    2.526    0.000    8.421 
#    0.000    0.000    0.000    0.000    0.000   11.053 
#    0.000    0.000    0.000    0.000    0.000    0.000 
#
# Total GULP energy -105823.686657 kJ/mol
# GULP energy per Si atom -5569.667719 kJ/mol
# Density = 1.771949 g / cm^3
# Si number density = 17.759915 Si / 1000 Ang^3
#
#
#
# Elastic Constant Matrix: (Units=GPa)
#
#
# Indices 1 2 3 4 5 6 
#
# 1 95.1110 36.9117 39.5875 0.0000 0.0000 0.0000
# 2 36.9117 114.9692 49.6224 0.0000 0.0000 0.0000
# 3 39.5875 49.6224 115.0425 0.0000 0.0000 0.0000
# 4 0.0000 0.0000 0.0000 8.2895 0.0000 0.0000
# 5 0.0000 0.0000 0.0000 0.0000 -19.5974 0.0000
# 6 0.0000 0.0000 0.0000 0.0000 0.0000 9.8920
#
#
#
# Elastic Compliance Matrix: (Units=1/GPa)
#
#
# Indices 1 2 3 4 5 6 
#
# 1 0.012939 -0.002743 -0.003269 0.000000 0.000000 0.000000
# 2 -0.002743 0.011269 -0.003917 0.000000 0.000000 0.000000
# 3 -0.003269 -0.003917 0.011507 0.000000 0.000000 0.000000
# 4 0.000000 0.000000 0.000000 0.120635 0.000000 0.000000
# 5 0.000000 0.000000 0.000000 0.000000 -0.051027 0.000000
# 6 0.000000 0.000000 0.000000 0.000000 0.000000 0.101092
#
#
# Mechanical properties :
#
#
# Convention : Reuss Voigt Hill
#
# Bulk Modulus (GPa) = 63.06461 64.15175 63.60818
# Shear Modulus (GPa) = 21.59268 12.98355 17.28812
#
# Velocity S-wave (km/s) = 3.49063 2.70674 3.12338
# Velocity P-wave (km/s) = 7.19949 6.78002 6.99290
#
# Compressibility (1/GPa) = 0.01585675
#
# Stress axis : x y z
#
# Youngs Moduli (GPa) = 77.28316 88.73657 86.90365
#
# Poissons Ratio (x) = 0.24342 0.28412
# Poissons Ratio (y) = 0.21200 0.34040
# Poissons Ratio (z) = 0.25267 0.34758
#
# Static dielectric constant tensor:
#      x y z
#    x 1.608830 0.000000 0.000000 
#    y 0.000000 1.668220 0.000000 
#    z 0.000000 0.000000 1.668830 
# 
# From -- ./inp_files/1372.got.cif
#   From: 2010.05.17/outbox.cif.g08.bks.cpg/sg16_1_cif.got.tgz:1372.got - 2010.06.03 22:28:35.
