data_PCOD9310520
_publ_section_title
;
Structure prediction by ZEFSAII (Michael W. Deem and Ramdas Pophale) SiO2 
 PCOD9310520
Probable space group: P 2 2 21
;
_chemical_formula_sum "Si O2"
_cell_formula_units_Z 24
_cell_length_a 5.476736
_cell_length_b 15.043659
_cell_length_c 13.048871
_cell_angle_alpha 90.000000
_cell_angle_beta 90.000000
_cell_angle_gamma 90.000000
_cell_volume 1075.098424
_symmetry_space_group_name_H-M "P 2 2 21"
_symmetry_group_IT_number 17
_symmetry_cell_setting 'orthorhombic'
loop_
_space_group_symop_operation_xyz
x,y,z
-x,-y,1/2+z
x,-y,-z
-x,y,1/2-z
loop_
_atom_site_type_symbol
_atom_site_label
_atom_site_fract_x
_atom_site_fract_y
_atom_site_fract_z
Si Si1 0.051825 0.168780 0.630210
Si Si2 0.079908 0.620301 0.407625
Si Si3 0.452996 0.102945 0.972236
Si Si4 0.574513 0.729077 0.594190
Si Si5 0.419967 0.580958 0.078593
Si Si6 0.073553 0.644282 0.644975
O O1 0.078849 0.273417 0.604315
O O2 0.810073 0.129951 0.575302
O O3 0.000000 0.159833 0.750000
O O4 0.308068 0.124186 0.596931
O O5 0.831199 0.583777 0.362496
O O6 0.073994 0.600096 0.531568
O O7 0.326197 0.579749 0.364000
O O8 0.477760 0.168995 0.069350
O O9 0.452161 0.000000 0.000000
O O10 0.574727 0.672536 0.487513
O O11 0.846862 0.713883 0.636360
O O12 0.342983 0.686839 0.652444
O O13 0.415959 0.500000 0.000000
O O14 0.000000 0.595167 0.750000
#
# Coordination Sequence:
#
# PCOD9310520 Si02
#       6
#     4   4   4   4   4   4
#     4  12  23  43  69  94 126 171 212 257 318 381
#     4  10  19  37  58  85 122 159 207 252 318 355
#     4  12  23  43  66  89 128 168 202 267 315 366
#     4  10  19  37  55  86 116 155 201 244 317 355
#     4  10  18  32  61  87 117 163 211 249 309 377
#     4  10  18  32  58  83 110 156 198 239 299 362
#
# _framework density 22.323537999999999
#
# number of rings (size 3 to 8) (size 9 to 14) (size 15 to 20)
#    0.000    1.333    6.667    2.000    0.000    0.000 
#    0.000    5.000    0.000   24.000    0.000    0.000 
#    0.000    0.000    0.000    0.000    0.000    0.000 
#
# Total GULP energy -134009.445864 kJ/mol
# GULP energy per Si atom -5583.726911 kJ/mol
# Density = 2.227273 g / cm^3
# Si number density = 22.323538 Si / 1000 Ang^3
#
#
#
# Elastic Constant Matrix: (Units=GPa)
#
#
# Indices 1 2 3 4 5 6 
#
# 1 248.7263 50.6590 21.4898 0.0000 0.0000 0.0000
# 2 50.6590 130.9702 9.6908 0.0000 0.0000 0.0000
# 3 21.4898 9.6908 53.4536 0.0000 0.0000 0.0000
# 4 0.0000 0.0000 0.0000 2.9189 0.0000 0.0000
# 5 0.0000 0.0000 0.0000 0.0000 26.4300 0.0000
# 6 0.0000 0.0000 0.0000 0.0000 0.0000 32.8143
#
#
#
# Elastic Compliance Matrix: (Units=1/GPa)
#
#
# Indices 1 2 3 4 5 6 
#
# 1 0.004481 -0.001622 -0.001507 0.000000 0.000000 0.000000
# 2 -0.001622 0.008326 -0.000857 0.000000 0.000000 0.000000
# 3 -0.001507 -0.000857 0.019469 0.000000 0.000000 0.000000
# 4 0.000000 0.000000 0.000000 0.342590 0.000000 0.000000
# 5 0.000000 0.000000 0.000000 0.000000 0.037836 0.000000
# 6 0.000000 0.000000 0.000000 0.000000 0.000000 0.030475
#
#
# Mechanical properties :
#
#
# Convention : Reuss Voigt Hill
#
# Bulk Modulus (GPa) = 41.14714 66.31435 53.73074
# Shear Modulus (GPa) = 10.88728 35.85336 23.37032
#
# Velocity S-wave (km/s) = 2.21080 4.01194 3.23908
# Velocity P-wave (km/s) = 4.99890 7.15761 6.17335
#
# Compressibility (1/GPa) = 0.02430303
#
# Stress axis : x y z
#
# Youngs Moduli (GPa) = 223.16306 120.10501 51.36286
#
# Poissons Ratio (x) = 0.19478 0.07743
# Poissons Ratio (y) = 0.36191 0.04404
# Poissons Ratio (z) = 0.33642 0.10299
#
# Static dielectric constant tensor:
#      x y z
#    x 1.909140 0.000000 0.000000 
#    y 0.000000 1.804440 0.000000 
#    z 0.000000 0.000000 1.858400 
# 
# From -- ./inp_files/7750.got.cif
#   From: 2010.05.17/outbox.cif.g08.bks.cpg/sg17_4_cif.got.tgz:7750.got - 2010.06.03 22:34:06.
