data_PCOD9310980
_publ_section_title
;
Structure prediction by ZEFSAII (Michael W. Deem and Ramdas Pophale) SiO2 
 PCOD9310980
Probable space group: P 2 2 21
;
_chemical_formula_sum "Si O2"
_cell_formula_units_Z 32
_cell_length_a 12.823354
_cell_length_b 12.645552
_cell_length_c 10.039848
_cell_angle_alpha 90.000000
_cell_angle_beta 90.000000
_cell_angle_gamma 90.000000
_cell_volume 1628.045586
_symmetry_space_group_name_H-M "P 2 2 21"
_symmetry_group_IT_number 17
_symmetry_cell_setting 'orthorhombic'
loop_
_space_group_symop_operation_xyz
x,y,z
-x,-y,1/2+z
x,-y,-z
-x,y,1/2-z
loop_
_atom_site_type_symbol
_atom_site_label
_atom_site_fract_x
_atom_site_fract_y
_atom_site_fract_z
Si Si1 0.553644 0.878188 0.962113
Si Si2 0.836114 0.371655 0.995737
Si Si3 0.077191 0.374116 0.015514
Si Si4 0.375853 0.867087 0.264125
Si Si5 0.764233 0.302339 0.278272
Si Si6 0.597680 0.524670 0.650518
Si Si7 0.345777 0.104885 0.183399
Si Si8 0.752039 0.329117 0.703697
O O1 0.601268 0.852920 0.819822
O O2 0.429045 0.875435 0.935332
O O3 0.617383 0.825818 0.081812
O O4 0.573847 0.000000 0.000000
O O5 0.774531 0.323712 0.121337
O O6 0.828148 0.500000 0.000000
O O7 0.796077 0.334614 0.852742
O O8 0.957702 0.340016 0.007658
O O9 0.152920 0.330317 0.900226
O O10 0.077902 0.500000 0.000000
O O11 0.132182 0.348114 0.154333
O O12 0.500000 0.883720 0.250000
O O13 0.319633 0.773968 0.186864
O O14 0.329867 0.980469 0.216372
O O15 0.664909 0.367808 0.335553
O O16 0.752410 0.181100 0.325308
O O17 0.561747 0.500000 0.500000
O O18 0.500000 0.525781 0.750000
O O19 0.679241 0.431420 0.683500
#
# Coordination Sequence:
#
# PCOD9310980 Si02
#       8
#     4   4   4   4   4   4   4   4
#     4   9  17  36  53  79 115 157 214 247 274 336
#     4  11  23  41  71  95 117 158 216 270 318 371
#     4  11  22  44  67  91 124 160 209 274 315 373
#     4  11  22  37  59  88 125 168 210 247 289 368
#     4  12  23  40  65  94 128 157 210 260 316 375
#     4  12  27  43  57  89 136 173 197 244 314 378
#     4  10  21  35  58  85 119 163 203 254 291 353
#     4  12  23  42  62  93 128 162 210 255 316 378
#
# _framework density 19.655469
#
# number of rings (size 3 to 8) (size 9 to 14) (size 15 to 20)
#    0.000    1.000    6.250    1.875    5.250    3.000 
#    0.000    0.000    0.000    4.500    0.000    0.000 
#    0.000    0.000    0.000    0.000    0.000    0.000 
#
# Total GULP energy -178503.283608 kJ/mol
# GULP energy per Si atom -5578.227613 kJ/mol
# Density = 1.961073 g / cm^3
# Si number density = 19.655469 Si / 1000 Ang^3
#
#
#
# Elastic Constant Matrix: (Units=GPa)
#
#
# Indices 1 2 3 4 5 6 
#
# 1 53.8582 18.5872 20.0506 0.0000 0.0000 0.0000
# 2 18.5872 82.0387 5.8478 0.0000 0.0000 0.0000
# 3 20.0506 5.8478 103.1408 0.0000 0.0000 0.0000
# 4 0.0000 0.0000 0.0000 20.6752 0.0000 0.0000
# 5 0.0000 0.0000 0.0000 0.0000 32.9914 0.0000
# 6 0.0000 0.0000 0.0000 0.0000 0.0000 34.7607
#
#
#
# Elastic Compliance Matrix: (Units=1/GPa)
#
#
# Indices 1 2 3 4 5 6 
#
# 1 0.021629 -0.004619 -0.003943 0.000000 0.000000 0.000000
# 2 -0.004619 0.013225 0.000148 0.000000 0.000000 0.000000
# 3 -0.003943 0.000148 0.010454 0.000000 0.000000 0.000000
# 4 0.000000 0.000000 0.000000 0.048367 0.000000 0.000000
# 5 0.000000 0.000000 0.000000 0.000000 0.030311 0.000000
# 6 0.000000 0.000000 0.000000 0.000000 0.000000 0.028768
#
#
# Mechanical properties :
#
#
# Convention : Reuss Voigt Hill
#
# Bulk Modulus (GPa) = 35.11221 36.44547 35.77884
# Shear Modulus (GPa) = 27.92110 30.65561 29.28835
#
# Velocity S-wave (km/s) = 3.77307 3.95352 3.86435
# Velocity P-wave (km/s) = 6.07323 6.27876 6.17685
#
# Compressibility (1/GPa) = 0.02848012
#
# Stress axis : x y z
#
# Youngs Moduli (GPa) = 46.23347 75.61203 95.66110
#
# Poissons Ratio (x) = 0.34928 0.37718
# Poissons Ratio (y) = 0.21357 -0.01417
# Poissons Ratio (z) = 0.18229 -0.01120
#
# Static dielectric constant tensor:
#      x y z
#    x 1.664990 0.000000 0.000000 
#    y 0.000000 1.698210 0.000000 
#    z 0.000000 0.000000 1.899970 
# 
# From -- ./inp_files/4944.got.cif
#   From: 2010.05.17/outbox.cif.g08.bks.cpg/sg17_3_cif.got.tgz:4944.got - 2010.06.03 22:34:06.
