data_PCOD9310850
_publ_section_title
;
Structure prediction by ZEFSAII (Michael W. Deem and Ramdas Pophale) SiO2 
 PCOD9310850
Probable space group: P 2 2 21
;
_chemical_formula_sum "Si O2"
_cell_formula_units_Z 32
_cell_length_a 13.570158
_cell_length_b 5.496839
_cell_length_c 19.769783
_cell_angle_alpha 90.000000
_cell_angle_beta 90.000000
_cell_angle_gamma 90.000000
_cell_volume 1474.686904
_symmetry_space_group_name_H-M "P 2 2 21"
_symmetry_group_IT_number 17
_symmetry_cell_setting 'orthorhombic'
loop_
_space_group_symop_operation_xyz
x,y,z
-x,-y,1/2+z
x,-y,-z
-x,y,1/2-z
loop_
_atom_site_type_symbol
_atom_site_label
_atom_site_fract_x
_atom_site_fract_y
_atom_site_fract_z
Si Si1 0.894213 0.136051 0.287957
Si Si2 0.410924 0.088444 0.806848
Si Si3 0.245040 0.169742 0.337433
Si Si4 0.314529 0.812253 0.438092
Si Si5 0.381164 0.575815 0.756302
Si Si6 0.531859 0.742200 0.458898
Si Si7 0.118958 0.501272 0.573612
Si Si8 0.049317 0.358332 0.824294
O O1 0.816358 0.101692 0.228408
O O2 0.885020 0.397299 0.324151
O O3 0.000000 0.152767 0.250000
O O4 0.896865 0.898202 0.334491
O O5 0.500000 0.071399 0.750000
O O6 0.345537 0.314481 0.781475
O O7 0.435070 0.179115 0.882872
O O8 0.367269 0.815438 0.803413
O O9 0.322454 0.371893 0.312617
O O10 0.164239 0.255999 0.392443
O O11 0.311762 0.963012 0.369121
O O12 0.416932 0.678869 0.446834
O O13 0.217072 0.655018 0.436852
O O14 0.308112 0.000000 0.500000
O O15 0.500000 0.556995 0.750000
O O16 0.571870 0.500000 0.500000
O O17 0.539492 0.000000 0.500000
O O18 0.070862 0.500000 0.500000
O O19 0.041386 0.391648 0.625273
O O20 0.000000 0.343211 0.750000
#
# Coordination Sequence:
#
# PCOD9310850 Si02
#       8
#     4   4   4   4   4   4   4   4
#     4  10  20  38  59  86 112 162 213 259 309 369
#     4  10  21  40  58  85 123 161 219 274 307 371
#     4  12  24  38  61  90 132 175 210 276 322 388
#     4  11  23  34  53  84 132 174 207 241 317 410
#     4  10  23  37  59  88 122 170 215 270 320 369
#     4  11  24  40  63  89 124 174 217 265 335 402
#     4  12  24  37  58  94 135 176 205 256 330 411
#     4  10  20  38  59  82 121 161 214 256 300 377
#
# _framework density 21.699518999999999
#
# number of rings (size 3 to 8) (size 9 to 14) (size 15 to 20)
#    0.000    1.250    3.750    4.125    7.000    0.000 
#    0.000    0.000    0.000    0.000    0.000    8.750 
#    0.000    0.000    0.000    0.000    0.000    0.000 
#
# Total GULP energy -178457.201095 kJ/mol
# GULP energy per Si atom -5576.787534 kJ/mol
# Density = 2.165013 g / cm^3
# Si number density = 21.699519 Si / 1000 Ang^3
#
#
#
# Elastic Constant Matrix: (Units=GPa)
#
#
# Indices 1 2 3 4 5 6 
#
# 1 31.3244 -3.8119 21.7729 0.0000 0.0000 0.0000
# 2 -3.8119 123.0887 0.0041 0.0000 0.0000 0.0000
# 3 21.7729 0.0041 83.6726 0.0000 0.0000 0.0000
# 4 0.0000 0.0000 0.0000 28.2460 0.0000 0.0000
# 5 0.0000 0.0000 0.0000 0.0000 34.0108 0.0000
# 6 0.0000 0.0000 0.0000 0.0000 0.0000 19.9436
#
#
#
# Elastic Compliance Matrix: (Units=1/GPa)
#
#
# Indices 1 2 3 4 5 6 
#
# 1 0.039153 0.001213 -0.010188 0.000000 0.000000 0.000000
# 2 0.001213 0.008162 -0.000316 0.000000 0.000000 0.000000
# 3 -0.010188 -0.000316 0.014603 0.000000 0.000000 0.000000
# 4 0.000000 0.000000 0.000000 0.035403 0.000000 0.000000
# 5 0.000000 0.000000 0.000000 0.000000 0.029402 0.000000
# 6 0.000000 0.000000 0.000000 0.000000 0.000000 0.050141
#
#
# Mechanical properties :
#
#
# Convention : Reuss Voigt Hill
#
# Bulk Modulus (GPa) = 23.07625 30.44621 26.76123
# Shear Modulus (GPa) = 23.82172 31.11478 27.46825
#
# Velocity S-wave (km/s) = 3.31690 3.79079 3.56173
# Velocity P-wave (km/s) = 5.03256 5.76380 5.41055
#
# Compressibility (1/GPa) = 0.04333459
#
# Stress axis : x y z
#
# Youngs Moduli (GPa) = 25.54067 122.52211 68.48130
#
# Poissons Ratio (x) = -0.14860 0.69771
# Poissons Ratio (y) = -0.03098 0.02164
# Poissons Ratio (z) = 0.26022 0.03872
#
# Static dielectric constant tensor:
#      x y z
#    x 1.794980 0.000000 0.000000 
#    y 0.000000 1.904250 0.000000 
#    z 0.000000 0.000000 1.844810 
# 
# From -- ./inp_files/9132.got.cif
#   From: 2010.05.17/outbox.cif.g08.bks.cpg/sg17_5_cif.got.tgz:9132.got - 2010.06.03 22:34:06.
