data_PCOD9310682
_publ_section_title
;
Structure prediction by ZEFSAII (Michael W. Deem and Ramdas Pophale) SiO2 
 PCOD9310682
Probable space group: P 2 2 21
;
_chemical_formula_sum "Si O2"
_cell_formula_units_Z 32
_cell_length_a 12.846270
_cell_length_b 7.266735
_cell_length_c 15.708205
_cell_angle_alpha 90.000000
_cell_angle_beta 90.000000
_cell_angle_gamma 90.000000
_cell_volume 1466.367846
_symmetry_space_group_name_H-M "P 2 2 21"
_symmetry_group_IT_number 17
_symmetry_cell_setting 'orthorhombic'
loop_
_space_group_symop_operation_xyz
x,y,z
-x,-y,1/2+z
x,-y,-z
-x,y,1/2-z
loop_
_atom_site_type_symbol
_atom_site_label
_atom_site_fract_x
_atom_site_fract_y
_atom_site_fract_z
Si Si1 0.702282 0.898604 0.418518
Si Si2 0.127893 0.662582 0.429556
Si Si3 0.484075 0.253574 0.844310
Si Si4 0.118015 0.525524 0.756319
Si Si5 0.677280 0.236585 0.298102
Si Si6 0.657439 0.294612 0.973368
Si Si7 0.466550 0.821422 0.635278
Si Si8 0.098612 0.674361 0.064621
O O1 0.629771 0.733328 0.384286
O O2 0.809069 0.814716 0.451903
O O3 0.651228 0.000000 0.500000
O O4 0.714712 0.045952 0.342472
O O5 0.118240 0.500000 0.500000
O O6 0.136696 0.573424 0.334929
O O7 0.230779 0.783434 0.446465
O O8 0.016658 0.759793 0.439625
O O9 0.500000 0.322297 0.750000
O O10 0.578136 0.327675 0.897764
O O11 0.501326 0.032135 0.847711
O O12 0.218466 0.648597 0.780216
O O13 0.110040 0.391021 0.837466
O O14 0.000000 0.611818 0.750000
O O15 0.616842 0.221812 0.208539
O O16 0.575812 0.291256 0.357293
O O17 0.683605 0.500000 0.000000
O O18 0.593286 0.196451 0.047031
O O19 0.107765 0.500000 0.000000
#
# Coordination Sequence:
#
# PCOD9310682 Si02
#       8
#     4   4   4   4   4   4   4   4
#     4  11  22  38  60  86 121 157 204 253 292 362
#     4   9  20  40  61  86 122 157 197 249 303 363
#     4  11  22  41  59  83 122 167 193 238 312 368
#     4  10  21  38  62  88 122 168 201 247 313 367
#     4  10  19  37  60  85 121 155 204 250 294 359
#     4  11  23  38  61  93 117 151 207 254 293 356
#     4  10  20  40  60  85 119 164 198 242 310 362
#     4  10  22  40  62  88 122 162 204 246 311 364
#
# _framework density 21.822628999999999
#
# number of rings (size 3 to 8) (size 9 to 14) (size 15 to 20)
#    0.000    1.750    2.500    4.125    1.750    1.500 
#    2.250    4.375    0.000    0.000    0.000    0.000 
#    0.000    0.000    0.000    0.000    0.000    0.000 
#
# Total GULP energy -178433.332036 kJ/mol
# GULP energy per Si atom -5576.041626 kJ/mol
# Density = 2.177296 g / cm^3
# Si number density = 21.822629 Si / 1000 Ang^3
#
#
#
# Elastic Constant Matrix: (Units=GPa)
#
#
# Indices 1 2 3 4 5 6 
#
# 1 198.3205 28.2788 40.1255 0.0000 0.0000 0.0000
# 2 28.2788 25.8984 4.5820 0.0000 0.0000 0.0000
# 3 40.1255 4.5820 130.7331 0.0000 0.0000 0.0000
# 4 0.0000 0.0000 0.0000 12.3189 0.0000 0.0000
# 5 0.0000 0.0000 0.0000 0.0000 -1.9943 0.0000
# 6 0.0000 0.0000 0.0000 0.0000 0.0000 -42.1436
#
#
#
# Elastic Compliance Matrix: (Units=1/GPa)
#
#
# Indices 1 2 3 4 5 6 
#
# 1 0.006331 -0.006610 -0.001712 0.000000 0.000000 0.000000
# 2 -0.006610 0.045755 0.000425 0.000000 0.000000 0.000000
# 3 -0.001712 0.000425 0.008160 0.000000 0.000000 0.000000
# 4 0.000000 0.000000 0.000000 0.081176 0.000000 0.000000
# 5 0.000000 0.000000 0.000000 0.000000 -0.501425 0.000000
# 6 0.000000 0.000000 0.000000 0.000000 0.000000 -0.023728
#
#
# Mechanical properties :
#
#
# Convention : Reuss Voigt Hill
#
# Bulk Modulus (GPa) = 22.49584 55.65830 39.07707
# Shear Modulus (GPa) = -14.15946 12.43391 -0.86278
#
# Velocity S-wave (km/s) = -2.55000 2.38958 -0.62946
# Velocity P-wave (km/s) = 1.28874 5.75966 4.17340
#
# Compressibility (1/GPa) = 0.04445267
#
# Stress axis : x y z
#
# Youngs Moduli (GPa) = 157.94778 21.85546 122.55521
#
# Poissons Ratio (x) = 0.14447 0.20976
# Poissons Ratio (y) = 1.04409 -0.05211
# Poissons Ratio (z) = 0.27033 -0.00929
#
# Static dielectric constant tensor:
#      x y z
#    x 1.916530 0.000000 0.000000 
#    y 0.000000 2.232960 0.000000 
#    z 0.000000 0.000000 1.814850 
# 
# From -- ./inp_files/8576.got.cif
#   From: 2010.05.17/outbox.cif.g08.bks.cpg/sg17_5_cif.got.tgz:8576.got - 2010.06.03 22:34:06.
