data_PCOD9310479
_publ_section_title
;
Structure prediction by ZEFSAII (Michael W. Deem and Ramdas Pophale) SiO2 
 PCOD9310479
Probable space group: P 2 2 21
;
_chemical_formula_sum "Si O2"
_cell_formula_units_Z 32
_cell_length_a 11.351540
_cell_length_b 12.696331
_cell_length_c 13.503207
_cell_angle_alpha 90.000000
_cell_angle_beta 90.000000
_cell_angle_gamma 90.000000
_cell_volume 1946.121476
_symmetry_space_group_name_H-M "P 2 2 21"
_symmetry_group_IT_number 17
_symmetry_cell_setting 'orthorhombic'
loop_
_space_group_symop_operation_xyz
x,y,z
-x,-y,1/2+z
x,-y,-z
-x,y,1/2-z
loop_
_atom_site_type_symbol
_atom_site_label
_atom_site_fract_x
_atom_site_fract_y
_atom_site_fract_z
Si Si1 0.912655 0.226802 0.527555
Si Si2 0.416182 0.875520 0.481371
Si Si3 0.438137 0.765347 0.852654
Si Si4 0.142080 0.114379 0.550863
Si Si5 0.415589 0.759456 0.168943
Si Si6 0.179571 0.125541 0.779657
Si Si7 0.290961 0.624754 0.997177
Si Si8 0.747114 0.933756 0.592555
O O1 0.889045 0.200420 0.643321
O O2 0.844638 0.334237 0.501125
O O3 0.838747 0.142266 0.462857
O O4 0.049118 0.200478 0.511004
O O5 0.462033 0.806134 0.572505
O O6 0.277762 0.855964 0.466647
O O7 0.500550 0.839160 0.391886
O O8 0.427108 0.000000 0.500000
O O9 0.500000 0.739021 0.750000
O O10 0.348348 0.864613 0.849947
O O11 0.361094 0.673155 0.903263
O O12 0.130700 0.109983 0.670179
O O13 0.119133 0.000000 0.500000
O O14 0.500000 0.706800 0.250000
O O15 0.310900 0.824767 0.220527
O O16 0.355473 0.680269 0.091050
O O17 0.190116 0.013622 0.834061
O O18 0.298002 0.500000 0.000000
O O19 0.693591 0.000000 0.500000
#
# Coordination Sequence:
#
# PCOD9310479 Si02
#       8
#     4   4   4   4   4   4   4   4
#     4   9  19  35  50  69  97 129 175 220 246 277
#     4  10  20  30  44  77 116 144 165 184 236 297
#     4  10  20  31  52  76 103 133 161 207 249 300
#     4  11  21  29  45  77 110 141 169 193 229 294
#     4  10  18  32  50  77 107 131 155 211 254 293
#     4  10  18  29  50  74 102 143 172 192 233 294
#     4   9  20  38  58  75  87 121 175 217 264 308
#     4   9  17  31  48  69 103 139 174 200 234 285
#
# _framework density 16.442961
#
# number of rings (size 3 to 8) (size 9 to 14) (size 15 to 20)
#    0.000    2.250    1.250    4.875    3.500    1.500 
#    0.000    0.000    0.000    3.000    6.500    0.000 
#    0.000    0.000    0.000    0.000    0.000    0.000 
#
# Total GULP energy -178289.649639 kJ/mol
# GULP energy per Si atom -5571.551551 kJ/mol
# Density = 1.640554 g / cm^3
# Si number density = 16.442961 Si / 1000 Ang^3
#
#
#
# Elastic Constant Matrix: (Units=GPa)
#
#
# Indices 1 2 3 4 5 6 
#
# 1 99.1229 32.1881 21.6897 0.0000 0.0000 0.0000
# 2 32.1881 91.3853 24.1950 0.0000 0.0000 0.0000
# 3 21.6897 24.1950 78.1164 0.0000 0.0000 0.0000
# 4 0.0000 0.0000 0.0000 7.7540 0.0000 0.0000
# 5 0.0000 0.0000 0.0000 0.0000 15.6592 0.0000
# 6 0.0000 0.0000 0.0000 0.0000 0.0000 15.6640
#
#
#
# Elastic Compliance Matrix: (Units=1/GPa)
#
#
# Indices 1 2 3 4 5 6 
#
# 1 0.011714 -0.003556 -0.002151 0.000000 0.000000 0.000000
# 2 -0.003556 0.013000 -0.003039 0.000000 0.000000 0.000000
# 3 -0.002151 -0.003039 0.014340 0.000000 0.000000 0.000000
# 4 0.000000 0.000000 0.000000 0.128966 0.000000 0.000000
# 5 0.000000 0.000000 0.000000 0.000000 0.063860 0.000000
# 6 0.000000 0.000000 0.000000 0.000000 0.000000 0.063841
#
#
# Mechanical properties :
#
#
# Convention : Reuss Voigt Hill
#
# Bulk Modulus (GPa) = 46.37994 47.19669 46.78832
# Shear Modulus (GPa) = 15.60547 20.51889 18.06218
#
# Velocity S-wave (km/s) = 3.08404 3.53637 3.31792
# Velocity P-wave (km/s) = 6.39918 6.74093 6.57228
#
# Compressibility (1/GPa) = 0.02156105
#
# Stress axis : x y z
#
# Youngs Moduli (GPa) = 85.36764 76.92340 69.73547
#
# Poissons Ratio (x) = 0.27358 0.15000
# Poissons Ratio (y) = 0.30361 0.21192
# Poissons Ratio (z) = 0.18362 0.23377
#
# Static dielectric constant tensor:
#      x y z
#    x 1.588450 0.000000 0.000000 
#    y 0.000000 1.526130 0.000000 
#    z 0.000000 0.000000 1.575950 
# 
# From -- ./inp_files/7074.got.cif
#   From: 2010.05.17/outbox.cif.g08.bks.cpg/sg17_4_cif.got.tgz:7074.got - 2010.06.03 22:34:06.
