data_PCOD9310855
_publ_section_title
;
Structure prediction by ZEFSAII (Michael W. Deem and Ramdas Pophale) SiO2 
 PCOD9310855
Probable space group: P 2 2 21
;
_chemical_formula_sum "Si O2"
_cell_formula_units_Z 22
_cell_length_a 6.578915
_cell_length_b 11.569521
_cell_length_c 14.508182
_cell_angle_alpha 90.000000
_cell_angle_beta 90.000000
_cell_angle_gamma 90.000000
_cell_volume 1104.288753
_symmetry_space_group_name_H-M "P 2 2 21"
_symmetry_group_IT_number 17
_symmetry_cell_setting 'orthorhombic'
loop_
_space_group_symop_operation_xyz
x,y,z
-x,-y,1/2+z
x,-y,-z
-x,y,1/2-z
loop_
_atom_site_type_symbol
_atom_site_label
_atom_site_fract_x
_atom_site_fract_y
_atom_site_fract_z
Si Si1 0.355177 0.809153 0.957838
Si Si2 0.300612 0.325875 0.366767
Si Si3 0.328968 0.000000 0.500000
Si Si4 0.268797 0.591170 0.075477
Si Si5 0.968011 0.899551 0.853203
Si Si6 0.500000 0.510857 0.250000
Si Si7 0.115772 0.500000 0.500000
O O1 0.483093 0.736607 0.882392
O O2 0.177775 0.880541 0.908233
O O3 0.521452 0.890732 0.005790
O O4 0.267689 0.716579 0.029523
O O5 0.330524 0.425305 0.292114
O O6 0.138725 0.226635 0.345451
O O7 0.236038 0.391703 0.460192
O O8 0.183682 0.021657 0.412813
O O9 0.398295 0.582028 0.167566
O O10 0.037605 0.544686 0.080158
O O11 0.357234 0.500000 0.000000
O O12 0.000000 0.943932 0.750000
#
# Coordination Sequence:
#
# PCOD9310855 Si02
#       7
#     4   4   2   4   4   2   2
#     4  11  21  46  64  94 137 172 219 275 335 387
#     4  11  21  34  63  97 132 174 217 271 324 393
#     4  10  26  42  72  94 128 176 224 282 332 378
#     4  10  21  39  60  94 138 175 207 273 324 396
#     4  11  23  41  68  99 126 169 224 280 327 387
#     4  12  22  36  64 104 134 180 224 256 332 398
#     4  10  20  38  60  92 142 174 210 268 340 386
#
# _framework density 19.922326000000002
#
# number of rings (size 3 to 8) (size 9 to 14) (size 15 to 20)
#    0.545    0.727    3.636    2.727    2.545    2.182 
#    0.000    3.636    0.000    0.000    0.000    0.000 
#    0.000    0.000    0.000    0.000    0.000    0.000 
#
# Total GULP energy -122805.627244 kJ/mol
# GULP energy per Si atom -5582.073966 kJ/mol
# Density = 1.987698 g / cm^3
# Si number density = 19.922326 Si / 1000 Ang^3
#
#
#
# Elastic Constant Matrix: (Units=GPa)
#
#
# Indices 1 2 3 4 5 6 
#
# 1 106.3927 24.7538 36.3692 0.0000 0.0000 0.0000
# 2 24.7538 56.5398 31.3932 0.0000 0.0000 0.0000
# 3 36.3692 31.3932 96.1738 0.0000 0.0000 0.0000
# 4 0.0000 0.0000 0.0000 27.8284 0.0000 0.0000
# 5 0.0000 0.0000 0.0000 0.0000 27.4706 0.0000
# 6 0.0000 0.0000 0.0000 0.0000 0.0000 31.2376
#
#
#
# Elastic Compliance Matrix: (Units=1/GPa)
#
#
# Indices 1 2 3 4 5 6 
#
# 1 0.011229 -0.003125 -0.003226 0.000000 0.000000 0.000000
# 2 -0.003125 0.022471 -0.006153 0.000000 0.000000 0.000000
# 3 -0.003226 -0.006153 0.013627 0.000000 0.000000 0.000000
# 4 0.000000 0.000000 0.000000 0.035935 0.000000 0.000000
# 5 0.000000 0.000000 0.000000 0.000000 0.036403 0.000000
# 6 0.000000 0.000000 0.000000 0.000000 0.000000 0.032013
#
#
# Mechanical properties :
#
#
# Convention : Reuss Voigt Hill
#
# Bulk Modulus (GPa) = 44.80749 49.34876 47.07813
# Shear Modulus (GPa) = 27.15540 28.41332 27.78436
#
# Velocity S-wave (km/s) = 3.69597 3.78061 3.73853
# Velocity P-wave (km/s) = 6.38385 6.62433 6.50520
#
# Compressibility (1/GPa) = 0.02231770
#
# Stress axis : x y z
#
# Youngs Moduli (GPa) = 89.05453 44.50099 73.38606
#
# Poissons Ratio (x) = 0.13906 0.23677
# Poissons Ratio (y) = 0.27828 0.45158
# Poissons Ratio (z) = 0.28732 0.27384
#
# Static dielectric constant tensor:
#      x y z
#    x 1.743000 0.000000 0.000000 
#    y 0.000000 1.694120 0.000000 
#    z 0.000000 0.000000 1.725750 
# 
# From -- ./inp_files/7674.got.cif
#   From: 2010.05.17/outbox.cif.g08.bks.cpg/sg17_4_cif.got.tgz:7674.got - 2010.06.03 22:34:06.
