data_PCOD9310103
_publ_section_title
;
Structure prediction by ZEFSAII (Michael W. Deem and Ramdas Pophale) SiO2 
 PCOD9310103
Probable space group: P 2 2 2
;
_chemical_formula_sum "Si O2"
_cell_formula_units_Z 32
_cell_length_a 11.335295
_cell_length_b 8.346469
_cell_length_c 16.590727
_cell_angle_alpha 90.000000
_cell_angle_beta 90.000000
_cell_angle_gamma 90.000000
_cell_volume 1569.643511
_symmetry_space_group_name_H-M "P 2 2 2"
_symmetry_group_IT_number 16
_symmetry_cell_setting 'orthorhombic'
loop_
_space_group_symop_operation_xyz
x,y,z
-x,-y,z
x,-y,-z
-x,y,-z
loop_
_atom_site_type_symbol
_atom_site_label
_atom_site_fract_x
_atom_site_fract_y
_atom_site_fract_z
Si Si1 0.382683 0.602336 0.661628
Si Si2 0.641665 0.189301 0.509712
Si Si3 0.253836 0.902854 0.911726
Si Si4 0.739520 0.287774 0.346453
Si Si5 0.512568 0.310097 0.905319
Si Si6 0.968404 0.687259 0.087286
Si Si7 0.108665 0.112738 0.783075
Si Si8 0.464213 0.820444 0.239870
O O1 0.500000 0.500000 0.633311
O O2 0.338648 0.729417 0.596156
O O3 0.282457 0.471900 0.678034
O O4 0.430005 0.698183 0.738592
O O5 0.500000 0.212429 0.500000
O O6 0.723591 0.273497 0.442353
O O7 0.663540 0.000000 0.500000
O O8 0.378921 0.816800 0.894663
O O9 0.165326 0.748901 0.907326
O O10 0.203220 0.013764 0.838306
O O11 0.253037 0.000000 0.000000
O O12 0.840343 0.201918 0.295383
O O13 0.623997 0.197757 0.313210
O O14 0.500000 0.500000 0.886551
O O15 0.414800 0.235366 0.845942
O O16 0.500000 0.302758 0.000000
O O17 0.000000 0.500000 0.086938
O O18 0.048862 0.763676 0.155543
O O19 0.000000 0.756703 0.000000
O O20 0.000000 0.000000 0.758058
O O21 0.500000 0.000000 0.237538
#
# Coordination Sequence:
#
# PCOD9310103 Si02
#       8
#     4   4   4   4   4   4   4   4
#     4  10  20  34  56  88 133 176 215 259 314 395
#     4  11  20  34  58  94 133 174 221 260 312 399
#     4  11  23  42  66  87 123 174 222 271 335 390
#     4  11  22  35  62  91 129 174 208 273 335 381
#     4  11  27  42  56  83 129 175 215 259 319 411
#     4  10  21  38  68  97 122 160 227 295 333 377
#     4  10  23  43  67  96 127 164 231 288 339 387
#     4  11  22  36  56  84 125 173 216 255 315 392
#
# _framework density 20.386796
#
# number of rings (size 3 to 8) (size 9 to 14) (size 15 to 20)
#    0.000    1.375    3.750    3.000    3.500    4.000 
#    0.000    1.250    0.000    0.375    0.000    0.000 
#    0.000    0.000    0.000    0.000    0.000    0.000 
#
# Total GULP energy -178187.902809 kJ/mol
# GULP energy per Si atom -5568.371963 kJ/mol
# Density = 2.034040 g / cm^3
# Si number density = 20.386796 Si / 1000 Ang^3
#
#
#
# Elastic Constant Matrix: (Units=GPa)
#
#
# Indices 1 2 3 4 5 6 
#
# 1 58.8186 39.5502 21.6381 0.0000 0.0000 0.0000
# 2 39.5502 121.5702 32.7428 0.0000 0.0000 0.0000
# 3 21.6381 32.7428 88.5967 0.0000 0.0000 0.0000
# 4 0.0000 0.0000 0.0000 34.0075 0.0000 0.0000
# 5 0.0000 0.0000 0.0000 0.0000 18.5527 0.0000
# 6 0.0000 0.0000 0.0000 0.0000 0.0000 24.4010
#
#
#
# Elastic Compliance Matrix: (Units=1/GPa)
#
#
# Indices 1 2 3 4 5 6 
#
# 1 0.022503 -0.006486 -0.003099 0.000000 0.000000 0.000000
# 2 -0.006486 0.011005 -0.002483 0.000000 0.000000 0.000000
# 3 -0.003099 -0.002483 0.012961 0.000000 0.000000 0.000000
# 4 0.000000 0.000000 0.000000 0.029405 0.000000 0.000000
# 5 0.000000 0.000000 0.000000 0.000000 0.053900 0.000000
# 6 0.000000 0.000000 0.000000 0.000000 0.000000 0.040982
#
#
# Mechanical properties :
#
#
# Convention : Reuss Voigt Hill
#
# Bulk Modulus (GPa) = 44.77633 50.76087 47.76860
# Shear Modulus (GPa) = 24.71133 27.06254 25.88694
#
# Velocity S-wave (km/s) = 3.48533 3.64738 3.56728
# Velocity P-wave (km/s) = 6.18125 6.53382 6.35998
#
# Compressibility (1/GPa) = 0.02233323
#
# Stress axis : x y z
#
# Youngs Moduli (GPa) = 44.43900 90.87152 77.15159
#
# Poissons Ratio (x) = 0.58941 0.23907
# Poissons Ratio (y) = 0.28824 0.19155
# Poissons Ratio (z) = 0.13771 0.22562
#
# Static dielectric constant tensor:
#      x y z
#    x 1.713060 0.000000 0.000000 
#    y 0.000000 1.762680 0.000000 
#    z 0.000000 0.000000 1.755070 
# 
# From -- ./inp_files/8192.got.cif
#   From: 2010.05.17/outbox.cif.g08.bks.cpg/sg16_5_cif.got.tgz:8192.got - 2010.06.03 22:28:35.
