data_PCOD9310382
_publ_section_title
;
Structure prediction by ZEFSAII (Michael W. Deem and Ramdas Pophale) SiO2 
 PCOD9310382
Probable space group: P 2 2 2
;
_chemical_formula_sum "Si O2"
_cell_formula_units_Z 25
_cell_length_a 10.906722
_cell_length_b 12.833700
_cell_length_c 8.283085
_cell_angle_alpha 90.000000
_cell_angle_beta 90.000000
_cell_angle_gamma 90.000000
_cell_volume 1159.413211
_symmetry_space_group_name_H-M "P 2 2 2"
_symmetry_group_IT_number 16
_symmetry_cell_setting 'orthorhombic'
loop_
_space_group_symop_operation_xyz
x,y,z
-x,-y,z
x,-y,-z
-x,y,-z
loop_
_atom_site_type_symbol
_atom_site_label
_atom_site_fract_x
_atom_site_fract_y
_atom_site_fract_z
Si Si1 0.525746 0.121929 0.810123
Si Si2 0.000000 0.500000 0.500000
Si Si3 0.283694 0.773390 0.293115
Si Si4 0.070879 0.665925 0.752614
Si Si5 0.218198 0.841845 0.647585
Si Si6 0.858055 0.967208 0.823818
Si Si7 0.184165 0.384219 0.932529
O O1 0.419644 0.184251 0.721625
O O2 0.658038 0.163754 0.756048
O O3 0.500000 0.000000 0.771412
O O4 0.500000 0.134100 0.000000
O O5 0.080184 0.578341 0.612457
O O6 0.248736 0.787223 0.478698
O O7 0.275457 0.664500 0.197499
O O8 0.186668 0.849879 0.201723
O O9 0.090158 0.782150 0.688634
O O10 0.945304 0.631916 0.839195
O O11 0.170773 0.671433 0.895441
O O12 0.192276 0.963962 0.675797
O O13 0.000000 0.000000 0.831024
O O14 0.805299 0.000000 0.000000
O O15 0.202664 0.500000 0.000000
#
# Coordination Sequence:
#
# PCOD9310382 Si02
#       7
#     4   1   4   4   4   4   4
#     4  11  23  43  70  98 137 190 245 286 355 442
#     4  12  20  38  64 100 136 174 240 300 368 428
#     4  12  25  40  66  99 140 186 235 298 361 426
#     4  11  22  39  65  97 133 175 229 287 360 430
#     4  12  25  39  65 103 141 180 235 299 352 434
#     4  11  23  40  60  94 140 187 228 281 357 437
#     4  11  22  43  66  98 132 184 236 290 354 438
#
# _framework density 21.562632000000001
#
# number of rings (size 3 to 8) (size 9 to 14) (size 15 to 20)
#    0.000    0.640    3.200    6.240    0.000    5.760 
#    0.000    0.000    0.000    5.280    0.000    0.000 
#    0.000    0.000    0.000    0.000    0.000    0.000 
#
# Total GULP energy -139286.152208 kJ/mol
# GULP energy per Si atom -5571.446088 kJ/mol
# Density = 2.151355 g / cm^3
# Si number density = 21.562632 Si / 1000 Ang^3
#
#
#
# Elastic Constant Matrix: (Units=GPa)
#
#
# Indices 1 2 3 4 5 6 
#
# 1 60.8371 22.1903 20.5911 0.0000 0.0000 0.0000
# 2 22.1903 103.1598 41.9499 0.0000 0.0000 0.0000
# 3 20.5911 41.9499 116.2236 0.0000 0.0000 0.0000
# 4 0.0000 0.0000 0.0000 19.2747 0.0000 0.0000
# 5 0.0000 0.0000 0.0000 0.0000 20.2823 0.0000
# 6 0.0000 0.0000 0.0000 0.0000 0.0000 21.8761
#
#
#
# Elastic Compliance Matrix: (Units=1/GPa)
#
#
# Indices 1 2 3 4 5 6 
#
# 1 0.018277 -0.003064 -0.002132 0.000000 0.000000 0.000000
# 2 -0.003064 0.011875 -0.003743 0.000000 0.000000 0.000000
# 3 -0.002132 -0.003743 0.010333 0.000000 0.000000 0.000000
# 4 0.000000 0.000000 0.000000 0.051881 0.000000 0.000000
# 5 0.000000 0.000000 0.000000 0.000000 0.049304 0.000000
# 6 0.000000 0.000000 0.000000 0.000000 0.000000 0.045712
#
#
# Mechanical properties :
#
#
# Convention : Reuss Voigt Hill
#
# Bulk Modulus (GPa) = 44.23742 49.96478 47.10110
# Shear Modulus (GPa) = 23.49661 25.31925 24.40793
#
# Velocity S-wave (km/s) = 3.30463 3.43041 3.36810
# Velocity P-wave (km/s) = 5.92630 6.23799 6.08414
#
# Compressibility (1/GPa) = 0.02260530
#
# Stress axis : x y z
#
# Youngs Moduli (GPa) = 54.71453 84.20993 96.77807
#
# Poissons Ratio (x) = 0.25806 0.20633
# Poissons Ratio (y) = 0.16767 0.36227
# Poissons Ratio (z) = 0.11665 0.31522
#
# Static dielectric constant tensor:
#      x y z
#    x 1.817750 0.000000 0.000000 
#    y 0.000000 1.846040 0.000000 
#    z 0.000000 0.000000 2.203550 
# 
# From -- ./inp_files/4742.got.cif
#   From: 2010.05.17/outbox.cif.g08.bks.cpg/sg16_3_cif.got.tgz:4742.got - 2010.06.03 22:28:35.
