data_PCOD9310038
_publ_section_title
;
Structure prediction by ZEFSAII (Michael W. Deem and Ramdas Pophale) SiO2 
 PCOD9310038
Probable space group: P 2 2 2
;
_chemical_formula_sum "Si O2"
_cell_formula_units_Z 30
_cell_length_a 12.759650
_cell_length_b 23.652447
_cell_length_c 5.068949
_cell_angle_alpha 90.000000
_cell_angle_beta 90.000000
_cell_angle_gamma 90.000000
_cell_volume 1529.793324
_symmetry_space_group_name_H-M "P 2 2 2"
_symmetry_group_IT_number 16
_symmetry_cell_setting 'orthorhombic'
loop_
_space_group_symop_operation_xyz
x,y,z
-x,-y,z
x,-y,-z
-x,y,-z
loop_
_atom_site_type_symbol
_atom_site_label
_atom_site_fract_x
_atom_site_fract_y
_atom_site_fract_z
Si Si1 0.065530 0.687001 0.752321
Si Si2 0.783216 0.788622 0.410268
Si Si3 0.878767 0.155620 0.075634
Si Si4 0.603167 0.278696 0.861262
Si Si5 0.118253 0.026665 0.753935
Si Si6 0.296935 0.565789 0.526915
Si Si7 0.500000 0.374194 0.500000
Si Si8 0.755111 0.628194 0.958429
O O1 0.139933 0.736411 0.648006
O O2 0.137150 0.641086 0.893830
O O3 0.000000 0.667797 0.500000
O O4 0.000000 0.709771 0.000000
O O5 0.815226 0.808143 0.704447
O O6 0.669045 0.763545 0.327355
O O7 0.815663 0.836907 0.198222
O O8 0.886128 0.093174 0.203654
O O9 0.000000 0.169315 0.000000
O O10 0.553104 0.330898 0.701220
O O11 0.686774 0.313158 0.046858
O O12 0.500000 0.252391 0.000000
O O13 0.169659 0.000000 0.500000
O O14 0.000000 0.000000 0.752237
O O15 0.175495 0.000000 0.000000
O O16 0.276240 0.500000 0.500000
O O17 0.409024 0.584421 0.404659
O O18 0.295841 0.584232 0.832752
O O19 0.226006 0.603578 0.331515
#
# Coordination Sequence:
#
# PCOD9310038 Si02
#       8
#     4   4   4   4   4   4   2   4
#     4  11  21  38  57  79 111 150 202 235 277 351
#     4  11  25  34  55  89 117 159 200 247 305 348
#     4  12  22  37  55  82 129 161 198 249 296 351
#     4  10  21  39  60  79 120 157 202 238 294 380
#     4  10  19  33  53  79 108 165 207 225 287 353
#     4  11  21  36  57  87 116 139 183 243 297 354
#     4  10  21  36  60  82 112 158 187 222 306 368
#     4  10  22  37  58  84 109 152 191 229 293 357
#
# _framework density 19.610492000000001
#
# number of rings (size 3 to 8) (size 9 to 14) (size 15 to 20)
#    0.000    1.333    2.667    4.600    3.733    2.133 
#    0.000    1.333    0.000    6.000    0.000    0.000 
#    0.000    8.000    0.000    0.000    0.000    0.000 
#
# Total GULP energy -167134.789640 kJ/mol
# GULP energy per Si atom -5571.159655 kJ/mol
# Density = 1.956586 g / cm^3
# Si number density = 19.610492 Si / 1000 Ang^3
#
#
#
# Elastic Constant Matrix: (Units=GPa)
#
#
# Indices 1 2 3 4 5 6 
#
# 1 79.1945 19.4316 23.5513 0.0000 0.0000 0.0000
# 2 19.4316 63.7506 12.0218 0.0000 0.0000 0.0000
# 3 23.5513 12.0218 119.6430 0.0000 0.0000 0.0000
# 4 0.0000 0.0000 0.0000 31.9528 0.0000 0.0000
# 5 0.0000 0.0000 0.0000 0.0000 25.9433 0.0000
# 6 0.0000 0.0000 0.0000 0.0000 0.0000 17.6622
#
#
#
# Elastic Compliance Matrix: (Units=1/GPa)
#
#
# Indices 1 2 3 4 5 6 
#
# 1 0.014306 -0.003903 -0.002424 0.000000 0.000000 0.000000
# 2 -0.003903 0.017054 -0.000945 0.000000 0.000000 0.000000
# 3 -0.002424 -0.000945 0.008930 0.000000 0.000000 0.000000
# 4 0.000000 0.000000 0.000000 0.031296 0.000000 0.000000
# 5 0.000000 0.000000 0.000000 0.000000 0.038546 0.000000
# 6 0.000000 0.000000 0.000000 0.000000 0.000000 0.056618
#
#
# Mechanical properties :
#
#
# Convention : Reuss Voigt Hill
#
# Bulk Modulus (GPa) = 38.84209 41.39970 40.12090
# Shear Modulus (GPa) = 26.33286 28.95054 27.64170
#
# Velocity S-wave (km/s) = 3.66839 3.84640 3.75845
# Velocity P-wave (km/s) = 6.14757 6.39400 6.27200
#
# Compressibility (1/GPa) = 0.02574527
#
# Stress axis : x y z
#
# Youngs Moduli (GPa) = 69.90215 58.63668 111.97840
#
# Poissons Ratio (x) = 0.22888 0.27141
# Poissons Ratio (y) = 0.27286 0.10585
# Poissons Ratio (z) = 0.16943 0.05543
#
# Static dielectric constant tensor:
#      x y z
#    x 1.833110 0.000000 0.000000 
#    y 0.000000 1.723270 0.000000 
#    z 0.000000 0.000000 1.911660 
# 
# From -- ./inp_files/1688.got.cif
#   From: 2010.05.17/outbox.cif.g08.bks.cpg/sg16_1_cif.got.tgz:1688.got - 2010.06.03 22:28:35.
