data_PCOD9310263
_publ_section_title
;
Structure prediction by ZEFSAII (Michael W. Deem and Ramdas Pophale) SiO2 
 PCOD9310263
Probable space group: P 2 2 2
;
_chemical_formula_sum "Si O2"
_cell_formula_units_Z 29
_cell_length_a 7.775171
_cell_length_b 20.006635
_cell_length_c 9.413638
_cell_angle_alpha 90.000000
_cell_angle_beta 90.000000
_cell_angle_gamma 90.000000
_cell_volume 1464.338537
_symmetry_space_group_name_H-M "P 2 2 2"
_symmetry_group_IT_number 16
_symmetry_cell_setting 'orthorhombic'
loop_
_space_group_symop_operation_xyz
x,y,z
-x,-y,z
x,-y,-z
-x,y,-z
loop_
_atom_site_type_symbol
_atom_site_label
_atom_site_fract_x
_atom_site_fract_y
_atom_site_fract_z
Si Si1 0.311322 0.648691 0.704134
Si Si2 0.020597 0.132928 0.342878
Si Si3 0.297616 0.648929 0.203867
Si Si4 0.803845 0.428629 0.454564
Si Si5 0.000000 0.000000 0.500000
Si Si6 0.281399 0.799094 0.170671
Si Si7 0.693837 0.207299 0.829872
Si Si8 0.197360 0.571458 0.952701
O O1 0.510500 0.645110 0.740108
O O2 0.279931 0.632848 0.540496
O O3 0.256752 0.719891 0.766772
O O4 0.218806 0.588922 0.789259
O O5 0.181749 0.158559 0.254769
O O6 0.000000 0.166212 0.500000
O O7 0.846432 0.149618 0.252103
O O8 0.063880 0.056226 0.386967
O O9 0.202322 0.590985 0.290357
O O10 0.229864 0.724041 0.220249
O O11 0.292311 0.629473 0.039521
O O12 0.724584 0.500000 0.500000
O O13 0.000000 0.430396 0.500000
O O14 0.488745 0.805312 0.196920
O O15 0.268660 0.799354 0.998513
O O16 0.268507 0.500000 0.000000
O O17 0.000000 0.574184 0.000000
#
# Coordination Sequence:
#
# PCOD9310263 Si02
#       8
#     4   4   4   4   1   4   4   4
#     4  11  23  38  58  84 115 154 205 263 315 373
#     4  10  23  43  71  97 132 176 201 257 307 368
#     4  11  23  38  58  84 115 154 205 263 315 373
#     4  11  25  40  53  75 112 156 206 262 319 384
#     4   8  24  48  64 108 140 162 228 236 298 396
#     4  10  22  40  64 100 133 167 217 266 319 380
#     4  10  22  40  64 100 133 167 217 266 319 380
#     4  11  23  37  55  81 115 159 212 261 318 382
#
# _framework density 19.804162999999999
#
# number of rings (size 3 to 8) (size 9 to 14) (size 15 to 20)
#    0.414    1.103    1.379    2.897    5.793    6.069 
#    0.000    2.759    0.000    1.655    0.000    0.000 
#    0.000    0.000    0.000    0.000    0.000    0.000 
#
# Total GULP energy -161612.647759 kJ/mol
# GULP energy per Si atom -5572.849923 kJ/mol
# Density = 1.975909 g / cm^3
# Si number density = 19.804163 Si / 1000 Ang^3
#
#
#
# Elastic Constant Matrix: (Units=GPa)
#
#
# Indices 1 2 3 4 5 6 
#
# 1 61.3988 34.0982 31.9075 0.0000 0.0000 0.0000
# 2 34.0982 94.0215 34.8665 0.0000 0.0000 0.0000
# 3 31.9075 34.8665 100.8244 0.0000 0.0000 0.0000
# 4 0.0000 0.0000 0.0000 38.1644 0.0000 0.0000
# 5 0.0000 0.0000 0.0000 0.0000 32.9798 0.0000
# 6 0.0000 0.0000 0.0000 0.0000 0.0000 22.3741
#
#
#
# Elastic Compliance Matrix: (Units=1/GPa)
#
#
# Indices 1 2 3 4 5 6 
#
# 1 0.022316 -0.006280 -0.004891 0.000000 0.000000 0.000000
# 2 -0.006280 0.013967 -0.002843 0.000000 0.000000 0.000000
# 3 -0.004891 -0.002843 0.012449 0.000000 0.000000 0.000000
# 4 0.000000 0.000000 0.000000 0.026202 0.000000 0.000000
# 5 0.000000 0.000000 0.000000 0.000000 0.030322 0.000000
# 6 0.000000 0.000000 0.000000 0.000000 0.000000 0.044695
#
#
# Mechanical properties :
#
#
# Convention : Reuss Voigt Hill
#
# Bulk Modulus (GPa) = 48.29457 50.88768 49.59113
# Shear Modulus (GPa) = 27.04466 29.06181 28.05324
#
# Velocity S-wave (km/s) = 3.69942 3.83490 3.76777
# Velocity P-wave (km/s) = 6.53350 6.73497 6.63500
#
# Compressibility (1/GPa) = 0.02070626
#
# Stress axis : x y z
#
# Youngs Moduli (GPa) = 44.81108 71.59495 80.32728
#
# Poissons Ratio (x) = 0.44958 0.39285
# Poissons Ratio (y) = 0.28139 0.22836
# Poissons Ratio (z) = 0.21916 0.20354
#
# Static dielectric constant tensor:
#      x y z
#    x 1.718700 0.000000 0.000000 
#    y 0.000000 1.737480 0.000000 
#    z 0.000000 0.000000 1.679910 
# 
# From -- ./inp_files/4216.got.cif
#   From: 2010.05.17/outbox.cif.g08.bks.cpg/sg16_3_cif.got.tgz:4216.got - 2010.06.03 22:28:35.
