data_PCOD9310621
_publ_section_title
;
Structure prediction by ZEFSAII (Michael W. Deem and Ramdas Pophale) SiO2 
 PCOD9310621
Probable space group: P 2 2 21
;
_chemical_formula_sum "Si O2"
_cell_formula_units_Z 20
_cell_length_a 12.451897
_cell_length_b 5.003840
_cell_length_c 16.728896
_cell_angle_alpha 90.000000
_cell_angle_beta 90.000000
_cell_angle_gamma 90.000000
_cell_volume 1042.332346
_symmetry_space_group_name_H-M "P 2 2 21"
_symmetry_group_IT_number 17
_symmetry_cell_setting 'orthorhombic'
loop_
_space_group_symop_operation_xyz
x,y,z
-x,-y,1/2+z
x,-y,-z
-x,y,1/2-z
loop_
_atom_site_type_symbol
_atom_site_label
_atom_site_fract_x
_atom_site_fract_y
_atom_site_fract_z
Si Si1 0.115332 0.240874 0.442779
Si Si2 0.374354 0.636172 0.235262
Si Si3 0.756352 0.129405 0.212407
Si Si4 0.750620 0.656726 0.419270
Si Si5 0.117872 0.155464 0.131830
O O1 0.105237 0.500000 0.500000
O O2 0.199557 0.245592 0.370310
O O3 0.002160 0.164306 0.400900
O O4 0.147083 0.000000 0.500000
O O5 0.500000 0.656862 0.250000
O O6 0.328102 0.342803 0.252926
O O7 0.346502 0.692115 0.142443
O O8 0.305536 0.847524 0.287450
O O9 0.855224 0.095773 0.275414
O O10 0.719025 0.500000 0.500000
O O11 0.835965 0.450877 0.381547
O O12 0.812514 0.938672 0.417596
#
# Coordination Sequence:
#
# PCOD9310621 Si02
#       5
#     4   4   4   4   4
#     4  12  23  36  56  85 119 154 184 223 279 344
#     4  10  21  39  61  81 108 151 195 238 289 338
#     4  10  22  39  58  82 113 148 192 236 279 342
#     4  10  19  33  55  85 112 140 187 243 283 323
#     4  10  20  35  57  81 114 151 184 224 278 339
#
# _framework density 19.187739000000001
#
# number of rings (size 3 to 8) (size 9 to 14) (size 15 to 20)
#    0.000    1.600    0.000    6.000    0.000    0.000 
#    0.000   11.000    0.000    2.400    0.000    0.000 
#    0.000    0.000    0.000    0.000    0.000    0.000 
#
# Total GULP energy -111541.493344 kJ/mol
# GULP energy per Si atom -5577.074667 kJ/mol
# Density = 1.914407 g / cm^3
# Si number density = 19.187739 Si / 1000 Ang^3
#
#
#
# Elastic Constant Matrix: (Units=GPa)
#
#
# Indices 1 2 3 4 5 6 
#
# 1 67.4606 -7.3546 47.3477 0.0000 0.0000 0.0000
# 2 -7.3546 83.4845 12.9437 0.0000 0.0000 0.0000
# 3 47.3477 12.9437 108.6909 0.0000 0.0000 0.0000
# 4 0.0000 0.0000 0.0000 29.2026 0.0000 0.0000
# 5 0.0000 0.0000 0.0000 0.0000 11.0823 0.0000
# 6 0.0000 0.0000 0.0000 0.0000 0.0000 16.0677
#
#
#
# Elastic Compliance Matrix: (Units=1/GPa)
#
#
# Indices 1 2 3 4 5 6 
#
# 1 0.022334 0.003541 -0.010151 0.000000 0.000000 0.000000
# 2 0.003541 0.012765 -0.003063 0.000000 0.000000 0.000000
# 3 -0.010151 -0.003063 0.013987 0.000000 0.000000 0.000000
# 4 0.000000 0.000000 0.000000 0.034244 0.000000 0.000000
# 5 0.000000 0.000000 0.000000 0.000000 0.090234 0.000000
# 6 0.000000 0.000000 0.000000 0.000000 0.000000 0.062236
#
#
# Mechanical properties :
#
#
# Convention : Reuss Voigt Hill
#
# Bulk Modulus (GPa) = 33.62307 40.61219 37.11763
# Shear Modulus (GPa) = 18.86376 25.05047 21.95712
#
# Velocity S-wave (km/s) = 3.13887 3.61715 3.38647
# Velocity P-wave (km/s) = 5.54057 6.21745 5.88874
#
# Compressibility (1/GPa) = 0.02974149
#
# Stress axis : x y z
#
# Youngs Moduli (GPa) = 44.77485 78.33850 71.49486
#
# Poissons Ratio (x) = -0.27742 0.72573
# Poissons Ratio (y) = -0.15856 0.21898
# Poissons Ratio (z) = 0.45450 0.23994
#
# Static dielectric constant tensor:
#      x y z
#    x 1.623840 0.000000 0.000000 
#    y 0.000000 1.662180 0.000000 
#    z 0.000000 0.000000 1.778520 
# 
# From -- ./inp_files/7613.got.cif
#   From: 2010.05.17/outbox.cif.g08.bks.cpg/sg17_4_cif.got.tgz:7613.got - 2010.06.03 22:34:06.
