data_PCOD9310830
_publ_section_title
;
Structure prediction by ZEFSAII (Michael W. Deem and Ramdas Pophale) SiO2 
 PCOD9310830
Probable space group: P 2 2 21
;
_chemical_formula_sum "Si O2"
_cell_formula_units_Z 20
_cell_length_a 12.308572
_cell_length_b 7.479780
_cell_length_c 7.959867
_cell_angle_alpha 90.000000
_cell_angle_beta 90.000000
_cell_angle_gamma 90.000000
_cell_volume 732.828424
_symmetry_space_group_name_H-M "P 2 2 21"
_symmetry_group_IT_number 17
_symmetry_cell_setting 'orthorhombic'
loop_
_space_group_symop_operation_xyz
x,y,z
-x,-y,1/2+z
x,-y,-z
-x,y,1/2-z
loop_
_atom_site_type_symbol
_atom_site_label
_atom_site_fract_x
_atom_site_fract_y
_atom_site_fract_z
Si Si1 0.834214 0.747536 0.794457
Si Si2 0.574289 0.804512 0.424922
Si Si3 0.970436 0.280353 0.520896
Si Si4 0.220307 0.666461 0.248894
Si Si5 0.631581 0.200392 0.052995
O O1 0.899468 0.800324 0.630572
O O2 0.814109 0.536475 0.777052
O O3 0.910061 0.781660 0.958494
O O4 0.713000 0.822305 0.793700
O O5 0.500000 0.812013 0.250000
O O6 0.685736 0.700885 0.389266
O O7 0.486864 0.713716 0.552636
O O8 0.601381 0.000000 0.500000
O O9 0.974480 0.500000 0.500000
O O10 0.894036 0.247823 0.684198
O O11 0.288058 0.717417 0.414781
O O12 0.608349 0.000000 0.000000
#
# Coordination Sequence:
#
# PCOD9310830 Si02
#       5
#     4   4   4   4   4
#     4  10  20  38  60  84 116 155 203 254 305 364
#     4   9  20  38  59  86 120 161 203 249 309 366
#     4   9  19  35  58  86 115 151 196 252 314 359
#     4  10  20  37  62  87 114 156 207 253 299 366
#     4  10  21  38  59  85 123 165 200 245 308 365
#
# _framework density 27.291520999999999
#
# number of rings (size 3 to 8) (size 9 to 14) (size 15 to 20)
#    0.000    2.400    0.000    1.800    0.000    7.200 
#    0.000   23.000    0.000    0.000    0.000    0.000 
#    0.000    0.000    0.000    0.000    0.000    0.000 
#
# Total GULP energy -111577.799750 kJ/mol
# GULP energy per Si atom -5578.889988 kJ/mol
# Density = 2.722940 g / cm^3
# Si number density = 27.291521 Si / 1000 Ang^3
#
#
#
# Elastic Constant Matrix: (Units=GPa)
#
#
# Indices 1 2 3 4 5 6 
#
# 1 261.5158 12.9169 39.2081 0.0000 0.0000 0.0000
# 2 12.9169 51.0254 6.2298 0.0000 0.0000 0.0000
# 3 39.2081 6.2298 90.2229 0.0000 0.0000 0.0000
# 4 0.0000 0.0000 0.0000 21.5132 0.0000 0.0000
# 5 0.0000 0.0000 0.0000 0.0000 52.2763 0.0000
# 6 0.0000 0.0000 0.0000 0.0000 0.0000 14.8889
#
#
#
# Elastic Compliance Matrix: (Units=1/GPa)
#
#
# Indices 1 2 3 4 5 6 
#
# 1 0.004125 -0.000832 -0.001735 0.000000 0.000000 0.000000
# 2 -0.000832 0.019933 -0.001015 0.000000 0.000000 0.000000
# 3 -0.001735 -0.001015 0.011908 0.000000 0.000000 0.000000
# 4 0.000000 0.000000 0.000000 0.046483 0.000000 0.000000
# 5 0.000000 0.000000 0.000000 0.000000 0.019129 0.000000
# 6 0.000000 0.000000 0.000000 0.000000 0.000000 0.067164
#
#
# Mechanical properties :
#
#
# Convention : Reuss Voigt Hill
#
# Bulk Modulus (GPa) = 34.72072 57.71928 46.22000
# Shear Modulus (GPa) = 26.95322 40.69630 33.82476
#
# Velocity S-wave (km/s) = 3.14603 3.86576 3.52431
# Velocity P-wave (km/s) = 5.09376 6.41253 5.79081
#
# Compressibility (1/GPa) = 0.02880125
#
# Stress axis : x y z
#
# Youngs Moduli (GPa) = 242.41698 50.16885 83.97876
#
# Poissons Ratio (x) = 0.04176 0.14572
# Poissons Ratio (y) = 0.20179 0.08520
# Poissons Ratio (z) = 0.42064 0.05090
#
# Static dielectric constant tensor:
#      x y z
#    x 2.260770 0.000000 0.000000 
#    y 0.000000 2.190260 0.000000 
#    z 0.000000 0.000000 2.506800 
# 
# From -- ./inp_files/4604.got.cif
#   From: 2010.05.17/outbox.cif.g08.bks.cpg/sg17_3_cif.got.tgz:4604.got - 2010.06.03 22:34:06.
