data_PCOD9310647
_publ_section_title
;
Structure prediction by ZEFSAII (Michael W. Deem and Ramdas Pophale) SiO2 
 PCOD9310647
Probable space group: P 2 2 21
;
_chemical_formula_sum "Si O2"
_cell_formula_units_Z 18
_cell_length_a 17.135057
_cell_length_b 11.183024
_cell_length_c 5.018662
_cell_angle_alpha 90.000000
_cell_angle_beta 90.000000
_cell_angle_gamma 90.000000
_cell_volume 961.684814
_symmetry_space_group_name_H-M "P 2 2 21"
_symmetry_group_IT_number 17
_symmetry_cell_setting 'orthorhombic'
loop_
_space_group_symop_operation_xyz
x,y,z
-x,-y,1/2+z
x,-y,-z
-x,y,1/2-z
loop_
_atom_site_type_symbol
_atom_site_label
_atom_site_fract_x
_atom_site_fract_y
_atom_site_fract_z
Si Si1 0.558407 0.000000 0.500000
Si Si2 0.500000 0.419071 0.250000
Si Si3 0.000000 0.911006 0.250000
Si Si4 0.832279 0.913192 0.252337
Si Si5 0.316476 0.785123 0.000720
Si Si6 0.658336 0.358945 0.011284
O O1 0.617638 0.112556 0.466274
O O2 0.500000 0.985457 0.250000
O O3 0.525463 0.500000 0.500000
O O4 0.572422 0.347139 0.139253
O O5 0.083951 0.845729 0.270493
O O6 0.002804 0.000000 0.500000
O O7 0.758282 0.837652 0.343570
O O8 0.844346 0.000000 0.500000
O O9 0.816926 0.000000 0.000000
O O10 0.345698 0.687737 0.212370
O O11 0.293816 0.722965 0.720006
O O12 0.678549 0.500000 0.000000
#
# Coordination Sequence:
#
# PCOD9310647 Si02
#       6
#     2   2   2   4   4   4
#     4  12  28  42  54  82 118 162 198 222 284 356
#     4  10  20  38  56  74 100 134 186 250 286 310
#     4   8  16  30  54  80 114 146 176 228 274 344
#     4  10  19  35  55  85 117 148 186 224 290 345
#     4  12  24  39  60  80 117 155 187 241 282 344
#     4  11  24  40  58  82 106 146 201 247 290 319
#
# _framework density 18.71715
#
# number of rings (size 3 to 8) (size 9 to 14) (size 15 to 20)
#    0.000    1.333    1.111    6.000    6.222    0.000 
#    0.000    0.000    0.000    0.000    0.000    3.111 
#    0.000    1.778    0.000    0.000    0.000    0.000 
#
# Total GULP energy -100310.365895 kJ/mol
# GULP energy per Si atom -5572.798105 kJ/mol
# Density = 1.867455 g / cm^3
# Si number density = 18.717150 Si / 1000 Ang^3
#
#
#
# Elastic Constant Matrix: (Units=GPa)
#
#
# Indices 1 2 3 4 5 6 
#
# 1 104.7749 18.8453 -1.0124 0.0000 0.0000 0.0000
# 2 18.8453 85.1204 23.0685 0.0000 0.0000 0.0000
# 3 -1.0124 23.0685 110.3561 0.0000 0.0000 0.0000
# 4 0.0000 0.0000 0.0000 35.8276 0.0000 0.0000
# 5 0.0000 0.0000 0.0000 0.0000 22.3337 0.0000
# 6 0.0000 0.0000 0.0000 0.0000 0.0000 11.1936
#
#
#
# Elastic Compliance Matrix: (Units=1/GPa)
#
#
# Indices 1 2 3 4 5 6 
#
# 1 0.009976 -0.002368 0.000586 0.000000 0.000000 0.000000
# 2 -0.002368 0.013015 -0.002742 0.000000 0.000000 0.000000
# 3 0.000586 -0.002742 0.009640 0.000000 0.000000 0.000000
# 4 0.000000 0.000000 0.000000 0.027911 0.000000 0.000000
# 5 0.000000 0.000000 0.000000 0.000000 0.044775 0.000000
# 6 0.000000 0.000000 0.000000 0.000000 0.000000 0.089337
#
#
# Mechanical properties :
#
#
# Convention : Reuss Voigt Hill
#
# Bulk Modulus (GPa) = 42.40095 42.45047 42.42571
# Shear Modulus (GPa) = 23.63355 31.16097 27.39726
#
# Velocity S-wave (km/s) = 3.55726 4.08467 3.83005
# Velocity P-wave (km/s) = 6.29085 6.70636 6.50192
#
# Compressibility (1/GPa) = 0.02358438
#
# Stress axis : x y z
#
# Youngs Moduli (GPa) = 100.24291 76.83176 103.73206
#
# Poissons Ratio (x) = 0.18190 -0.06083
# Poissons Ratio (y) = 0.23733 0.28448
# Poissons Ratio (z) = -0.05878 0.21071
#
# Static dielectric constant tensor:
#      x y z
#    x 1.788180 0.000000 0.000000 
#    y 0.000000 1.675700 0.000000 
#    z 0.000000 0.000000 1.676500 
# 
# From -- ./inp_files/2458.got.cif
#   From: 2010.05.17/outbox.cif.g08.bks.cpg/sg17_2_cif.got.tgz:2458.got - 2010.06.03 22:34:06.
