data_PCOD9310308
_publ_section_title
;
Structure prediction by ZEFSAII (Michael W. Deem and Ramdas Pophale) SiO2 
 PCOD9310308
Probable space group: P 2 2 2
;
_chemical_formula_sum "Si O2"
_cell_formula_units_Z 32
_cell_length_a 9.084345
_cell_length_b 15.330608
_cell_length_c 10.837580
_cell_angle_alpha 90.000000
_cell_angle_beta 90.000000
_cell_angle_gamma 90.000000
_cell_volume 1509.333858
_symmetry_space_group_name_H-M "P 2 2 2"
_symmetry_group_IT_number 16
_symmetry_cell_setting 'orthorhombic'
loop_
_space_group_symop_operation_xyz
x,y,z
-x,-y,z
x,-y,-z
-x,y,-z
loop_
_atom_site_type_symbol
_atom_site_label
_atom_site_fract_x
_atom_site_fract_y
_atom_site_fract_z
Si Si1 0.971206 0.601049 0.852813
Si Si2 0.772650 0.704950 0.236233
Si Si3 0.687430 0.856423 0.378821
Si Si4 0.673657 0.839188 0.025323
Si Si5 0.342561 0.123234 0.660523
Si Si6 0.288144 0.283876 0.795959
Si Si7 0.537588 0.596841 0.145731
Si Si8 0.171053 0.023685 0.187890
O O1 0.059016 0.678312 0.781509
O O2 0.000000 0.500000 0.818720
O O3 0.806547 0.630912 0.823583
O O4 0.000000 0.608929 0.000000
O O5 0.727049 0.753815 0.361710
O O6 0.710221 0.772314 0.135150
O O7 0.701542 0.614618 0.189643
O O8 0.686000 0.893521 0.516752
O O9 0.521291 0.873892 0.325741
O O10 0.809355 0.906915 0.299284
O O11 0.758301 0.925323 0.070910
O O12 0.500000 0.854783 0.000000
O O13 0.729493 0.784148 0.908598
O O14 0.274706 0.219286 0.682140
O O15 0.269261 0.056233 0.757587
O O16 0.449684 0.324978 0.791436
O O17 0.500000 0.500000 0.183380
O O18 0.500000 0.604947 0.000000
O O19 0.000000 0.000000 0.168685
#
# Coordination Sequence:
#
# PCOD9310308 Si02
#       8
#     4   4   4   4   4   4   4   4
#     4  11  23  37  60  96 138 174 208 260 332 401
#     4  11  19  39  61  92 129 164 212 267 319 382
#     4  10  23  44  70  92 123 172 229 278 325 386
#     4  11  21  41  67  93 133 174 207 261 328 394
#     4  11  24  43  69  94 124 174 226 275 329 388
#     4  12  21  38  62  91 132 170 212 261 319 394
#     4  11  19  33  60  94 126 163 213 263 317 391
#     4  11  26  44  68 100 132 167 216 277 328 393
#
# _framework density 21.201405000000001
#
# number of rings (size 3 to 8) (size 9 to 14) (size 15 to 20)
#    0.000    1.000    5.000    2.250    3.500    4.500 
#    0.000    3.125    0.000    4.500    0.000    0.000 
#    0.000    0.000    0.000    0.000    0.000    0.000 
#
# Total GULP energy -178366.503581 kJ/mol
# GULP energy per Si atom -5573.953237 kJ/mol
# Density = 2.115315 g / cm^3
# Si number density = 21.201405 Si / 1000 Ang^3
#
#
#
# Elastic Constant Matrix: (Units=GPa)
#
#
# Indices 1 2 3 4 5 6 
#
# 1 76.8728 33.3664 15.6381 0.0000 0.0000 0.0000
# 2 33.3664 136.1643 36.0871 0.0000 0.0000 0.0000
# 3 15.6381 36.0871 43.2347 0.0000 0.0000 0.0000
# 4 0.0000 0.0000 0.0000 15.3362 0.0000 0.0000
# 5 0.0000 0.0000 0.0000 0.0000 20.5306 0.0000
# 6 0.0000 0.0000 0.0000 0.0000 0.0000 48.3223
#
#
#
# Elastic Compliance Matrix: (Units=1/GPa)
#
#
# Indices 1 2 3 4 5 6 
#
# 1 0.014853 -0.002845 -0.002998 0.000000 0.000000 0.000000
# 2 -0.002845 0.009975 -0.007297 0.000000 0.000000 0.000000
# 3 -0.002998 -0.007297 0.030304 0.000000 0.000000 0.000000
# 4 0.000000 0.000000 0.000000 0.065205 0.000000 0.000000
# 5 0.000000 0.000000 0.000000 0.000000 0.048708 0.000000
# 6 0.000000 0.000000 0.000000 0.000000 0.000000 0.020694
#
#
# Mechanical properties :
#
#
# Convention : Reuss Voigt Hill
#
# Bulk Modulus (GPa) = 34.65806 47.38388 41.02097
# Shear Modulus (GPa) = 22.15942 28.24983 25.20463
#
# Velocity S-wave (km/s) = 3.23644 3.65424 3.45167
# Velocity P-wave (km/s) = 5.50896 6.34054 5.93932
#
# Compressibility (1/GPa) = 0.02885331
#
# Stress axis : x y z
#
# Youngs Moduli (GPa) = 67.32522 100.24892 32.99852
#
# Poissons Ratio (x) = 0.28524 0.09891
# Poissons Ratio (y) = 0.19156 0.24079
# Poissons Ratio (z) = 0.20181 0.73151
#
# Static dielectric constant tensor:
#      x y z
#    x 1.777400 0.000000 0.000000 
#    y 0.000000 1.796750 0.000000 
#    z 0.000000 0.000000 1.273670 
# 
# From -- ./inp_files/6621.got.cif
#   From: 2010.05.17/outbox.cif.g08.bks.cpg/sg16_4_cif.got.tgz:6621.got - 2010.06.03 22:28:35.
