data_PCOD9310963
_publ_section_title
;
Structure prediction by ZEFSAII (Michael W. Deem and Ramdas Pophale) SiO2 
 PCOD9310963
Probable space group: P 2 2 21
;
_chemical_formula_sum "Si O2"
_cell_formula_units_Z 16
_cell_length_a 6.367194
_cell_length_b 14.833243
_cell_length_c 7.276230
_cell_angle_alpha 90.000000
_cell_angle_beta 90.000000
_cell_angle_gamma 90.000000
_cell_volume 687.211807
_symmetry_space_group_name_H-M "P 2 2 21"
_symmetry_group_IT_number 17
_symmetry_cell_setting 'orthorhombic'
loop_
_space_group_symop_operation_xyz
x,y,z
-x,-y,1/2+z
x,-y,-z
-x,y,1/2-z
loop_
_atom_site_type_symbol
_atom_site_label
_atom_site_fract_x
_atom_site_fract_y
_atom_site_fract_z
Si Si1 0.000000 0.852329 0.750000
Si Si2 0.000000 0.317576 0.750000
Si Si3 0.337404 0.234902 0.024080
Si Si4 0.500000 0.911887 0.250000
Si Si5 0.379393 0.602946 0.440968
Si Si6 0.831549 0.000000 0.000000
O O1 0.205868 0.794265 0.797584
O O2 0.037428 0.915375 0.572770
O O3 0.836553 0.261855 0.629130
O O4 0.861417 0.373341 0.896069
O O5 0.452262 0.151416 0.925492
O O6 0.495741 0.318832 0.048925
O O7 0.690331 0.972208 0.175494
O O8 0.397465 0.500000 0.500000
O O9 0.500000 0.607252 0.250000
#
# Coordination Sequence:
#
# PCOD9310963 Si02
#       6
#     2   2   4   2   4   2
#     4  12  26  43  71 106 142 180 250 286 366 418
#     4  10  20  43  67 100 132 196 226 294 342 418
#     4  11  23  43  70 101 140 191 228 297 349 427
#     4  12  22  46  70  96 146 182 238 292 370 404
#     4  10  23  43  69 100 143 183 234 286 354 414
#     4  12  26  44  70 104 136 188 236 304 346 432
#
# _framework density 23.282485999999999
#
# number of rings (size 3 to 8) (size 9 to 14) (size 15 to 20)
#    0.000    1.000    3.750    4.500    0.000    6.000 
#    0.000    1.250    0.000    0.000    0.000    0.000 
#    0.000    0.000    0.000    0.000    0.000    0.000 
#
# Total GULP energy -89500.641147 kJ/mol
# GULP energy per Si atom -5593.790072 kJ/mol
# Density = 2.322949 g / cm^3
# Si number density = 23.282486 Si / 1000 Ang^3
#
#
#
# Elastic Constant Matrix: (Units=GPa)
#
#
# Indices 1 2 3 4 5 6 
#
# 1 102.3551 64.0734 18.4091 0.0000 0.0000 0.0000
# 2 64.0734 138.1483 34.0265 0.0000 0.0000 0.0000
# 3 18.4091 34.0265 81.1740 0.0000 0.0000 0.0000
# 4 0.0000 0.0000 0.0000 52.4088 0.0000 0.0000
# 5 0.0000 0.0000 0.0000 0.0000 53.7037 0.0000
# 6 0.0000 0.0000 0.0000 0.0000 0.0000 44.8783
#
#
#
# Elastic Compliance Matrix: (Units=1/GPa)
#
#
# Indices 1 2 3 4 5 6 
#
# 1 0.013785 -0.006271 -0.000498 0.000000 0.000000 0.000000
# 2 -0.006271 0.010925 -0.003157 0.000000 0.000000 0.000000
# 3 -0.000498 -0.003157 0.013756 0.000000 0.000000 0.000000
# 4 0.000000 0.000000 0.000000 0.019081 0.000000 0.000000
# 5 0.000000 0.000000 0.000000 0.000000 0.018621 0.000000
# 6 0.000000 0.000000 0.000000 0.000000 0.000000 0.022282
#
#
# Mechanical properties :
#
#
# Convention : Reuss Voigt Hill
#
# Bulk Modulus (GPa) = 53.72405 61.63281 57.67843
# Shear Modulus (GPa) = 40.15898 43.87606 42.01752
#
# Velocity S-wave (km/s) = 4.15765 4.34580 4.25277
# Velocity P-wave (km/s) = 6.79507 7.19100 6.99584
#
# Compressibility (1/GPa) = 0.01861364
#
# Stress axis : x y z
#
# Youngs Moduli (GPa) = 72.54290 91.53569 72.69814
#
# Poissons Ratio (x) = 0.57401 0.03617
# Poissons Ratio (y) = 0.45491 0.22953
# Poissons Ratio (z) = 0.03610 0.28900
#
# Static dielectric constant tensor:
#      x y z
#    x 1.965080 0.000000 0.000000 
#    y 0.000000 1.919570 0.000000 
#    z 0.000000 0.000000 1.913470 
# 
# From -- ./inp_files/3399.got.cif
#   From: 2010.05.17/outbox.cif.g08.bks.cpg/sg17_2_cif.got.tgz:3399.got - 2010.06.03 22:34:06.
