data_PCOD9310964
_publ_section_title
;
Structure prediction by ZEFSAII (Michael W. Deem and Ramdas Pophale) SiO2 
 PCOD9310964
Probable space group: P 2 2 21
;
_chemical_formula_sum "Si O2"
_cell_formula_units_Z 20
_cell_length_a 6.254007
_cell_length_b 4.985846
_cell_length_c 26.995070
_cell_angle_alpha 90.000000
_cell_angle_beta 90.000000
_cell_angle_gamma 90.000000
_cell_volume 841.747201
_symmetry_space_group_name_H-M "P 2 2 21"
_symmetry_group_IT_number 17
_symmetry_cell_setting 'orthorhombic'
loop_
_space_group_symop_operation_xyz
x,y,z
-x,-y,1/2+z
x,-y,-z
-x,y,1/2-z
loop_
_atom_site_type_symbol
_atom_site_label
_atom_site_fract_x
_atom_site_fract_y
_atom_site_fract_z
Si Si1 0.642857 0.667984 0.562563
Si Si2 0.000000 0.038161 0.750000
Si Si3 0.370756 0.826191 0.439114
Si Si4 0.021855 0.500000 0.500000
Si Si5 0.131064 0.180673 0.154778
Si Si6 0.130767 0.695819 0.346027
O O1 0.564941 0.372510 0.550184
O O2 0.871741 0.682251 0.535599
O O3 0.682617 0.709249 0.621048
O O4 0.455571 0.877780 0.549590
O O5 0.136798 0.216255 0.711491
O O6 0.850937 0.861787 0.713738
O O7 0.321458 0.786155 0.380781
O O8 0.167829 0.698170 0.467052
O O9 0.934032 0.388116 0.148647
O O10 0.065675 0.886068 0.135667
#
# Coordination Sequence:
#
# PCOD9310964 Si02
#       6
#     4   2   4   2   4   4
#     4  12  28  49  76 110 146 199 253 307 381 449
#     4   8  22  36  80 102 138 210 234 280 396 426
#     4  12  28  49  76 110 146 199 253 307 381 449
#     4  12  30  54  76 106 160 198 250 330 376 446
#     4  10  20  43  73  99 144 192 238 299 366 433
#     4  10  20  43  73  99 144 192 238 299 366 433
#
# _framework density 23.760103000000001
#
# number of rings (size 3 to 8) (size 9 to 14) (size 15 to 20)
#    1.200    0.000    2.000    3.600    0.000    4.800 
#    0.000    1.000    0.000    0.000    0.000    0.000 
#    0.000    0.000    0.000    0.000    0.000    0.000 
#
# Total GULP energy -111665.478948 kJ/mol
# GULP energy per Si atom -5583.273947 kJ/mol
# Density = 2.370602 g / cm^3
# Si number density = 23.760103 Si / 1000 Ang^3
#
#
#
# Elastic Constant Matrix: (Units=GPa)
#
#
# Indices 1 2 3 4 5 6 
#
# 1 70.6748 18.0231 45.5322 0.0000 0.0000 0.0000
# 2 18.0231 81.3091 22.7593 0.0000 0.0000 0.0000
# 3 45.5322 22.7593 151.5344 0.0000 0.0000 0.0000
# 4 0.0000 0.0000 0.0000 38.3045 0.0000 0.0000
# 5 0.0000 0.0000 0.0000 0.0000 41.5396 0.0000
# 6 0.0000 0.0000 0.0000 0.0000 0.0000 37.1229
#
#
#
# Elastic Compliance Matrix: (Units=1/GPa)
#
#
# Indices 1 2 3 4 5 6 
#
# 1 0.018055 -0.002593 -0.005036 0.000000 0.000000 0.000000
# 2 -0.002593 0.013211 -0.001205 0.000000 0.000000 0.000000
# 3 -0.005036 -0.001205 0.008293 0.000000 0.000000 0.000000
# 4 0.000000 0.000000 0.000000 0.026107 0.000000 0.000000
# 5 0.000000 0.000000 0.000000 0.000000 0.024073 0.000000
# 6 0.000000 0.000000 0.000000 0.000000 0.000000 0.026938
#
#
# Mechanical properties :
#
#
# Convention : Reuss Voigt Hill
#
# Bulk Modulus (GPa) = 45.67861 52.90528 49.29195
# Shear Modulus (GPa) = 35.30076 37.87364 36.58720
#
# Velocity S-wave (km/s) = 3.85868 3.99683 3.92836
# Velocity P-wave (km/s) = 6.25453 6.60411 6.43170
#
# Compressibility (1/GPa) = 0.02189208
#
# Stress axis : x y z
#
# Youngs Moduli (GPa) = 55.38749 75.69596 120.58030
#
# Poissons Ratio (x) = 0.19624 0.60719
# Poissons Ratio (y) = 0.14359 0.14532
# Poissons Ratio (z) = 0.27891 0.09123
#
# Static dielectric constant tensor:
#      x y z
#    x 1.886790 0.000000 0.000000 
#    y 0.000000 1.863450 0.000000 
#    z 0.000000 0.000000 1.971630 
# 
# From -- ./inp_files/11053.got.cif
#   From: 2010.05.17/outbox.cif.g08.bks.cpg/sg17_6_cif.got.tgz:11053.got - 2010.06.03 22:34:06.
