data_PCOD9310537
_publ_section_title
;
Structure prediction by ZEFSAII (Michael W. Deem and Ramdas Pophale) SiO2 
 PCOD9310537
Probable space group: P 2 2 21
;
_chemical_formula_sum "Si O2"
_cell_formula_units_Z 24
_cell_length_a 11.577705
_cell_length_b 7.771773
_cell_length_c 12.140222
_cell_angle_alpha 90.000000
_cell_angle_beta 90.000000
_cell_angle_gamma 90.000000
_cell_volume 1092.368618
_symmetry_space_group_name_H-M "P 2 2 21"
_symmetry_group_IT_number 17
_symmetry_cell_setting 'orthorhombic'
loop_
_space_group_symop_operation_xyz
x,y,z
-x,-y,1/2+z
x,-y,-z
-x,y,1/2-z
loop_
_atom_site_type_symbol
_atom_site_label
_atom_site_fract_x
_atom_site_fract_y
_atom_site_fract_z
Si Si1 0.140432 0.891339 0.604343
Si Si2 0.513345 0.178148 0.580243
Si Si3 0.644146 0.500000 0.500000
Si Si4 0.306234 0.877249 0.245781
Si Si5 0.000000 0.324862 0.250000
Si Si6 0.751991 0.516481 0.713942
Si Si7 0.644945 0.332899 0.077206
O O1 0.027593 0.800301 0.649400
O O2 0.232706 0.755692 0.557507
O O3 0.108026 0.000000 0.500000
O O4 0.213062 0.993224 0.700160
O O5 0.569352 0.368905 0.572618
O O6 0.620922 0.073268 0.634454
O O7 0.406583 0.156003 0.663011
O O8 0.451085 0.189521 0.458893
O O9 0.721718 0.586109 0.592780
O O10 0.251613 0.690010 0.224187
O O11 0.882137 0.428932 0.260126
O O12 0.658302 0.599745 0.798127
O O13 0.637925 0.500000 0.000000
#
# Coordination Sequence:
#
# PCOD9310537 Si02
#       7
#     4   4   2   4   2   4   4
#     4  11  22  43  63  89 128 170 222 275 332 405
#     4  10  18  34  63  96 129 164 204 247 340 398
#     4  10  20  36  60  98 132 166 204 280 318 406
#     4  10  20  37  65  95 129 163 207 262 330 413
#     4  10  26  44  60  88 120 166 236 282 332 388
#     4  10  21  41  61  93 125 166 227 275 324 389
#     4  11  19  37  68  95 126 169 220 260 315 401
#
# _framework density 21.970604999999999
#
# number of rings (size 3 to 8) (size 9 to 14) (size 15 to 20)
#    0.000    1.667    4.167    0.000    0.000    1.333 
#   15.000   10.000    0.000    0.000    0.000    0.000 
#    0.000    0.000    0.000    0.000    0.000    0.000 
#
# Total GULP energy -133611.881291 kJ/mol
# GULP energy per Si atom -5567.161720 kJ/mol
# Density = 2.192060 g / cm^3
# Si number density = 21.970605 Si / 1000 Ang^3
#
#
#
# Elastic Constant Matrix: (Units=GPa)
#
#
# Indices 1 2 3 4 5 6 
#
# 1 85.4793 26.6921 44.8184 0.0000 0.0000 0.0000
# 2 26.6921 58.6779 29.8381 0.0000 0.0000 0.0000
# 3 44.8184 29.8381 117.0941 0.0000 0.0000 0.0000
# 4 0.0000 0.0000 0.0000 25.0253 0.0000 0.0000
# 5 0.0000 0.0000 0.0000 0.0000 23.8939 0.0000
# 6 0.0000 0.0000 0.0000 0.0000 0.0000 15.6103
#
#
#
# Elastic Compliance Matrix: (Units=1/GPa)
#
#
# Indices 1 2 3 4 5 6 
#
# 1 0.015684 -0.004690 -0.004808 0.000000 0.000000 0.000000
# 2 -0.004690 0.020981 -0.003552 0.000000 0.000000 0.000000
# 3 -0.004808 -0.003552 0.011286 0.000000 0.000000 0.000000
# 4 0.000000 0.000000 0.000000 0.039960 0.000000 0.000000
# 5 0.000000 0.000000 0.000000 0.000000 0.041852 0.000000
# 6 0.000000 0.000000 0.000000 0.000000 0.000000 0.064060
#
#
# Mechanical properties :
#
#
# Convention : Reuss Voigt Hill
#
# Bulk Modulus (GPa) = 45.76151 51.54985 48.65568
# Shear Modulus (GPa) = 22.00652 23.56609 22.78630
#
# Velocity S-wave (km/s) = 3.16829 3.27864 3.22394
# Velocity P-wave (km/s) = 5.85302 6.15196 6.00435
#
# Compressibility (1/GPa) = 0.02185243
#
# Stress axis : x y z
#
# Youngs Moduli (GPa) = 63.75868 47.66115 88.60921
#
# Poissons Ratio (x) = 0.22351 0.42605
# Poissons Ratio (y) = 0.29900 0.31470
# Poissons Ratio (z) = 0.30656 0.16927
#
# Static dielectric constant tensor:
#      x y z
#    x 1.781510 0.000000 0.000000 
#    y 0.000000 1.912460 0.000000 
#    z 0.000000 0.000000 1.964680 
# 
# From -- ./inp_files/6948.got.cif
#   From: 2010.05.17/outbox.cif.g08.bks.cpg/sg17_4_cif.got.tgz:6948.got - 2010.06.03 22:34:06.
