data_PCOD9310139
_publ_section_title
;
Structure prediction by ZEFSAII (Michael W. Deem and Ramdas Pophale) SiO2 
 PCOD9310139
Probable space group: P 2 2 2
;
_chemical_formula_sum "Si O2"
_cell_formula_units_Z 25
_cell_length_a 5.825008
_cell_length_b 11.616318
_cell_length_c 16.863768
_cell_angle_alpha 90.000000
_cell_angle_beta 90.000000
_cell_angle_gamma 90.000000
_cell_volume 1141.089312
_symmetry_space_group_name_H-M "P 2 2 2"
_symmetry_group_IT_number 16
_symmetry_cell_setting 'orthorhombic'
loop_
_space_group_symop_operation_xyz
x,y,z
-x,-y,z
x,-y,-z
-x,y,-z
loop_
_atom_site_type_symbol
_atom_site_label
_atom_site_fract_x
_atom_site_fract_y
_atom_site_fract_z
Si Si1 0.302770 0.811540 0.786719
Si Si2 0.761000 0.981913 0.672156
Si Si3 0.749693 0.538209 0.590993
Si Si4 0.927625 0.631423 0.841730
Si Si5 0.000000 0.000000 0.000000
Si Si6 0.336348 0.816778 0.074847
Si Si7 0.672995 0.277419 0.307212
O O1 0.225739 0.929681 0.746220
O O2 0.505500 0.839698 0.848640
O O3 0.406982 0.737439 0.713659
O O4 0.129574 0.725129 0.829252
O O5 0.500000 0.000000 0.638289
O O6 0.767916 0.850459 0.699704
O O7 0.000000 0.000000 0.624965
O O8 0.500000 0.500000 0.625947
O O9 0.747256 0.500000 0.500000
O O10 0.734355 0.673515 0.607481
O O11 0.000000 0.500000 0.622862
O O12 0.778816 0.692654 0.909930
O O13 0.782373 0.641279 0.759995
O O14 0.000000 0.500000 0.855887
O O15 0.153734 0.916814 0.055298
O O16 0.500000 0.812618 0.000000
#
# Coordination Sequence:
#
# PCOD9310139 Si02
#       7
#     4   4   4   4   1   4   4
#     4  10  23  42  62  95 132 168 223 292 359 412
#     4  10  20  37  59  97 130 170 212 281 350 406
#     4  10  23  41  64  99 142 183 225 275 336 415
#     4  11  24  41  65  96 129 171 223 286 345 420
#     4  12  26  48  70  90 116 176 242 284 354 428
#     4  11  26  45  64  91 126 177 227 290 353 425
#     4  10  22  35  65  96 136 170 221 282 342 411
#
# _framework density 21.908891000000001
#
# number of rings (size 3 to 8) (size 9 to 14) (size 15 to 20)
#    0.000    1.600    1.600    1.680    4.480   13.440 
#    1.440    6.000    0.000    0.000    0.000   49.280 
#    0.000    0.000    0.000    0.000    0.000    0.000 
#
# Total GULP energy -139348.435417 kJ/mol
# GULP energy per Si atom -5573.937417 kJ/mol
# Density = 2.185903 g / cm^3
# Si number density = 21.908891 Si / 1000 Ang^3
#
#
#
# Elastic Constant Matrix: (Units=GPa)
#
#
# Indices 1 2 3 4 5 6 
#
# 1 139.2256 48.3455 15.4670 0.0000 0.0000 0.0000
# 2 48.3455 161.5917 45.8594 0.0000 0.0000 0.0000
# 3 15.4670 45.8594 57.2457 0.0000 0.0000 0.0000
# 4 0.0000 0.0000 0.0000 9.2096 0.0000 0.0000
# 5 0.0000 0.0000 0.0000 0.0000 5.1299 0.0000
# 6 0.0000 0.0000 0.0000 0.0000 0.0000 30.3053
#
#
#
# Elastic Compliance Matrix: (Units=1/GPa)
#
#
# Indices 1 2 3 4 5 6 
#
# 1 0.008020 -0.002309 -0.000317 0.000000 0.000000 0.000000
# 2 -0.002309 0.008674 -0.006325 0.000000 0.000000 0.000000
# 3 -0.000317 -0.006325 0.022621 0.000000 0.000000 0.000000
# 4 0.000000 0.000000 0.000000 0.108582 0.000000 0.000000
# 5 0.000000 0.000000 0.000000 0.000000 0.194934 0.000000
# 6 0.000000 0.000000 0.000000 0.000000 0.000000 0.032998
#
#
# Mechanical properties :
#
#
# Convention : Reuss Voigt Hill
#
# Bulk Modulus (GPa) = 46.70111 64.15631 55.42871
# Shear Modulus (GPa) = 12.47290 25.48838 18.98064
#
# Velocity S-wave (km/s) = 2.38861 3.41454 2.94657
# Velocity P-wave (km/s) = 5.38234 6.70017 6.07708
#
# Compressibility (1/GPa) = 0.02141277
#
# Stress axis : x y z
#
# Youngs Moduli (GPa) = 124.69252 115.28121 44.20644
#
# Poissons Ratio (x) = 0.26624 0.01400
# Poissons Ratio (y) = 0.28798 0.27961
# Poissons Ratio (z) = 0.03949 0.72916
#
# Static dielectric constant tensor:
#      x y z
#    x 1.953400 0.000000 0.000000 
#    y 0.000000 1.797110 0.000000 
#    z 0.000000 0.000000 1.780600 
# 
# From -- ./inp_files/8628.got.cif
#   From: 2010.05.17/outbox.cif.g08.bks.cpg/sg16_5_cif.got.tgz:8628.got - 2010.06.03 22:28:35.
