data_PCOD9310406
_publ_section_title
;
Structure prediction by ZEFSAII (Michael W. Deem and Ramdas Pophale) SiO2 
 PCOD9310406
Probable space group: P 2 2 2
;
_chemical_formula_sum "Si O2"
_cell_formula_units_Z 19
_cell_length_a 8.075024
_cell_length_b 6.593217
_cell_length_c 15.803967
_cell_angle_alpha 90.000000
_cell_angle_beta 90.000000
_cell_angle_gamma 90.000000
_cell_volume 841.409296
_symmetry_space_group_name_H-M "P 2 2 2"
_symmetry_group_IT_number 16
_symmetry_cell_setting 'orthorhombic'
loop_
_space_group_symop_operation_xyz
x,y,z
-x,-y,z
x,-y,-z
-x,y,-z
loop_
_atom_site_type_symbol
_atom_site_label
_atom_site_fract_x
_atom_site_fract_y
_atom_site_fract_z
Si Si1 0.352802 0.134443 0.713059
Si Si2 0.000000 0.500000 0.153221
Si Si3 0.354938 0.345660 0.887627
Si Si4 0.500000 0.000000 0.000000
Si Si5 0.299893 0.487474 0.598904
Si Si6 0.108696 0.182237 0.289507
O O1 0.389386 0.285701 0.789450
O O2 0.264716 0.271369 0.642249
O O3 0.500000 0.000000 0.673473
O O4 0.247536 0.954908 0.754634
O O5 0.172766 0.551116 0.106225
O O6 0.021872 0.310457 0.216940
O O7 0.500000 0.500000 0.910123
O O8 0.384541 0.145342 0.943001
O O9 0.500000 0.500000 0.609191
O O10 0.261884 0.500000 0.500000
O O11 0.197880 0.661889 0.647131
O O12 0.000000 0.000000 0.328960
#
# Coordination Sequence:
#
# PCOD9310406 Si02
#       6
#     4   2   4   1   4   4
#     4  12  22  42  78 105 139 200 254 306 377 457
#     4  12  26  46  82 112 146 198 260 304 371 472
#     4  12  26  50  81 111 152 194 243 312 383 458
#     4  12  30  52  78 122 156 192 246 320 386 454
#     4  11  24  43  66 107 156 196 257 325 374 440
#     4  12  23  43  71 110 141 192 258 309 370 446
#
# _framework density 22.581161999999999
#
# number of rings (size 3 to 8) (size 9 to 14) (size 15 to 20)
#    0.000    0.211    7.368    2.211    0.000    0.842 
#    0.000   11.053    0.000    0.000    0.000    0.000 
#    0.000    0.000    0.000    0.000    0.000    0.000 
#
# Total GULP energy -106074.859760 kJ/mol
# GULP energy per Si atom -5582.887356 kJ/mol
# Density = 2.252977 g / cm^3
# Si number density = 22.581162 Si / 1000 Ang^3
#
#
#
# Elastic Constant Matrix: (Units=GPa)
#
#
# Indices 1 2 3 4 5 6 
#
# 1 143.3565 86.1082 41.5494 0.0000 0.0000 0.0000
# 2 86.1082 169.0873 57.4483 0.0000 0.0000 0.0000
# 3 41.5494 57.4483 117.5995 0.0000 0.0000 0.0000
# 4 0.0000 0.0000 0.0000 26.2941 0.0000 0.0000
# 5 0.0000 0.0000 0.0000 0.0000 -66.3690 0.0000
# 6 0.0000 0.0000 0.0000 0.0000 0.0000 67.6981
#
#
#
# Elastic Compliance Matrix: (Units=1/GPa)
#
#
# Indices 1 2 3 4 5 6 
#
# 1 0.010208 -0.004764 -0.001279 0.000000 0.000000 0.000000
# 2 -0.004764 0.009314 -0.002867 0.000000 0.000000 0.000000
# 3 -0.001279 -0.002867 0.010356 0.000000 0.000000 0.000000
# 4 0.000000 0.000000 0.000000 0.038031 0.000000 0.000000
# 5 0.000000 0.000000 0.000000 0.000000 -0.015067 0.000000
# 6 0.000000 0.000000 0.000000 0.000000 0.000000 0.014771
#
#
# Mechanical properties :
#
#
# Convention : Reuss Voigt Hill
#
# Bulk Modulus (GPa) = 82.93410 88.91723 85.92567
# Shear Modulus (GPa) = 55.89553 21.85382 38.87467
#
# Velocity S-wave (km/s) = 4.98065 3.11431 4.15366
# Velocity P-wave (km/s) = 8.35959 7.23838 7.81911
#
# Compressibility (1/GPa) = 0.01205777
#
# Stress axis : x y z
#
# Youngs Moduli (GPa) = 97.96479 107.36469 96.56228
#
# Poissons Ratio (x) = 0.51144 0.12355
# Poissons Ratio (y) = 0.46667 0.27684
# Poissons Ratio (z) = 0.12534 0.30781
#
# Static dielectric constant tensor:
#      x y z
#    x 2.041820 0.000000 0.000000 
#    y 0.000000 1.885260 0.000000 
#    z 0.000000 0.000000 1.767940 
# 
# From -- ./inp_files/8805.got.cif
#   From: 2010.05.17/outbox.cif.g08.bks.cpg/sg16_5_cif.got.tgz:8805.got - 2010.06.03 22:28:35.
