data_PCOD9310477
_publ_section_title
;
Structure prediction by ZEFSAII (Michael W. Deem and Ramdas Pophale) SiO2 
 PCOD9310477
Probable space group: P 2 2 21
;
_chemical_formula_sum "Si O2"
_cell_formula_units_Z 32
_cell_length_a 14.179150
_cell_length_b 5.417253
_cell_length_c 17.313865
_cell_angle_alpha 90.000000
_cell_angle_beta 90.000000
_cell_angle_gamma 90.000000
_cell_volume 1329.913341
_symmetry_space_group_name_H-M "P 2 2 21"
_symmetry_group_IT_number 17
_symmetry_cell_setting 'orthorhombic'
loop_
_space_group_symop_operation_xyz
x,y,z
-x,-y,1/2+z
x,-y,-z
-x,y,1/2-z
loop_
_atom_site_type_symbol
_atom_site_label
_atom_site_fract_x
_atom_site_fract_y
_atom_site_fract_z
Si Si1 0.263344 0.564543 0.173702
Si Si2 0.260223 0.985805 0.592590
Si Si3 0.264089 0.483797 0.646067
Si Si4 0.524178 0.469783 0.912259
Si Si5 0.265030 0.063972 0.086695
Si Si6 0.528624 0.971788 0.837455
Si Si7 0.964727 0.073987 0.415526
Si Si8 0.036569 0.572919 0.165640
O O1 0.289659 0.519189 0.263274
O O2 0.292621 0.332566 0.120136
O O3 0.149944 0.567058 0.170380
O O4 0.290695 0.835821 0.142907
O O5 0.211755 0.233139 0.623153
O O6 0.359873 0.973962 0.640339
O O7 0.275177 0.000000 0.500000
O O8 0.213094 0.731657 0.619026
O O9 0.361434 0.471439 0.596768
O O10 0.491043 0.206912 0.883111
O O11 0.493520 0.705496 0.863729
O O12 0.498095 0.500000 0.000000
O O13 0.150352 0.071780 0.082442
O O14 0.298841 0.000000 0.000000
O O15 0.500000 0.008671 0.750000
O O16 0.991676 0.349383 0.390725
O O17 0.000246 0.000000 0.500000
O O18 0.991332 0.848445 0.359607
O O19 0.000000 0.513944 0.250000
#
# Coordination Sequence:
#
# PCOD9310477 Si02
#       8
#     4   4   4   4   4   4   4   4
#     4  10  19  30  48  74  95 121 161 200 242 288
#     4  10  19  33  52  74  97 129 167 202 233 275
#     4  10  18  30  49  72  97 123 156 206 243 275
#     4  10  19  33  51  73  98 130 168 204 234 276
#     4   9  17  30  47  70  91 113 149 197 240 280
#     4  10  18  29  48  77 101 121 155 204 247 276
#     4   9  17  30  49  67  87 115 154 193 230 279
#     4  10  19  31  48  69  97 126 153 196 248 293
#
# _framework density 24.061719
#
# number of rings (size 3 to 8) (size 9 to 14) (size 15 to 20)
#    0.000    2.250    0.000    6.000    0.000    3.000 
#    0.000    0.000    0.000    6.000    0.000   91.000 
#    0.000    0.000    0.000    0.000    0.000    0.000 
#
# Total GULP energy -178958.782992 kJ/mol
# GULP energy per Si atom -5592.461969 kJ/mol
# Density = 2.400695 g / cm^3
# Si number density = 24.061719 Si / 1000 Ang^3
#
#
#
# Elastic Constant Matrix: (Units=GPa)
#
#
# Indices 1 2 3 4 5 6 
#
# 1 87.8378 -46.6423 -51.9033 0.0000 0.0000 0.0000
# 2 -46.6423 197.2248 42.5890 0.0000 0.0000 0.0000
# 3 -51.9033 42.5890 148.1273 0.0000 0.0000 0.0000
# 4 0.0000 0.0000 0.0000 53.3811 0.0000 0.0000
# 5 0.0000 0.0000 0.0000 0.0000 26.2348 0.0000
# 6 0.0000 0.0000 0.0000 0.0000 0.0000 -11.5533
#
#
#
# Elastic Compliance Matrix: (Units=1/GPa)
#
#
# Indices 1 2 3 4 5 6 
#
# 1 0.015573 0.002670 0.004689 0.000000 0.000000 0.000000
# 2 0.002670 0.005864 -0.000750 0.000000 0.000000 0.000000
# 3 0.004689 -0.000750 0.008610 0.000000 0.000000 0.000000
# 4 0.000000 0.000000 0.000000 0.018733 0.000000 0.000000
# 5 0.000000 0.000000 0.000000 0.000000 0.038117 0.000000
# 6 0.000000 0.000000 0.000000 0.000000 0.000000 -0.086556
#
#
# Mechanical properties :
#
#
# Convention : Reuss Voigt Hill
#
# Bulk Modulus (GPa) = 23.11312 35.69744 29.40528
# Shear Modulus (GPa) = 3235.63300 46.22229 1640.92765
#
# Velocity S-wave (km/s) = 36.71024 4.38766 26.14281
# Velocity P-wave (km/s) = 42.50273 6.36685 30.38930
#
# Compressibility (1/GPa) = 0.04326547
#
# Stress axis : x y z
#
# Youngs Moduli (GPa) = 64.21208 170.53472 116.14818
#
# Poissons Ratio (x) = -0.45540 -0.54463
# Poissons Ratio (y) = -0.17147 0.08714
# Poissons Ratio (z) = -0.30109 0.12795
#
# Static dielectric constant tensor:
#      x y z
#    x 1.979820 0.000000 0.000000 
#    y 0.000000 1.931670 0.000000 
#    z 0.000000 0.000000 1.846750 
# 
# From -- ./inp_files/8684.got.cif
#   From: 2010.05.17/outbox.cif.g08.bks.cpg/sg17_5_cif.got.tgz:8684.got - 2010.06.03 22:34:06.
