data_PCOD9310384
_publ_section_title
;
Structure prediction by ZEFSAII (Michael W. Deem and Ramdas Pophale) SiO2 
 PCOD9310384
Probable space group: P 2 2 2
;
_chemical_formula_sum "Si O2"
_cell_formula_units_Z 24
_cell_length_a 11.789553
_cell_length_b 12.433233
_cell_length_c 8.015933
_cell_angle_alpha 90.000000
_cell_angle_beta 90.000000
_cell_angle_gamma 90.000000
_cell_volume 1174.993570
_symmetry_space_group_name_H-M "P 2 2 2"
_symmetry_group_IT_number 16
_symmetry_cell_setting 'orthorhombic'
loop_
_space_group_symop_operation_xyz
x,y,z
-x,-y,z
x,-y,-z
-x,y,-z
loop_
_atom_site_type_symbol
_atom_site_label
_atom_site_fract_x
_atom_site_fract_y
_atom_site_fract_z
Si Si1 0.744123 0.188520 0.221835
Si Si2 0.735864 0.223005 0.826522
Si Si3 0.501996 0.876166 0.300860
Si Si4 0.143364 0.434690 0.173715
Si Si5 0.928374 0.642066 0.667478
Si Si6 0.872923 0.979232 0.201931
O O1 0.611192 0.189618 0.257897
O O2 0.831974 0.269618 0.307414
O O3 0.786893 0.069013 0.266946
O O4 0.751979 0.210701 0.024867
O O5 0.613699 0.181753 0.768528
O O6 0.761271 0.346930 0.789578
O O7 0.827814 0.138640 0.754698
O O8 0.500000 0.882256 0.500000
O O9 0.500000 0.000000 0.235114
O O10 0.131887 0.526604 0.312734
O O11 0.025366 0.367279 0.188162
O O12 0.157361 0.500000 0.000000
O O13 0.000000 0.657017 0.500000
O O14 0.000000 0.000000 0.261366
O O15 0.873677 0.000000 0.000000
#
# Coordination Sequence:
#
# PCOD9310384 Si02
#       6
#     4   4   4   4   4   4
#     4  11  22  40  67  97 131 176 232 278 336 411
#     4  11  22  39  71  97 128 177 231 288 336 405
#     4  11  25  45  66  95 137 184 226 279 352 422
#     4  11  22  41  67  99 133 173 227 282 339 407
#     4  11  24  41  66  99 138 184 217 272 350 418
#     4   9  18  33  58  99 132 160 207 276 341 399
#
# _framework density 20.425646
#
# number of rings (size 3 to 8) (size 9 to 14) (size 15 to 20)
#    0.000    1.333    3.333    3.500    2.333    2.000 
#    0.000    0.833    0.000    1.000    0.000    0.000 
#    0.000    0.000    0.000    0.000    0.000    0.000 
#
# Total GULP energy -134007.894454 kJ/mol
# GULP energy per Si atom -5583.662269 kJ/mol
# Density = 2.037916 g / cm^3
# Si number density = 20.425646 Si / 1000 Ang^3
#
#
#
# Elastic Constant Matrix: (Units=GPa)
#
#
# Indices 1 2 3 4 5 6 
#
# 1 156.9450 85.1535 36.6853 0.0000 0.0000 0.0000
# 2 85.1535 139.4784 39.2910 0.0000 0.0000 0.0000
# 3 36.6853 39.2910 70.0612 0.0000 0.0000 0.0000
# 4 0.0000 0.0000 0.0000 11.8865 0.0000 0.0000
# 5 0.0000 0.0000 0.0000 0.0000 25.2783 0.0000
# 6 0.0000 0.0000 0.0000 0.0000 0.0000 62.2113
#
#
#
# Elastic Compliance Matrix: (Units=1/GPa)
#
#
# Indices 1 2 3 4 5 6 
#
# 1 0.009782 -0.005379 -0.002106 0.000000 0.000000 0.000000
# 2 -0.005379 0.011473 -0.003617 0.000000 0.000000 0.000000
# 3 -0.002106 -0.003617 0.017404 0.000000 0.000000 0.000000
# 4 0.000000 0.000000 0.000000 0.084129 0.000000 0.000000
# 5 0.000000 0.000000 0.000000 0.000000 0.039560 0.000000
# 6 0.000000 0.000000 0.000000 0.000000 0.000000 0.016074
#
#
# Mechanical properties :
#
#
# Convention : Reuss Voigt Hill
#
# Bulk Modulus (GPa) = 60.77070 76.52714 68.64892
# Shear Modulus (GPa) = 24.25873 33.56553 28.91213
#
# Velocity S-wave (km/s) = 3.44998 4.05817 3.76637
# Velocity P-wave (km/s) = 6.75919 7.71400 7.25232
#
# Compressibility (1/GPa) = 0.01645530
#
# Stress axis : x y z
#
# Youngs Moduli (GPa) = 102.22456 87.16402 57.45681
#
# Poissons Ratio (x) = 0.46887 0.12098
# Poissons Ratio (y) = 0.54988 0.20784
# Poissons Ratio (z) = 0.21524 0.31530
#
# Static dielectric constant tensor:
#      x y z
#    x 1.722500 0.000000 0.000000 
#    y 0.000000 1.756350 0.000000 
#    z 0.000000 0.000000 1.729850 
# 
# From -- ./inp_files/4720.got.cif
#   From: 2010.05.17/outbox.cif.g08.bks.cpg/sg16_3_cif.got.tgz:4720.got - 2010.06.03 22:28:35.
