data_PCOD9310343
_publ_section_title
;
Structure prediction by ZEFSAII (Michael W. Deem and Ramdas Pophale) SiO2 
 PCOD9310343
Probable space group: P 2 2 2
;
_chemical_formula_sum "Si O2"
_cell_formula_units_Z 21
_cell_length_a 10.023233
_cell_length_b 13.649137
_cell_length_c 7.402759
_cell_angle_alpha 90.000000
_cell_angle_beta 90.000000
_cell_angle_gamma 90.000000
_cell_volume 1012.760210
_symmetry_space_group_name_H-M "P 2 2 2"
_symmetry_group_IT_number 16
_symmetry_cell_setting 'orthorhombic'
loop_
_space_group_symop_operation_xyz
x,y,z
-x,-y,z
x,-y,-z
-x,y,-z
loop_
_atom_site_type_symbol
_atom_site_label
_atom_site_fract_x
_atom_site_fract_y
_atom_site_fract_z
Si Si1 0.973849 0.111362 0.214392
Si Si2 0.185256 0.734297 0.623827
Si Si3 0.843996 0.391613 0.951247
Si Si4 0.546144 0.852223 0.301754
Si Si5 0.500000 0.000000 0.000000
Si Si6 0.265654 0.758711 0.234991
O O1 0.068228 0.189170 0.318713
O O2 0.819635 0.140942 0.234710
O O3 0.000000 0.000000 0.271997
O O4 0.000000 0.119701 0.000000
O O5 0.322111 0.789580 0.671219
O O6 0.795213 0.708658 0.585594
O O7 0.169343 0.638261 0.743844
O O8 0.769412 0.308514 0.066231
O O9 0.795801 0.500000 0.000000
O O10 0.000000 0.385654 0.000000
O O11 0.500000 0.891203 0.500000
O O12 0.420287 0.785612 0.243575
O O13 0.574717 0.929992 0.142829
#
# Coordination Sequence:
#
# PCOD9310343 Si02
#       6
#     4   4   4   4   1   4
#     4  11  23  37  61  89 123 162 209 246 290 358
#     4  11  22  42  62  87 124 160 199 249 305 355
#     4  11  23  41  64  94 122 149 201 256 305 366
#     4  10  25  39  59  90 124 160 206 251 294 360
#     4  12  22  36  64  80 126 172 206 234 304 346
#     4  11  22  42  62  87 124 160 199 249 305 355
#
# _framework density 20.735413000000001
#
# number of rings (size 3 to 8) (size 9 to 14) (size 15 to 20)
#    0.000    1.143    3.810    2.000    2.667    2.286 
#    0.000    3.810    0.000    3.429    0.000    0.000 
#    0.000    0.000    0.000    0.000    0.000    0.000 
#
# Total GULP energy -117330.881113 kJ/mol
# GULP energy per Si atom -5587.184815 kJ/mol
# Density = 2.068822 g / cm^3
# Si number density = 20.735413 Si / 1000 Ang^3
#
#
#
# Elastic Constant Matrix: (Units=GPa)
#
#
# Indices 1 2 3 4 5 6 
#
# 1 91.6112 0.1428 -7.8552 0.0000 0.0000 0.0000
# 2 0.1428 72.4807 2.2894 0.0000 0.0000 0.0000
# 3 -7.8552 2.2894 99.8549 0.0000 0.0000 0.0000
# 4 0.0000 0.0000 0.0000 -349.4005 0.0000 0.0000
# 5 0.0000 0.0000 0.0000 0.0000 25.9667 0.0000
# 6 0.0000 0.0000 0.0000 0.0000 0.0000 -5.9746
#
#
#
# Elastic Compliance Matrix: (Units=1/GPa)
#
#
# Indices 1 2 3 4 5 6 
#
# 1 0.010990 -0.000049 0.000866 0.000000 0.000000 0.000000
# 2 -0.000049 0.013807 -0.000320 0.000000 0.000000 0.000000
# 3 0.000866 -0.000320 0.010090 0.000000 0.000000 0.000000
# 4 0.000000 0.000000 0.000000 -0.002862 0.000000 0.000000
# 5 0.000000 0.000000 0.000000 0.000000 0.038511 0.000000
# 6 0.000000 0.000000 0.000000 0.000000 0.000000 -0.167375
#
#
# Mechanical properties :
#
#
# Convention : Reuss Voigt Hill
#
# Bulk Modulus (GPa) = 27.87109 28.12232 27.99671
# Shear Modulus (GPa) = -58.22597 -47.92369 -53.07483
#
# Velocity S-wave (km/s) = -5.30485 -4.81271 -5.06476
# Velocity P-wave (km/s) = 4.90422 4.15824 4.54656
#
# Compressibility (1/GPa) = 0.03587947
#
# Stress axis : x y z
#
# Youngs Moduli (GPa) = 90.99187 72.42706 99.10824
#
# Poissons Ratio (x) = 0.00355 -0.08579
# Poissons Ratio (y) = 0.00446 0.03176
# Poissons Ratio (z) = -0.07877 0.02321
#
# Static dielectric constant tensor:
#      x y z
#    x 1.989680 0.000000 0.000000 
#    y 0.000000 1.733440 0.000000 
#    z 0.000000 0.000000 1.798590 
# 
# From -- ./inp_files/3993.got.cif
#   From: 2010.05.17/outbox.cif.g08.bks.cpg/sg16_2_cif.got.tgz:3993.got - 2010.06.03 22:28:35.
