data_PCOD9310465
_publ_section_title
;
Structure prediction by ZEFSAII (Michael W. Deem and Ramdas Pophale) SiO2 
 PCOD9310465
Probable space group: P 2 2 21
;
_chemical_formula_sum "Si O2"
_cell_formula_units_Z 20
_cell_length_a 15.510316
_cell_length_b 11.470741
_cell_length_c 5.905802
_cell_angle_alpha 90.000000
_cell_angle_beta 90.000000
_cell_angle_gamma 90.000000
_cell_volume 1050.729686
_symmetry_space_group_name_H-M "P 2 2 21"
_symmetry_group_IT_number 17
_symmetry_cell_setting 'orthorhombic'
loop_
_space_group_symop_operation_xyz
x,y,z
-x,-y,1/2+z
x,-y,-z
-x,y,1/2-z
loop_
_atom_site_type_symbol
_atom_site_label
_atom_site_fract_x
_atom_site_fract_y
_atom_site_fract_z
Si Si1 0.953987 0.500000 0.000000
Si Si2 0.425550 0.874346 0.410387
Si Si3 0.745480 0.122036 0.605830
Si Si4 0.294826 0.500000 0.000000
Si Si5 0.192818 0.665644 0.347450
Si Si6 0.334667 0.289614 0.270149
O O1 0.892823 0.611321 0.047976
O O2 0.000000 0.483494 0.250000
O O3 0.500000 0.828221 0.250000
O O4 0.335533 0.895974 0.276447
O O5 0.408611 0.780552 0.603857
O O6 0.454400 0.000000 0.500000
O O7 0.812988 0.206710 0.732541
O O8 0.707656 0.198856 0.402668
O O9 0.775441 0.000000 0.500000
O O10 0.232825 0.424438 0.835911
O O11 0.352368 0.592064 0.863700
O O12 0.263847 0.676774 0.542743
#
# Coordination Sequence:
#
# PCOD9310465 Si02
#       6
#     2   4   4   2   4   4
#     4  12  25  40  66 104 137 162 214 274 343 398
#     4  11  22  34  53  89 125 158 206 275 333 380
#     4  10  20  36  59  91 121 162 215 258 312 380
#     4  10  17  36  62  86 121 160 210 262 309 378
#     4  10  21  36  60  96 122 161 203 262 312 383
#     4  10  20  34  60  87 118 158 215 251 322 375
#
# _framework density 19.034390999999999
#
# number of rings (size 3 to 8) (size 9 to 14) (size 15 to 20)
#    0.000    1.600    4.000    1.200    2.800    0.000 
#    0.000    0.000    0.000    0.000  192.400    0.000 
#    0.000    0.000    0.000    0.000    0.000    0.000 
#
# Total GULP energy -111568.971445 kJ/mol
# GULP energy per Si atom -5578.448572 kJ/mol
# Density = 1.899107 g / cm^3
# Si number density = 19.034391 Si / 1000 Ang^3
#
#
#
# Elastic Constant Matrix: (Units=GPa)
#
#
# Indices 1 2 3 4 5 6 
#
# 1 51.2347 30.7947 28.6452 0.0000 0.0000 0.0000
# 2 30.7947 157.3181 59.6813 0.0000 0.0000 0.0000
# 3 28.6452 59.6813 110.5191 0.0000 0.0000 0.0000
# 4 0.0000 0.0000 0.0000 43.4549 0.0000 0.0000
# 5 0.0000 0.0000 0.0000 0.0000 18.8655 0.0000
# 6 0.0000 0.0000 0.0000 0.0000 0.0000 -719.9954
#
#
#
# Elastic Compliance Matrix: (Units=1/GPa)
#
#
# Indices 1 2 3 4 5 6 
#
# 1 0.023848 -0.002922 -0.004603 0.000000 0.000000 0.000000
# 2 -0.002922 0.008352 -0.003753 0.000000 0.000000 0.000000
# 3 -0.004603 -0.003753 0.012268 0.000000 0.000000 0.000000
# 4 0.000000 0.000000 0.000000 0.023012 0.000000 0.000000
# 5 0.000000 0.000000 0.000000 0.000000 0.053007 0.000000
# 6 0.000000 0.000000 0.000000 0.000000 0.000000 -0.001389
#
#
# Mechanical properties :
#
#
# Convention : Reuss Voigt Hill
#
# Bulk Modulus (GPa) = 45.63726 61.92382 53.78054
# Shear Modulus (GPa) = 33.56638 -118.20496 -42.31929
#
# Velocity S-wave (km/s) = 4.20391 -7.88895 -4.72031
# Velocity P-wave (km/s) = 6.89870 7.09771 1.18013
#
# Compressibility (1/GPa) = 0.02191192
#
# Stress axis : x y z
#
# Youngs Moduli (GPa) = 41.93239 119.72825 81.51315
#
# Poissons Ratio (x) = 0.34983 0.37523
# Poissons Ratio (y) = 0.12252 0.30592
# Poissons Ratio (z) = 0.19303 0.44934
#
# Static dielectric constant tensor:
#      x y z
#    x 1.637150 0.000000 0.000000 
#    y 0.000000 1.678380 0.000000 
#    z 0.000000 0.000000 1.729830 
# 
# From -- ./inp_files/1480.got.cif
#   From: 2010.05.17/outbox.cif.g08.bks.cpg/sg17_1_cif.got.tgz:1480.got - 2010.06.03 22:34:06.
