data_PCOD9310888
_publ_section_title
;
Structure prediction by ZEFSAII (Michael W. Deem and Ramdas Pophale) SiO2 
 PCOD9310888
Probable space group: P 2 2 21
;
_chemical_formula_sum "Si O2"
_cell_formula_units_Z 26
_cell_length_a 13.051497
_cell_length_b 5.441806
_cell_length_c 15.373175
_cell_angle_alpha 90.000000
_cell_angle_beta 90.000000
_cell_angle_gamma 90.000000
_cell_volume 1091.859995
_symmetry_space_group_name_H-M "P 2 2 21"
_symmetry_group_IT_number 17
_symmetry_cell_setting 'orthorhombic'
loop_
_space_group_symop_operation_xyz
x,y,z
-x,-y,1/2+z
x,-y,-z
-x,y,1/2-z
loop_
_atom_site_type_symbol
_atom_site_label
_atom_site_fract_x
_atom_site_fract_y
_atom_site_fract_z
Si Si1 0.617240 0.107449 0.588534
Si Si2 0.119933 0.619656 0.595230
Si Si3 0.245889 0.000000 0.500000
Si Si4 0.237360 0.500000 0.000000
Si Si5 0.896099 0.543722 0.662554
Si Si6 0.312344 0.313079 0.648039
Si Si7 0.790843 0.016253 0.707203
Si Si8 0.500000 0.321685 0.750000
O O1 0.684136 0.337419 0.555964
O O2 0.707808 0.950471 0.632117
O O3 0.541547 0.170793 0.666695
O O4 0.571040 0.000000 0.500000
O O5 0.102180 0.500000 0.500000
O O6 0.166208 0.884526 0.569736
O O7 0.215361 0.484840 0.638415
O O8 0.016864 0.566599 0.647669
O O9 0.318023 0.806164 0.448545
O O10 0.157427 0.604234 0.929937
O O11 0.857563 0.265395 0.685978
O O12 0.859002 0.776528 0.719766
O O13 0.280604 0.095011 0.712988
O O14 0.404201 0.448799 0.700617
#
# Coordination Sequence:
#
# PCOD9310888 Si02
#       8
#     4   4   2   2   4   4   4   2
#     4  10  20  41  67 102 139 183 247 312 373 446
#     4  10  23  42  67 100 143 188 242 295 367 455
#     4  10  24  44  72  90 146 180 244 302 362 446
#     4  10  20  38  68  98 140 182 246 308 366 442
#     4  11  22  39  70 108 142 203 232 302 369 448
#     4  10  24  48  65 103 139 194 245 319 365 460
#     4  10  24  40  69 104 152 184 248 302 373 438
#     4  10  24  46  72  98 142 190 258 314 398 426
#
# _framework density 23.812576
#
# number of rings (size 3 to 8) (size 9 to 14) (size 15 to 20)
#    0.000    1.846    2.308    0.000    7.538    0.615 
#    4.154    1.538    0.000    0.000    0.000    0.000 
#    0.000    0.000    0.000    0.000    0.000    0.000 
#
# Total GULP energy -144874.641980 kJ/mol
# GULP energy per Si atom -5572.101615 kJ/mol
# Density = 2.375838 g / cm^3
# Si number density = 23.812576 Si / 1000 Ang^3
#
#
#
# Elastic Constant Matrix: (Units=GPa)
#
#
# Indices 1 2 3 4 5 6 
#
# 1 91.4921 -0.1566 38.5195 0.0000 0.0000 0.0000
# 2 -0.1566 33.5088 6.3090 0.0000 0.0000 0.0000
# 3 38.5195 6.3090 96.4620 0.0000 0.0000 0.0000
# 4 0.0000 0.0000 0.0000 33.6556 0.0000 0.0000
# 5 0.0000 0.0000 0.0000 0.0000 54.1068 0.0000
# 6 0.0000 0.0000 0.0000 0.0000 0.0000 11.5380
#
#
#
# Elastic Compliance Matrix: (Units=1/GPa)
#
#
# Indices 1 2 3 4 5 6 
#
# 1 0.013176 0.001065 -0.005331 0.000000 0.000000 0.000000
# 2 0.001065 0.030301 -0.002407 0.000000 0.000000 0.000000
# 3 -0.005331 -0.002407 0.012653 0.000000 0.000000 0.000000
# 4 0.000000 0.000000 0.000000 0.029713 0.000000 0.000000
# 5 0.000000 0.000000 0.000000 0.000000 0.018482 0.000000
# 6 0.000000 0.000000 0.000000 0.000000 0.000000 0.086670
#
#
# Mechanical properties :
#
#
# Convention : Reuss Voigt Hill
#
# Bulk Modulus (GPa) = 23.37312 34.53409 28.95361
# Shear Modulus (GPa) = 22.87254 31.64616 27.25935
#
# Velocity S-wave (km/s) = 3.10259 3.64946 3.38708
# Velocity P-wave (km/s) = 4.76146 5.68260 5.24231
#
# Compressibility (1/GPa) = 0.04278418
#
# Stress axis : x y z
#
# Youngs Moduli (GPa) = 75.89404 33.00211 79.03194
#
# Poissons Ratio (x) = -0.03516 0.42134
# Poissons Ratio (y) = -0.08085 0.19025
# Poissons Ratio (z) = 0.40461 0.07944
#
# Static dielectric constant tensor:
#      x y z
#    x 1.901020 0.000000 0.000000 
#    y 0.000000 1.956220 0.000000 
#    z 0.000000 0.000000 2.075020 
# 
# From -- ./inp_files/9626.got.cif
#   From: 2010.05.17/outbox.cif.g08.bks.cpg/sg17_5_cif.got.tgz:9626.got - 2010.06.03 22:34:06.
