data_PCOD9310833
_publ_section_title
;
Structure prediction by ZEFSAII (Michael W. Deem and Ramdas Pophale) SiO2 
 PCOD9310833
Probable space group: P 2 2 21
;
_chemical_formula_sum "Si O2"
_cell_formula_units_Z 24
_cell_length_a 14.427493
_cell_length_b 9.515102
_cell_length_c 9.819267
_cell_angle_alpha 90.000000
_cell_angle_beta 90.000000
_cell_angle_gamma 90.000000
_cell_volume 1347.979817
_symmetry_space_group_name_H-M "P 2 2 21"
_symmetry_group_IT_number 17
_symmetry_cell_setting 'orthorhombic'
loop_
_space_group_symop_operation_xyz
x,y,z
-x,-y,1/2+z
x,-y,-z
-x,y,1/2-z
loop_
_atom_site_type_symbol
_atom_site_label
_atom_site_fract_x
_atom_site_fract_y
_atom_site_fract_z
Si Si1 0.897557 0.642071 0.410809
Si Si2 0.726549 0.839698 0.020696
Si Si3 0.608950 0.183328 0.249855
Si Si4 0.701913 0.669143 0.511205
Si Si5 0.103898 0.643234 0.413815
Si Si6 0.393731 0.856761 0.210738
O O1 0.902179 0.500000 0.500000
O O2 0.806197 0.715703 0.470095
O O3 0.882742 0.616431 0.248863
O O4 0.999935 0.707334 0.426603
O O5 0.652621 0.814987 0.900314
O O6 0.815184 0.740228 0.027985
O O7 0.672171 0.824430 0.161970
O O8 0.758202 0.000000 0.000000
O O9 0.500000 0.220311 0.250000
O O10 0.670799 0.286330 0.339552
O O11 0.615971 0.025008 0.311778
O O12 0.695822 0.500000 0.500000
O O13 0.634858 0.755415 0.411210
O O14 0.106065 0.500000 0.500000
O O15 0.500000 0.833121 0.250000
#
# Coordination Sequence:
#
# PCOD9310833 Si02
#       6
#     4   4   4   4   4   4
#     4   9  20  37  58  86 114 145 188 228 281 343
#     4  10  21  36  57  85 113 144 190 239 281 326
#     4  10  22  39  59  81 113 154 195 227 273 342
#     4  11  22  36  57  87 117 143 184 241 284 325
#     4  10  20  37  63  82 111 152 188 227 283 343
#     4  10  20  39  61  80 109 155 193 227 280 344
#
# _framework density 17.80442
#
# number of rings (size 3 to 8) (size 9 to 14) (size 15 to 20)
#    0.000    2.000    1.667    1.500    4.667    3.333 
#    0.000    3.333    0.000    0.000    0.000    0.000 
#    0.000    0.000    0.000    0.000    0.000    0.000 
#
# Total GULP energy -133773.897470 kJ/mol
# GULP energy per Si atom -5573.912395 kJ/mol
# Density = 1.776390 g / cm^3
# Si number density = 17.804420 Si / 1000 Ang^3
#
#
#
# Elastic Constant Matrix: (Units=GPa)
#
#
# Indices 1 2 3 4 5 6 
#
# 1 120.4528 32.8463 7.1259 0.0000 0.0000 0.0000
# 2 32.8463 32.5990 12.2065 0.0000 0.0000 0.0000
# 3 7.1259 12.2065 49.7519 0.0000 0.0000 0.0000
# 4 0.0000 0.0000 0.0000 28.6315 0.0000 0.0000
# 5 0.0000 0.0000 0.0000 0.0000 23.4512 0.0000
# 6 0.0000 0.0000 0.0000 0.0000 0.0000 23.4850
#
#
#
# Elastic Compliance Matrix: (Units=1/GPa)
#
#
# Indices 1 2 3 4 5 6 
#
# 1 0.011525 -0.012107 0.001320 0.000000 0.000000 0.000000
# 2 -0.012107 0.046497 -0.009674 0.000000 0.000000 0.000000
# 3 0.001320 -0.009674 0.022284 0.000000 0.000000 0.000000
# 4 0.000000 0.000000 0.000000 0.034927 0.000000 0.000000
# 5 0.000000 0.000000 0.000000 0.000000 0.042642 0.000000
# 6 0.000000 0.000000 0.000000 0.000000 0.000000 0.042580
#
#
# Mechanical properties :
#
#
# Convention : Reuss Voigt Hill
#
# Bulk Modulus (GPa) = 25.39090 34.12901 29.75995
# Shear Modulus (GPa) = 19.64594 25.15520 22.40057
#
# Velocity S-wave (km/s) = 3.32540 3.76288 3.55088
# Velocity P-wave (km/s) = 5.38854 6.17167 5.79335
#
# Compressibility (1/GPa) = 0.03938419
#
# Stress axis : x y z
#
# Youngs Moduli (GPa) = 86.76492 21.50681 44.87492
#
# Poissons Ratio (x) = 0.26038 -0.05922
# Poissons Ratio (y) = 1.05046 0.43411
# Poissons Ratio (z) = -0.11450 0.20805
#
# Static dielectric constant tensor:
#      x y z
#    x 1.617900 0.000000 0.000000 
#    y 0.000000 1.596500 0.000000 
#    z 0.000000 0.000000 1.605010 
# 
# From -- ./inp_files/5143.got.cif
#   From: 2010.05.17/outbox.cif.g08.bks.cpg/sg17_3_cif.got.tgz:5143.got - 2010.06.03 22:34:06.
