data_PCOD9310202
_publ_section_title
;
Structure prediction by ZEFSAII (Michael W. Deem and Ramdas Pophale) SiO2 
 PCOD9310202
Probable space group: P 2 2 2
;
_chemical_formula_sum "Si O2"
_cell_formula_units_Z 32
_cell_length_a 9.374706
_cell_length_b 14.097012
_cell_length_c 11.009170
_cell_angle_alpha 90.000000
_cell_angle_beta 90.000000
_cell_angle_gamma 90.000000
_cell_volume 1454.920637
_symmetry_space_group_name_H-M "P 2 2 2"
_symmetry_group_IT_number 16
_symmetry_cell_setting 'orthorhombic'
loop_
_space_group_symop_operation_xyz
x,y,z
-x,-y,z
x,-y,-z
-x,y,-z
loop_
_atom_site_type_symbol
_atom_site_label
_atom_site_fract_x
_atom_site_fract_y
_atom_site_fract_z
Si Si1 0.672667 0.387671 0.999479
Si Si2 0.702210 0.301794 0.736421
Si Si3 0.173349 0.891931 0.751412
Si Si4 0.796188 0.311129 0.253351
Si Si5 0.340076 0.888285 0.000602
Si Si6 0.047397 0.607964 0.631383
Si Si7 0.170036 0.892531 0.248012
Si Si8 0.546651 0.399194 0.361273
O O1 0.736704 0.335830 0.118982
O O2 0.713647 0.500000 0.000000
O O3 0.500000 0.384932 0.000000
O O4 0.721844 0.333257 0.876967
O O5 0.762590 0.201154 0.688101
O O6 0.787012 0.378905 0.656859
O O7 0.536160 0.315371 0.708010
O O8 0.246097 0.873801 0.881771
O O9 0.001990 0.890107 0.757643
O O10 0.210968 0.000316 0.710977
O O11 0.779625 0.205154 0.308636
O O12 0.711932 0.382095 0.341361
O O13 0.962681 0.335321 0.264195
O O14 0.500000 0.843278 0.000000
O O15 0.241727 0.874606 0.117142
O O16 0.364160 0.000000 0.000000
O O17 0.000000 0.500000 0.638449
O O18 0.000000 0.645627 0.500000
O O19 0.500000 0.500000 0.305768
O O20 0.500000 0.397598 0.500000
#
# Coordination Sequence:
#
# PCOD9310202 Si02
#       8
#     4   4   4   4   4   4   4   4
#     4  11  23  39  61  92 136 174 200 245 319 397
#     4  12  23  40  66  96 128 168 211 258 317 384
#     4  10  21  38  58  84 124 170 212 257 309 373
#     4  12  23  40  66  96 128 168 211 258 317 384
#     4   9  18  31  54  86 118 159 209 255 301 357
#     4  11  24  43  66  92 123 161 215 275 316 361
#     4  10  21  38  58  84 124 170 212 257 309 373
#     4  11  24  43  68  94 123 165 215 263 316 381
#
# _framework density 21.994326000000001
#
# number of rings (size 3 to 8) (size 9 to 14) (size 15 to 20)
#    0.000    1.250    2.500    4.125    1.750    5.000 
#    0.000    1.250    0.000    4.500    0.000    0.000 
#    0.000    0.000    0.000    0.000    0.000    0.000 
#
# Total GULP energy -178419.072462 kJ/mol
# GULP energy per Si atom -5575.596014 kJ/mol
# Density = 2.194427 g / cm^3
# Si number density = 21.994326 Si / 1000 Ang^3
#
#
#
# Elastic Constant Matrix: (Units=GPa)
#
#
# Indices 1 2 3 4 5 6 
#
# 1 63.5289 21.0333 2.0066 0.0000 0.0000 0.0000
# 2 21.0333 172.0117 1.4108 0.0000 0.0000 0.0000
# 3 2.0066 1.4108 53.6867 0.0000 0.0000 0.0000
# 4 0.0000 0.0000 0.0000 -1.1540 0.0000 0.0000
# 5 0.0000 0.0000 0.0000 0.0000 30.7658 0.0000
# 6 0.0000 0.0000 0.0000 0.0000 0.0000 30.9484
#
#
#
# Elastic Compliance Matrix: (Units=1/GPa)
#
#
# Indices 1 2 3 4 5 6 
#
# 1 0.016422 -0.002003 -0.000561 0.000000 0.000000 0.000000
# 2 -0.002003 0.006059 -0.000084 0.000000 0.000000 0.000000
# 3 -0.000561 -0.000084 0.018650 0.000000 0.000000 0.000000
# 4 0.000000 0.000000 0.000000 -0.866572 0.000000 0.000000
# 5 0.000000 0.000000 0.000000 0.000000 0.032504 0.000000
# 6 0.000000 0.000000 0.000000 0.000000 0.000000 0.032312
#
#
# Mechanical properties :
#
#
# Convention : Reuss Voigt Hill
#
# Bulk Modulus (GPa) = 27.90719 37.56986 32.73853
# Shear Modulus (GPa) = -6.72600 29.76382 11.51891
#
# Velocity S-wave (km/s) = -1.75063 3.68265 2.29098
# Velocity P-wave (km/s) = 2.93762 5.93306 4.68139
#
# Compressibility (1/GPa) = 0.03583305
#
# Stress axis : x y z
#
# Youngs Moduli (GPa) = 60.89437 165.03758 53.61994
#
# Poissons Ratio (x) = 0.33064 0.03009
# Poissons Ratio (y) = 0.12200 0.00452
# Poissons Ratio (z) = 0.03417 0.01392
#
# Static dielectric constant tensor:
#      x y z
#    x 1.747480 0.000000 0.000000 
#    y 0.000000 1.934300 0.000000 
#    z 0.000000 0.000000 1.914060 
# 
# From -- ./inp_files/6656.got.cif
#   From: 2010.05.17/outbox.cif.g08.bks.cpg/sg16_4_cif.got.tgz:6656.got - 2010.06.03 22:28:35.
