data_PCOD9310387
_publ_section_title
;
Structure prediction by ZEFSAII (Michael W. Deem and Ramdas Pophale) SiO2 
 PCOD9310387
Probable space group: P 2 2 2
;
_chemical_formula_sum "Si O2"
_cell_formula_units_Z 26
_cell_length_a 9.200804
_cell_length_b 8.970375
_cell_length_c 15.599159
_cell_angle_alpha 90.000000
_cell_angle_beta 90.000000
_cell_angle_gamma 90.000000
_cell_volume 1287.471318
_symmetry_space_group_name_H-M "P 2 2 2"
_symmetry_group_IT_number 16
_symmetry_cell_setting 'orthorhombic'
loop_
_space_group_symop_operation_xyz
x,y,z
-x,-y,z
x,-y,-z
-x,y,-z
loop_
_atom_site_type_symbol
_atom_site_label
_atom_site_fract_x
_atom_site_fract_y
_atom_site_fract_z
Si Si1 0.020717 0.177122 0.898992
Si Si2 0.341114 0.455906 0.683267
Si Si3 0.839994 0.268936 0.752579
Si Si4 0.000000 0.000000 0.500000
Si Si5 0.868528 0.795176 0.642226
Si Si6 0.344597 0.285452 0.862772
Si Si7 0.500000 0.500000 0.000000
Si Si8 0.648503 0.017617 0.243297
O O1 0.910115 0.281208 0.846666
O O2 0.176684 0.248280 0.880150
O O3 0.000000 0.000000 0.871502
O O4 0.000000 0.178086 0.000000
O O5 0.500000 0.500000 0.647061
O O6 0.245896 0.596600 0.710944
O O7 0.232618 0.350187 0.628704
O O8 0.370073 0.372012 0.773643
O O9 0.978422 0.234700 0.690969
O O10 0.722632 0.140015 0.768186
O O11 0.095888 0.107935 0.559310
O O12 0.770921 0.893164 0.705703
O O13 0.397590 0.117830 0.838977
O O14 0.410545 0.386900 0.937935
O O15 0.500000 0.000000 0.295686
#
# Coordination Sequence:
#
# PCOD9310387 Si02
#       8
#     4   4   4   1   4   4   1   4
#     4  11  23  39  63  95 132 176 248 304 342 393
#     4  11  24  42  69 103 139 184 231 282 350 432
#     4  12  20  42  69  97 135 179 233 290 344 418
#     4  12  24  48  80 112 138 176 236 288 336 436
#     4  11  23  44  73 107 137 178 226 278 349 427
#     4  11  24  43  61  92 137 191 240 291 352 408
#     4  12  28  44  52  92 152 196 238 304 364 412
#     4  11  22  40  71  99 130 182 232 285 343 426
#
# _framework density 20.194624000000001
#
# number of rings (size 3 to 8) (size 9 to 14) (size 15 to 20)
#    0.000    0.769    6.923    2.308    2.154    0.000 
#    0.000    1.923    0.000    0.923    0.000    0.000 
#    0.000    0.000    0.000    0.000    0.000    0.000 
#
# Total GULP energy -144932.152141 kJ/mol
# GULP energy per Si atom -5574.313544 kJ/mol
# Density = 2.014866 g / cm^3
# Si number density = 20.194624 Si / 1000 Ang^3
#
#
#
# Elastic Constant Matrix: (Units=GPa)
#
#
# Indices 1 2 3 4 5 6 
#
# 1 152.8334 72.4402 36.3515 0.0000 0.0000 0.0000
# 2 72.4402 132.7071 43.6732 0.0000 0.0000 0.0000
# 3 36.3515 43.6732 75.3608 0.0000 0.0000 0.0000
# 4 0.0000 0.0000 0.0000 -12.5583 0.0000 0.0000
# 5 0.0000 0.0000 0.0000 0.0000 7.5684 0.0000
# 6 0.0000 0.0000 0.0000 0.0000 0.0000 33.6512
#
#
#
# Elastic Compliance Matrix: (Units=1/GPa)
#
#
# Indices 1 2 3 4 5 6 
#
# 1 0.009031 -0.004320 -0.001853 0.000000 0.000000 0.000000
# 2 -0.004320 0.011378 -0.004510 0.000000 0.000000 0.000000
# 3 -0.001853 -0.004510 0.016777 0.000000 0.000000 0.000000
# 4 0.000000 0.000000 0.000000 -0.079629 0.000000 0.000000
# 5 0.000000 0.000000 0.000000 0.000000 0.132128 0.000000
# 6 0.000000 0.000000 0.000000 0.000000 0.000000 0.029717
#
#
# Mechanical properties :
#
#
# Convention : Reuss Voigt Hill
#
# Bulk Modulus (GPa) = 63.20945 73.98125 68.59535
# Shear Modulus (GPa) = 34.23690 19.62803 26.93246
#
# Velocity S-wave (km/s) = 4.12193 3.12098 3.65587
# Velocity P-wave (km/s) = 7.34995 7.04990 7.20149
#
# Compressibility (1/GPa) = 0.01582042
#
# Stress axis : x y z
#
# Youngs Moduli (GPa) = 110.72400 87.89062 59.60642
#
# Poissons Ratio (x) = 0.37971 0.11044
# Poissons Ratio (y) = 0.47835 0.26881
# Poissons Ratio (z) = 0.20515 0.39636
#
# Static dielectric constant tensor:
#      x y z
#    x 1.849640 0.000000 0.000000 
#    y 0.000000 1.751510 0.000000 
#    z 0.000000 0.000000 1.718010 
# 
# From -- ./inp_files/8930.got.cif
#   From: 2010.05.17/outbox.cif.g08.bks.cpg/sg16_5_cif.got.tgz:8930.got - 2010.06.03 22:28:35.
