data_PCOD9310096
_publ_section_title
;
Structure prediction by ZEFSAII (Michael W. Deem and Ramdas Pophale) SiO2 
 PCOD9310096
Probable space group: P 2 2 2
;
_chemical_formula_sum "Si O2"
_cell_formula_units_Z 32
_cell_length_a 14.658257
_cell_length_b 7.007719
_cell_length_c 16.078082
_cell_angle_alpha 90.000000
_cell_angle_beta 90.000000
_cell_angle_gamma 90.000000
_cell_volume 1651.555794
_symmetry_space_group_name_H-M "P 2 2 2"
_symmetry_group_IT_number 16
_symmetry_cell_setting 'orthorhombic'
loop_
_space_group_symop_operation_xyz
x,y,z
-x,-y,z
x,-y,-z
-x,y,-z
loop_
_atom_site_type_symbol
_atom_site_label
_atom_site_fract_x
_atom_site_fract_y
_atom_site_fract_z
Si Si1 0.157413 0.855904 0.709302
Si Si2 0.300763 0.727869 0.134588
Si Si3 0.499057 0.768442 0.902648
Si Si4 0.022046 0.224810 0.141097
Si Si5 0.309944 0.182794 0.171837
Si Si6 0.893703 0.446609 0.589990
Si Si7 0.147851 0.696141 0.250768
Si Si8 0.822305 0.226757 0.977198
O O1 0.089576 0.771298 0.779583
O O2 0.259416 0.802252 0.739779
O O3 0.127850 0.767608 0.621436
O O4 0.145660 0.082901 0.719743
O O5 0.406398 0.678874 0.127930
O O6 0.244612 0.646627 0.210754
O O7 0.306307 0.956520 0.150177
O O8 0.235256 0.695189 0.055069
O O9 0.409755 0.735432 0.846478
O O10 0.500000 0.000000 0.903250
O O11 0.500000 0.715613 0.000000
O O12 0.079592 0.290561 0.060036
O O13 0.929686 0.319070 0.177810
O O14 0.000000 0.000000 0.126050
O O15 0.244452 0.260987 0.100084
O O16 0.853613 0.500000 0.500000
O O17 0.862847 0.571407 0.668105
O O18 0.000000 0.500000 0.585193
O O19 0.832022 0.000000 0.000000
#
# Coordination Sequence:
#
# PCOD9310096 Si02
#       8
#     4   4   4   4   4   4   4   4
#     4   9  18  34  53  77 105 133 169 209 255 302
#     4   9  16  24  41  72 104 141 183 215 248 296
#     4   9  13  21  39  70 109 138 177 225 251 282
#     4   9  16  26  42  65 100 141 174 213 246 281
#     4   8  14  24  43  69 104 142 173 213 257 289
#     4  11  23  38  58  79 100 132 164 203 267 324
#     4  10  20  34  51  77 105 136 175 211 250 305
#     4   9  14  21  36  66  99 138 187 212 240 288
#
# _framework density 19.37567
#
# number of rings (size 3 to 8) (size 9 to 14) (size 15 to 20)
#    0.000    2.750    2.500    2.250    0.000    2.250 
#    0.000    1.250    0.000    3.750    0.000    2.625 
#    0.000    5.000    0.000    0.000    0.000    0.000 
#
# Total GULP energy -178365.767977 kJ/mol
# GULP energy per Si atom -5573.930249 kJ/mol
# Density = 1.933157 g / cm^3
# Si number density = 19.375670 Si / 1000 Ang^3
#
#
#
# Elastic Constant Matrix: (Units=GPa)
#
#
# Indices 1 2 3 4 5 6 
#
# 1 136.2340 7.6906 59.2367 0.0000 0.0000 0.0000
# 2 7.6906 78.1213 14.3104 0.0000 0.0000 0.0000
# 3 59.2367 14.3104 74.8999 0.0000 0.0000 0.0000
# 4 0.0000 0.0000 0.0000 1.4986 0.0000 0.0000
# 5 0.0000 0.0000 0.0000 0.0000 16.4986 0.0000
# 6 0.0000 0.0000 0.0000 0.0000 0.0000 -2.4877
#
#
#
# Elastic Compliance Matrix: (Units=1/GPa)
#
#
# Indices 1 2 3 4 5 6 
#
# 1 0.011209 0.000539 -0.008968 0.000000 0.000000 0.000000
# 2 0.000539 0.013291 -0.002966 0.000000 0.000000 0.000000
# 3 -0.008968 -0.002966 0.021011 0.000000 0.000000 0.000000
# 4 0.000000 0.000000 0.000000 0.667285 0.000000 0.000000
# 5 0.000000 0.000000 0.000000 0.000000 0.060611 0.000000
# 6 0.000000 0.000000 0.000000 0.000000 0.000000 -0.401971
#
#
# Mechanical properties :
#
#
# Convention : Reuss Voigt Hill
#
# Bulk Modulus (GPa) = 44.01189 50.19227 47.10208
# Shear Modulus (GPa) = 12.44400 16.96972 14.70686
#
# Velocity S-wave (km/s) = 2.53701 2.96265 2.75805
# Velocity P-wave (km/s) = 5.59877 6.13711 5.87411
#
# Compressibility (1/GPa) = 0.02272114
#
# Stress axis : x y z
#
# Youngs Moduli (GPa) = 89.21041 75.23994 47.59480
#
# Poissons Ratio (x) = -0.04058 0.42685
# Poissons Ratio (y) = -0.04811 0.14116
# Poissons Ratio (z) = 0.80007 0.22315
#
# Static dielectric constant tensor:
#      x y z
#    x 1.721020 0.000000 0.000000 
#    y 0.000000 1.818380 0.000000 
#    z 0.000000 0.000000 1.641770 
# 
# From -- ./inp_files/8304.got.cif
#   From: 2010.05.17/outbox.cif.g08.bks.cpg/sg16_5_cif.got.tgz:8304.got - 2010.06.03 22:28:35.
