data_PCOD9310970
_publ_section_title
;
Structure prediction by ZEFSAII (Michael W. Deem and Ramdas Pophale) SiO2 
 PCOD9310970
Probable space group: P 2 2 21
;
_chemical_formula_sum "Si O2"
_cell_formula_units_Z 16
_cell_length_a 7.873288
_cell_length_b 10.982666
_cell_length_c 8.466465
_cell_angle_alpha 90.000000
_cell_angle_beta 90.000000
_cell_angle_gamma 90.000000
_cell_volume 732.092624
_symmetry_space_group_name_H-M "P 2 2 21"
_symmetry_group_IT_number 17
_symmetry_cell_setting 'orthorhombic'
loop_
_space_group_symop_operation_xyz
x,y,z
-x,-y,1/2+z
x,-y,-z
-x,y,1/2-z
loop_
_atom_site_type_symbol
_atom_site_label
_atom_site_fract_x
_atom_site_fract_y
_atom_site_fract_z
Si Si1 0.301084 0.500000 0.000000
Si Si2 0.697182 0.931977 0.765160
Si Si3 0.895288 0.740001 0.587512
Si Si4 0.205899 0.822229 0.397495
Si Si5 0.500000 0.655985 0.250000
O O1 0.188630 0.391505 0.071607
O O2 0.420744 0.568870 0.120650
O O3 0.500000 0.963766 0.750000
O O4 0.760855 0.849019 0.619575
O O5 0.801808 0.055295 0.793507
O O6 0.719778 0.859374 0.929930
O O7 0.000000 0.741610 0.750000
O O8 0.022927 0.766221 0.442589
O O9 0.343695 0.735162 0.316912
#
# Coordination Sequence:
#
# PCOD9310970 Si02
#       5
#     2   4   4   4   2
#     4  12  30  46  74 102 146 200 242 302 344 452
#     4  10  20  45  73 105 143 187 237 300 367 434
#     4  10  25  46  71 105 145 192 242 304 360 428
#     4  10  23  45  71 107 142 186 237 304 370 430
#     4  12  28  48  72 106 140 196 248 296 364 440
#
# _framework density 21.855156999999998
#
# number of rings (size 3 to 8) (size 9 to 14) (size 15 to 20)
#    0.000    1.500    1.250    1.500   12.250    0.000 
#   27.000    0.000    0.000    0.000    0.000    0.000 
#    0.000    0.000    0.000    0.000    0.000    0.000 
#
# Total GULP energy -89511.630146 kJ/mol
# GULP energy per Si atom -5594.476884 kJ/mol
# Density = 2.180541 g / cm^3
# Si number density = 21.855157 Si / 1000 Ang^3
#
#
#
# Elastic Constant Matrix: (Units=GPa)
#
#
# Indices 1 2 3 4 5 6 
#
# 1 106.6879 64.7653 36.3219 0.0000 0.0000 0.0000
# 2 64.7653 156.7329 56.0350 0.0000 0.0000 0.0000
# 3 36.3219 56.0350 67.9179 0.0000 0.0000 0.0000
# 4 0.0000 0.0000 0.0000 45.5879 0.0000 0.0000
# 5 0.0000 0.0000 0.0000 0.0000 30.1258 0.0000
# 6 0.0000 0.0000 0.0000 0.0000 0.0000 76.8525
#
#
#
# Elastic Compliance Matrix: (Units=1/GPa)
#
#
# Indices 1 2 3 4 5 6 
#
# 1 0.013105 -0.004127 -0.003604 0.000000 0.000000 0.000000
# 2 -0.004127 0.010349 -0.006331 0.000000 0.000000 0.000000
# 3 -0.003604 -0.006331 0.021875 0.000000 0.000000 0.000000
# 4 0.000000 0.000000 0.000000 0.021936 0.000000 0.000000
# 5 0.000000 0.000000 0.000000 0.000000 0.033194 0.000000
# 6 0.000000 0.000000 0.000000 0.000000 0.000000 0.013012
#
#
# Mechanical properties :
#
#
# Convention : Reuss Voigt Hill
#
# Bulk Modulus (GPa) = 58.12303 71.73144 64.92724
# Shear Modulus (GPa) = 33.93740 42.12769 38.03255
#
# Velocity S-wave (km/s) = 3.94487 4.39519 4.17611
# Velocity P-wave (km/s) = 6.88489 7.65829 7.28187
#
# Compressibility (1/GPa) = 0.01720488
#
# Stress axis : x y z
#
# Youngs Moduli (GPa) = 76.30486 96.62510 45.71517
#
# Poissons Ratio (x) = 0.39877 0.16474
# Poissons Ratio (y) = 0.31491 0.28944
# Poissons Ratio (z) = 0.27498 0.61178
#
# Static dielectric constant tensor:
#      x y z
#    x 1.702270 0.000000 0.000000 
#    y 0.000000 1.786560 0.000000 
#    z 0.000000 0.000000 1.790230 
# 
# From -- ./inp_files/3775.got.cif
#   From: 2010.05.17/outbox.cif.g08.bks.cpg/sg17_2_cif.got.tgz:3775.got - 2010.06.03 22:34:06.
