data_PCOD9310666
_publ_section_title
;
Structure prediction by ZEFSAII (Michael W. Deem and Ramdas Pophale) SiO2 
 PCOD9310666
Probable space group: P 2 2 21
;
_chemical_formula_sum "Si O2"
_cell_formula_units_Z 24
_cell_length_a 18.489517
_cell_length_b 6.010714
_cell_length_c 10.732432
_cell_angle_alpha 90.000000
_cell_angle_beta 90.000000
_cell_angle_gamma 90.000000
_cell_volume 1192.750963
_symmetry_space_group_name_H-M "P 2 2 21"
_symmetry_group_IT_number 17
_symmetry_cell_setting 'orthorhombic'
loop_
_space_group_symop_operation_xyz
x,y,z
-x,-y,1/2+z
x,-y,-z
-x,y,1/2-z
loop_
_atom_site_type_symbol
_atom_site_label
_atom_site_fract_x
_atom_site_fract_y
_atom_site_fract_z
Si Si1 0.000000 0.641062 0.750000
Si Si2 0.612036 0.396128 0.127428
Si Si3 0.815885 0.000000 0.000000
Si Si4 0.122859 0.041572 0.141802
Si Si5 0.500000 0.740455 0.250000
Si Si6 0.122070 0.644436 0.336927
Si Si7 0.481293 0.000000 0.500000
Si Si8 0.759594 0.271527 0.220111
O O1 0.060510 0.795425 0.810302
O O2 0.046957 0.485163 0.660035
O O3 0.562541 0.576892 0.197764
O O4 0.676012 0.329686 0.220453
O O5 0.565886 0.189507 0.071888
O O6 0.645380 0.500000 0.000000
O O7 0.768334 0.085381 0.113036
O O8 0.864915 0.796843 0.043825
O O9 0.199910 0.162849 0.163236
O O10 0.120179 0.816461 0.221712
O O11 0.110282 0.000000 0.000000
O O12 0.480880 0.882636 0.122779
O O13 0.190372 0.481300 0.318044
#
# Coordination Sequence:
#
# PCOD9310666 Si02
#       8
#     2   4   2   4   2   4   2   4
#     4  10  22  42  56  90 108 162 202 252 310 364
#     4  10  20  37  66  99 129 169 218 268 323 387
#     4  10  19  36  60  94 121 144 202 258 315 370
#     4  10  23  44  61  84 125 163 207 253 316 388
#     4  10  22  38  66  98 140 178 224 270 332 396
#     4  10  21  40  57  87 121 150 198 254 312 368
#     4  10  21  40  68  94 143 176 214 280 327 386
#     4  10  21  38  66  91 122 161 204 262 309 368
#
# _framework density 20.121551
#
# number of rings (size 3 to 8) (size 9 to 14) (size 15 to 20)
#    0.000    2.000    0.000    3.000    0.000    6.667 
#   36.000    0.000   34.833    0.000    0.000    0.000 
#    0.000    0.000    0.000    0.000    0.000    0.000 
#
# Total GULP energy -133861.469944 kJ/mol
# GULP energy per Si atom -5577.561248 kJ/mol
# Density = 2.007575 g / cm^3
# Si number density = 20.121551 Si / 1000 Ang^3
#
#
#
# Elastic Constant Matrix: (Units=GPa)
#
#
# Indices 1 2 3 4 5 6 
#
# 1 74.6568 22.2290 24.9020 0.0000 0.0000 0.0000
# 2 22.2290 83.4862 19.3709 0.0000 0.0000 0.0000
# 3 24.9020 19.3709 70.2329 0.0000 0.0000 0.0000
# 4 0.0000 0.0000 0.0000 32.6675 0.0000 0.0000
# 5 0.0000 0.0000 0.0000 0.0000 13.0196 0.0000
# 6 0.0000 0.0000 0.0000 0.0000 0.0000 33.1963
#
#
#
# Elastic Compliance Matrix: (Units=1/GPa)
#
#
# Indices 1 2 3 4 5 6 
#
# 1 0.015922 -0.003130 -0.004782 0.000000 0.000000 0.000000
# 2 -0.003130 0.013412 -0.002590 0.000000 0.000000 0.000000
# 3 -0.004782 -0.002590 0.016648 0.000000 0.000000 0.000000
# 4 0.000000 0.000000 0.000000 0.030611 0.000000 0.000000
# 5 0.000000 0.000000 0.000000 0.000000 0.076807 0.000000
# 6 0.000000 0.000000 0.000000 0.000000 0.000000 0.030124
#
#
# Mechanical properties :
#
#
# Convention : Reuss Voigt Hill
#
# Bulk Modulus (GPa) = 40.03310 40.15331 40.09320
# Shear Modulus (GPa) = 23.49037 26.56829 25.02933
#
# Velocity S-wave (km/s) = 3.42046 3.63766 3.53073
# Velocity P-wave (km/s) = 5.96140 6.13532 6.04898
#
# Compressibility (1/GPa) = 0.02497933
#
# Stress axis : x y z
#
# Youngs Moduli (GPa) = 62.80798 74.55914 60.06698
#
# Poissons Ratio (x) = 0.23335 0.28724
# Poissons Ratio (y) = 0.19657 0.15554
# Poissons Ratio (z) = 0.30035 0.19307
#
# Static dielectric constant tensor:
#      x y z
#    x 1.708540 0.000000 0.000000 
#    y 0.000000 1.773220 0.000000 
#    z 0.000000 0.000000 1.724500 
# 
# From -- ./inp_files/7373.got.cif
#   From: 2010.05.17/outbox.cif.g08.bks.cpg/sg17_4_cif.got.tgz:7373.got - 2010.06.03 22:34:06.
