data_PCOD9310456
_publ_section_title
;
Structure prediction by ZEFSAII (Michael W. Deem and Ramdas Pophale) SiO2 
 PCOD9310456
Probable space group: P 2 2 21
;
_chemical_formula_sum "Si O2"
_cell_formula_units_Z 24
_cell_length_a 9.417478
_cell_length_b 10.376797
_cell_length_c 15.010516
_cell_angle_alpha 90.000000
_cell_angle_beta 90.000000
_cell_angle_gamma 90.000000
_cell_volume 1466.876520
_symmetry_space_group_name_H-M "P 2 2 21"
_symmetry_group_IT_number 17
_symmetry_cell_setting 'orthorhombic'
loop_
_space_group_symop_operation_xyz
x,y,z
-x,-y,1/2+z
x,-y,-z
-x,y,1/2-z
loop_
_atom_site_type_symbol
_atom_site_label
_atom_site_fract_x
_atom_site_fract_y
_atom_site_fract_z
Si Si1 0.176847 0.369471 0.947608
Si Si2 0.334840 0.023760 0.236463
Si Si3 0.336810 0.713324 0.229889
Si Si4 0.081030 0.718683 0.343897
Si Si5 0.830047 0.117751 0.432663
Si Si6 0.135185 0.990099 0.598868
O O1 0.275579 0.348989 0.860423
O O2 0.014435 0.363821 0.910689
O O3 0.205539 0.500000 0.000000
O O4 0.193903 0.249199 0.014380
O O5 0.500000 0.053385 0.250000
O O6 0.265727 0.098458 0.154169
O O7 0.322279 0.869086 0.219460
O O8 0.245138 0.050391 0.325733
O O9 0.500000 0.683485 0.250000
O O10 0.238714 0.677456 0.315094
O O11 0.083534 0.865310 0.378197
O O12 0.000000 0.720583 0.250000
O O13 0.799546 0.000000 0.500000
O O14 0.995500 0.098846 0.405495
O O15 0.199454 0.000000 0.500000
#
# Coordination Sequence:
#
# PCOD9310456 Si02
#       6
#     4   4   4   4   4   4
#     4  11  21  35  55  83 107 142 186 227 268 318
#     4  10  20  33  52  84 114 141 177 225 274 325
#     4   9  18  35  57  79 106 147 186 213 266 336
#     4   9  16  32  55  76 105 137 180 221 260 322
#     4  11  18  34  56  79 107 137 179 227 274 313
#     4  10  17  30  55  80 103 139 177 225 270 319
#
# _framework density 16.361294999999998
#
# number of rings (size 3 to 8) (size 9 to 14) (size 15 to 20)
#    0.000    2.000    5.000    2.500    0.000    0.667 
#    3.000    6.667    0.000    0.000    0.000    0.000 
#    0.000    0.000    0.000    0.000    0.000    0.000 
#
# Total GULP energy -133775.680699 kJ/mol
# GULP energy per Si atom -5573.986696 kJ/mol
# Density = 1.632406 g / cm^3
# Si number density = 16.361295 Si / 1000 Ang^3
#
#
#
# Elastic Constant Matrix: (Units=GPa)
#
#
# Indices 1 2 3 4 5 6 
#
# 1 114.4601 32.7254 65.5215 0.0000 0.0000 0.0000
# 2 32.7254 76.0418 47.1241 0.0000 0.0000 0.0000
# 3 65.5215 47.1241 122.0702 0.0000 0.0000 0.0000
# 4 0.0000 0.0000 0.0000 25.8357 0.0000 0.0000
# 5 0.0000 0.0000 0.0000 0.0000 13.8121 0.0000
# 6 0.0000 0.0000 0.0000 0.0000 0.0000 9.6325
#
#
#
# Elastic Compliance Matrix: (Units=1/GPa)
#
#
# Indices 1 2 3 4 5 6 
#
# 1 0.012765 -0.001640 -0.006219 0.000000 0.000000 0.000000
# 2 -0.001640 0.017497 -0.005874 0.000000 0.000000 0.000000
# 3 -0.006219 -0.005874 0.013798 0.000000 0.000000 0.000000
# 4 0.000000 0.000000 0.000000 0.038706 0.000000 0.000000
# 5 0.000000 0.000000 0.000000 0.000000 0.072400 0.000000
# 6 0.000000 0.000000 0.000000 0.000000 0.000000 0.103815
#
#
# Mechanical properties :
#
#
# Convention : Reuss Voigt Hill
#
# Bulk Modulus (GPa) = 60.26282 67.03488 63.64885
# Shear Modulus (GPa) = 17.12457 21.00283 19.06370
#
# Velocity S-wave (km/s) = 3.23871 3.58675 3.41716
# Velocity P-wave (km/s) = 7.13429 7.62978 7.38619
#
# Compressibility (1/GPa) = 0.01659398
#
# Stress axis : x y z
#
# Youngs Moduli (GPa) = 78.33672 57.15348 72.47599
#
# Poissons Ratio (x) = 0.09372 0.45071
# Poissons Ratio (y) = 0.12846 0.42574
# Poissons Ratio (z) = 0.48716 0.33573
#
# Static dielectric constant tensor:
#      x y z
#    x 1.577260 0.000000 0.000000 
#    y 0.000000 1.521790 0.000000 
#    z 0.000000 0.000000 1.549380 
# 
# From -- ./inp_files/8094.got.cif
#   From: 2010.05.17/outbox.cif.g08.bks.cpg/sg17_5_cif.got.tgz:8094.got - 2010.06.03 22:34:06.
