data_PCOD9310671
_publ_section_title
;
Structure prediction by ZEFSAII (Michael W. Deem and Ramdas Pophale) SiO2 
 PCOD9310671
Probable space group: P 2 2 21
;
_chemical_formula_sum "Si O2"
_cell_formula_units_Z 20
_cell_length_a 8.774188
_cell_length_b 11.120615
_cell_length_c 9.806033
_cell_angle_alpha 90.000000
_cell_angle_beta 90.000000
_cell_angle_gamma 90.000000
_cell_volume 956.817460
_symmetry_space_group_name_H-M "P 2 2 21"
_symmetry_group_IT_number 17
_symmetry_cell_setting 'orthorhombic'
loop_
_space_group_symop_operation_xyz
x,y,z
-x,-y,1/2+z
x,-y,-z
-x,y,1/2-z
loop_
_atom_site_type_symbol
_atom_site_label
_atom_site_fract_x
_atom_site_fract_y
_atom_site_fract_z
Si Si1 0.340180 0.675225 0.943664
Si Si2 0.319186 0.431496 0.779474
Si Si3 0.303423 0.693186 0.481076
Si Si4 0.628291 0.947168 0.138429
Si Si5 0.822010 0.828231 0.771452
O O1 0.297090 0.559848 0.851133
O O2 0.273024 0.786860 0.861521
O O3 0.279065 0.660378 0.098020
O O4 0.524429 0.673123 0.960641
O O5 0.500000 0.418429 0.750000
O O6 0.252546 0.406830 0.629123
O O7 0.309785 0.815433 0.392664
O O8 0.204476 0.727661 0.611334
O O9 0.500000 0.938630 0.250000
O O10 0.753552 0.045361 0.178900
O O11 0.557071 0.000000 0.000000
O O12 0.000000 0.838625 0.750000
#
# Coordination Sequence:
#
# PCOD9310671 Si02
#       5
#     4   4   4   4   4
#     4  10  19  36  62  86 113 149 192 242 299 357
#     4   9  18  33  59  92 115 141 189 248 301 351
#     4  10  20  38  60  87 117 146 191 245 294 351
#     4  10  20  37  60  85 111 147 194 245 296 346
#     4  11  23  38  55  80 118 161 200 239 290 349
#
# _framework density 20.902628
#
# number of rings (size 3 to 8) (size 9 to 14) (size 15 to 20)
#    0.000    2.000    0.000    6.000    0.000    2.400 
#    0.000   20.000    0.000    0.000    0.000    0.000 
#    0.000    0.000    0.000    0.000    0.000    0.000 
#
# Total GULP energy -111643.637484 kJ/mol
# GULP energy per Si atom -5582.181874 kJ/mol
# Density = 2.085505 g / cm^3
# Si number density = 20.902628 Si / 1000 Ang^3
#
#
#
# Elastic Constant Matrix: (Units=GPa)
#
#
# Indices 1 2 3 4 5 6 
#
# 1 42.4302 3.9135 41.7086 0.0000 0.0000 0.0000
# 2 3.9135 62.0764 39.0038 0.0000 0.0000 0.0000
# 3 41.7086 39.0038 135.6616 0.0000 0.0000 0.0000
# 4 0.0000 0.0000 0.0000 37.4031 0.0000 0.0000
# 5 0.0000 0.0000 0.0000 0.0000 2.1648 0.0000
# 6 0.0000 0.0000 0.0000 0.0000 0.0000 284.2835
#
#
#
# Elastic Compliance Matrix: (Units=1/GPa)
#
#
# Indices 1 2 3 4 5 6 
#
# 1 0.035306 0.005607 -0.012467 0.000000 0.000000 0.000000
# 2 0.005607 0.020551 -0.007633 0.000000 0.000000 0.000000
# 3 -0.012467 -0.007633 0.013399 0.000000 0.000000 0.000000
# 4 0.000000 0.000000 0.000000 0.026736 0.000000 0.000000
# 5 0.000000 0.000000 0.000000 0.000000 0.461939 0.000000
# 6 0.000000 0.000000 0.000000 0.000000 0.000000 0.003518
#
#
# Mechanical properties :
#
#
# Convention : Reuss Voigt Hill
#
# Bulk Modulus (GPa) = 24.83145 45.49112 35.16128
# Shear Modulus (GPa) = 8.28012 75.13976 41.70994
#
# Velocity S-wave (km/s) = 1.99246 6.00213 4.47188
# Velocity P-wave (km/s) = 4.14711 8.35731 6.59709
#
# Compressibility (1/GPa) = 0.04027151
#
# Stress axis : x y z
#
# Youngs Moduli (GPa) = 28.32405 48.65844 74.63475
#
# Poissons Ratio (x) = -0.27284 0.93045
# Poissons Ratio (y) = -0.15882 0.56966
# Poissons Ratio (z) = 0.35311 0.37139
#
# Static dielectric constant tensor:
#      x y z
#    x 1.698060 0.000000 0.000000 
#    y 0.000000 1.832610 0.000000 
#    z 0.000000 0.000000 1.792290 
# 
# From -- ./inp_files/4031.got.cif
#   From: 2010.05.17/outbox.cif.g08.bks.cpg/sg17_3_cif.got.tgz:4031.got - 2010.06.03 22:34:06.
