data_PCOD9310695
_publ_section_title
;
Structure prediction by ZEFSAII (Michael W. Deem and Ramdas Pophale) SiO2 
 PCOD9310695
Probable space group: P 2 2 21
;
_chemical_formula_sum "Si O2"
_cell_formula_units_Z 26
_cell_length_a 6.015458
_cell_length_b 20.546076
_cell_length_c 10.065168
_cell_angle_alpha 90.000000
_cell_angle_beta 90.000000
_cell_angle_gamma 90.000000
_cell_volume 1243.994950
_symmetry_space_group_name_H-M "P 2 2 21"
_symmetry_group_IT_number 17
_symmetry_cell_setting 'orthorhombic'
loop_
_space_group_symop_operation_xyz
x,y,z
-x,-y,1/2+z
x,-y,-z
-x,y,1/2-z
loop_
_atom_site_type_symbol
_atom_site_label
_atom_site_fract_x
_atom_site_fract_y
_atom_site_fract_z
Si Si1 0.184668 0.000000 0.000000
Si Si2 0.431428 0.241433 0.884238
Si Si3 0.120714 0.687666 0.917150
Si Si4 0.873923 0.444561 0.109719
Si Si5 0.500000 0.622494 0.750000
Si Si6 0.820860 0.812095 0.924232
Si Si7 0.000000 0.083201 0.250000
Si Si8 0.846625 0.119673 0.632031
O O1 0.059889 0.036764 0.123852
O O2 0.298159 0.938734 0.070544
O O3 0.500000 0.277619 0.750000
O O4 0.301605 0.179296 0.825851
O O5 0.261711 0.286951 0.960266
O O6 0.606778 0.212809 0.992607
O O7 0.305876 0.667403 0.809116
O O8 0.987044 0.621796 0.941982
O O9 0.953403 0.746681 0.886173
O O10 0.621572 0.423957 0.144294
O O11 0.000000 0.460597 0.250000
O O12 0.889814 0.500000 0.000000
O O13 0.809876 0.864764 0.802497
O O14 0.983703 0.850259 0.025064
O O15 0.000000 0.095119 0.750000
#
# Coordination Sequence:
#
# PCOD9310695 Si02
#       8
#     2   4   4   4   2   4   2   4
#     4  10  20  40  60  92 126 170 226 280 354 402
#     4  11  22  39  64  95 133 176 222 275 347 408
#     4  10  23  40  67  98 139 175 225 284 332 398
#     4  10  23  46  70 100 139 183 226 280 335 396
#     4  10  22  42  72  98 136 184 228 274 332 402
#     4  10  22  38  61  94 127 172 224 277 339 402
#     4  10  22  36  70  92 126 184 222 286 346 412
#     4  10  19  38  59  85 123 165 218 274 337 398
#
# _framework density 20.900406
#
# number of rings (size 3 to 8) (size 9 to 14) (size 15 to 20)
#    0.000    1.846    2.308    0.923    5.385    2.462 
#    5.538    4.615    0.000    0.000    0.000    0.000 
#    0.000    0.000    0.000    0.000    0.000    0.000 
#
# Total GULP energy -144752.505566 kJ/mol
# GULP energy per Si atom -5567.404060 kJ/mol
# Density = 2.085284 g / cm^3
# Si number density = 20.900406 Si / 1000 Ang^3
#
#
#
# Elastic Constant Matrix: (Units=GPa)
#
#
# Indices 1 2 3 4 5 6 
#
# 1 55.7629 25.9203 21.4405 0.0000 0.0000 0.0000
# 2 25.9203 139.0417 61.1783 0.0000 0.0000 0.0000
# 3 21.4405 61.1783 108.2665 0.0000 0.0000 0.0000
# 4 0.0000 0.0000 0.0000 32.3235 0.0000 0.0000
# 5 0.0000 0.0000 0.0000 0.0000 30.8313 0.0000
# 6 0.0000 0.0000 0.0000 0.0000 0.0000 22.7644
#
#
#
# Elastic Compliance Matrix: (Units=1/GPa)
#
#
# Indices 1 2 3 4 5 6 
#
# 1 0.020124 -0.002659 -0.002483 0.000000 0.000000 0.000000
# 2 -0.002659 0.009923 -0.005081 0.000000 0.000000 0.000000
# 3 -0.002483 -0.005081 0.012599 0.000000 0.000000 0.000000
# 4 0.000000 0.000000 0.000000 0.030937 0.000000 0.000000
# 5 0.000000 0.000000 0.000000 0.000000 0.032435 0.000000
# 6 0.000000 0.000000 0.000000 0.000000 0.000000 0.043928
#
#
# Mechanical properties :
#
#
# Convention : Reuss Voigt Hill
#
# Bulk Modulus (GPa) = 45.04281 57.79435 51.41858
# Shear Modulus (GPa) = 28.12282 30.15264 29.13773
#
# Velocity S-wave (km/s) = 3.67217 3.80239 3.73785
# Velocity P-wave (km/s) = 6.29108 6.85491 6.57904
#
# Compressibility (1/GPa) = 0.02220110
#
# Stress axis : x y z
#
# Youngs Moduli (GPa) = 49.69279 100.77231 79.37066
#
# Poissons Ratio (x) = 0.26797 0.19704
# Poissons Ratio (y) = 0.13214 0.40327
# Poissons Ratio (z) = 0.12337 0.51200
#
# Static dielectric constant tensor:
#      x y z
#    x 1.764900 0.000000 0.000000 
#    y 0.000000 1.725210 0.000000 
#    z 0.000000 0.000000 1.509230 
# 
# From -- ./inp_files/6058.got.cif
#   From: 2010.05.17/outbox.cif.g08.bks.cpg/sg17_4_cif.got.tgz:6058.got - 2010.06.03 22:34:06.
