data_PCOD9310568
_publ_section_title
;
Structure prediction by ZEFSAII (Michael W. Deem and Ramdas Pophale) SiO2 
 PCOD9310568
Probable space group: P 2 2 21
;
_chemical_formula_sum "Si O2"
_cell_formula_units_Z 18
_cell_length_a 8.637503
_cell_length_b 6.368329
_cell_length_c 13.478077
_cell_angle_alpha 90.000000
_cell_angle_beta 90.000000
_cell_angle_gamma 90.000000
_cell_volume 741.381315
_symmetry_space_group_name_H-M "P 2 2 21"
_symmetry_group_IT_number 17
_symmetry_cell_setting 'orthorhombic'
loop_
_space_group_symop_operation_xyz
x,y,z
-x,-y,1/2+z
x,-y,-z
-x,y,1/2-z
loop_
_atom_site_type_symbol
_atom_site_label
_atom_site_fract_x
_atom_site_fract_y
_atom_site_fract_z
Si Si1 0.832612 0.655149 0.580629
Si Si2 0.638352 0.500000 0.000000
Si Si3 0.744415 0.150084 0.848071
Si Si4 0.963339 0.000000 0.000000
Si Si5 0.463728 0.874691 0.897270
Si Si6 0.000000 0.401156 0.750000
O O1 0.753525 0.500000 0.500000
O O2 0.929479 0.800253 0.506612
O O3 0.704576 0.795753 0.638286
O O4 0.948444 0.544860 0.657440
O O5 0.724617 0.339201 0.927459
O O6 0.549342 0.658431 0.925923
O O7 0.856788 0.990244 0.903988
O O8 0.847398 0.254558 0.763242
O O9 0.581701 0.028615 0.838909
O O10 0.435607 0.000000 0.000000
#
# Coordination Sequence:
#
# PCOD9310568 Si02
#       6
#     4   2   4   2   4   2
#     4  12  25  46  78 112 151 203 260 317 386 460
#     4  10  18  40  76 100 134 190 242 302 368 444
#     4  11  23  43  73 109 145 194 249 309 382 455
#     4  12  22  42  80 102 142 200 250 314 378 456
#     4  10  21  41  79 105 140 197 248 306 382 455
#     4  12  28  46  78 114 158 198 258 326 388 456
#
# _framework density 24.279005000000002
#
# number of rings (size 3 to 8) (size 9 to 14) (size 15 to 20)
#    0.000    0.889    7.778    1.333    0.000    0.889 
#    0.000    1.111   19.556    0.000    0.000    0.000 
#    0.000    0.000    0.000    0.000    0.000    0.000 
#
# Total GULP energy -100471.743526 kJ/mol
# GULP energy per Si atom -5581.763529 kJ/mol
# Density = 2.422375 g / cm^3
# Si number density = 24.279005 Si / 1000 Ang^3
#
#
#
# Elastic Constant Matrix: (Units=GPa)
#
#
# Indices 1 2 3 4 5 6 
#
# 1 137.3353 59.3781 37.7527 0.0000 0.0000 0.0000
# 2 59.3781 107.4578 29.3567 0.0000 0.0000 0.0000
# 3 37.7527 29.3567 62.4833 0.0000 0.0000 0.0000
# 4 0.0000 0.0000 0.0000 20.0861 0.0000 0.0000
# 5 0.0000 0.0000 0.0000 0.0000 36.2269 0.0000
# 6 0.0000 0.0000 0.0000 0.0000 0.0000 30.2799
#
#
#
# Elastic Compliance Matrix: (Units=1/GPa)
#
#
# Indices 1 2 3 4 5 6 
#
# 1 0.010415 -0.004630 -0.004117 0.000000 0.000000 0.000000
# 2 -0.004630 0.012735 -0.003186 0.000000 0.000000 0.000000
# 3 -0.004117 -0.003186 0.019989 0.000000 0.000000 0.000000
# 4 0.000000 0.000000 0.000000 0.049786 0.000000 0.000000
# 5 0.000000 0.000000 0.000000 0.000000 0.027604 0.000000
# 6 0.000000 0.000000 0.000000 0.000000 0.000000 0.033025
#
#
# Mechanical properties :
#
#
# Convention : Reuss Voigt Hill
#
# Bulk Modulus (GPa) = 51.88843 62.25014 57.06929
# Shear Modulus (GPa) = 27.19690 29.37117 28.28404
#
# Velocity S-wave (km/s) = 3.35054 3.48190 3.41685
# Velocity P-wave (km/s) = 6.03211 6.46993 6.25485
#
# Compressibility (1/GPa) = 0.01927212
#
# Stress axis : x y z
#
# Youngs Moduli (GPa) = 96.01279 78.52469 50.02806
#
# Poissons Ratio (x) = 0.36359 0.20599
# Poissons Ratio (y) = 0.44457 0.15937
# Poissons Ratio (z) = 0.39533 0.25015
#
# Static dielectric constant tensor:
#      x y z
#    x 1.924380 0.000000 0.000000 
#    y 0.000000 1.935550 0.000000 
#    z 0.000000 0.000000 1.959010 
# 
# From -- ./inp_files/8896.got.cif
#   From: 2010.05.17/outbox.cif.g08.bks.cpg/sg17_5_cif.got.tgz:8896.got - 2010.06.03 22:34:06.
