data_PCOD9310961
_publ_section_title
;
Structure prediction by ZEFSAII (Michael W. Deem and Ramdas Pophale) SiO2 
 PCOD9310961
Probable space group: P 2 2 21
;
_chemical_formula_sum "Si O2"
_cell_formula_units_Z 32
_cell_length_a 8.904961
_cell_length_b 7.295164
_cell_length_c 20.658883
_cell_angle_alpha 90.000000
_cell_angle_beta 90.000000
_cell_angle_gamma 90.000000
_cell_volume 1342.066134
_symmetry_space_group_name_H-M "P 2 2 21"
_symmetry_group_IT_number 17
_symmetry_cell_setting 'orthorhombic'
loop_
_space_group_symop_operation_xyz
x,y,z
-x,-y,1/2+z
x,-y,-z
-x,y,1/2-z
loop_
_atom_site_type_symbol
_atom_site_label
_atom_site_fract_x
_atom_site_fract_y
_atom_site_fract_z
Si Si1 0.580715 0.171780 0.816406
Si Si2 0.488035 0.321565 0.461232
Si Si3 0.823732 0.789824 0.006611
Si Si4 0.916849 0.180002 0.409443
Si Si5 0.093875 0.154307 0.649859
Si Si6 0.536915 0.430454 0.316953
Si Si7 0.164161 0.422026 0.853839
Si Si8 0.348755 0.110981 0.928521
O O1 0.500000 0.124432 0.750000
O O2 0.471086 0.670408 0.885724
O O3 0.483877 0.091564 0.876046
O O4 0.569524 0.392219 0.825014
O O5 0.538905 0.500000 0.500000
O O6 0.308058 0.686044 0.530063
O O7 0.246057 0.881670 0.312102
O O8 0.567847 0.171055 0.505642
O O9 0.985118 0.780182 0.973177
O O10 0.846637 0.756162 0.082142
O O11 0.775070 0.000000 0.000000
O O12 0.771509 0.054899 0.424057
O O13 0.016829 0.041132 0.365953
O O14 0.887266 0.380814 0.380896
O O15 0.970123 0.298528 0.674015
O O16 0.500000 0.328921 0.250000
O O17 0.701073 0.519691 0.306965
O O18 0.247435 0.286946 0.905156
#
# Coordination Sequence:
#
# PCOD9310961 Si02
#       8
#     4   4   4   4   4   4   4   4
#     4  10  20  42  74  99 138 189 235 292 356 423
#     4  12  21  39  73 103 132 183 242 289 355 418
#     4  10  23  39  62 105 143 177 223 294 359 411
#     4  10  24  40  67 104 149 181 227 294 363 419
#     4  10  21  42  69 103 142 179 237 289 361 429
#     4  10  23  42  66 102 138 184 240 283 353 422
#     4  10  22  42  70 103 142 185 226 294 358 420
#     4  10  22  44  68 105 139 178 241 289 349 429
#
# _framework density 23.843831000000002
#
# number of rings (size 3 to 8) (size 9 to 14) (size 15 to 20)
#    0.000    1.750    3.750    0.000    3.500    6.000 
#    0.000   10.625    2.750    1.500    0.000    0.000 
#    0.000    0.000    0.000    0.000    0.000    0.000 
#
# Total GULP energy -178838.986593 kJ/mol
# GULP energy per Si atom -5588.718331 kJ/mol
# Density = 2.378956 g / cm^3
# Si number density = 23.843831 Si / 1000 Ang^3
#
#
#
# Elastic Constant Matrix: (Units=GPa)
#
#
# Indices 1 2 3 4 5 6 
#
# 1 137.5287 36.0907 57.6312 0.0000 0.0000 0.0000
# 2 36.0907 113.3185 26.3127 0.0000 0.0000 0.0000
# 3 57.6312 26.3127 143.3048 0.0000 0.0000 0.0000
# 4 0.0000 0.0000 0.0000 2.4412 0.0000 0.0000
# 5 0.0000 0.0000 0.0000 0.0000 35.3179 0.0000
# 6 0.0000 0.0000 0.0000 0.0000 0.0000 23.7112
#
#
#
# Elastic Compliance Matrix: (Units=1/GPa)
#
#
# Indices 1 2 3 4 5 6 
#
# 1 0.009229 -0.002170 -0.003313 0.000000 0.000000 0.000000
# 2 -0.002170 0.009728 -0.000913 0.000000 0.000000 0.000000
# 3 -0.003313 -0.000913 0.008478 0.000000 0.000000 0.000000
# 4 0.000000 0.000000 0.000000 0.409641 0.000000 0.000000
# 5 0.000000 0.000000 0.000000 0.000000 0.028314 0.000000
# 6 0.000000 0.000000 0.000000 0.000000 0.000000 0.042174
#
#
# Mechanical properties :
#
#
# Convention : Reuss Voigt Hill
#
# Bulk Modulus (GPa) = 68.29669 70.46900 69.38285
# Shear Modulus (GPa) = 9.51948 30.56853 20.04401
#
# Velocity S-wave (km/s) = 2.00027 3.58443 2.90252
# Velocity P-wave (km/s) = 5.83441 6.83735 6.35570
#
# Compressibility (1/GPa) = 0.01464200
#
# Stress axis : x y z
#
# Youngs Moduli (GPa) = 108.35393 102.79680 117.94897
#
# Poissons Ratio (x) = 0.22307 0.39077
# Poissons Ratio (y) = 0.23513 0.10774
# Poissons Ratio (z) = 0.35898 0.09390
#
# Static dielectric constant tensor:
#      x y z
#    x 1.960160 0.000000 0.000000 
#    y 0.000000 2.107220 0.000000 
#    z 0.000000 0.000000 2.020890 
# 
# From -- ./inp_files/11239.got.cif
#   From: 2010.05.17/outbox.cif.g08.bks.cpg/sg17_6_cif.got.tgz:11239.got - 2010.06.03 22:34:06.
