data_PCOD9310539
_publ_section_title
;
Structure prediction by ZEFSAII (Michael W. Deem and Ramdas Pophale) SiO2 
 PCOD9310539
Probable space group: P 2 2 21
;
_chemical_formula_sum "Si O2"
_cell_formula_units_Z 30
_cell_length_a 8.884442
_cell_length_b 14.388900
_cell_length_c 12.825427
_cell_angle_alpha 90.000000
_cell_angle_beta 90.000000
_cell_angle_gamma 90.000000
_cell_volume 1639.568568
_symmetry_space_group_name_H-M "P 2 2 21"
_symmetry_group_IT_number 17
_symmetry_cell_setting 'orthorhombic'
loop_
_space_group_symop_operation_xyz
x,y,z
-x,-y,1/2+z
x,-y,-z
-x,y,1/2-z
loop_
_atom_site_type_symbol
_atom_site_label
_atom_site_fract_x
_atom_site_fract_y
_atom_site_fract_z
Si Si1 0.000000 0.480314 0.750000
Si Si2 0.301974 0.781839 0.558178
Si Si3 0.678388 0.121985 0.274090
Si Si4 0.099568 0.157496 0.625056
Si Si5 0.201765 0.921412 0.164390
Si Si6 0.100274 0.338944 0.918965
Si Si7 0.853646 0.584876 0.931015
Si Si8 0.653271 0.206559 0.494871
O O1 0.096487 0.414232 0.827007
O O2 0.109007 0.543961 0.681359
O O3 0.267077 0.828236 0.669484
O O4 0.209321 0.838179 0.471819
O O5 0.248589 0.675423 0.564940
O O6 0.475605 0.782946 0.522477
O O7 0.500000 0.112161 0.250000
O O8 0.709836 0.181293 0.378505
O O9 0.745085 0.021086 0.297478
O O10 0.189651 0.143429 0.732414
O O11 0.969658 0.079392 0.621773
O O12 0.005009 0.253340 0.619250
O O13 0.306457 0.876861 0.075285
O O14 0.256431 0.294230 0.957335
O O15 0.011118 0.385100 0.014979
O O16 0.790735 0.500000 0.000000
#
# Coordination Sequence:
#
# PCOD9310539 Si02
#       8
#     2   4   4   4   4   4   4   4
#     4  10  18  34  64  88 116 148 192 254 300 360
#     4  10  22  41  61  86 122 160 195 244 309 353
#     4  10  23  39  57  84 121 163 196 243 290 351
#     4   9  20  39  58  87 118 153 196 259 283 345
#     4  10  20  39  57  86 118 154 206 245 286 337
#     4   9  18  37  58  86 116 150 197 237 304 345
#     4   9  20  37  60  86 115 150 194 245 300 361
#     4  10  21  38  63  81 121 162 194 241 288 358
#
# _framework density 18.297495999999999
#
# number of rings (size 3 to 8) (size 9 to 14) (size 15 to 20)
#    0.000    2.400    0.000    2.000    3.733    0.533 
#   21.600    2.000    0.000    0.000    0.000    0.000 
#    0.000    0.000    0.000    0.000    0.000    0.000 
#
# Total GULP energy -167257.941332 kJ/mol
# GULP energy per Si atom -5575.264711 kJ/mol
# Density = 1.825585 g / cm^3
# Si number density = 18.297496 Si / 1000 Ang^3
#
#
#
# Elastic Constant Matrix: (Units=GPa)
#
#
# Indices 1 2 3 4 5 6 
#
# 1 59.7930 40.0426 69.8216 0.0000 0.0000 0.0000
# 2 40.0426 71.7940 60.3862 0.0000 0.0000 0.0000
# 3 69.8216 60.3862 156.4130 0.0000 0.0000 0.0000
# 4 0.0000 0.0000 0.0000 28.8077 0.0000 0.0000
# 5 0.0000 0.0000 0.0000 0.0000 21.5744 0.0000
# 6 0.0000 0.0000 0.0000 0.0000 0.0000 23.5641
#
#
#
# Elastic Compliance Matrix: (Units=1/GPa)
#
#
# Indices 1 2 3 4 5 6 
#
# 1 0.039852 -0.010758 -0.013637 0.000000 0.000000 0.000000
# 2 -0.010758 0.023531 -0.004282 0.000000 0.000000 0.000000
# 3 -0.013637 -0.004282 0.014134 0.000000 0.000000 0.000000
# 4 0.000000 0.000000 0.000000 0.034713 0.000000 0.000000
# 5 0.000000 0.000000 0.000000 0.000000 0.046351 0.000000
# 6 0.000000 0.000000 0.000000 0.000000 0.000000 0.042438
#
#
# Mechanical properties :
#
#
# Convention : Reuss Voigt Hill
#
# Bulk Modulus (GPa) = 49.59384 69.83344 59.71364
# Shear Modulus (GPa) = 18.86131 22.63920 20.75026
#
# Velocity S-wave (km/s) = 3.21411 3.52132 3.37122
# Velocity P-wave (km/s) = 6.39821 7.40144 6.91803
#
# Compressibility (1/GPa) = 0.02016379
#
# Stress axis : x y z
#
# Youngs Moduli (GPa) = 25.09261 42.49790 70.75180
#
# Poissons Ratio (x) = 0.45717 0.96482
# Poissons Ratio (y) = 0.26993 0.30298
# Poissons Ratio (z) = 0.34218 0.18199
#
# Static dielectric constant tensor:
#      x y z
#    x 1.621740 0.000000 0.000000 
#    y 0.000000 1.639400 0.000000 
#    z 0.000000 0.000000 1.646700 
# 
# From -- ./inp_files/6700.got.cif
#   From: 2010.05.17/outbox.cif.g08.bks.cpg/sg17_4_cif.got.tgz:6700.got - 2010.06.03 22:34:06.
