data_PCOD9310925
_publ_section_title
;
Structure prediction by ZEFSAII (Michael W. Deem and Ramdas Pophale) SiO2 
 PCOD9310925
Probable space group: P 2 2 21
;
_chemical_formula_sum "Si O2"
_cell_formula_units_Z 22
_cell_length_a 9.336857
_cell_length_b 9.260321
_cell_length_c 13.006982
_cell_angle_alpha 90.000000
_cell_angle_beta 90.000000
_cell_angle_gamma 90.000000
_cell_volume 1124.613488
_symmetry_space_group_name_H-M "P 2 2 21"
_symmetry_group_IT_number 17
_symmetry_cell_setting 'orthorhombic'
loop_
_space_group_symop_operation_xyz
x,y,z
-x,-y,1/2+z
x,-y,-z
-x,y,1/2-z
loop_
_atom_site_type_symbol
_atom_site_label
_atom_site_fract_x
_atom_site_fract_y
_atom_site_fract_z
Si Si1 0.274560 0.648692 0.636009
Si Si2 0.041070 0.659099 0.963852
Si Si3 0.498315 0.500000 0.500000
Si Si4 0.162067 0.845324 0.795480
Si Si5 0.645746 0.606135 0.295887
Si Si6 0.885605 0.837671 0.341179
O O1 0.392509 0.623671 0.547301
O O2 0.269180 0.793916 0.705555
O O3 0.302643 0.517928 0.716479
O O4 0.116863 0.641940 0.585722
O O5 0.152038 0.721432 0.881087
O O6 0.082383 0.500000 0.000000
O O7 0.041335 0.775676 0.055785
O O8 0.596275 0.547152 0.405818
O O9 0.000000 0.847511 0.750000
O O10 0.181155 0.001890 0.845876
O O11 0.500000 0.671398 0.250000
O O12 0.766341 0.723128 0.310759
O O13 0.000000 0.840105 0.250000
#
# Coordination Sequence:
#
# PCOD9310925 Si02
#       6
#     4   4   2   4   4   4
#     4  10  20  40  64  91 126 166 214 274 325 388
#     4  11  20  34  64  96 123 159 215 266 328 387
#     4  10  22  40  64  96 122 174 222 274 316 390
#     4   9  21  38  59  93 130 162 204 266 331 393
#     4  10  23  41  63  91 130 166 219 272 321 387
#     4  11  23  38  62  94 130 169 210 270 331 396
#
# _framework density 19.562277000000002
#
# number of rings (size 3 to 8) (size 9 to 14) (size 15 to 20)
#    0.000    1.818    0.909    2.727    6.364    1.455 
#    0.000    2.727    0.000    0.000    0.000    0.000 
#    0.000    0.000    0.000    0.000    0.000    0.000 
#
# Total GULP energy -122752.995125 kJ/mol
# GULP energy per Si atom -5579.681597 kJ/mol
# Density = 1.951775 g / cm^3
# Si number density = 19.562277 Si / 1000 Ang^3
#
#
#
# Elastic Constant Matrix: (Units=GPa)
#
#
# Indices 1 2 3 4 5 6 
#
# 1 83.5454 37.8461 33.4043 0.0000 0.0000 0.0000
# 2 37.8461 102.0942 37.5540 0.0000 0.0000 0.0000
# 3 33.4043 37.5540 106.0758 0.0000 0.0000 0.0000
# 4 0.0000 0.0000 0.0000 22.6477 0.0000 0.0000
# 5 0.0000 0.0000 0.0000 0.0000 37.0894 0.0000
# 6 0.0000 0.0000 0.0000 0.0000 0.0000 95.0119
#
#
#
# Elastic Compliance Matrix: (Units=1/GPa)
#
#
# Indices 1 2 3 4 5 6 
#
# 1 0.015290 -0.004480 -0.003229 0.000000 0.000000 0.000000
# 2 -0.004480 0.012574 -0.003041 0.000000 0.000000 0.000000
# 3 -0.003229 -0.003041 0.011521 0.000000 0.000000 0.000000
# 4 0.000000 0.000000 0.000000 0.044155 0.000000 0.000000
# 5 0.000000 0.000000 0.000000 0.000000 0.026962 0.000000
# 6 0.000000 0.000000 0.000000 0.000000 0.000000 0.010525
#
#
# Mechanical properties :
#
#
# Convention : Reuss Voigt Hill
#
# Bulk Modulus (GPa) = 55.91264 56.59157 56.25210
# Shear Modulus (GPa) = 33.67280 43.14388 38.40834
#
# Velocity S-wave (km/s) = 4.15337 4.70133 4.43582
# Velocity P-wave (km/s) = 7.18642 7.64603 7.41978
#
# Compressibility (1/GPa) = 0.01788505
#
# Stress axis : x y z
#
# Youngs Moduli (GPa) = 65.40162 79.52780 86.80160
#
# Poissons Ratio (x) = 0.35631 0.28027
# Poissons Ratio (y) = 0.29302 0.26394
# Poissons Ratio (z) = 0.21117 0.24182
#
# Static dielectric constant tensor:
#      x y z
#    x 1.679220 0.000000 0.000000 
#    y 0.000000 1.688760 0.000000 
#    z 0.000000 0.000000 1.732970 
# 
# From -- ./inp_files/8098.got.cif
#   From: 2010.05.17/outbox.cif.g08.bks.cpg/sg17_5_cif.got.tgz:8098.got - 2010.06.03 22:34:06.
