data_PCOD9310109
_publ_section_title
;
Structure prediction by ZEFSAII (Michael W. Deem and Ramdas Pophale) SiO2 
 PCOD9310109
Probable space group: P 2 2 2
;
_chemical_formula_sum "Si O2"
_cell_formula_units_Z 32
_cell_length_a 7.665020
_cell_length_b 14.692896
_cell_length_c 14.463793
_cell_angle_alpha 90.000000
_cell_angle_beta 90.000000
_cell_angle_gamma 90.000000
_cell_volume 1628.931774
_symmetry_space_group_name_H-M "P 2 2 2"
_symmetry_group_IT_number 16
_symmetry_cell_setting 'orthorhombic'
loop_
_space_group_symop_operation_xyz
x,y,z
-x,-y,z
x,-y,-z
-x,y,-z
loop_
_atom_site_type_symbol
_atom_site_label
_atom_site_fract_x
_atom_site_fract_y
_atom_site_fract_z
Si Si1 0.757590 0.674666 0.683987
Si Si2 0.314350 0.040613 0.685215
Si Si3 0.775034 0.818813 0.827303
Si Si4 0.685680 0.184183 0.460703
Si Si5 0.705611 0.898200 0.016727
Si Si6 0.834791 0.716528 0.363612
Si Si7 0.211269 0.486706 0.394493
Si Si8 0.829416 0.864403 0.221546
O O1 0.736610 0.719991 0.784436
O O2 0.648721 0.733876 0.611081
O O3 0.722543 0.568430 0.669997
O O4 0.958620 0.696973 0.652542
O O5 0.344821 0.107614 0.773421
O O6 0.239172 0.102372 0.602172
O O7 0.500000 0.000000 0.656612
O O8 0.202919 0.955967 0.720809
O O9 0.966105 0.849005 0.793945
O O10 0.772045 0.831225 0.936663
O O11 0.500000 0.153860 0.500000
O O12 0.800324 0.226508 0.542888
O O13 0.745527 0.870894 0.120824
O O14 0.500000 0.902196 0.000000
O O15 0.778583 0.000000 0.000000
O O16 0.750858 0.616657 0.367188
O O17 0.765550 0.778723 0.280815
O O18 0.270640 0.500000 0.500000
O O19 0.000000 0.500000 0.395066
#
# Coordination Sequence:
#
# PCOD9310109 Si02
#       8
#     4   4   4   4   4   4   4   4
#     4   9  19  36  57  81 107 139 181 225 269 315
#     4  11  22  36  51  71 107 150 188 213 260 319
#     4  10  21  36  57  83 106 134 180 232 269 306
#     4  11  22  34  50  74 107 150 185 221 258 308
#     4  11  22  37  59  80 106 143 179 214 267 327
#     4  10  20  35  56  82 108 141 182 221 267 319
#     4   9  15  30  59  81 105 141 178 219 266 318
#     4  11  22  35  56  83 109 136 179 229 267 310
#
# _framework density 19.644774999999999
#
# number of rings (size 3 to 8) (size 9 to 14) (size 15 to 20)
#    0.000    1.750    2.500    2.625    0.000    3.250 
#    0.000    2.500    0.000    9.750    0.000    5.250 
#    0.000    0.000    0.000    0.000    0.000    0.000 
#
# Total GULP energy -178726.900255 kJ/mol
# GULP energy per Si atom -5585.215633 kJ/mol
# Density = 1.960006 g / cm^3
# Si number density = 19.644775 Si / 1000 Ang^3
#
#
#
# Elastic Constant Matrix: (Units=GPa)
#
#
# Indices 1 2 3 4 5 6 
#
# 1 27.3693 18.4350 17.4295 0.0000 0.0000 0.0000
# 2 18.4350 171.2921 103.2553 0.0000 0.0000 0.0000
# 3 17.4295 103.2553 149.5299 0.0000 0.0000 0.0000
# 4 0.0000 0.0000 0.0000 21.8844 0.0000 0.0000
# 5 0.0000 0.0000 0.0000 0.0000 25.4605 0.0000
# 6 0.0000 0.0000 0.0000 0.0000 0.0000 12.4723
#
#
#
# Elastic Compliance Matrix: (Units=1/GPa)
#
#
# Indices 1 2 3 4 5 6 
#
# 1 0.040115 -0.002567 -0.002903 0.000000 0.000000 0.000000
# 2 -0.002567 0.010165 -0.006720 0.000000 0.000000 0.000000
# 3 -0.002903 -0.006720 0.011667 0.000000 0.000000 0.000000
# 4 0.000000 0.000000 0.000000 0.045695 0.000000 0.000000
# 5 0.000000 0.000000 0.000000 0.000000 0.039277 0.000000
# 6 0.000000 0.000000 0.000000 0.000000 0.000000 0.080178
#
#
# Mechanical properties :
#
#
# Convention : Reuss Voigt Hill
#
# Bulk Modulus (GPa) = 26.61992 69.60343 48.11167
# Shear Modulus (GPa) = 18.93945 25.90152 22.42048
#
# Velocity S-wave (km/s) = 3.10836 3.63505 3.38197
# Velocity P-wave (km/s) = 5.14418 7.28876 6.30827
#
# Compressibility (1/GPa) = 0.03756586
#
# Stress axis : x y z
#
# Youngs Moduli (GPa) = 24.92813 98.37461 85.71548
#
# Poissons Ratio (x) = 0.25257 0.24884
# Poissons Ratio (y) = 0.06400 0.57602
# Poissons Ratio (z) = 0.07237 0.66109
#
# Static dielectric constant tensor:
#      x y z
#    x 1.777740 0.000000 0.000000 
#    y 0.000000 1.693730 0.000000 
#    z 0.000000 0.000000 1.688220 
# 
# From -- ./inp_files/6630.got.cif
#   From: 2010.05.17/outbox.cif.g08.bks.cpg/sg16_4_cif.got.tgz:6630.got - 2010.06.03 22:28:35.
