data_PCOD9310354
_publ_section_title
;
Structure prediction by ZEFSAII (Michael W. Deem and Ramdas Pophale) SiO2 
 PCOD9310354
Probable space group: P 2 2 2
;
_chemical_formula_sum "Si O2"
_cell_formula_units_Z 15
_cell_length_a 15.398226
_cell_length_b 6.650977
_cell_length_c 7.257653
_cell_angle_alpha 90.000000
_cell_angle_beta 90.000000
_cell_angle_gamma 90.000000
_cell_volume 743.279809
_symmetry_space_group_name_H-M "P 2 2 2"
_symmetry_group_IT_number 16
_symmetry_cell_setting 'orthorhombic'
loop_
_space_group_symop_operation_xyz
x,y,z
-x,-y,z
x,-y,-z
-x,y,-z
loop_
_atom_site_type_symbol
_atom_site_label
_atom_site_fract_x
_atom_site_fract_y
_atom_site_fract_z
Si Si1 0.270055 0.500000 0.000000
Si Si2 0.500000 0.000000 0.000000
Si Si3 0.000000 0.500000 0.000000
Si Si4 0.224126 0.000000 0.500000
Si Si5 0.133978 0.183689 0.857235
Si Si6 0.500000 0.500000 0.500000
Si Si7 0.629691 0.757620 0.270274
O O1 0.214077 0.691254 0.059554
O O2 0.327937 0.428232 0.165406
O O3 0.568337 0.118433 0.869723
O O4 0.942936 0.651170 0.873610
O O5 0.162420 0.889694 0.347222
O O6 0.291527 0.871366 0.626079
O O7 0.116144 0.000000 0.000000
O O8 0.563592 0.655635 0.405120
#
# Coordination Sequence:
#
# PCOD9310354 Si02
#       7
#     2   1   1   2   4   1   4
#     4  11  22  42  72  95 136 188 236 283 350 414
#     4  12  24  40  64  96 148 198 232 296 364 376
#     4  10  26  48  82  96 152 172 226 278 370 434
#     4  12  24  43  77 102 140 186 244 284 350 412
#     4  11  23  48  73 108 136 184 222 293 351 424
#     4  12  24  36  56  96 144 178 244 296 344 388
#     4  12  23  41  63 101 138 192 240 294 342 413
#
# _framework density 20.180824000000001
#
# number of rings (size 3 to 8) (size 9 to 14) (size 15 to 20)
#    0.000    0.533    2.667    6.800    0.000    0.000 
#    0.000    4.000    0.000    0.000    0.000    0.000 
#    0.000    0.000    0.000    0.000    0.000    0.000 
#
# Total GULP energy -83641.949935 kJ/mol
# GULP energy per Si atom -5576.129996 kJ/mol
# Density = 2.013489 g / cm^3
# Si number density = 20.180824 Si / 1000 Ang^3
#
#
#
# Elastic Constant Matrix: (Units=GPa)
#
#
# Indices 1 2 3 4 5 6 
#
# 1 131.9411 61.6257 63.7091 0.0000 0.0000 0.0000
# 2 61.6257 115.7749 57.4413 0.0000 0.0000 0.0000
# 3 63.7091 57.4413 113.7336 0.0000 0.0000 0.0000
# 4 0.0000 0.0000 0.0000 65.1232 0.0000 0.0000
# 5 0.0000 0.0000 0.0000 0.0000 31.4110 0.0000
# 6 0.0000 0.0000 0.0000 0.0000 0.0000 37.4098
#
#
#
# Elastic Compliance Matrix: (Units=1/GPa)
#
#
# Indices 1 2 3 4 5 6 
#
# 1 0.011593 -0.003935 -0.004507 0.000000 0.000000 0.000000
# 2 -0.003935 0.012861 -0.004291 0.000000 0.000000 0.000000
# 3 -0.004507 -0.004291 0.013484 0.000000 0.000000 0.000000
# 4 0.000000 0.000000 0.000000 0.015356 0.000000 0.000000
# 5 0.000000 0.000000 0.000000 0.000000 0.031836 0.000000
# 6 0.000000 0.000000 0.000000 0.000000 0.000000 0.026731
#
#
# Mechanical properties :
#
#
# Convention : Reuss Voigt Hill
#
# Bulk Modulus (GPa) = 80.17541 80.77798 80.47670
# Shear Modulus (GPa) = 35.33959 38.70035 37.01997
#
# Velocity S-wave (km/s) = 4.18921 4.38388 4.28765
# Velocity P-wave (km/s) = 7.95073 8.10793 8.02971
#
# Compressibility (1/GPa) = 0.01247265
#
# Stress axis : x y z
#
# Youngs Moduli (GPa) = 86.25805 77.75387 74.16042
#
# Poissons Ratio (x) = 0.30596 0.33422
# Poissons Ratio (y) = 0.33942 0.31825
# Poissons Ratio (z) = 0.38874 0.33367
#
# Static dielectric constant tensor:
#      x y z
#    x 1.705750 0.000000 0.000000 
#    y 0.000000 1.690910 0.000000 
#    z 0.000000 0.000000 1.769970 
# 
# From -- ./inp_files/4982.got.cif
#   From: 2010.05.17/outbox.cif.g08.bks.cpg/sg16_3_cif.got.tgz:4982.got - 2010.06.03 22:28:35.
