data_PCOD9310321
_publ_section_title
;
Structure prediction by ZEFSAII (Michael W. Deem and Ramdas Pophale) SiO2 
 PCOD9310321
Probable space group: P 2 2 2
;
_chemical_formula_sum "Si O2"
_cell_formula_units_Z 17
_cell_length_a 6.033753
_cell_length_b 14.582674
_cell_length_c 9.287854
_cell_angle_alpha 90.000000
_cell_angle_beta 90.000000
_cell_angle_gamma 90.000000
_cell_volume 817.222048
_symmetry_space_group_name_H-M "P 2 2 2"
_symmetry_group_IT_number 16
_symmetry_cell_setting 'orthorhombic'
loop_
_space_group_symop_operation_xyz
x,y,z
-x,-y,z
x,-y,-z
-x,y,-z
loop_
_atom_site_type_symbol
_atom_site_label
_atom_site_fract_x
_atom_site_fract_y
_atom_site_fract_z
Si Si1 0.380077 0.594296 0.153162
Si Si2 0.230092 0.783113 0.255305
Si Si3 0.500000 0.114831 0.500000
Si Si4 0.169669 0.083354 0.248839
Si Si5 0.500000 0.875545 0.000000
Si Si6 0.000000 0.500000 0.000000
O O1 0.500000 0.500000 0.206304
O O2 0.321591 0.678543 0.255665
O O3 0.142839 0.562707 0.100728
O O4 0.500000 0.619749 0.000000
O O5 0.342341 0.828675 0.393218
O O6 0.974759 0.821199 0.252865
O O7 0.340637 0.820235 0.108375
O O8 0.326035 0.070641 0.387765
O O9 0.328954 0.077794 0.110558
O O10 0.000000 0.000000 0.243683
#
# Coordination Sequence:
#
# PCOD9310321 Si02
#       6
#     4   4   2   4   2   1
#     4   9  19  36  59  98 133 171 218 281 344 413
#     4  11  22  40  68  94 133 179 222 275 347 407
#     4  10  26  45  65  94 132 182 233 282 322 417
#     4  11  26  45  67  97 134 183 231 282 351 411
#     4  10  24  41  65  98 132 160 219 294 334 403
#     4   8  18  28  60  90 128 168 214 260 354 418
#
# _framework density 20.802181000000001
#
# number of rings (size 3 to 8) (size 9 to 14) (size 15 to 20)
#    0.000    2.118    1.176    1.412    3.294   11.294 
#    0.000    4.118    0.000    0.000    0.000    0.000 
#    0.000    0.000    0.000    0.000    0.000    0.000 
#
# Total GULP energy -94720.073192 kJ/mol
# GULP energy per Si atom -5571.769011 kJ/mol
# Density = 2.075483 g / cm^3
# Si number density = 20.802181 Si / 1000 Ang^3
#
#
#
# Elastic Constant Matrix: (Units=GPa)
#
#
# Indices 1 2 3 4 5 6 
#
# 1 138.5251 54.0090 53.8875 0.0000 0.0000 0.0000
# 2 54.0090 114.4193 45.3105 0.0000 0.0000 0.0000
# 3 53.8875 45.3105 138.1633 0.0000 0.0000 0.0000
# 4 0.0000 0.0000 0.0000 16.7805 0.0000 0.0000
# 5 0.0000 0.0000 0.0000 0.0000 12.2788 0.0000
# 6 0.0000 0.0000 0.0000 0.0000 0.0000 23.3644
#
#
#
# Elastic Compliance Matrix: (Units=1/GPa)
#
#
# Indices 1 2 3 4 5 6 
#
# 1 0.009593 -0.003501 -0.002593 0.000000 0.000000 0.000000
# 2 -0.003501 0.011322 -0.002348 0.000000 0.000000 0.000000
# 3 -0.002593 -0.002348 0.009019 0.000000 0.000000 0.000000
# 4 0.000000 0.000000 0.000000 0.059593 0.000000 0.000000
# 5 0.000000 0.000000 0.000000 0.000000 0.081441 0.000000
# 6 0.000000 0.000000 0.000000 0.000000 0.000000 0.042800
#
#
# Mechanical properties :
#
#
# Convention : Reuss Voigt Hill
#
# Bulk Modulus (GPa) = 76.62751 77.50241 77.06496
# Shear Modulus (GPa) = 21.27642 26.34479 23.81060
#
# Velocity S-wave (km/s) = 3.20159 3.56257 3.38689
# Velocity P-wave (km/s) = 7.11218 7.36616 7.24029
#
# Compressibility (1/GPa) = 0.01305014
#
# Stress axis : x y z
#
# Youngs Moduli (GPa) = 104.24563 88.32343 110.87558
#
# Poissons Ratio (x) = 0.30923 0.28753
# Poissons Ratio (y) = 0.36497 0.26028
# Poissons Ratio (z) = 0.27033 0.20734
#
# Static dielectric constant tensor:
#      x y z
#    x 1.754610 0.000000 0.000000 
#    y 0.000000 1.799920 0.000000 
#    z 0.000000 0.000000 1.747520 
# 
# From -- ./inp_files/3110.got.cif
#   From: 2010.05.17/outbox.cif.g08.bks.cpg/sg16_2_cif.got.tgz:3110.got - 2010.06.03 22:28:35.
