data_PCOD9310788
_publ_section_title
;
Structure prediction by ZEFSAII (Michael W. Deem and Ramdas Pophale) SiO2 
 PCOD9310788
Probable space group: P 2 2 21
;
_chemical_formula_sum "Si O2"
_cell_formula_units_Z 32
_cell_length_a 5.489744
_cell_length_b 8.457464
_cell_length_c 30.952332
_cell_angle_alpha 90.000000
_cell_angle_beta 90.000000
_cell_angle_gamma 90.000000
_cell_volume 1437.095487
_symmetry_space_group_name_H-M "P 2 2 21"
_symmetry_group_IT_number 17
_symmetry_cell_setting 'orthorhombic'
loop_
_space_group_symop_operation_xyz
x,y,z
-x,-y,1/2+z
x,-y,-z
-x,y,1/2-z
loop_
_atom_site_type_symbol
_atom_site_label
_atom_site_fract_x
_atom_site_fract_y
_atom_site_fract_z
Si Si1 0.380447 0.371094 0.623824
Si Si2 0.634257 0.002078 0.131784
Si Si3 0.744925 0.798880 0.593273
Si Si4 0.751790 0.469338 0.257215
Si Si5 0.376219 0.572233 0.543783
Si Si6 0.750827 0.881977 0.774327
Si Si7 0.893464 0.468608 0.351588
Si Si8 0.870249 0.107976 0.040326
O O1 0.376521 0.185436 0.630890
O O2 0.306382 0.429291 0.575583
O O3 0.660568 0.427239 0.632138
O O4 0.155989 0.446265 0.651434
O O5 0.373469 0.088075 0.128528
O O6 0.752592 0.061661 0.176187
O O7 0.749443 0.053747 0.085617
O O8 0.559068 0.676652 0.571994
O O9 0.930844 0.682032 0.617469
O O10 0.848170 0.900538 0.553893
O O11 0.500000 0.557782 0.250000
O O12 0.744074 0.310687 0.228419
O O13 0.785264 0.411853 0.306115
O O14 0.000000 0.564125 0.250000
O O15 0.480511 0.500000 0.500000
O O16 0.179510 0.706330 0.531121
O O17 0.500000 0.933917 0.750000
O O18 0.000000 0.930147 0.750000
O O19 0.803892 0.000000 0.000000
#
# Coordination Sequence:
#
# PCOD9310788 Si02
#       8
#     4   4   4   4   4   4   4   4
#     4  11  25  44  68 101 138 193 228 287 365 430
#     4  11  26  44  71  99 149 183 238 304 364 429
#     4  10  23  41  69  98 134 186 236 296 355 424
#     4  10  20  35  64  96 124 167 226 279 334 405
#     4  10  22  43  64  95 143 181 236 291 358 432
#     4  10  23  40  68 103 135 179 236 291 355 418
#     4  11  23  44  67  96 137 176 236 278 351 427
#     4  11  24  41  69 103 135 182 243 298 358 434
#
# _framework density 22.267136000000001
#
# number of rings (size 3 to 8) (size 9 to 14) (size 15 to 20)
#    0.000    1.500    1.250    3.000    7.000    3.500 
#    2.250    3.750    0.000    0.000    0.000    0.000 
#    0.000    0.000    0.000    0.000    0.000    0.000 
#
# Total GULP energy -178395.800051 kJ/mol
# GULP energy per Si atom -5574.868752 kJ/mol
# Density = 2.221645 g / cm^3
# Si number density = 22.267136 Si / 1000 Ang^3
#
#
#
# Elastic Constant Matrix: (Units=GPa)
#
#
# Indices 1 2 3 4 5 6 
#
# 1 101.5217 23.3503 10.8294 0.0000 0.0000 0.0000
# 2 23.3503 107.9498 42.8032 0.0000 0.0000 0.0000
# 3 10.8294 42.8032 100.0883 0.0000 0.0000 0.0000
# 4 0.0000 0.0000 0.0000 19.6249 0.0000 0.0000
# 5 0.0000 0.0000 0.0000 0.0000 27.4380 0.0000
# 6 0.0000 0.0000 0.0000 0.0000 0.0000 -4.8132
#
#
#
# Elastic Compliance Matrix: (Units=1/GPa)
#
#
# Indices 1 2 3 4 5 6 
#
# 1 0.010369 -0.002165 -0.000196 0.000000 0.000000 0.000000
# 2 -0.002165 0.011607 -0.004730 0.000000 0.000000 0.000000
# 3 -0.000196 -0.004730 0.012035 0.000000 0.000000 0.000000
# 4 0.000000 0.000000 0.000000 0.050956 0.000000 0.000000
# 5 0.000000 0.000000 0.000000 0.000000 0.036446 0.000000
# 6 0.000000 0.000000 0.000000 0.000000 0.000000 -0.207760
#
#
# Mechanical properties :
#
#
# Convention : Reuss Voigt Hill
#
# Bulk Modulus (GPa) = 50.42929 51.50285 50.96607
# Shear Modulus (GPa) = -76.27061 23.95507 -26.15777
#
# Velocity S-wave (km/s) = -5.85892 3.28350 -3.43115
# Velocity P-wave (km/s) = 4.80340 6.12821 2.69094
#
# Compressibility (1/GPa) = 0.01982975
#
# Stress axis : x y z
#
# Youngs Moduli (GPa) = 96.44113 86.15299 83.09087
#
# Poissons Ratio (x) = 0.18654 0.01628
# Poissons Ratio (y) = 0.20881 0.39299
# Poissons Ratio (z) = 0.01890 0.40747
#
# Static dielectric constant tensor:
#      x y z
#    x 1.995940 0.000000 0.000000 
#    y 0.000000 1.770630 0.000000 
#    z 0.000000 0.000000 1.858390 
# 
# From -- ./inp_files/11181.got.cif
#   From: 2010.05.17/outbox.cif.g08.bks.cpg/sg17_6_cif.got.tgz:11181.got - 2010.06.03 22:34:06.
