data_PCOD9310487
_publ_section_title
;
Structure prediction by ZEFSAII (Michael W. Deem and Ramdas Pophale) SiO2 
 PCOD9310487
Probable space group: P 2 2 21
;
_chemical_formula_sum "Si O2"
_cell_formula_units_Z 24
_cell_length_a 11.837880
_cell_length_b 13.270299
_cell_length_c 7.584856
_cell_angle_alpha 90.000000
_cell_angle_beta 90.000000
_cell_angle_gamma 90.000000
_cell_volume 1191.521770
_symmetry_space_group_name_H-M "P 2 2 21"
_symmetry_group_IT_number 17
_symmetry_cell_setting 'orthorhombic'
loop_
_space_group_symop_operation_xyz
x,y,z
-x,-y,1/2+z
x,-y,-z
-x,y,1/2-z
loop_
_atom_site_type_symbol
_atom_site_label
_atom_site_fract_x
_atom_site_fract_y
_atom_site_fract_z
Si Si1 0.849737 0.112575 0.548897
Si Si2 0.700796 0.298600 0.579605
Si Si3 0.818672 0.500000 0.500000
Si Si4 0.107722 0.886346 0.468900
Si Si5 0.816272 0.682568 0.035701
Si Si6 0.500000 0.383904 0.750000
Si Si7 0.000000 0.580796 0.250000
Si Si8 0.668565 0.500000 0.000000
O O1 0.758594 0.198434 0.502263
O O2 0.875863 0.123194 0.757859
O O3 0.976768 0.122212 0.471882
O O4 0.810435 0.000000 0.500000
O O5 0.745721 0.399346 0.486636
O O6 0.750548 0.303605 0.778995
O O7 0.567429 0.313896 0.610485
O O8 0.901551 0.516064 0.335208
O O9 0.173580 0.791794 0.551517
O O10 0.146882 0.000000 0.500000
O O11 0.941610 0.647600 0.097550
O O12 0.749594 0.592367 0.943632
O O13 0.411510 0.456363 0.651914
#
# Coordination Sequence:
#
# PCOD9310487 Si02
#       8
#     4   4   2   4   4   2   2   2
#     4   9  17  31  49  72 101 130 161 199 245 298
#     4   9  18  32  51  70  95 133 173 209 249 296
#     4  10  18  30  48  76 104 134 166 198 248 308
#     4   9  16  29  49  72 101 134 162 190 236 302
#     4   9  17  30  49  73 101 136 168 196 242 305
#     4  10  20  36  54  72  96 132 176 222 262 290
#     4  10  18  30  48  74 110 138 160 196 246 310
#     4  10  20  34  54  76  98 132 174 214 256 298
#
# _framework density 20.142308
#
# number of rings (size 3 to 8) (size 9 to 14) (size 15 to 20)
#    0.000    2.667    0.000    4.000    0.000    0.000 
#    0.000   11.667    0.000    9.000    0.000    2.333 
#    0.000    0.000    0.000    0.000    0.000    0.000 
#
# Total GULP energy -133748.270098 kJ/mol
# GULP energy per Si atom -5572.844587 kJ/mol
# Density = 2.009646 g / cm^3
# Si number density = 20.142308 Si / 1000 Ang^3
#
#
#
# Elastic Constant Matrix: (Units=GPa)
#
#
# Indices 1 2 3 4 5 6 
#
# 1 85.7190 80.6438 11.3583 0.0000 0.0000 0.0000
# 2 80.6438 207.5789 18.4950 0.0000 0.0000 0.0000
# 3 11.3583 18.4950 30.2311 0.0000 0.0000 0.0000
# 4 0.0000 0.0000 0.0000 24.7446 0.0000 0.0000
# 5 0.0000 0.0000 0.0000 0.0000 22.9526 0.0000
# 6 0.0000 0.0000 0.0000 0.0000 0.0000 18.1985
#
#
#
# Elastic Compliance Matrix: (Units=1/GPa)
#
#
# Indices 1 2 3 4 5 6 
#
# 1 0.018594 -0.006982 -0.002715 0.000000 0.000000 0.000000
# 2 -0.006982 0.007717 -0.002098 0.000000 0.000000 0.000000
# 3 -0.002715 -0.002098 0.035382 0.000000 0.000000 0.000000
# 4 0.000000 0.000000 0.000000 0.040413 0.000000 0.000000
# 5 0.000000 0.000000 0.000000 0.000000 0.043568 0.000000
# 6 0.000000 0.000000 0.000000 0.000000 0.000000 0.054949
#
#
# Mechanical properties :
#
#
# Convention : Reuss Voigt Hill
#
# Bulk Modulus (GPa) = 26.24389 60.50257 43.37323
# Shear Modulus (GPa) = 21.10471 27.38126 24.24298
#
# Velocity S-wave (km/s) = 3.24045 3.69099 3.47304
# Velocity P-wave (km/s) = 5.20175 6.94747 6.13700
#
# Compressibility (1/GPa) = 0.03810410
#
# Stress axis : x y z
#
# Youngs Moduli (GPa) = 53.77993 129.58690 28.26300
#
# Poissons Ratio (x) = 0.90477 0.07673
# Poissons Ratio (y) = 0.37549 0.05929
# Poissons Ratio (z) = 0.14600 0.27185
#
# Static dielectric constant tensor:
#      x y z
#    x 1.762500 0.000000 0.000000 
#    y 0.000000 1.770580 0.000000 
#    z 0.000000 0.000000 1.796000 
# 
# From -- ./inp_files/4859.got.cif
#   From: 2010.05.17/outbox.cif.g08.bks.cpg/sg17_3_cif.got.tgz:4859.got - 2010.06.03 22:34:06.
