data_PCOD9310432
_publ_section_title
;
Structure prediction by ZEFSAII (Michael W. Deem and Ramdas Pophale) SiO2 
 PCOD9310432
Probable space group: P 2 2 21
;
_chemical_formula_sum "Si O2"
_cell_formula_units_Z 32
_cell_length_a 7.132246
_cell_length_b 5.666715
_cell_length_c 30.397452
_cell_angle_alpha 90.000000
_cell_angle_beta 90.000000
_cell_angle_gamma 90.000000
_cell_volume 1228.555743
_symmetry_space_group_name_H-M "P 2 2 21"
_symmetry_group_IT_number 17
_symmetry_cell_setting 'orthorhombic'
loop_
_space_group_symop_operation_xyz
x,y,z
-x,-y,1/2+z
x,-y,-z
-x,y,1/2-z
loop_
_atom_site_type_symbol
_atom_site_label
_atom_site_fract_x
_atom_site_fract_y
_atom_site_fract_z
Si Si1 0.238564 0.994999 0.049977
Si Si2 0.990090 0.414070 0.801311
Si Si3 0.024133 0.914666 0.673312
Si Si4 0.447321 0.128442 0.301011
Si Si5 0.210259 0.504638 0.946373
Si Si6 0.546884 0.370701 0.803013
Si Si7 0.764078 0.496789 0.051966
Si Si8 0.180022 0.997946 0.422885
O O1 0.285229 0.246780 0.070699
O O2 0.008467 0.992147 0.046983
O O3 0.286112 0.743531 0.070883
O O4 0.312702 0.000000 0.000000
O O5 0.062560 0.651853 0.824776
O O6 0.770242 0.380252 0.811600
O O7 0.000000 0.465298 0.750000
O O8 0.074926 0.152378 0.809056
O O9 0.220522 0.879075 0.699190
O O10 0.089674 0.979298 0.624779
O O11 0.500000 0.129080 0.250000
O O12 0.516699 0.375544 0.320480
O O13 0.513410 0.882163 0.321447
O O14 0.987656 0.506198 0.938498
O O15 0.232906 0.500000 0.000000
O O16 0.500000 0.368785 0.750000
O O17 0.705546 0.238065 0.068609
O O18 0.710152 0.752912 0.070833
O O19 0.728783 0.500000 0.000000
#
# Coordination Sequence:
#
# PCOD9310432 Si02
#       8
#     4   4   4   4   4   4   4   4
#     4   8  12  18  27  39  56  81 108 137 170 209
#     4  10  19  31  43  56  79 109 138 175 213 260
#     4  10  19  28  40  59  77 101 140 181 215 247
#     4   8  14  25  39  54  74  97 124 167 216 254
#     4   7  10  15  23  34  48  68  98 128 158 193
#     4   8  14  25  42  60  74  93 128 173 206 238
#     4   9  15  23  34  48  68  98 128 158 193 235
#     4  10  16  23  34  50  72  93 124 175 204 224
#
# _framework density 26.046844
#
# number of rings (size 3 to 8) (size 9 to 14) (size 15 to 20)
#    0.000    3.250    0.000    3.750    0.000    0.000 
#    0.000    0.000    0.000    0.000    0.000    0.000 
#    0.000    0.000    0.000    0.000    0.000    0.000 
#
# Total GULP energy -178472.784793 kJ/mol
# GULP energy per Si atom -5577.274525 kJ/mol
# Density = 2.598756 g / cm^3
# Si number density = 26.046844 Si / 1000 Ang^3
#
#
#
# Elastic Constant Matrix: (Units=GPa)
#
#
# Indices 1 2 3 4 5 6 
#
# 1 106.5822 -2.6301 -14.8473 0.0000 0.0000 0.0000
# 2 -2.6301 334.7475 -2.6605 0.0000 0.0000 0.0000
# 3 -14.8473 -2.6605 48.9870 0.0000 0.0000 0.0000
# 4 0.0000 0.0000 0.0000 25.0326 0.0000 0.0000
# 5 0.0000 0.0000 0.0000 0.0000 45.8519 0.0000
# 6 0.0000 0.0000 0.0000 0.0000 0.0000 37.8473
#
#
#
# Elastic Compliance Matrix: (Units=1/GPa)
#
#
# Indices 1 2 3 4 5 6 
#
# 1 0.009799 0.000101 0.002976 0.000000 0.000000 0.000000
# 2 0.000101 0.002990 0.000193 0.000000 0.000000 0.000000
# 3 0.002976 0.000193 0.021326 0.000000 0.000000 0.000000
# 4 0.000000 0.000000 0.000000 0.039948 0.000000 0.000000
# 5 0.000000 0.000000 0.000000 0.000000 0.021809 0.000000
# 6 0.000000 0.000000 0.000000 0.000000 0.000000 0.026422
#
#
# Mechanical properties :
#
#
# Convention : Reuss Voigt Hill
#
# Bulk Modulus (GPa) = 24.59838 50.00453 37.30146
# Shear Modulus (GPa) = 38.66764 55.77667 47.22216
#
# Velocity S-wave (km/s) = 3.85716 4.63254 4.26252
# Velocity P-wave (km/s) = 5.41306 6.91763 6.21107
#
# Compressibility (1/GPa) = 0.04065308
#
# Stress axis : x y z
#
# Youngs Moduli (GPa) = 102.04688 334.48733 46.89135
#
# Poissons Ratio (x) = -0.03366 -0.13953
# Poissons Ratio (y) = -0.01027 -0.00904
# Poissons Ratio (z) = -0.30364 -0.06451
#
# Static dielectric constant tensor:
#      x y z
#    x 2.009040 0.000000 0.000000 
#    y 0.000000 2.184630 0.000000 
#    z 0.000000 0.000000 1.913960 
# 
# From -- ./inp_files/10919.got.cif
#   From: 2010.05.17/outbox.cif.g08.bks.cpg/sg17_6_cif.got.tgz:10919.got - 2010.06.03 22:34:06.
