data_PCOD9310309
_publ_section_title
;
Structure prediction by ZEFSAII (Michael W. Deem and Ramdas Pophale) SiO2 
 PCOD9310309
Probable space group: P 2 2 2
;
_chemical_formula_sum "Si O2"
_cell_formula_units_Z 16
_cell_length_a 23.811746
_cell_length_b 5.361050
_cell_length_c 5.178960
_cell_angle_alpha 90.000000
_cell_angle_beta 90.000000
_cell_angle_gamma 90.000000
_cell_volume 661.125115
_symmetry_space_group_name_H-M "P 2 2 2"
_symmetry_group_IT_number 16
_symmetry_cell_setting 'orthorhombic'
loop_
_space_group_symop_operation_xyz
x,y,z
-x,-y,z
x,-y,-z
-x,y,-z
loop_
_atom_site_type_symbol
_atom_site_label
_atom_site_fract_x
_atom_site_fract_y
_atom_site_fract_z
Si Si1 0.814947 0.000000 0.500000
Si Si2 0.500000 0.500000 0.500000
Si Si3 0.712326 0.834544 0.255176
Si Si4 0.000000 0.000000 0.000000
Si Si5 0.592782 0.176858 0.749930
Si Si6 0.905568 0.330877 0.246949
O O1 0.776217 0.209705 0.649186
O O2 0.854509 0.144025 0.303514
O O3 0.541699 0.357464 0.694292
O O4 0.654233 0.683151 0.229026
O O5 0.696559 0.000000 0.500000
O O6 0.717653 0.000000 0.000000
O O7 0.039641 0.171161 0.823841
O O8 0.589243 0.000000 0.500000
O O9 0.587939 0.000000 0.000000
O O10 0.914054 0.500000 0.500000
O O11 0.893319 0.500000 0.000000
#
# Coordination Sequence:
#
# PCOD9310309 Si02
#       6
#     2   1   4   1   4   4
#     4  10  24  45  74 101 154 184 236 316 362 416
#     4  12  26  42  76 108 136 198 254 292 376 440
#     4   8  18  38  69  94 138 191 225 287 375 414
#     4  12  30  54  76 100 168 194 230 316 360 416
#     4  10  23  45  66 102 144 184 240 304 357 435
#     4  12  29  47  75 115 141 192 253 292 364 443
#
# _framework density 24.201167999999999
#
# number of rings (size 3 to 8) (size 9 to 14) (size 15 to 20)
#    0.750    1.000    0.000    2.250    5.250   11.500 
#    2.250    0.000    0.000    0.000    0.000    0.000 
#    0.000    0.000    0.000    0.000    0.000    0.000 
#
# Total GULP energy -89197.286907 kJ/mol
# GULP energy per Si atom -5574.830432 kJ/mol
# Density = 2.414609 g / cm^3
# Si number density = 24.201168 Si / 1000 Ang^3
#
#
#
# Elastic Constant Matrix: (Units=GPa)
#
#
# Indices 1 2 3 4 5 6 
#
# 1 237.4499 74.6151 60.9729 0.0000 0.0000 0.0000
# 2 74.6151 75.0442 55.1395 0.0000 0.0000 0.0000
# 3 60.9729 55.1395 193.8426 0.0000 0.0000 0.0000
# 4 0.0000 0.0000 0.0000 40.0175 0.0000 0.0000
# 5 0.0000 0.0000 0.0000 0.0000 157.3028 0.0000
# 6 0.0000 0.0000 0.0000 0.0000 0.0000 44.4362
#
#
#
# Elastic Compliance Matrix: (Units=1/GPa)
#
#
# Indices 1 2 3 4 5 6 
#
# 1 0.006134 -0.005919 -0.000246 0.000000 0.000000 0.000000
# 2 -0.005919 0.022557 -0.004555 0.000000 0.000000 0.000000
# 3 -0.000246 -0.004555 0.006532 0.000000 0.000000 0.000000
# 4 0.000000 0.000000 0.000000 0.024989 0.000000 0.000000
# 5 0.000000 0.000000 0.000000 0.000000 0.006357 0.000000
# 6 0.000000 0.000000 0.000000 0.000000 0.000000 0.022504
#
#
# Mechanical properties :
#
#
# Convention : Reuss Voigt Hill
#
# Bulk Modulus (GPa) = 72.54549 98.64354 85.59451
# Shear Modulus (GPa) = 43.43788 69.39191 56.41490
#
# Velocity S-wave (km/s) = 4.24118 5.36052 4.83337
# Velocity P-wave (km/s) = 7.35014 8.89730 8.16047
#
# Compressibility (1/GPa) = 0.01378445
#
# Stress axis : x y z
#
# Youngs Moduli (GPa) = 163.01488 44.33245 153.09673
#
# Poissons Ratio (x) = 0.26239 0.03766
# Poissons Ratio (y) = 0.96482 0.69731
# Poissons Ratio (z) = 0.04010 0.20192
#
# Static dielectric constant tensor:
#      x y z
#    x 2.123120 0.000000 0.000000 
#    y 0.000000 1.966460 0.000000 
#    z 0.000000 0.000000 1.848530 
# 
# From -- ./inp_files/2720.got.cif
#   From: 2010.05.17/outbox.cif.g08.bks.cpg/sg16_2_cif.got.tgz:2720.got - 2010.06.03 22:28:35.
