data_PCOD9310087
_publ_section_title
;
Structure prediction by ZEFSAII (Michael W. Deem and Ramdas Pophale) SiO2 
 PCOD9310087
Probable space group: P 2 2 2
;
_chemical_formula_sum "Si O2"
_cell_formula_units_Z 25
_cell_length_a 7.701613
_cell_length_b 12.216535
_cell_length_c 13.167311
_cell_angle_alpha 90.000000
_cell_angle_beta 90.000000
_cell_angle_gamma 90.000000
_cell_volume 1238.873116
_symmetry_space_group_name_H-M "P 2 2 2"
_symmetry_group_IT_number 16
_symmetry_cell_setting 'orthorhombic'
loop_
_space_group_symop_operation_xyz
x,y,z
-x,-y,z
x,-y,-z
-x,y,-z
loop_
_atom_site_type_symbol
_atom_site_label
_atom_site_fract_x
_atom_site_fract_y
_atom_site_fract_z
Si Si1 0.827730 0.799457 0.567166
Si Si2 0.500000 0.500000 0.500000
Si Si3 0.021404 0.370884 0.701644
Si Si4 0.037309 0.779528 0.882285
Si Si5 0.397721 0.160804 0.203110
Si Si6 0.238841 0.076007 0.774703
Si Si7 0.341629 0.297632 0.389021
O O1 0.795403 0.880720 0.660147
O O2 0.681109 0.783587 0.483526
O O3 0.000000 0.825286 0.500000
O O4 0.841496 0.679866 0.622592
O O5 0.399746 0.415599 0.427576
O O6 0.038108 0.319724 0.813496
O O7 0.847698 0.316108 0.658331
O O8 0.000000 0.500000 0.700868
O O9 0.246492 0.786717 0.866131
O O10 0.929675 0.884088 0.837744
O O11 0.000000 0.767695 0.000000
O O12 0.591221 0.128116 0.168673
O O13 0.440034 0.239940 0.297739
O O14 0.297219 0.049779 0.235957
#
# Coordination Sequence:
#
# PCOD9310087 Si02
#       7
#     4   1   4   4   4   4   4
#     4   9  18  33  54  81 112 149 190 226 265 323
#     4  12  20  28  50  74 108 154 184 222 268 310
#     4   9  18  34  54  76 106 143 182 228 278 327
#     4  10  22  39  59  83 108 138 184 236 285 343
#     4  10  22  38  56  83 112 144 186 227 275 336
#     4  10  21  38  58  79 113 150 180 226 281 330
#     4  10  20  32  49  78 111 143 186 224 260 320
#
# _framework density 20.179628000000001
#
# number of rings (size 3 to 8) (size 9 to 14) (size 15 to 20)
#    0.000    2.240    0.000    3.360    0.000    6.400 
#    0.000    7.200    0.000    0.000    0.000    6.720 
#    0.000    0.000    0.000    0.000    0.000    0.000 
#
# Total GULP energy -139248.705367 kJ/mol
# GULP energy per Si atom -5569.948215 kJ/mol
# Density = 2.013370 g / cm^3
# Si number density = 20.179628 Si / 1000 Ang^3
#
#
#
# Elastic Constant Matrix: (Units=GPa)
#
#
# Indices 1 2 3 4 5 6 
#
# 1 89.0596 -10.7682 23.2349 0.0000 0.0000 0.0000
# 2 -10.7682 27.4966 -2.0749 0.0000 0.0000 0.0000
# 3 23.2349 -2.0749 107.8566 0.0000 0.0000 0.0000
# 4 0.0000 0.0000 0.0000 4.0735 0.0000 0.0000
# 5 0.0000 0.0000 0.0000 0.0000 13.1505 0.0000
# 6 0.0000 0.0000 0.0000 0.0000 0.0000 22.3074
#
#
#
# Elastic Compliance Matrix: (Units=1/GPa)
#
#
# Indices 1 2 3 4 5 6 
#
# 1 0.012473 0.004689 -0.002597 0.000000 0.000000 0.000000
# 2 0.004689 0.038184 -0.000275 0.000000 0.000000 0.000000
# 3 -0.002597 -0.000275 0.009826 0.000000 0.000000 0.000000
# 4 0.000000 0.000000 0.000000 0.245491 0.000000 0.000000
# 5 0.000000 0.000000 0.000000 0.000000 0.076042 0.000000
# 6 0.000000 0.000000 0.000000 0.000000 0.000000 0.044828
#
#
# Mechanical properties :
#
#
# Convention : Reuss Voigt Hill
#
# Bulk Modulus (GPa) = 15.59701 27.24403 21.42052
# Shear Modulus (GPa) = 11.24652 22.17436 16.71044
#
# Velocity S-wave (km/s) = 2.36332 3.31849 2.88077
# Velocity P-wave (km/s) = 3.89781 5.31161 4.65866
#
# Compressibility (1/GPa) = 0.06411484
#
# Stress axis : x y z
#
# Youngs Moduli (GPa) = 80.17439 26.18931 101.77422
#
# Poissons Ratio (x) = -0.12279 0.26428
# Poissons Ratio (y) = -0.37591 0.02804
# Poissons Ratio (z) = 0.20819 0.00721
#
# Static dielectric constant tensor:
#      x y z
#    x 1.763940 0.000000 0.000000 
#    y 0.000000 1.726910 0.000000 
#    z 0.000000 0.000000 1.707570 
# 
# From -- ./inp_files/4743.got.cif
#   From: 2010.05.17/outbox.cif.g08.bks.cpg/sg16_3_cif.got.tgz:4743.got - 2010.06.03 22:28:35.
