data_PCOD9310814
_publ_section_title
;
Structure prediction by ZEFSAII (Michael W. Deem and Ramdas Pophale) SiO2 
 PCOD9310814
Probable space group: P 2 2 21
;
_chemical_formula_sum "Si O2"
_cell_formula_units_Z 18
_cell_length_a 7.212969
_cell_length_b 8.876434
_cell_length_c 11.218269
_cell_angle_alpha 90.000000
_cell_angle_beta 90.000000
_cell_angle_gamma 90.000000
_cell_volume 718.254645
_symmetry_space_group_name_H-M "P 2 2 21"
_symmetry_group_IT_number 17
_symmetry_cell_setting 'orthorhombic'
loop_
_space_group_symop_operation_xyz
x,y,z
-x,-y,1/2+z
x,-y,-z
-x,y,1/2-z
loop_
_atom_site_type_symbol
_atom_site_label
_atom_site_fract_x
_atom_site_fract_y
_atom_site_fract_z
Si Si1 0.878217 0.384672 0.364808
Si Si2 0.810948 0.500000 0.000000
Si Si3 0.748196 0.080023 0.378988
Si Si4 0.178126 0.030290 0.633326
Si Si5 0.292997 0.346933 0.726467
O O1 0.728894 0.259251 0.393314
O O2 0.796008 0.549719 0.331215
O O3 0.000000 0.342631 0.250000
O O4 0.037531 0.375331 0.464260
O O5 0.696977 0.460258 0.885128
O O6 0.676127 0.000000 0.500000
O O7 0.704168 0.045703 0.240285
O O8 0.967542 0.031593 0.374884
O O9 0.180662 0.203899 0.677903
O O10 0.253948 0.000000 0.500000
O O11 0.500000 0.294243 0.750000
#
# Coordination Sequence:
#
# PCOD9310814 Si02
#       5
#     4   2   4   4   4
#     4  10  21  39  68 104 131 184 251 296 355 430
#     4  10  22  40  74  94 132 188 240 310 344 440
#     4  10  20  36  66 103 134 176 243 310 347 417
#     4  10  21  39  68  95 139 185 239 292 360 437
#     4  11  26  43  66 106 150 190 236 309 386 447
#
# _framework density 25.060749000000001
#
# number of rings (size 3 to 8) (size 9 to 14) (size 15 to 20)
#    0.000    1.778    2.222    2.667   15.556    0.889 
#    0.000    2.222    0.000    0.000    0.000    0.000 
#    0.000    0.000    0.000    0.000    0.000    0.000 
#
# Total GULP energy -100307.905600 kJ/mol
# GULP energy per Si atom -5572.661422 kJ/mol
# Density = 2.500371 g / cm^3
# Si number density = 25.060749 Si / 1000 Ang^3
#
#
#
# Elastic Constant Matrix: (Units=GPa)
#
#
# Indices 1 2 3 4 5 6 
#
# 1 76.1381 12.8242 25.1658 0.0000 0.0000 0.0000
# 2 12.8242 132.4754 15.0375 0.0000 0.0000 0.0000
# 3 25.1658 15.0375 161.4875 0.0000 0.0000 0.0000
# 4 0.0000 0.0000 0.0000 34.6401 0.0000 0.0000
# 5 0.0000 0.0000 0.0000 0.0000 -8.0715 0.0000
# 6 0.0000 0.0000 0.0000 0.0000 0.0000 0.0251
#
#
#
# Elastic Compliance Matrix: (Units=1/GPa)
#
#
# Indices 1 2 3 4 5 6 
#
# 1 0.014010 -0.001120 -0.002079 0.000000 0.000000 0.000000
# 2 -0.001120 0.007719 -0.000544 0.000000 0.000000 0.000000
# 3 -0.002079 -0.000544 0.006567 0.000000 0.000000 0.000000
# 4 0.000000 0.000000 0.000000 0.028868 0.000000 0.000000
# 5 0.000000 0.000000 0.000000 0.000000 -0.123893 0.000000
# 6 0.000000 0.000000 0.000000 0.000000 0.000000 39.856426
#
#
# Mechanical properties :
#
#
# Convention : Reuss Voigt Hill
#
# Bulk Modulus (GPa) = 48.05615 52.90622 50.48118
# Shear Modulus (GPa) = 0.12562 26.45697 13.29129
#
# Velocity S-wave (km/s) = 0.22413 3.25270 2.30546
# Velocity P-wave (km/s) = 4.39141 5.93833 5.22246
#
# Compressibility (1/GPa) = 0.02080899
#
# Stress axis : x y z
#
# Youngs Moduli (GPa) = 71.37834 129.55399 152.27468
#
# Poissons Ratio (x) = 0.14513 0.31657
# Poissons Ratio (y) = 0.07996 0.08287
# Poissons Ratio (z) = 0.14839 0.07050
#
# Static dielectric constant tensor:
#      x y z
#    x 1.949340 0.000000 0.000000 
#    y 0.000000 2.097220 0.000000 
#    z 0.000000 0.000000 2.208350 
# 
# From -- ./inp_files/6329.got.cif
#   From: 2010.05.17/outbox.cif.g08.bks.cpg/sg17_4_cif.got.tgz:6329.got - 2010.06.03 22:34:06.
