data_PCOD9310809
_publ_section_title
;
Structure prediction by ZEFSAII (Michael W. Deem and Ramdas Pophale) SiO2 
 PCOD9310809
Probable space group: P 2 2 21
;
_chemical_formula_sum "Si O2"
_cell_formula_units_Z 14
_cell_length_a 8.265386
_cell_length_b 9.836823
_cell_length_c 7.963167
_cell_angle_alpha 90.000000
_cell_angle_beta 90.000000
_cell_angle_gamma 90.000000
_cell_volume 647.446401
_symmetry_space_group_name_H-M "P 2 2 21"
_symmetry_group_IT_number 17
_symmetry_cell_setting 'orthorhombic'
loop_
_space_group_symop_operation_xyz
x,y,z
-x,-y,1/2+z
x,-y,-z
-x,y,1/2-z
loop_
_atom_site_type_symbol
_atom_site_label
_atom_site_fract_x
_atom_site_fract_y
_atom_site_fract_z
Si Si1 0.572369 0.642642 0.068007
Si Si2 0.653189 0.096171 0.153063
Si Si3 0.050303 0.640740 0.432692
Si Si4 0.000000 0.167796 0.250000
O O1 0.500000 0.680062 0.250000
O O2 0.760930 0.614117 0.095860
O O3 0.497655 0.500000 0.000000
O O4 0.582480 0.762757 0.928745
O O5 0.500000 0.036242 0.250000
O O6 0.819586 0.103435 0.259374
O O7 0.697619 0.000000 0.000000
O O8 0.973778 0.500000 0.500000
O O9 0.019303 0.745879 0.580141
O O10 0.000000 0.688932 0.250000
#
# Coordination Sequence:
#
# PCOD9310809 Si02
#       4
#     4   4   4   2
#     4  10  22  39  62 100 129 167 221 266 329 390
#     4  11  25  46  68  96 131 175 219 271 337 392
#     4  10  20  36  63  95 134 177 214 270 333 386
#     4  10  24  44  64 100 132 172 230 268 324 402
#
# _framework density 21.623411000000001
#
# number of rings (size 3 to 8) (size 9 to 14) (size 15 to 20)
#    0.000    1.714    1.429    1.714    4.000    2.286 
#   10.286    0.000    0.000    0.000    0.000    0.000 
#    0.000    0.000    0.000    0.000    0.000    0.000 
#
# Total GULP energy -77984.776403 kJ/mol
# GULP energy per Si atom -5570.341172 kJ/mol
# Density = 2.157420 g / cm^3
# Si number density = 21.623411 Si / 1000 Ang^3
#
#
#
# Elastic Constant Matrix: (Units=GPa)
#
#
# Indices 1 2 3 4 5 6 
#
# 1 133.2591 5.7785 49.9311 0.0000 0.0000 0.0000
# 2 5.7785 34.9190 -5.6654 0.0000 0.0000 0.0000
# 3 49.9311 -5.6654 105.2512 0.0000 0.0000 0.0000
# 4 0.0000 0.0000 0.0000 -9.7790 0.0000 0.0000
# 5 0.0000 0.0000 0.0000 0.0000 44.8499 0.0000
# 6 0.0000 0.0000 0.0000 0.0000 0.0000 -94.1794
#
#
#
# Elastic Compliance Matrix: (Units=1/GPa)
#
#
# Indices 1 2 3 4 5 6 
#
# 1 0.009302 -0.002275 -0.004535 0.000000 0.000000 0.000000
# 2 -0.002275 0.029446 0.002664 0.000000 0.000000 0.000000
# 3 -0.004535 0.002664 0.011796 0.000000 0.000000 0.000000
# 4 0.000000 0.000000 0.000000 -0.102260 0.000000 0.000000
# 5 0.000000 0.000000 0.000000 0.000000 0.022297 0.000000
# 6 0.000000 0.000000 0.000000 0.000000 0.000000 -0.010618
#
#
# Mechanical properties :
#
#
# Convention : Reuss Voigt Hill
#
# Bulk Modulus (GPa) = 23.66737 41.50198 32.58467
# Shear Modulus (GPa) = -283.13352 3.07062 -140.03145
#
# Velocity S-wave (km/s) = -11.45525 1.19295 -8.05604
# Velocity P-wave (km/s) = 12.80604 4.59698 8.45170
#
# Compressibility (1/GPa) = 0.04225227
#
# Stress axis : x y z
#
# Youngs Moduli (GPa) = 107.50102 33.95993 84.77369
#
# Poissons Ratio (x) = 0.07727 0.38449
# Poissons Ratio (y) = 0.24459 -0.22587
# Poissons Ratio (z) = 0.48757 -0.09048
#
# Static dielectric constant tensor:
#      x y z
#    x 1.839090 0.000000 0.000000 
#    y 0.000000 1.852580 0.000000 
#    z 0.000000 0.000000 1.767180 
# 
# From -- ./inp_files/3650.got.cif
#   From: 2010.05.17/outbox.cif.g08.bks.cpg/sg17_2_cif.got.tgz:3650.got - 2010.06.03 22:34:06.
