data_PCOD9310448
_publ_section_title
;
Structure prediction by ZEFSAII (Michael W. Deem and Ramdas Pophale) SiO2 
 PCOD9310448
Probable space group: P 2 2 21
;
_chemical_formula_sum "Si O2"
_cell_formula_units_Z 22
_cell_length_a 8.241512
_cell_length_b 9.202685
_cell_length_c 15.806563
_cell_angle_alpha 90.000000
_cell_angle_beta 90.000000
_cell_angle_gamma 90.000000
_cell_volume 1198.833578
_symmetry_space_group_name_H-M "P 2 2 21"
_symmetry_group_IT_number 17
_symmetry_cell_setting 'orthorhombic'
loop_
_space_group_symop_operation_xyz
x,y,z
-x,-y,1/2+z
x,-y,-z
-x,y,1/2-z
loop_
_atom_site_type_symbol
_atom_site_label
_atom_site_fract_x
_atom_site_fract_y
_atom_site_fract_z
Si Si1 0.500000 0.623327 0.750000
Si Si2 0.564277 0.745354 0.922520
Si Si3 0.342785 0.500000 0.000000
Si Si4 0.172896 0.242830 0.899001
Si Si5 0.361765 0.000000 0.000000
Si Si6 0.840065 0.349664 0.952547
Si Si7 0.191445 0.420930 0.740133
O O1 0.574538 0.725747 0.822849
O O2 0.341243 0.522700 0.770159
O O3 0.456524 0.605662 0.946997
O O4 0.719517 0.728339 0.982582
O O5 0.471326 0.890602 0.946561
O O6 0.241900 0.610662 0.057043
O O7 0.191893 0.277198 0.799492
O O8 0.987865 0.245442 0.928829
O O9 0.259650 0.102438 0.936782
O O10 0.773687 0.392938 0.859319
O O11 0.887933 0.500000 0.000000
O O12 0.000000 0.474639 0.750000
#
# Coordination Sequence:
#
# PCOD9310448 Si02
#       7
#     2   4   2   4   2   4   4
#     4  12  20  38  68  96 134 162 216 286 326 378
#     4  11  22  39  60  95 123 170 211 261 323 391
#     4  10  16  32  60  84 116 152 206 254 308 362
#     4  10  21  39  62  89 125 172 209 268 324 387
#     4  10  26  42  58  88 134 174 214 250 334 414
#     4  11  20  37  67  98 124 160 218 278 325 377
#     4  10  22  36  64 104 126 160 220 281 328 379
#
# _framework density 18.351172999999999
#
# number of rings (size 3 to 8) (size 9 to 14) (size 15 to 20)
#    0.000    1.455    5.455    0.000    2.545    0.727 
#    3.273    0.000    4.000    0.000    0.000    0.000 
#    0.000    0.000    0.000    0.000    0.000    0.000 
#
# Total GULP energy -122478.426395 kJ/mol
# GULP energy per Si atom -5567.201200 kJ/mol
# Density = 1.830940 g / cm^3
# Si number density = 18.351173 Si / 1000 Ang^3
#
#
#
# Elastic Constant Matrix: (Units=GPa)
#
#
# Indices 1 2 3 4 5 6 
#
# 1 88.3855 39.5491 34.8213 0.0000 0.0000 0.0000
# 2 39.5491 104.6936 39.1528 0.0000 0.0000 0.0000
# 3 34.8213 39.1528 137.4792 0.0000 0.0000 0.0000
# 4 0.0000 0.0000 0.0000 24.0840 0.0000 0.0000
# 5 0.0000 0.0000 0.0000 0.0000 32.6241 0.0000
# 6 0.0000 0.0000 0.0000 0.0000 0.0000 56.7036
#
#
#
# Elastic Compliance Matrix: (Units=1/GPa)
#
#
# Indices 1 2 3 4 5 6 
#
# 1 0.014249 -0.004514 -0.002324 0.000000 0.000000 0.000000
# 2 -0.004514 0.012120 -0.002308 0.000000 0.000000 0.000000
# 3 -0.002324 -0.002308 0.008520 0.000000 0.000000 0.000000
# 4 0.000000 0.000000 0.000000 0.041521 0.000000 0.000000
# 5 0.000000 0.000000 0.000000 0.000000 0.030652 0.000000
# 6 0.000000 0.000000 0.000000 0.000000 0.000000 0.017636
#
#
# Mechanical properties :
#
#
# Convention : Reuss Voigt Hill
#
# Bulk Modulus (GPa) = 60.25027 61.95609 61.10318
# Shear Modulus (GPa) = 33.66492 37.15134 35.40813
#
# Velocity S-wave (km/s) = 4.28773 4.50429 4.39734
# Velocity P-wave (km/s) = 7.57733 7.80296 7.69097
#
# Compressibility (1/GPa) = 0.01659744
#
# Stress axis : x y z
#
# Youngs Moduli (GPa) = 70.17894 82.50740 117.37395
#
# Poissons Ratio (x) = 0.37243 0.27273
# Poissons Ratio (y) = 0.31678 0.27095
# Poissons Ratio (z) = 0.16307 0.19046
#
# Static dielectric constant tensor:
#      x y z
#    x 1.383480 0.000000 0.000000 
#    y 0.000000 1.586550 0.000000 
#    z 0.000000 0.000000 1.716100 
# 
# From -- ./inp_files/8046.got.cif
#   From: 2010.05.17/outbox.cif.g08.bks.cpg/sg17_5_cif.got.tgz:8046.got - 2010.06.03 22:34:06.
