data_PCOD9310951
_publ_section_title
;
Structure prediction by ZEFSAII (Michael W. Deem and Ramdas Pophale) SiO2 
 PCOD9310951
Probable space group: P 2 2 21
;
_chemical_formula_sum "Si O2"
_cell_formula_units_Z 32
_cell_length_a 12.395888
_cell_length_b 8.919467
_cell_length_c 14.011037
_cell_angle_alpha 90.000000
_cell_angle_beta 90.000000
_cell_angle_gamma 90.000000
_cell_volume 1549.126298
_symmetry_space_group_name_H-M "P 2 2 21"
_symmetry_group_IT_number 17
_symmetry_cell_setting 'orthorhombic'
loop_
_space_group_symop_operation_xyz
x,y,z
-x,-y,1/2+z
x,-y,-z
-x,y,1/2-z
loop_
_atom_site_type_symbol
_atom_site_label
_atom_site_fract_x
_atom_site_fract_y
_atom_site_fract_z
Si Si1 0.608962 0.319729 0.297061
Si Si2 0.271464 0.321929 0.597871
Si Si3 0.665678 0.177918 0.500034
Si Si4 0.113845 0.675135 0.010094
Si Si5 0.235979 0.663912 0.615222
Si Si6 0.017264 0.156027 0.361815
Si Si7 0.493977 0.598584 0.096382
Si Si8 0.052913 0.815870 0.353907
O O1 0.500000 0.253818 0.250000
O O2 0.651131 0.235304 0.390938
O O3 0.694060 0.317624 0.210808
O O4 0.572771 0.484349 0.336624
O O5 0.217896 0.486164 0.606330
O O6 0.289014 0.286858 0.485392
O O7 0.391938 0.344666 0.638143
O O8 0.181468 0.213057 0.642265
O O9 0.779323 0.237358 0.541127
O O10 0.575051 0.260377 0.562467
O O11 0.659640 0.000000 0.500000
O O12 0.077832 0.754078 0.912414
O O13 0.137825 0.500000 0.000000
O O14 0.012472 0.701574 0.079272
O O15 0.126691 0.755652 0.618875
O O16 0.000000 0.154450 0.250000
O O17 0.027725 0.982903 0.391358
O O18 0.517548 0.500000 0.000000
O O19 0.000000 0.801791 0.250000
#
# Coordination Sequence:
#
# PCOD9310951 Si02
#       8
#     4   4   4   4   4   4   4   4
#     4  11  21  42  70  99 131 181 239 281 340 418
#     4  11  21  41  65  99 135 172 228 292 341 407
#     4  11  25  44  68  98 140 185 228 287 359 419
#     4  12  24  44  70  97 133 181 232 285 337 412
#     4  11  21  37  67  97 130 172 226 285 339 405
#     4  11  24  42  65 100 139 182 224 279 353 421
#     4  10  20  42  67  96 133 180 227 287 348 407
#     4  11  26  44  66 100 142 184 226 282 354 420
#
# _framework density 20.656804000000001
#
# number of rings (size 3 to 8) (size 9 to 14) (size 15 to 20)
#    0.000    1.000    3.750    4.500    0.000    5.000 
#    4.500    0.625    0.000    0.000    0.000    0.000 
#    0.000    0.000    0.000    0.000    0.000    0.000 
#
# Total GULP energy -178756.633006 kJ/mol
# GULP energy per Si atom -5586.144781 kJ/mol
# Density = 2.060979 g / cm^3
# Si number density = 20.656804 Si / 1000 Ang^3
#
#
#
# Elastic Constant Matrix: (Units=GPa)
#
#
# Indices 1 2 3 4 5 6 
#
# 1 114.4179 51.6418 15.8476 0.0000 0.0000 0.0000
# 2 51.6418 113.2881 17.3855 0.0000 0.0000 0.0000
# 3 15.8476 17.3855 88.3042 0.0000 0.0000 0.0000
# 4 0.0000 0.0000 0.0000 20.3870 0.0000 0.0000
# 5 0.0000 0.0000 0.0000 0.0000 31.5423 0.0000
# 6 0.0000 0.0000 0.0000 0.0000 0.0000 -3.1166
#
#
#
# Elastic Compliance Matrix: (Units=1/GPa)
#
#
# Indices 1 2 3 4 5 6 
#
# 1 0.011093 -0.004899 -0.001026 0.000000 0.000000 0.000000
# 2 -0.004899 0.011266 -0.001339 0.000000 0.000000 0.000000
# 3 -0.001026 -0.001339 0.011772 0.000000 0.000000 0.000000
# 4 0.000000 0.000000 0.000000 0.049051 0.000000 0.000000
# 5 0.000000 0.000000 0.000000 0.000000 0.031703 0.000000
# 6 0.000000 0.000000 0.000000 0.000000 0.000000 -0.320865
#
#
# Mechanical properties :
#
#
# Convention : Reuss Voigt Hill
#
# Bulk Modulus (GPa) = 51.01359 53.97334 52.49346
# Shear Modulus (GPa) = -27.03926 25.17155 -0.93386
#
# Velocity S-wave (km/s) = -3.62190 3.49457 -0.67310
# Velocity P-wave (km/s) = 2.69416 6.51675 4.98631
#
# Compressibility (1/GPa) = 0.01960262
#
# Stress axis : x y z
#
# Youngs Moduli (GPa) = 90.14427 88.76390 84.94554
#
# Poissons Ratio (x) = 0.43488 0.08718
# Poissons Ratio (y) = 0.44165 0.11372
# Poissons Ratio (z) = 0.09251 0.11883
#
# Static dielectric constant tensor:
#      x y z
#    x 1.765480 0.000000 0.000000 
#    y 0.000000 1.728800 0.000000 
#    z 0.000000 0.000000 1.778060 
# 
# From -- ./inp_files/8539.got.cif
#   From: 2010.05.17/outbox.cif.g08.bks.cpg/sg17_5_cif.got.tgz:8539.got - 2010.06.03 22:34:06.
