data_PCOD9310058
_publ_section_title
;
Structure prediction by ZEFSAII (Michael W. Deem and Ramdas Pophale) SiO2 
 PCOD9310058
Probable space group: P 2 2 2
;
_chemical_formula_sum "Si O2"
_cell_formula_units_Z 27
_cell_length_a 19.572829
_cell_length_b 8.887546
_cell_length_c 8.584695
_cell_angle_alpha 90.000000
_cell_angle_beta 90.000000
_cell_angle_gamma 90.000000
_cell_volume 1493.345623
_symmetry_space_group_name_H-M "P 2 2 2"
_symmetry_group_IT_number 16
_symmetry_cell_setting 'orthorhombic'
loop_
_space_group_symop_operation_xyz
x,y,z
-x,-y,z
x,-y,-z
-x,y,-z
loop_
_atom_site_type_symbol
_atom_site_label
_atom_site_fract_x
_atom_site_fract_y
_atom_site_fract_z
Si Si1 0.500000 0.500000 0.000000
Si Si2 0.201266 0.185097 0.651262
Si Si3 0.600646 0.248732 0.984377
Si Si4 0.926538 0.823320 0.451702
Si Si5 0.309705 0.000000 0.500000
Si Si6 0.424710 0.027157 0.755266
Si Si7 0.241294 0.326216 0.970296
Si Si8 0.857276 0.906156 0.148170
O O1 0.553641 0.384522 0.923664
O O2 0.135447 0.240685 0.555512
O O3 0.259337 0.140637 0.527395
O O4 0.227351 0.290976 0.788562
O O5 0.181561 0.030094 0.744249
O O6 0.679825 0.291875 0.989795
O O7 0.579879 0.187528 0.156328
O O8 0.585460 0.106078 0.878534
O O9 0.909293 0.825907 0.267854
O O10 0.000000 0.759321 0.500000
O O11 0.927958 0.000000 0.500000
O O12 0.360820 0.994361 0.356286
O O13 0.500000 0.000000 0.686297
O O14 0.225883 0.500000 0.000000
O O15 0.194420 0.214210 0.073043
O O16 0.886976 0.000000 0.000000
#
# Coordination Sequence:
#
# PCOD9310058 Si02
#       8
#     1   4   4   4   2   4   4   4
#     4  12  20  38  56  74 112 146 190 234 276 342
#     4  10  19  35  56  85 113 145 185 233 290 342
#     4  11  21  35  58  78 106 143 192 233 281 335
#     4   9  17  33  58  87 117 146 183 234 290 344
#     4  12  19  32  59  82 112 142 182 240 283 342
#     4  11  22  36  54  83 108 143 188 230 287 348
#     4  11  22  35  55  84 112 147 191 243 283 336
#     4   9  18  33  57  84 114 144 187 234 279 332
#
# _framework density 18.080210000000001
#
# number of rings (size 3 to 8) (size 9 to 14) (size 15 to 20)
#    0.000    1.630    5.926    1.556    4.148    0.000 
#    0.000   13.333    0.000    6.222    0.000    0.000 
#    0.000    0.000    0.000    0.000    0.000    0.000 
#
# Total GULP energy -150338.691717 kJ/mol
# GULP energy per Si atom -5568.099693 kJ/mol
# Density = 1.803906 g / cm^3
# Si number density = 18.080210 Si / 1000 Ang^3
#
#
#
# Elastic Constant Matrix: (Units=GPa)
#
#
# Indices 1 2 3 4 5 6 
#
# 1 145.8789 23.6946 57.4475 0.0000 0.0000 0.0000
# 2 23.6946 65.3080 20.2025 0.0000 0.0000 0.0000
# 3 57.4475 20.2025 88.6945 0.0000 0.0000 0.0000
# 4 0.0000 0.0000 0.0000 15.1864 0.0000 0.0000
# 5 0.0000 0.0000 0.0000 0.0000 31.8062 0.0000
# 6 0.0000 0.0000 0.0000 0.0000 0.0000 36.6424
#
#
#
# Elastic Compliance Matrix: (Units=1/GPa)
#
#
# Indices 1 2 3 4 5 6 
#
# 1 0.009362 -0.001636 -0.005691 0.000000 0.000000 0.000000
# 2 -0.001636 0.016759 -0.002757 0.000000 0.000000 0.000000
# 3 -0.005691 -0.002757 0.015589 0.000000 0.000000 0.000000
# 4 0.000000 0.000000 0.000000 0.065848 0.000000 0.000000
# 5 0.000000 0.000000 0.000000 0.000000 0.031440 0.000000
# 6 0.000000 0.000000 0.000000 0.000000 0.000000 0.027291
#
#
# Mechanical properties :
#
#
# Convention : Reuss Voigt Hill
#
# Bulk Modulus (GPa) = 46.42510 55.84115 51.13313
# Shear Modulus (GPa) = 25.82135 29.96280 27.89208
#
# Velocity S-wave (km/s) = 3.78319 4.07531 3.93196
# Velocity P-wave (km/s) = 6.69451 7.28673 6.99689
#
# Compressibility (1/GPa) = 0.02154007
#
# Stress axis : x y z
#
# Youngs Moduli (GPa) = 106.81598 59.67058 64.14853
#
# Poissons Ratio (x) = 0.09763 0.36507
# Poissons Ratio (y) = 0.17477 0.17689
# Poissons Ratio (z) = 0.60789 0.16454
#
# Static dielectric constant tensor:
#      x y z
#    x 1.652510 0.000000 0.000000 
#    y 0.000000 1.616520 0.000000 
#    z 0.000000 0.000000 1.622910 
# 
# From -- ./inp_files/5527.got.cif
#   From: 2010.05.17/outbox.cif.g08.bks.cpg/sg16_3_cif.got.tgz:5527.got - 2010.06.03 22:28:35.
