data_PCOD9310589
_publ_section_title
;
Structure prediction by ZEFSAII (Michael W. Deem and Ramdas Pophale) SiO2 
 PCOD9310589
Probable space group: P 2 2 21
;
_chemical_formula_sum "Si O2"
_cell_formula_units_Z 20
_cell_length_a 14.758315
_cell_length_b 5.668523
_cell_length_c 10.255066
_cell_angle_alpha 90.000000
_cell_angle_beta 90.000000
_cell_angle_gamma 90.000000
_cell_volume 857.916753
_symmetry_space_group_name_H-M "P 2 2 21"
_symmetry_group_IT_number 17
_symmetry_cell_setting 'orthorhombic'
loop_
_space_group_symop_operation_xyz
x,y,z
-x,-y,1/2+z
x,-y,-z
-x,y,1/2-z
loop_
_atom_site_type_symbol
_atom_site_label
_atom_site_fract_x
_atom_site_fract_y
_atom_site_fract_z
Si Si1 0.148292 0.883295 0.369352
Si Si2 0.436017 0.749261 0.494170
Si Si3 0.389571 0.740991 0.770032
Si Si4 0.326083 0.757644 0.226345
Si Si5 0.018454 0.500000 0.500000
Si Si6 0.000000 0.772397 0.750000
O O1 0.223427 0.777724 0.274579
O O2 0.081854 0.686118 0.426087
O O3 0.190060 0.000000 0.500000
O O4 0.084720 0.070650 0.296012
O O5 0.487015 0.500000 0.500000
O O6 0.364924 0.743561 0.614239
O O7 0.389112 0.751597 0.355204
O O8 0.485275 0.000000 0.500000
O O9 0.500000 0.739358 0.750000
O O10 0.349259 0.501083 0.830489
O O11 0.353157 0.984997 0.830485
O O12 0.969607 0.626519 0.621356
#
# Coordination Sequence:
#
# PCOD9310589 Si02
#       6
#     4   4   4   4   2   2
#     4  10  21  35  60  93 131 163 219 279 339 407
#     4   8  15  26  43  68  98 136 175 225 301 357
#     4  10  19  31  48  78 116 150 193 247 317 390
#     4  10  20  32  54  83 116 155 200 265 329 385
#     4  10  22  38  66  96 140 176 228 278 350 416
#     4  10  22  40  60 102 136 184 214 290 340 424
#
# _framework density 23.312286
#
# number of rings (size 3 to 8) (size 9 to 14) (size 15 to 20)
#    0.000    2.400    0.000    3.000    9.800    0.000 
#    0.000    0.000    0.000    0.000    7.800   12.600 
#    0.000    0.000    0.000    0.000    0.000    0.000 
#
# Total GULP energy -111435.833545 kJ/mol
# GULP energy per Si atom -5571.791677 kJ/mol
# Density = 2.325923 g / cm^3
# Si number density = 23.312286 Si / 1000 Ang^3
#
#
#
# Elastic Constant Matrix: (Units=GPa)
#
#
# Indices 1 2 3 4 5 6 
#
# 1 70.9502 39.7996 37.2730 0.0000 0.0000 0.0000
# 2 39.7996 248.2517 37.6943 0.0000 0.0000 0.0000
# 3 37.2730 37.6943 78.2909 0.0000 0.0000 0.0000
# 4 0.0000 0.0000 0.0000 16.8014 0.0000 0.0000
# 5 0.0000 0.0000 0.0000 0.0000 31.7353 0.0000
# 6 0.0000 0.0000 0.0000 0.0000 0.0000 290.9001
#
#
#
# Elastic Compliance Matrix: (Units=1/GPa)
#
#
# Indices 1 2 3 4 5 6 
#
# 1 0.019558 -0.001858 -0.008417 0.000000 0.000000 0.000000
# 2 -0.001858 0.004522 -0.001293 0.000000 0.000000 0.000000
# 3 -0.008417 -0.001293 0.017403 0.000000 0.000000 0.000000
# 4 0.000000 0.000000 0.000000 0.059519 0.000000 0.000000
# 5 0.000000 0.000000 0.000000 0.000000 0.031511 0.000000
# 6 0.000000 0.000000 0.000000 0.000000 0.000000 0.003438
#
#
# Mechanical properties :
#
#
# Convention : Reuss Voigt Hill
#
# Bulk Modulus (GPa) = 54.50169 69.66962 62.08565
# Shear Modulus (GPa) = 30.26614 86.73574 58.50094
#
# Velocity S-wave (km/s) = 3.60709 6.10629 5.01487
# Velocity P-wave (km/s) = 6.38575 8.92558 7.76028
#
# Compressibility (1/GPa) = 0.01834805
#
# Stress axis : x y z
#
# Youngs Moduli (GPa) = 51.12957 221.12666 57.46275
#
# Poissons Ratio (x) = 0.41075 0.48366
# Poissons Ratio (y) = 0.09497 0.07430
# Poissons Ratio (z) = 0.43036 0.28591
#
# Static dielectric constant tensor:
#      x y z
#    x 1.836600 0.000000 0.000000 
#    y 0.000000 2.035590 0.000000 
#    z 0.000000 0.000000 1.958230 
# 
# From -- ./inp_files/7179.got.cif
#   From: 2010.05.17/outbox.cif.g08.bks.cpg/sg17_4_cif.got.tgz:7179.got - 2010.06.03 22:34:06.
