data_PCOD9310092
_publ_section_title
;
Structure prediction by ZEFSAII (Michael W. Deem and Ramdas Pophale) SiO2 
 PCOD9310092
Probable space group: P 2 2 2
;
_chemical_formula_sum "Si O2"
_cell_formula_units_Z 13
_cell_length_a 5.525835
_cell_length_b 14.367986
_cell_length_c 7.197033
_cell_angle_alpha 90.000000
_cell_angle_beta 90.000000
_cell_angle_gamma 90.000000
_cell_volume 571.409298
_symmetry_space_group_name_H-M "P 2 2 2"
_symmetry_group_IT_number 16
_symmetry_cell_setting 'orthorhombic'
loop_
_space_group_symop_operation_xyz
x,y,z
-x,-y,z
x,-y,-z
-x,y,-z
loop_
_atom_site_type_symbol
_atom_site_label
_atom_site_fract_x
_atom_site_fract_y
_atom_site_fract_z
Si Si1 0.000000 0.500000 0.500000
Si Si2 0.259408 0.255984 0.727886
Si Si3 0.251967 0.962058 0.211547
Si Si4 0.238360 0.329737 0.310842
O O1 0.826406 0.566273 0.378261
O O2 0.267378 0.148866 0.782623
O O3 0.250384 0.270208 0.503400
O O4 0.503996 0.310833 0.782793
O O5 0.002258 0.296319 0.792779
O O6 0.500000 0.000000 0.296777
O O7 0.000000 0.000000 0.292908
O O8 0.250978 0.000000 0.000000
#
# Coordination Sequence:
#
# PCOD9310092 Si02
#       4
#     1   4   4   4
#     4   8  16  30  48  74 102 140 160 186 248 316
#     4   9  17  31  44  68  98 129 159 202 248 280
#     4  10  20  33  49  66  91 128 176 212 240 287
#     4   9  18  29  48  70 103 127 156 197 246 302
#
# _framework density 22.750768999999998
#
# number of rings (size 3 to 8) (size 9 to 14) (size 15 to 20)
#    0.000    3.077    0.000    1.846    0.000    9.846 
#    0.000   18.462    0.000    0.000    0.000    0.000 
#    0.000  512.000    0.000    0.000    0.000    0.000 
#
# Total GULP energy -72507.789704 kJ/mol
# GULP energy per Si atom -5577.522285 kJ/mol
# Density = 2.269899 g / cm^3
# Si number density = 22.750769 Si / 1000 Ang^3
#
#
#
# Elastic Constant Matrix: (Units=GPa)
#
#
# Indices 1 2 3 4 5 6 
#
# 1 314.2853 93.5548 14.2279 0.0000 0.0000 0.0000
# 2 93.5548 210.6236 25.2827 0.0000 0.0000 0.0000
# 3 14.2279 25.2827 106.4889 0.0000 0.0000 0.0000
# 4 0.0000 0.0000 0.0000 136.7529 0.0000 0.0000
# 5 0.0000 0.0000 0.0000 0.0000 -27.5731 0.0000
# 6 0.0000 0.0000 0.0000 0.0000 0.0000 54.5496
#
#
#
# Elastic Compliance Matrix: (Units=1/GPa)
#
#
# Indices 1 2 3 4 5 6 
#
# 1 0.003668 -0.001616 -0.000106 0.000000 0.000000 0.000000
# 2 -0.001616 0.005599 -0.001113 0.000000 0.000000 0.000000
# 3 -0.000106 -0.001113 0.009669 0.000000 0.000000 0.000000
# 4 0.000000 0.000000 0.000000 0.007312 0.000000 0.000000
# 5 0.000000 0.000000 0.000000 0.000000 -0.036267 0.000000
# 6 0.000000 0.000000 0.000000 0.000000 0.000000 0.018332
#
#
# Mechanical properties :
#
#
# Convention : Reuss Voigt Hill
#
# Bulk Modulus (GPa) = 75.39119 99.72541 87.55830
# Shear Modulus (GPa) = 271.63053 65.96802 168.79928
#
# Velocity S-wave (km/s) = 10.93861 5.39063 8.62300
# Velocity P-wave (km/s) = 13.88335 9.09254 11.73502
#
# Compressibility (1/GPa) = 0.01326415
#
# Stress axis : x y z
#
# Youngs Moduli (GPa) = 272.64319 178.58936 103.42112
#
# Poissons Ratio (x) = 0.28867 0.01099
# Poissons Ratio (y) = 0.44070 0.11515
# Poissons Ratio (z) = 0.02898 0.19885
#
# Static dielectric constant tensor:
#      x y z
#    x 1.959110 0.000000 0.000000 
#    y 0.000000 1.791420 0.000000 
#    z 0.000000 0.000000 1.731940 
# 
# From -- ./inp_files/609.got.cif
#   From: 2010.05.17/outbox.cif.g08.bks.cpg/sg16_1_cif.got.tgz:609.got - 2010.06.03 22:28:35.
