data_PCOD9310082
_publ_section_title
;
Structure prediction by ZEFSAII (Michael W. Deem and Ramdas Pophale) SiO2 
 PCOD9310082
Probable space group: P 2 2 2
;
_chemical_formula_sum "Si O2"
_cell_formula_units_Z 14
_cell_length_a 5.452439
_cell_length_b 14.299722
_cell_length_c 8.948599
_cell_angle_alpha 90.000000
_cell_angle_beta 90.000000
_cell_angle_gamma 90.000000
_cell_volume 697.707606
_symmetry_space_group_name_H-M "P 2 2 2"
_symmetry_group_IT_number 16
_symmetry_cell_setting 'orthorhombic'
loop_
_space_group_symop_operation_xyz
x,y,z
-x,-y,z
x,-y,-z
-x,y,-z
loop_
_atom_site_type_symbol
_atom_site_label
_atom_site_fract_x
_atom_site_fract_y
_atom_site_fract_z
Si Si1 0.000000 0.000000 0.500000
Si Si2 0.320339 0.086788 0.749365
Si Si3 0.496299 0.712983 0.818392
Si Si4 0.000000 0.000000 0.000000
Si Si5 0.995840 0.392163 0.181887
O O1 0.842614 0.931653 0.604417
O O2 0.465125 0.183104 0.756449
O O3 0.500000 0.000000 0.752316
O O4 0.154152 0.069471 0.895135
O O5 0.240673 0.664406 0.772501
O O6 0.739309 0.655133 0.773147
O O7 0.500000 0.718060 0.000000
O O8 0.000000 0.500000 0.231136
O O9 0.000000 0.392531 0.000000
#
# Coordination Sequence:
#
# PCOD9310082 Si02
#       5
#     1   4   4   1   4
#     4  10  26  42  60  76 130 162 218 254 314 362
#     4  11  23  39  58  87 123 163 208 257 306 374
#     4  10  20  31  57  85 120 163 199 243 305 367
#     4  10  22  34  60  84 126 162 202 262 310 354
#     4   9  18  32  50  82 124 160 195 241 304 368
#
# _framework density 20.065712999999999
#
# number of rings (size 3 to 8) (size 9 to 14) (size 15 to 20)
#    0.000    2.000    0.000    3.429   14.000    3.429 
#    0.000    0.000    0.000    0.000    0.000    1.000 
#    0.000    0.000    0.000    0.000    0.000    0.000 
#
# Total GULP energy -78202.439930 kJ/mol
# GULP energy per Si atom -5585.888566 kJ/mol
# Density = 2.002004 g / cm^3
# Si number density = 20.065713 Si / 1000 Ang^3
#
#
#
# Elastic Constant Matrix: (Units=GPa)
#
#
# Indices 1 2 3 4 5 6 
#
# 1 185.5562 114.2926 45.1530 0.0000 0.0000 0.0000
# 2 114.2926 208.6078 28.7656 0.0000 0.0000 0.0000
# 3 45.1530 28.7656 57.5236 0.0000 0.0000 0.0000
# 4 0.0000 0.0000 0.0000 106.5343 0.0000 0.0000
# 5 0.0000 0.0000 0.0000 0.0000 878.2855 0.0000
# 6 0.0000 0.0000 0.0000 0.0000 0.0000 44.4091
#
#
#
# Elastic Compliance Matrix: (Units=1/GPa)
#
#
# Indices 1 2 3 4 5 6 
#
# 1 0.009363 -0.004421 -0.005138 0.000000 0.000000 0.000000
# 2 -0.004421 0.007236 -0.000148 0.000000 0.000000 0.000000
# 3 -0.005138 -0.000148 0.021492 0.000000 0.000000 0.000000
# 4 0.000000 0.000000 0.000000 0.009387 0.000000 0.000000
# 5 0.000000 0.000000 0.000000 0.000000 0.001139 0.000000
# 6 0.000000 0.000000 0.000000 0.000000 0.000000 0.022518
#
#
# Mechanical properties :
#
#
# Convention : Reuss Voigt Hill
#
# Bulk Modulus (GPa) = 53.54709 92.01221 72.77965
# Shear Modulus (GPa) = 51.66632 223.41087 137.53859
#
# Velocity S-wave (km/s) = 5.07981 10.56321 8.28812
# Velocity P-wave (km/s) = 7.81983 13.95457 11.31105
#
# Compressibility (1/GPa) = 0.01867515
#
# Stress axis : x y z
#
# Youngs Moduli (GPa) = 106.80602 138.19013 46.52952
#
# Poissons Ratio (x) = 0.61096 0.23909
# Poissons Ratio (y) = 0.47221 0.00690
# Poissons Ratio (z) = 0.54881 0.02050
#
# Static dielectric constant tensor:
#      x y z
#    x 1.554300 0.000000 0.000000 
#    y 0.000000 1.590380 0.000000 
#    z 0.000000 0.000000 1.678940 
# 
# From -- ./inp_files/528.got.cif
#   From: 2010.05.17/outbox.cif.g08.bks.cpg/sg16_1_cif.got.tgz:528.got - 2010.06.03 22:28:35.
