data_PCOD9310586
_publ_section_title
;
Structure prediction by ZEFSAII (Michael W. Deem and Ramdas Pophale) SiO2 
 PCOD9310586
Probable space group: P 2 2 21
;
_chemical_formula_sum "Si O2"
_cell_formula_units_Z 24
_cell_length_a 27.658410
_cell_length_b 7.276651
_cell_length_c 5.269433
_cell_angle_alpha 90.000000
_cell_angle_beta 90.000000
_cell_angle_gamma 90.000000
_cell_volume 1060.529230
_symmetry_space_group_name_H-M "P 2 2 21"
_symmetry_group_IT_number 17
_symmetry_cell_setting 'orthorhombic'
loop_
_space_group_symop_operation_xyz
x,y,z
-x,-y,1/2+z
x,-y,-z
-x,y,1/2-z
loop_
_atom_site_type_symbol
_atom_site_label
_atom_site_fract_x
_atom_site_fract_y
_atom_site_fract_z
Si Si1 0.806290 0.287129 0.460259
Si Si2 0.695583 0.778170 0.508537
Si Si3 0.528767 0.224054 0.997805
Si Si4 0.640022 0.775926 0.003572
Si Si5 0.946849 0.127259 0.752174
Si Si6 0.149944 0.715207 0.451431
O O1 0.820810 0.500000 0.500000
O O2 0.749404 0.281303 0.414106
O O3 0.814454 0.203959 0.739074
O O4 0.838530 0.206325 0.231254
O O5 0.660493 0.717134 0.732962
O O6 0.696496 0.000000 0.500000
O O7 0.674535 0.718140 0.236374
O O8 0.500000 0.283053 0.750000
O O9 0.500000 0.280524 0.250000
O O10 0.584432 0.281908 0.975292
O O11 0.529327 0.000000 0.000000
O O12 0.640349 0.000000 0.000000
O O13 0.902095 0.257495 0.819776
O O14 0.000000 0.219560 0.750000
O O15 0.940494 0.000000 0.500000
O O16 0.948582 0.000000 0.000000
O O17 0.158522 0.500000 0.500000
#
# Coordination Sequence:
#
# PCOD9310586 Si02
#       6
#     4   4   4   4   4   4
#     4  10  21  36  54  76 105 136 175 222 262 308
#     4  10  19  31  47  69  97 130 164 203 255 308
#     4   9  15  23  37  58  87 124 158 191 242 302
#     4   9  17  28  42  64  96 127 160 204 249 301
#     4  10  21  38  59  85 116 147 181 224 272 323
#     4  10  21  38  57  80 108 142 180 222 269 316
#
# _framework density 22.630213000000001
#
# number of rings (size 3 to 8) (size 9 to 14) (size 15 to 20)
#    0.000    2.333    0.000    3.000    0.000    6.000 
#    0.000    5.000    0.000    0.000    0.000    0.000 
#    0.000   13.333    0.000    0.000    0.000    0.000 
#
# Total GULP energy -133943.863341 kJ/mol
# GULP energy per Si atom -5580.994306 kJ/mol
# Density = 2.257871 g / cm^3
# Si number density = 22.630213 Si / 1000 Ang^3
#
#
#
# Elastic Constant Matrix: (Units=GPa)
#
#
# Indices 1 2 3 4 5 6 
#
# 1 112.0337 -25.8942 53.3715 0.0000 0.0000 0.0000
# 2 -25.8942 61.4231 2.7095 0.0000 0.0000 0.0000
# 3 53.3715 2.7095 192.1474 0.0000 0.0000 0.0000
# 4 0.0000 0.0000 0.0000 -5.4628 0.0000 0.0000
# 5 0.0000 0.0000 0.0000 0.0000 45.0094 0.0000
# 6 0.0000 0.0000 0.0000 0.0000 0.0000 30.1360
#
#
#
# Elastic Compliance Matrix: (Units=1/GPa)
#
#
# Indices 1 2 3 4 5 6 
#
# 1 0.011677 0.005069 -0.003315 0.000000 0.000000 0.000000
# 2 0.005069 0.018491 -0.001669 0.000000 0.000000 0.000000
# 3 -0.003315 -0.001669 0.006149 0.000000 0.000000 0.000000
# 4 0.000000 0.000000 0.000000 -0.183056 0.000000 0.000000
# 5 0.000000 0.000000 0.000000 0.000000 0.022218 0.000000
# 6 0.000000 0.000000 0.000000 0.000000 0.000000 0.033183
#
#
# Mechanical properties :
#
#
# Convention : Reuss Voigt Hill
#
# Bulk Modulus (GPa) = 27.40730 47.33087 37.36908
# Shear Modulus (GPa) = -63.01332 36.29768 -13.35782
#
# Velocity S-wave (km/s) = -5.28254 4.00928 -2.43217
# Velocity P-wave (km/s) = 5.00697 6.51097 2.94304
#
# Compressibility (1/GPa) = 0.03648664
#
# Stress axis : x y z
#
# Youngs Moduli (GPa) = 85.64189 54.08050 162.63882
#
# Poissons Ratio (x) = -0.27412 0.53911
# Poissons Ratio (y) = -0.43409 0.27139
# Poissons Ratio (z) = 0.28388 0.09024
#
# Static dielectric constant tensor:
#      x y z
#    x 1.844080 0.000000 0.000000 
#    y 0.000000 1.859350 0.000000 
#    z 0.000000 0.000000 1.860570 
# 
# From -- ./inp_files/1011.got.cif
#   From: 2010.05.17/outbox.cif.g08.bks.cpg/sg17_1_cif.got.tgz:1011.got - 2010.06.03 22:34:06.
