data_PCOD9310273
_publ_section_title
;
Structure prediction by ZEFSAII (Michael W. Deem and Ramdas Pophale) SiO2 
 PCOD9310273
Probable space group: P 2 2 2
;
_chemical_formula_sum "Si O2"
_cell_formula_units_Z 25
_cell_length_a 11.288836
_cell_length_b 8.593657
_cell_length_c 13.399772
_cell_angle_alpha 90.000000
_cell_angle_beta 90.000000
_cell_angle_gamma 90.000000
_cell_volume 1299.943834
_symmetry_space_group_name_H-M "P 2 2 2"
_symmetry_group_IT_number 16
_symmetry_cell_setting 'orthorhombic'
loop_
_space_group_symop_operation_xyz
x,y,z
-x,-y,z
x,-y,-z
-x,y,-z
loop_
_atom_site_type_symbol
_atom_site_label
_atom_site_fract_x
_atom_site_fract_y
_atom_site_fract_z
Si Si1 0.640424 0.980657 0.296771
Si Si2 0.500000 0.500000 0.500000
Si Si3 0.291872 0.650178 0.622058
Si Si4 0.895191 0.402622 0.308046
Si Si5 0.002703 0.744101 0.111933
Si Si6 0.190325 0.150310 0.553814
Si Si7 0.802686 0.984629 0.111062
O O1 0.676992 0.801084 0.313330
O O2 0.708658 0.025249 0.195839
O O3 0.500000 0.000000 0.291601
O O4 0.693861 0.081515 0.388819
O O5 0.413050 0.593775 0.572098
O O6 0.221321 0.510532 0.677095
O O7 0.217477 0.720174 0.529187
O O8 0.940846 0.363375 0.197003
O O9 0.882753 0.237352 0.361866
O O10 0.000000 0.500000 0.357928
O O11 0.873049 0.821574 0.131902
O O12 0.093965 0.887619 0.108828
O O13 0.000000 0.677684 0.000000
O O14 0.136620 0.000000 0.500000
O O15 0.749260 0.000000 0.000000
#
# Coordination Sequence:
#
# PCOD9310273 Si02
#       7
#     4   1   4   4   4   4   4
#     4  11  22  38  63  92 122 163 221 270 313 372
#     4  12  20  40  60  80 136 178 218 246 316 380
#     4  11  24  38  61  90 125 174 213 262 318 377
#     4  12  23  40  61  91 133 162 209 266 330 384
#     4   9  19  37  64  91 121 162 205 262 323 389
#     4  10  22  42  60  88 122 167 215 259 310 375
#     4   9  18  37  63  93 121 155 211 265 321 381
#
# _framework density 19.231598000000002
#
# number of rings (size 3 to 8) (size 9 to 14) (size 15 to 20)
#    0.000    1.600    3.200    2.880    0.000    4.160 
#    0.000    4.000    0.000    0.000    0.000    0.000 
#    0.000    0.000    0.000    0.000    0.000    0.000 
#
# Total GULP energy -139405.802967 kJ/mol
# GULP energy per Si atom -5576.232119 kJ/mol
# Density = 1.918783 g / cm^3
# Si number density = 19.231598 Si / 1000 Ang^3
#
#
#
# Elastic Constant Matrix: (Units=GPa)
#
#
# Indices 1 2 3 4 5 6 
#
# 1 88.0098 27.5196 51.1304 0.0000 0.0000 0.0000
# 2 27.5196 91.2598 52.7010 0.0000 0.0000 0.0000
# 3 51.1304 52.7010 135.3807 0.0000 0.0000 0.0000
# 4 0.0000 0.0000 0.0000 12.2444 0.0000 0.0000
# 5 0.0000 0.0000 0.0000 0.0000 23.0194 0.0000
# 6 0.0000 0.0000 0.0000 0.0000 0.0000 -22.4256
#
#
#
# Elastic Compliance Matrix: (Units=1/GPa)
#
#
# Indices 1 2 3 4 5 6 
#
# 1 0.014732 -0.001586 -0.004947 0.000000 0.000000 0.000000
# 2 -0.001586 0.014306 -0.004970 0.000000 0.000000 0.000000
# 3 -0.004947 -0.004970 0.011190 0.000000 0.000000 0.000000
# 4 0.000000 0.000000 0.000000 0.081670 0.000000 0.000000
# 5 0.000000 0.000000 0.000000 0.000000 0.043442 0.000000
# 6 0.000000 0.000000 0.000000 0.000000 0.000000 -0.044592
#
#
# Mechanical properties :
#
#
# Convention : Reuss Voigt Hill
#
# Bulk Modulus (GPa) = 58.06365 64.15022 61.10694
# Shear Modulus (GPa) = 33.44632 14.78761 24.11697
#
# Velocity S-wave (km/s) = 4.17482 2.77595 3.54507
# Velocity P-wave (km/s) = 7.31410 6.61087 6.97136
#
# Compressibility (1/GPa) = 0.01722248
#
# Stress axis : x y z
#
# Youngs Moduli (GPa) = 67.87912 69.90012 89.36886
#
# Poissons Ratio (x) = 0.11085 0.44207
# Poissons Ratio (y) = 0.10765 0.44417
# Poissons Ratio (z) = 0.33577 0.34741
#
# Static dielectric constant tensor:
#      x y z
#    x 1.670590 0.000000 0.000000 
#    y 0.000000 1.725530 0.000000 
#    z 0.000000 0.000000 1.738120 
# 
# From -- ./inp_files/6840.got.cif
#   From: 2010.05.17/outbox.cif.g08.bks.cpg/sg16_4_cif.got.tgz:6840.got - 2010.06.03 22:28:35.
