data_PCOD9310667
_publ_section_title
;
Structure prediction by ZEFSAII (Michael W. Deem and Ramdas Pophale) SiO2 
 PCOD9310667
Probable space group: P 2 2 21
;
_chemical_formula_sum "Si O2"
_cell_formula_units_Z 24
_cell_length_a 10.730148
_cell_length_b 8.771675
_cell_length_c 12.846638
_cell_angle_alpha 90.000000
_cell_angle_beta 90.000000
_cell_angle_gamma 90.000000
_cell_volume 1209.143181
_symmetry_space_group_name_H-M "P 2 2 21"
_symmetry_group_IT_number 17
_symmetry_cell_setting 'orthorhombic'
loop_
_space_group_symop_operation_xyz
x,y,z
-x,-y,1/2+z
x,-y,-z
-x,y,1/2-z
loop_
_atom_site_type_symbol
_atom_site_label
_atom_site_fract_x
_atom_site_fract_y
_atom_site_fract_z
Si Si1 0.334728 0.091143 0.109791
Si Si2 0.491544 0.680153 0.000206
Si Si3 0.860900 0.172241 0.225694
Si Si4 0.121865 0.811699 0.315834
Si Si5 0.371937 0.226020 0.799783
Si Si6 0.226820 0.317934 0.485930
O O1 0.439039 0.219875 0.094261
O O2 0.217136 0.165626 0.167154
O O3 0.378935 0.956027 0.185541
O O4 0.309391 0.000000 0.000000
O O5 0.633233 0.736727 0.018869
O O6 0.503671 0.500000 0.000000
O O7 0.384321 0.708533 0.085334
O O8 0.798637 0.267751 0.132566
O O9 0.000000 0.227639 0.250000
O O10 0.869849 0.995505 0.188350
O O11 0.244699 0.742759 0.259671
O O12 0.128952 0.757253 0.434522
O O13 0.000000 0.767821 0.250000
O O14 0.500000 0.283423 0.750000
O O15 0.220239 0.500000 0.500000
#
# Coordination Sequence:
#
# PCOD9310667 Si02
#       6
#     4   4   4   4   4   4
#     4   9  21  37  61  89 117 150 201 255 307 362
#     4  10  22  38  57  88 122 157 198 254 310 363
#     4  10  23  40  62  88 119 160 203 255 311 366
#     4  10  22  40  63  90 119 161 203 254 307 362
#     4  10  19  36  61  87 116 150 202 249 297 355
#     4  11  24  39  58  88 125 162 205 251 307 380
#
# _framework density 19.848766000000001
#
# number of rings (size 3 to 8) (size 9 to 14) (size 15 to 20)
#    0.000    2.000    1.667    0.500    4.667    8.667 
#    0.000    1.667    0.000    0.000    0.000    0.000 
#    0.000    0.000    0.000    0.000    0.000    0.000 
#
# Total GULP energy -133669.716813 kJ/mol
# GULP energy per Si atom -5569.571534 kJ/mol
# Density = 1.980359 g / cm^3
# Si number density = 19.848766 Si / 1000 Ang^3
#
#
#
# Elastic Constant Matrix: (Units=GPa)
#
#
# Indices 1 2 3 4 5 6 
#
# 1 108.2006 24.2300 45.1772 0.0000 0.0000 0.0000
# 2 24.2300 36.6499 11.2795 0.0000 0.0000 0.0000
# 3 45.1772 11.2795 71.9519 0.0000 0.0000 0.0000
# 4 0.0000 0.0000 0.0000 15.9549 0.0000 0.0000
# 5 0.0000 0.0000 0.0000 0.0000 34.1579 0.0000
# 6 0.0000 0.0000 0.0000 0.0000 0.0000 16.3711
#
#
#
# Elastic Compliance Matrix: (Units=1/GPa)
#
#
# Indices 1 2 3 4 5 6 
#
# 1 0.014005 -0.006885 -0.007714 0.000000 0.000000 0.000000
# 2 -0.006885 0.032053 -0.000702 0.000000 0.000000 0.000000
# 3 -0.007714 -0.000702 0.018852 0.000000 0.000000 0.000000
# 4 0.000000 0.000000 0.000000 0.062676 0.000000 0.000000
# 5 0.000000 0.000000 0.000000 0.000000 0.029276 0.000000
# 6 0.000000 0.000000 0.000000 0.000000 0.000000 0.061083
#
#
# Mechanical properties :
#
#
# Convention : Reuss Voigt Hill
#
# Bulk Modulus (GPa) = 29.14783 42.01953 35.58368
# Shear Modulus (GPa) = 19.23210 22.37117 20.80164
#
# Velocity S-wave (km/s) = 3.11614 3.36084 3.24080
# Velocity P-wave (km/s) = 5.25966 6.02297 5.65421
#
# Compressibility (1/GPa) = 0.03430787
#
# Stress axis : x y z
#
# Youngs Moduli (GPa) = 71.40485 31.19849 53.04568
#
# Poissons Ratio (x) = 0.21479 0.40919
# Poissons Ratio (y) = 0.49160 0.03724
# Poissons Ratio (z) = 0.55081 0.02190
#
# Static dielectric constant tensor:
#      x y z
#    x 1.712840 0.000000 0.000000 
#    y 0.000000 1.708670 0.000000 
#    z 0.000000 0.000000 1.904480 
# 
# From -- ./inp_files/6923.got.cif
#   From: 2010.05.17/outbox.cif.g08.bks.cpg/sg17_4_cif.got.tgz:6923.got - 2010.06.03 22:34:06.
