data_PCOD9310910
_publ_section_title
;
Structure prediction by ZEFSAII (Michael W. Deem and Ramdas Pophale) SiO2 
 PCOD9310910
Probable space group: P 2 2 21
;
_chemical_formula_sum "Si O2"
_cell_formula_units_Z 18
_cell_length_a 6.683510
_cell_length_b 7.526106
_cell_length_c 18.823555
_cell_angle_alpha 90.000000
_cell_angle_beta 90.000000
_cell_angle_gamma 90.000000
_cell_volume 946.839964
_symmetry_space_group_name_H-M "P 2 2 21"
_symmetry_group_IT_number 17
_symmetry_cell_setting 'orthorhombic'
loop_
_space_group_symop_operation_xyz
x,y,z
-x,-y,1/2+z
x,-y,-z
-x,y,1/2-z
loop_
_atom_site_type_symbol
_atom_site_label
_atom_site_fract_x
_atom_site_fract_y
_atom_site_fract_z
Si Si1 0.000000 0.282221 0.750000
Si Si2 0.379524 0.527588 0.184013
Si Si3 0.272861 0.756805 0.382520
Si Si4 0.559501 0.000000 0.000000
Si Si5 0.299262 0.667733 0.954462
Si Si6 0.087085 0.500000 0.500000
O O1 0.171380 0.395053 0.788800
O O2 0.121267 0.197865 0.682606
O O3 0.500000 0.451403 0.250000
O O4 0.519963 0.684142 0.151761
O O5 0.339050 0.380488 0.125972
O O6 0.196391 0.594378 0.433672
O O7 0.312654 0.921671 0.434765
O O8 0.415122 0.158939 0.023706
O O9 0.063350 0.653738 0.971028
O O10 0.380637 0.500000 0.000000
#
# Coordination Sequence:
#
# PCOD9310910 Si02
#       6
#     2   4   4   2   4   2
#     4  10  20  40  66 100 126 184 216 272 336 394
#     4  10  20  39  68  90 133 174 223 265 334 394
#     4  11  21  38  66 101 129 177 222 279 328 400
#     4  12  24  38  72 102 134 170 228 274 336 388
#     4  10  20  41  65  95 127 171 214 275 320 395
#     4  10  20  40  70  94 132 172 222 274 332 384
#
# _framework density 19.010605999999999
#
# number of rings (size 3 to 8) (size 9 to 14) (size 15 to 20)
#    0.667    0.889    4.444    1.333    0.000    0.889 
#    0.000    3.333    0.000    1.333    0.000    0.000 
#    0.000    0.000    0.000    0.000    0.000    0.000 
#
# Total GULP energy -100262.694797 kJ/mol
# GULP energy per Si atom -5570.149711 kJ/mol
# Density = 1.896734 g / cm^3
# Si number density = 19.010606 Si / 1000 Ang^3
#
#
#
# Elastic Constant Matrix: (Units=GPa)
#
#
# Indices 1 2 3 4 5 6 
#
# 1 114.9482 38.4309 60.1728 0.0000 0.0000 0.0000
# 2 38.4309 87.4873 53.8928 0.0000 0.0000 0.0000
# 3 60.1728 53.8928 146.0676 0.0000 0.0000 0.0000
# 4 0.0000 0.0000 0.0000 33.4429 0.0000 0.0000
# 5 0.0000 0.0000 0.0000 0.0000 43.5564 0.0000
# 6 0.0000 0.0000 0.0000 0.0000 0.0000 35.6606
#
#
#
# Elastic Compliance Matrix: (Units=1/GPa)
#
#
# Indices 1 2 3 4 5 6 
#
# 1 0.011592 -0.002783 -0.003749 0.000000 0.000000 0.000000
# 2 -0.002783 0.015460 -0.004558 0.000000 0.000000 0.000000
# 3 -0.003749 -0.004558 0.010072 0.000000 0.000000 0.000000
# 4 0.000000 0.000000 0.000000 0.029902 0.000000 0.000000
# 5 0.000000 0.000000 0.000000 0.000000 0.022959 0.000000
# 6 0.000000 0.000000 0.000000 0.000000 0.000000 0.028042
#
#
# Mechanical properties :
#
#
# Convention : Reuss Voigt Hill
#
# Bulk Modulus (GPa) = 66.90815 72.61068 69.75941
# Shear Modulus (GPa) = 34.43805 35.59908 35.01856
#
# Velocity S-wave (km/s) = 4.26081 4.33204 4.29657
# Velocity P-wave (km/s) = 7.71217 7.95612 7.83509
#
# Compressibility (1/GPa) = 0.01494586
#
# Stress axis : x y z
#
# Youngs Moduli (GPa) = 86.26358 64.68159 99.28478
#
# Poissons Ratio (x) = 0.18001 0.37219
# Poissons Ratio (y) = 0.24007 0.45251
# Poissons Ratio (z) = 0.32337 0.29480
#
# Static dielectric constant tensor:
#      x y z
#    x 1.710970 0.000000 0.000000 
#    y 0.000000 1.612730 0.000000 
#    z 0.000000 0.000000 1.672430 
# 
# From -- ./inp_files/8904.got.cif
#   From: 2010.05.17/outbox.cif.g08.bks.cpg/sg17_5_cif.got.tgz:8904.got - 2010.06.03 22:34:06.
