data_PCOD9310276
_publ_section_title
;
Structure prediction by ZEFSAII (Michael W. Deem and Ramdas Pophale) SiO2 
 PCOD9310276
Probable space group: P 2 2 2
;
_chemical_formula_sum "Si O2"
_cell_formula_units_Z 14
_cell_length_a 13.996727
_cell_length_b 5.365617
_cell_length_c 8.882572
_cell_angle_alpha 90.000000
_cell_angle_beta 90.000000
_cell_angle_gamma 90.000000
_cell_volume 667.090718
_symmetry_space_group_name_H-M "P 2 2 2"
_symmetry_group_IT_number 16
_symmetry_cell_setting 'orthorhombic'
loop_
_space_group_symop_operation_xyz
x,y,z
-x,-y,z
x,-y,-z
-x,y,-z
loop_
_atom_site_type_symbol
_atom_site_label
_atom_site_fract_x
_atom_site_fract_y
_atom_site_fract_z
Si Si1 0.000000 0.000000 0.000000
Si Si2 0.703752 0.510167 0.181375
Si Si3 0.090154 0.323384 0.749931
Si Si4 0.385511 0.010504 0.678016
Si Si5 0.000000 0.000000 0.500000
O O1 0.928564 0.155271 0.104386
O O2 0.812428 0.472572 0.237067
O O3 0.661046 0.770503 0.240940
O O4 0.649377 0.269991 0.249819
O O5 0.700303 0.500000 0.000000
O O6 0.000000 0.500000 0.749362
O O7 0.071887 0.157749 0.603527
O O8 0.500000 0.000000 0.692538
O O9 0.361655 0.000000 0.500000
#
# Coordination Sequence:
#
# PCOD9310276 Si02
#       5
#     1   4   4   4   1
#     4  10  22  42  68  92 150 190 230 298 354 430
#     4  12  27  44  77 109 144 191 240 299 366 432
#     4  11  25  43  67 102 144 187 242 290 360 424
#     4  11  27  50  74 105 144 188 241 303 369 435
#     4  10  26  42  68  96 150 190 242 298 350 422
#
# _framework density 20.986651999999999
#
# number of rings (size 3 to 8) (size 9 to 14) (size 15 to 20)
#    0.000    0.857    0.000    5.143   14.000    8.000 
#    0.000    0.000    0.000    0.000    0.000    0.000 
#    0.000    0.000    0.000    0.000    0.000    0.000 
#
# Total GULP energy -78359.506958 kJ/mol
# GULP energy per Si atom -5597.107640 kJ/mol
# Density = 2.093889 g / cm^3
# Si number density = 20.986652 Si / 1000 Ang^3
#
#
#
# Elastic Constant Matrix: (Units=GPa)
#
#
# Indices 1 2 3 4 5 6 
#
# 1 115.9208 40.0066 45.1418 0.0000 0.0000 0.0000
# 2 40.0066 122.5581 55.0323 0.0000 0.0000 0.0000
# 3 45.1418 55.0323 150.5226 0.0000 0.0000 0.0000
# 4 0.0000 0.0000 0.0000 101.2014 0.0000 0.0000
# 5 0.0000 0.0000 0.0000 0.0000 8.7896 0.0000
# 6 0.0000 0.0000 0.0000 0.0000 0.0000 46.3300
#
#
#
# Elastic Compliance Matrix: (Units=1/GPa)
#
#
# Indices 1 2 3 4 5 6 
#
# 1 0.010310 -0.002365 -0.002227 0.000000 0.000000 0.000000
# 2 -0.002365 0.010305 -0.003058 0.000000 0.000000 0.000000
# 3 -0.002227 -0.003058 0.008430 0.000000 0.000000 0.000000
# 4 0.000000 0.000000 0.000000 0.009881 0.000000 0.000000
# 5 0.000000 0.000000 0.000000 0.000000 0.113771 0.000000
# 6 0.000000 0.000000 0.000000 0.000000 0.000000 0.021584
#
#
# Mechanical properties :
#
#
# Convention : Reuss Voigt Hill
#
# Bulk Modulus (GPa) = 72.76455 74.37366 73.56910
# Shear Modulus (GPa) = 25.75146 47.85225 36.80186
#
# Velocity S-wave (km/s) = 3.50671 4.78025 4.19212
# Velocity P-wave (km/s) = 7.15144 8.12300 7.65266
#
# Compressibility (1/GPa) = 0.01374296
#
# Stress axis : x y z
#
# Youngs Moduli (GPa) = 96.99055 97.04279 118.63072
#
# Poissons Ratio (x) = 0.22955 0.26422
# Poissons Ratio (y) = 0.22943 0.36278
# Poissons Ratio (z) = 0.21602 0.29676
#
# Static dielectric constant tensor:
#      x y z
#    x 1.707320 0.000000 0.000000 
#    y 0.000000 1.749060 0.000000 
#    z 0.000000 0.000000 1.726700 
# 
# From -- ./inp_files/4957.got.cif
#   From: 2010.05.17/outbox.cif.g08.bks.cpg/sg16_3_cif.got.tgz:4957.got - 2010.06.03 22:28:35.
