data_PCOD9310066
_publ_section_title
;
Structure prediction by ZEFSAII (Michael W. Deem and Ramdas Pophale) SiO2 
 PCOD9310066
Probable space group: P 2 2 2
;
_chemical_formula_sum "Si O2"
_cell_formula_units_Z 32
_cell_length_a 9.172188
_cell_length_b 11.889029
_cell_length_c 14.743085
_cell_angle_alpha 90.000000
_cell_angle_beta 90.000000
_cell_angle_gamma 90.000000
_cell_volume 1607.709965
_symmetry_space_group_name_H-M "P 2 2 2"
_symmetry_group_IT_number 16
_symmetry_cell_setting 'orthorhombic'
loop_
_space_group_symop_operation_xyz
x,y,z
-x,-y,z
x,-y,-z
-x,y,-z
loop_
_atom_site_type_symbol
_atom_site_label
_atom_site_fract_x
_atom_site_fract_y
_atom_site_fract_z
Si Si1 0.360764 0.802209 0.198190
Si Si2 0.086751 0.803792 0.407073
Si Si3 0.858467 0.378336 0.276343
Si Si4 0.829214 0.138278 0.719098
Si Si5 0.555490 0.377663 0.896511
Si Si6 0.824980 0.005871 0.103405
Si Si7 0.643298 0.051733 0.370245
Si Si8 0.176415 0.376502 0.220575
O O1 0.264241 0.702581 0.238874
O O2 0.486427 0.735121 0.146339
O O3 0.252163 0.881990 0.141214
O O4 0.411060 0.881513 0.280281
O O5 0.101114 0.674838 0.373567
O O6 0.243634 0.862759 0.416921
O O7 0.000000 0.815374 0.500000
O O8 0.994470 0.859468 0.322720
O O9 0.807345 0.506260 0.273401
O O10 0.001269 0.366954 0.211697
O O11 0.779916 0.267601 0.721115
O O12 0.802217 0.091045 0.820784
O O13 0.741894 0.054244 0.656403
O O14 0.500000 0.500000 0.860016
O O15 0.726715 0.377602 0.870348
O O16 0.500000 0.375903 0.000000
O O17 0.000000 0.000000 0.098300
O O18 0.769886 0.000000 0.000000
O O19 0.500000 0.000000 0.412290
#
# Coordination Sequence:
#
# PCOD9310066 Si02
#       8
#     4   4   4   4   4   4   4   4
#     4  10  20  39  58  85 123 166 211 260 327 384
#     4  10  21  39  65  92 126 162 208 270 338 396
#     4   9  19  37  63  88 115 159 212 261 324 395
#     4  10  20  36  58  86 125 164 206 264 326 393
#     4  11  23  37  56  85 124 164 216 272 330 391
#     4  10  20  34  56  85 118 166 218 268 321 384
#     4  10  20  36  60  89 122 164 208 249 315 403
#     4  10  19  36  60  84 118 161 209 262 322 384
#
# _framework density 19.904088000000002
#
# number of rings (size 3 to 8) (size 9 to 14) (size 15 to 20)
#    0.000    2.000    1.250    4.125    1.750    1.000 
#    0.000    6.250    0.000    0.000    0.000    0.000 
#    0.000    0.000    0.000    0.000    0.000    0.000 
#
# Total GULP energy -178196.720196 kJ/mol
# GULP energy per Si atom -5568.647506 kJ/mol
# Density = 1.985879 g / cm^3
# Si number density = 19.904088 Si / 1000 Ang^3
#
#
#
# Elastic Constant Matrix: (Units=GPa)
#
#
# Indices 1 2 3 4 5 6 
#
# 1 82.7566 36.0421 31.1573 0.0000 0.0000 0.0000
# 2 36.0421 143.9968 38.6392 0.0000 0.0000 0.0000
# 3 31.1573 38.6392 90.3934 0.0000 0.0000 0.0000
# 4 0.0000 0.0000 0.0000 25.1148 0.0000 0.0000
# 5 0.0000 0.0000 0.0000 0.0000 1.5717 0.0000
# 6 0.0000 0.0000 0.0000 0.0000 0.0000 29.5912
#
#
#
# Elastic Compliance Matrix: (Units=1/GPa)
#
#
# Indices 1 2 3 4 5 6 
#
# 1 0.014713 -0.002623 -0.003950 0.000000 0.000000 0.000000
# 2 -0.002623 0.008312 -0.002649 0.000000 0.000000 0.000000
# 3 -0.003950 -0.002649 0.013557 0.000000 0.000000 0.000000
# 4 0.000000 0.000000 0.000000 0.039817 0.000000 0.000000
# 5 0.000000 0.000000 0.000000 0.000000 0.636234 0.000000
# 6 0.000000 0.000000 0.000000 0.000000 0.000000 0.033794
#
#
# Mechanical properties :
#
#
# Convention : Reuss Voigt Hill
#
# Bulk Modulus (GPa) = 55.13356 58.75822 56.94589
# Shear Modulus (GPa) = 6.48579 25.34275 15.91427
#
# Velocity S-wave (km/s) = 1.80710 3.57212 2.83069
# Velocity P-wave (km/s) = 5.66691 6.82629 6.27344
#
# Compressibility (1/GPa) = 0.01813777
#
# Stress axis : x y z
#
# Youngs Moduli (GPa) = 67.96650 120.31012 73.76429
#
# Poissons Ratio (x) = 0.31553 0.29139
# Poissons Ratio (y) = 0.17825 0.19540
# Poissons Ratio (z) = 0.26849 0.31870
#
# Static dielectric constant tensor:
#      x y z
#    x 1.734740 0.000000 0.000000 
#    y 0.000000 1.716620 0.000000 
#    z 0.000000 0.000000 1.733130 
# 
# From -- ./inp_files/7972.got.cif
#   From: 2010.05.17/outbox.cif.g08.bks.cpg/sg16_4_cif.got.tgz:7972.got - 2010.06.03 22:28:35.
