data_PCOD9310398
_publ_section_title
;
Structure prediction by ZEFSAII (Michael W. Deem and Ramdas Pophale) SiO2 
 PCOD9310398
Probable space group: P 2 2 2
;
_chemical_formula_sum "Si O2"
_cell_formula_units_Z 20
_cell_length_a 9.822605
_cell_length_b 8.529029
_cell_length_c 11.350171
_cell_angle_alpha 90.000000
_cell_angle_beta 90.000000
_cell_angle_gamma 90.000000
_cell_volume 950.886487
_symmetry_space_group_name_H-M "P 2 2 2"
_symmetry_group_IT_number 16
_symmetry_cell_setting 'orthorhombic'
loop_
_space_group_symop_operation_xyz
x,y,z
-x,-y,z
x,-y,-z
-x,y,-z
loop_
_atom_site_type_symbol
_atom_site_label
_atom_site_fract_x
_atom_site_fract_y
_atom_site_fract_z
Si Si1 0.784362 0.186074 0.743866
Si Si2 0.034644 0.316374 0.866891
Si Si3 0.337556 0.312225 0.499200
Si Si4 0.463740 0.324444 0.137009
Si Si5 0.286851 0.823122 0.249764
O O1 0.734233 0.242071 0.615913
O O2 0.691187 0.282608 0.836283
O O3 0.939106 0.225711 0.774532
O O4 0.754949 0.003067 0.758321
O O5 0.189492 0.279612 0.833916
O O6 0.000000 0.500000 0.858002
O O7 0.000000 0.265168 0.000000
O O8 0.321458 0.500000 0.500000
O O9 0.500000 0.278369 0.500000
O O10 0.276158 0.238572 0.617283
O O11 0.500000 0.500000 0.179492
O O12 0.559184 0.205204 0.207696
O O13 0.500000 0.315125 0.000000
#
# Coordination Sequence:
#
# PCOD9310398 Si02
#       5
#     4   4   4   4   4
#     4  12  25  41  66  98 132 168 214 272 330 382
#     4  11  25  46  69  94 131 177 221 265 320 391
#     4  11  23  42  69  96 130 173 219 267 320 388
#     4  11  23  40  63  92 127 171 221 265 316 387
#     4  12  25  41  66  98 132 168 214 272 330 382
#
# _framework density 21.033006
#
# number of rings (size 3 to 8) (size 9 to 14) (size 15 to 20)
#    0.000    0.600    2.000    6.600    0.000    9.600 
#    0.000    4.000    0.000    0.000    0.000    0.000 
#    0.000    0.000    0.000    0.000    0.000    0.000 
#
# Total GULP energy -112017.614378 kJ/mol
# GULP energy per Si atom -5600.880719 kJ/mol
# Density = 2.098513 g / cm^3
# Si number density = 21.033006 Si / 1000 Ang^3
#
#
#
# Elastic Constant Matrix: (Units=GPa)
#
#
# Indices 1 2 3 4 5 6 
#
# 1 46.0016 -8.7555 -6.5600 0.0000 0.0000 0.0000
# 2 -8.7555 90.0813 7.6388 0.0000 0.0000 0.0000
# 3 -6.5600 7.6388 88.0007 0.0000 0.0000 0.0000
# 4 0.0000 0.0000 0.0000 50.4995 0.0000 0.0000
# 5 0.0000 0.0000 0.0000 0.0000 35.6496 0.0000
# 6 0.0000 0.0000 0.0000 0.0000 0.0000 32.2508
#
#
#
# Elastic Compliance Matrix: (Units=1/GPa)
#
#
# Indices 1 2 3 4 5 6 
#
# 1 0.022340 0.002045 0.001488 0.000000 0.000000 0.000000
# 2 0.002045 0.011371 -0.000835 0.000000 0.000000 0.000000
# 3 0.001488 -0.000835 0.011547 0.000000 0.000000 0.000000
# 4 0.000000 0.000000 0.000000 0.019802 0.000000 0.000000
# 5 0.000000 0.000000 0.000000 0.000000 0.028051 0.000000
# 6 0.000000 0.000000 0.000000 0.000000 0.000000 0.031007
#
#
# Mechanical properties :
#
#
# Convention : Reuss Voigt Hill
#
# Bulk Modulus (GPa) = 19.74173 23.19224 21.46699
# Shear Modulus (GPa) = 36.87172 39.13065 38.00119
#
# Velocity S-wave (km/s) = 4.19148 4.31796 4.25519
# Velocity P-wave (km/s) = 5.72984 5.99252 5.86265
#
# Compressibility (1/GPa) = 0.05065413
#
# Stress axis : x y z
#
# Youngs Moduli (GPa) = 44.76313 87.94581 86.60336
#
# Poissons Ratio (x) = -0.17986 -0.12885
# Poissons Ratio (y) = -0.09155 0.07228
# Poissons Ratio (z) = -0.06660 0.07340
#
# Static dielectric constant tensor:
#      x y z
#    x 1.695500 0.000000 0.000000 
#    y 0.000000 1.725600 0.000000 
#    z 0.000000 0.000000 1.732440 
# 
# From -- ./inp_files/3785.got.cif
#   From: 2010.05.17/outbox.cif.g08.bks.cpg/sg16_2_cif.got.tgz:3785.got - 2010.06.03 22:28:35.
