data_PCOD9310504
_publ_section_title
;
Structure prediction by ZEFSAII (Michael W. Deem and Ramdas Pophale) SiO2 
 PCOD9310504
Probable space group: P 2 2 21
;
_chemical_formula_sum "Si O2"
_cell_formula_units_Z 16
_cell_length_a 9.110769
_cell_length_b 9.670457
_cell_length_c 7.884843
_cell_angle_alpha 90.000000
_cell_angle_beta 90.000000
_cell_angle_gamma 90.000000
_cell_volume 694.696457
_symmetry_space_group_name_H-M "P 2 2 21"
_symmetry_group_IT_number 17
_symmetry_cell_setting 'orthorhombic'
loop_
_space_group_symop_operation_xyz
x,y,z
-x,-y,1/2+z
x,-y,-z
-x,y,1/2-z
loop_
_atom_site_type_symbol
_atom_site_label
_atom_site_fract_x
_atom_site_fract_y
_atom_site_fract_z
Si Si1 0.747207 0.346772 0.961024
Si Si2 0.831651 0.153501 0.679780
Si Si3 0.340198 0.089821 0.327030
Si Si4 0.931477 0.362828 0.437326
O O1 0.716224 0.240285 0.113815
O O2 0.922081 0.367175 0.948552
O O3 0.684545 0.500000 0.000000
O O4 0.726977 0.259641 0.788434
O O5 0.848125 0.226797 0.498090
O O6 0.000000 0.136597 0.750000
O O7 0.758377 0.005316 0.705120
O O8 0.500000 0.105106 0.250000
O O9 0.345692 0.000000 0.500000
O O10 0.846784 0.500000 0.500000
O O11 0.000000 0.363622 0.250000
#
# Coordination Sequence:
#
# PCOD9310504 Si02
#       4
#     4   4   4   4
#     4   9  18  36  59  84 117 159 207 260 313 367
#     4   9  19  37  59  86 122 162 207 259 312 370
#     4  10  22  40  60  86 123 164 205 257 315 374
#     4  10  18  31  57  92 124 157 205 264 316 365
#
# _framework density 23.031641
#
# number of rings (size 3 to 8) (size 9 to 14) (size 15 to 20)
#    0.000    2.500    0.000    3.750    0.000    3.000 
#    0.000   11.250    0.000    3.000    0.000    1.750 
#    0.000    0.000    0.000    0.000    0.000    0.000 
#
# Total GULP energy -89113.543327 kJ/mol
# GULP energy per Si atom -5569.596458 kJ/mol
# Density = 2.297922 g / cm^3
# Si number density = 23.031641 Si / 1000 Ang^3
#
#
#
# Elastic Constant Matrix: (Units=GPa)
#
#
# Indices 1 2 3 4 5 6 
#
# 1 56.0840 59.4408 14.3132 0.0000 0.0000 0.0000
# 2 59.4408 251.2646 86.0164 0.0000 0.0000 0.0000
# 3 14.3132 86.0164 124.5107 0.0000 0.0000 0.0000
# 4 0.0000 0.0000 0.0000 39.3133 0.0000 0.0000
# 5 0.0000 0.0000 0.0000 0.0000 22.7881 0.0000
# 6 0.0000 0.0000 0.0000 0.0000 0.0000 13.6098
#
#
#
# Elastic Compliance Matrix: (Units=1/GPa)
#
#
# Indices 1 2 3 4 5 6 
#
# 1 0.024016 -0.006203 0.001525 0.000000 0.000000 0.000000
# 2 -0.006203 0.006815 -0.003995 0.000000 0.000000 0.000000
# 3 0.001525 -0.003995 0.010616 0.000000 0.000000 0.000000
# 4 0.000000 0.000000 0.000000 0.025437 0.000000 0.000000
# 5 0.000000 0.000000 0.000000 0.000000 0.043882 0.000000
# 6 0.000000 0.000000 0.000000 0.000000 0.000000 0.073477
#
#
# Mechanical properties :
#
#
# Convention : Reuss Voigt Hill
#
# Bulk Modulus (GPa) = 41.49415 83.48891 62.49153
# Shear Modulus (GPa) = 23.85236 33.28150 28.56693
#
# Velocity S-wave (km/s) = 3.22162 3.80548 3.52566
# Velocity P-wave (km/s) = 5.64745 7.45904 6.61555
#
# Compressibility (1/GPa) = 0.02409979
#
# Stress axis : x y z
#
# Youngs Moduli (GPa) = 41.63915 146.73616 94.19758
#
# Poissons Ratio (x) = 0.91025 -0.14362
# Poissons Ratio (y) = 0.25830 0.37631
# Poissons Ratio (z) = -0.06349 0.58620
#
# Static dielectric constant tensor:
#      x y z
#    x 1.813670 0.000000 0.000000 
#    y 0.000000 2.012240 0.000000 
#    z 0.000000 0.000000 1.941470 
# 
# From -- ./inp_files/3759.got.cif
#   From: 2010.05.17/outbox.cif.g08.bks.cpg/sg17_2_cif.got.tgz:3759.got - 2010.06.03 22:34:06.
