data_PCOD9310824
_publ_section_title
;
Structure prediction by ZEFSAII (Michael W. Deem and Ramdas Pophale) SiO2 
 PCOD9310824
Probable space group: P 2 2 21
;
_chemical_formula_sum "Si O2"
_cell_formula_units_Z 20
_cell_length_a 15.667575
_cell_length_b 5.660119
_cell_length_c 9.582779
_cell_angle_alpha 90.000000
_cell_angle_beta 90.000000
_cell_angle_gamma 90.000000
_cell_volume 849.804090
_symmetry_space_group_name_H-M "P 2 2 21"
_symmetry_group_IT_number 17
_symmetry_cell_setting 'orthorhombic'
loop_
_space_group_symop_operation_xyz
x,y,z
-x,-y,1/2+z
x,-y,-z
-x,y,1/2-z
loop_
_atom_site_type_symbol
_atom_site_label
_atom_site_fract_x
_atom_site_fract_y
_atom_site_fract_z
Si Si1 0.450760 0.000000 0.000000
Si Si2 0.500000 0.316960 0.250000
Si Si3 0.790467 0.000000 0.000000
Si Si4 0.902002 0.061309 0.281591
Si Si5 0.202263 0.500000 0.500000
Si Si6 0.649088 0.376113 0.649703
Si Si7 0.847076 0.437829 0.701040
O O1 0.502247 0.172314 0.103571
O O2 0.389488 0.877380 0.114642
O O3 0.416138 0.481196 0.245332
O O4 0.847901 0.021097 0.139049
O O5 0.745239 0.254963 0.001256
O O6 0.865316 0.298240 0.355935
O O7 0.000000 0.110901 0.250000
O O8 0.895368 0.798099 0.347899
O O9 0.140525 0.521127 0.366674
O O10 0.645876 0.500000 0.500000
O O11 0.746702 0.382101 0.691680
#
# Coordination Sequence:
#
# PCOD9310824 Si02
#       7
#     2   2   2   4   2   4   4
#     4  10  22  44  70  94 146 178 228 284 352 412
#     4  10  22  44  68 100 134 188 220 292 346 426
#     4   8  16  32  52  74 112 150 188 260 320 354
#     4  10  20  37  59  86 123 164 216 270 328 399
#     4   8  16  34  54  78 114 150 196 262 312 372
#     4  10  23  42  65  94 139 173 219 277 337 416
#     4  10  21  38  61  90 124 167 216 269 337 391
#
# _framework density 23.534837
#
# number of rings (size 3 to 8) (size 9 to 14) (size 15 to 20)
#    0.000    2.400    0.000    1.200    5.600    0.000 
#   12.600    1.000    0.000    0.000    0.000    0.000 
#    0.000    0.000    0.000    0.000    0.000    0.000 
#
# Total GULP energy -111430.443306 kJ/mol
# GULP energy per Si atom -5571.522165 kJ/mol
# Density = 2.348127 g / cm^3
# Si number density = 23.534837 Si / 1000 Ang^3
#
#
#
# Elastic Constant Matrix: (Units=GPa)
#
#
# Indices 1 2 3 4 5 6 
#
# 1 107.5313 36.5589 10.8734 0.0000 0.0000 0.0000
# 2 36.5589 217.1712 16.2221 0.0000 0.0000 0.0000
# 3 10.8734 16.2221 74.6440 0.0000 0.0000 0.0000
# 4 0.0000 0.0000 0.0000 -10.9302 0.0000 0.0000
# 5 0.0000 0.0000 0.0000 0.0000 11.1822 0.0000
# 6 0.0000 0.0000 0.0000 0.0000 0.0000 14.9904
#
#
#
# Elastic Compliance Matrix: (Units=1/GPa)
#
#
# Indices 1 2 3 4 5 6 
#
# 1 0.009953 -0.001593 -0.001104 0.000000 0.000000 0.000000
# 2 -0.001593 0.004936 -0.000841 0.000000 0.000000 0.000000
# 3 -0.001104 -0.000841 0.013740 0.000000 0.000000 0.000000
# 4 0.000000 0.000000 0.000000 -0.091490 0.000000 0.000000
# 5 0.000000 0.000000 0.000000 0.000000 0.089428 0.000000
# 6 0.000000 0.000000 0.000000 0.000000 0.000000 0.066709
#
#
# Mechanical properties :
#
#
# Convention : Reuss Voigt Hill
#
# Bulk Modulus (GPa) = 46.39437 58.51724 52.45581
# Shear Modulus (GPa) = 46.49621 25.42796 35.96209
#
# Velocity S-wave (km/s) = 4.44963 3.29057 3.91325
# Velocity P-wave (km/s) = 6.79373 6.27337 6.53873
#
# Compressibility (1/GPa) = 0.02155434
#
# Stress axis : x y z
#
# Youngs Moduli (GPa) = 100.47408 202.60864 72.77828
#
# Poissons Ratio (x) = 0.32276 0.08032
# Poissons Ratio (y) = 0.16006 0.06118
# Poissons Ratio (z) = 0.11088 0.17031
#
# Static dielectric constant tensor:
#      x y z
#    x 1.839360 0.000000 0.000000 
#    y 0.000000 2.172830 0.000000 
#    z 0.000000 0.000000 1.918830 
# 
# From -- ./inp_files/6000.got.cif
#   From: 2010.05.17/outbox.cif.g08.bks.cpg/sg17_3_cif.got.tgz:6000.got - 2010.06.03 22:34:06.
