data_PCOD9310376
_publ_section_title
;
Structure prediction by ZEFSAII (Michael W. Deem and Ramdas Pophale) SiO2 
 PCOD9310376
Probable space group: P 2 2 2
;
_chemical_formula_sum "Si O2"
_cell_formula_units_Z 23
_cell_length_a 8.547666
_cell_length_b 14.735542
_cell_length_c 8.365730
_cell_angle_alpha 90.000000
_cell_angle_beta 90.000000
_cell_angle_gamma 90.000000
_cell_volume 1053.701267
_symmetry_space_group_name_H-M "P 2 2 2"
_symmetry_group_IT_number 16
_symmetry_cell_setting 'orthorhombic'
loop_
_space_group_symop_operation_xyz
x,y,z
-x,-y,z
x,-y,-z
-x,y,-z
loop_
_atom_site_type_symbol
_atom_site_label
_atom_site_fract_x
_atom_site_fract_y
_atom_site_fract_z
Si Si1 0.958992 0.397943 0.809054
Si Si2 0.782912 0.731009 0.717974
Si Si3 0.345992 0.338866 0.053124
Si Si4 0.669981 0.148183 0.793979
Si Si5 0.008853 0.106819 0.692542
Si Si6 0.500000 0.213661 0.500000
Si Si7 0.500000 0.000000 0.000000
O O1 0.772815 0.384023 0.822406
O O2 0.000000 0.500000 0.761784
O O3 0.056116 0.327705 0.698451
O O4 0.000000 0.387915 0.000000
O O5 0.640430 0.730997 0.590384
O O6 0.839317 0.835256 0.741181
O O7 0.726942 0.689007 0.883835
O O8 0.386411 0.242658 0.132217
O O9 0.500000 0.391936 0.000000
O O10 0.856427 0.149279 0.775652
O O11 0.590873 0.149064 0.621932
O O12 0.609124 0.064379 0.894357
O O13 0.000000 0.116129 0.500000
O O14 0.000000 0.000000 0.729806
#
# Coordination Sequence:
#
# PCOD9310376 Si02
#       7
#     4   4   4   4   4   2   1
#     4   9  20  40  68 100 133 171 221 278 346 408
#     4  11  22  41  65  97 131 173 227 273 334 404
#     4  11  21  40  67  99 132 170 220 279 345 398
#     4  12  25  42  64  93 136 174 221 280 336 396
#     4  11  25  40  61  93 128 178 226 264 325 401
#     4  12  24  41  70  91 130 186 220 272 343 405
#     4  12  28  42  62 100 136 172 238 280 336 390
#
# _framework density 21.827819000000002
#
# number of rings (size 3 to 8) (size 9 to 14) (size 15 to 20)
#    0.000    1.043    6.087    0.000    4.870    0.348 
#    0.000    6.957    0.000    5.739    0.000    0.000 
#    0.000    0.000    0.000    0.000    0.000    0.000 
#
# Total GULP energy -128304.467230 kJ/mol
# GULP energy per Si atom -5578.455097 kJ/mol
# Density = 2.177814 g / cm^3
# Si number density = 21.827819 Si / 1000 Ang^3
#
#
#
# Elastic Constant Matrix: (Units=GPa)
#
#
# Indices 1 2 3 4 5 6 
#
# 1 140.3757 47.6458 25.9052 0.0000 0.0000 0.0000
# 2 47.6458 104.4608 17.9756 0.0000 0.0000 0.0000
# 3 25.9052 17.9756 59.5082 0.0000 0.0000 0.0000
# 4 0.0000 0.0000 0.0000 -22.1937 0.0000 0.0000
# 5 0.0000 0.0000 0.0000 0.0000 22.3027 0.0000
# 6 0.0000 0.0000 0.0000 0.0000 0.0000 -62.9295
#
#
#
# Elastic Compliance Matrix: (Units=1/GPa)
#
#
# Indices 1 2 3 4 5 6 
#
# 1 0.008843 -0.003556 -0.002775 0.000000 0.000000 0.000000
# 2 -0.003556 0.011528 -0.001934 0.000000 0.000000 0.000000
# 3 -0.002775 -0.001934 0.018597 0.000000 0.000000 0.000000
# 4 0.000000 0.000000 0.000000 -0.045058 0.000000 0.000000
# 5 0.000000 0.000000 0.000000 0.000000 0.044838 0.000000
# 6 0.000000 0.000000 0.000000 0.000000 0.000000 -0.015891
#
#
# Mechanical properties :
#
#
# Convention : Reuss Voigt Hill
#
# Bulk Modulus (GPa) = 44.57010 54.15533 49.36271
# Shear Modulus (GPa) = 106.68755 1.62378 54.15566
#
# Velocity S-wave (km/s) = 6.99878 0.86343 4.98641
# Velocity P-wave (km/s) = 9.26142 5.08509 7.47101
#
# Compressibility (1/GPa) = 0.02243657
#
# Stress axis : x y z
#
# Youngs Moduli (GPa) = 113.08659 86.74818 53.77245
#
# Poissons Ratio (x) = 0.30845 0.14924
# Poissons Ratio (y) = 0.40210 0.10401
# Poissons Ratio (z) = 0.31386 0.16779
#
# Static dielectric constant tensor:
#      x y z
#    x 1.928980 0.000000 0.000000 
#    y 0.000000 1.765680 0.000000 
#    z 0.000000 0.000000 1.693250 
# 
# From -- ./inp_files/4092.got.cif
#   From: 2010.05.17/outbox.cif.g08.bks.cpg/sg16_3_cif.got.tgz:4092.got - 2010.06.03 22:28:35.
