data_PCOD9310438
_publ_section_title
;
Structure prediction by ZEFSAII (Michael W. Deem and Ramdas Pophale) SiO2 
 PCOD9310438
Probable space group: P 2 2 21
;
_chemical_formula_sum "Si O2"
_cell_formula_units_Z 26
_cell_length_a 30.328468
_cell_length_b 7.369539
_cell_length_c 5.084388
_cell_angle_alpha 90.000000
_cell_angle_beta 90.000000
_cell_angle_gamma 90.000000
_cell_volume 1136.395433
_symmetry_space_group_name_H-M "P 2 2 21"
_symmetry_group_IT_number 17
_symmetry_cell_setting 'orthorhombic'
loop_
_space_group_symop_operation_xyz
x,y,z
-x,-y,1/2+z
x,-y,-z
-x,y,1/2-z
loop_
_atom_site_type_symbol
_atom_site_label
_atom_site_fract_x
_atom_site_fract_y
_atom_site_fract_z
Si Si1 0.318334 0.800676 0.616265
Si Si2 0.908724 0.719543 0.450873
Si Si3 0.628262 0.705100 0.394562
Si Si4 0.775268 0.133265 0.245716
Si Si5 0.000000 0.370918 0.750000
Si Si6 0.864360 0.714496 0.944693
Si Si7 0.471886 0.278785 0.994752
O O1 0.342762 0.807617 0.892157
O O2 0.268414 0.744270 0.690846
O O3 0.313511 0.000000 0.500000
O O4 0.349046 0.707056 0.393134
O O5 0.904525 0.500000 0.500000
O O6 0.957172 0.741440 0.333090
O O7 0.900790 0.790084 0.743194
O O8 0.872986 0.788828 0.237951
O O9 0.628179 0.500000 0.500000
O O10 0.578362 0.775169 0.432040
O O11 0.819123 0.251660 0.212710
O O12 0.771014 0.000000 0.500000
O O13 0.779337 0.000000 0.000000
O O14 0.011338 0.500000 0.500000
O O15 0.868297 0.500000 0.000000
O O16 0.500000 0.223535 0.250000
O O17 0.471055 0.500000 0.000000
O O18 0.500000 0.216974 0.750000
#
# Coordination Sequence:
#
# PCOD9310438 Si02
#       7
#     4   4   4   4   2   4   4
#     4  11  23  41  60  82 117 156 191 235 293 352
#     4   9  17  29  47  77 112 143 177 222 280 336
#     4  11  22  37  62  92 116 147 196 244 283 334
#     4  11  23  41  60  80 107 150 197 230 280 359
#     4  10  16  26  46  74 112 152 180 214 272 346
#     4  10  20  34  54  82 112 139 179 239 290 325
#     4   9  17  31  53  82 115 148 184 229 279 332
#
# _framework density 22.879358
#
# number of rings (size 3 to 8) (size 9 to 14) (size 15 to 20)
#    0.000    1.846    0.000    6.923    0.000    3.692 
#    0.000    1.538    0.000    9.231    0.000   10.769 
#    0.000    0.000    0.000    0.000    0.000    0.000 
#
# Total GULP energy -144982.672518 kJ/mol
# GULP energy per Si atom -5576.256635 kJ/mol
# Density = 2.282728 g / cm^3
# Si number density = 22.879358 Si / 1000 Ang^3
#
#
#
# Elastic Constant Matrix: (Units=GPa)
#
#
# Indices 1 2 3 4 5 6 
#
# 1 180.4781 5.3654 73.3960 0.0000 0.0000 0.0000
# 2 5.3654 41.0264 13.5487 0.0000 0.0000 0.0000
# 3 73.3960 13.5487 188.2489 0.0000 0.0000 0.0000
# 4 0.0000 0.0000 0.0000 -141.4718 0.0000 0.0000
# 5 0.0000 0.0000 0.0000 0.0000 37.1138 0.0000
# 6 0.0000 0.0000 0.0000 0.0000 0.0000 20.4493
#
#
#
# Elastic Compliance Matrix: (Units=1/GPa)
#
#
# Indices 1 2 3 4 5 6 
#
# 1 0.006585 -0.000014 -0.002566 0.000000 0.000000 0.000000
# 2 -0.000014 0.024968 -0.001792 0.000000 0.000000 0.000000
# 3 -0.002566 -0.001792 0.006442 0.000000 0.000000 0.000000
# 4 0.000000 0.000000 0.000000 -0.007069 0.000000 0.000000
# 5 0.000000 0.000000 0.000000 0.000000 0.026944 0.000000
# 6 0.000000 0.000000 0.000000 0.000000 0.000000 0.048901
#
#
# Mechanical properties :
#
#
# Convention : Reuss Voigt Hill
#
# Bulk Modulus (GPa) = 34.18663 66.04150 50.11406
# Shear Modulus (GPa) = 39.91518 4.38113 22.14816
#
# Velocity S-wave (km/s) = 4.18136 1.38530 3.11471
# Velocity P-wave (km/s) = 6.18759 5.61128 5.90647
#
# Compressibility (1/GPa) = 0.02925120
#
# Stress axis : x y z
#
# Youngs Moduli (GPa) = 151.86169 40.05118 155.23900
#
# Poissons Ratio (x) = 0.00055 0.39841
# Poissons Ratio (y) = 0.00207 0.27814
# Poissons Ratio (z) = 0.38974 0.07176
#
# Static dielectric constant tensor:
#      x y z
#    x 4.115680 0.000000 0.000000 
#    y 0.000000 1.894260 0.000000 
#    z 0.000000 0.000000 1.816790 
# 
# From -- ./inp_files/3197.got.cif
#   From: 2010.05.17/outbox.cif.g08.bks.cpg/sg17_2_cif.got.tgz:3197.got - 2010.06.03 22:34:06.
