data_PCOD9310249
_publ_section_title
;
Structure prediction by ZEFSAII (Michael W. Deem and Ramdas Pophale) SiO2 
 PCOD9310249
Probable space group: P 2 2 2
;
_chemical_formula_sum "Si O2"
_cell_formula_units_Z 21
_cell_length_a 5.051793
_cell_length_b 12.808266
_cell_length_c 16.400492
_cell_angle_alpha 90.000000
_cell_angle_beta 90.000000
_cell_angle_gamma 90.000000
_cell_volume 1061.189054
_symmetry_space_group_name_H-M "P 2 2 2"
_symmetry_group_IT_number 16
_symmetry_cell_setting 'orthorhombic'
loop_
_space_group_symop_operation_xyz
x,y,z
-x,-y,z
x,-y,-z
-x,y,-z
loop_
_atom_site_type_symbol
_atom_site_label
_atom_site_fract_x
_atom_site_fract_y
_atom_site_fract_z
Si Si1 0.743580 0.571952 0.313980
Si Si2 0.244495 0.243686 0.441515
Si Si3 0.000000 0.500000 0.000000
Si Si4 0.184619 0.298484 0.925663
Si Si5 0.254305 0.074301 0.299000
Si Si6 0.690355 0.739156 0.176233
O O1 0.500000 0.500000 0.338071
O O2 0.793920 0.652698 0.387088
O O3 0.645495 0.642590 0.237628
O O4 0.000000 0.500000 0.296135
O O5 0.500000 0.247659 0.500000
O O6 0.239007 0.148921 0.377390
O O7 0.000000 0.230736 0.500000
O O8 0.822139 0.421665 0.053035
O O9 0.478718 0.265689 0.898425
O O10 0.992815 0.276392 0.850688
O O11 0.000000 0.252601 0.000000
O O12 0.316484 0.151821 0.223675
O O13 0.500000 0.000000 0.310695
O O14 0.000000 0.000000 0.287112
#
# Coordination Sequence:
#
# PCOD9310249 Si02
#       6
#     4   4   1   4   4   4
#     4  11  24  37  58  88 123 173 212 245 304 376
#     4  11  24  41  61  90 125 157 207 264 316 379
#     4   8  24  34  60  98 126 174 202 242 304 370
#     4  10  22  37  60  91 131 158 205 241 302 360
#     4  11  24  43  67  91 118 157 210 265 328 375
#     4  11  23  40  61  90 126 162 205 261 302 371
#
# _framework density 19.789121999999999
#
# number of rings (size 3 to 8) (size 9 to 14) (size 15 to 20)
#    0.571    0.762    0.000    5.143    4.000   11.429 
#    0.000    0.000    0.000    8.571    0.000    0.000 
#    0.000    0.000    0.000    0.000    0.000    0.000 
#
# Total GULP energy -117156.372629 kJ/mol
# GULP energy per Si atom -5578.874887 kJ/mol
# Density = 1.974408 g / cm^3
# Si number density = 19.789122 Si / 1000 Ang^3
#
#
#
# Elastic Constant Matrix: (Units=GPa)
#
#
# Indices 1 2 3 4 5 6 
#
# 1 129.1803 42.0647 15.7589 0.0000 0.0000 0.0000
# 2 42.0647 124.3096 37.5220 0.0000 0.0000 0.0000
# 3 15.7589 37.5220 63.7455 0.0000 0.0000 0.0000
# 4 0.0000 0.0000 0.0000 4.5089 0.0000 0.0000
# 5 0.0000 0.0000 0.0000 0.0000 119.0093 0.0000
# 6 0.0000 0.0000 0.0000 0.0000 0.0000 20.6649
#
#
#
# Elastic Compliance Matrix: (Units=1/GPa)
#
#
# Indices 1 2 3 4 5 6 
#
# 1 0.008713 -0.002795 -0.000509 0.000000 0.000000 0.000000
# 2 -0.002795 0.010679 -0.005595 0.000000 0.000000 0.000000
# 3 -0.000509 -0.005595 0.019107 0.000000 0.000000 0.000000
# 4 0.000000 0.000000 0.000000 0.221784 0.000000 0.000000
# 5 0.000000 0.000000 0.000000 0.000000 0.008403 0.000000
# 6 0.000000 0.000000 0.000000 0.000000 0.000000 0.048391
#
#
# Mechanical properties :
#
#
# Convention : Reuss Voigt Hill
#
# Bulk Modulus (GPa) = 48.30620 56.43630 52.37125
# Shear Modulus (GPa) = 14.62951 43.62927 29.12939
#
# Velocity S-wave (km/s) = 2.72190 4.70053 3.84081
# Velocity P-wave (km/s) = 5.86019 7.61845 6.79642
#
# Compressibility (1/GPa) = 0.02070128
#
# Stress axis : x y z
#
# Youngs Moduli (GPa) = 114.76730 93.64197 52.33814
#
# Poissons Ratio (x) = 0.26171 0.02664
# Poissons Ratio (y) = 0.32076 0.29283
# Poissons Ratio (z) = 0.05841 0.52392
#
# Static dielectric constant tensor:
#      x y z
#    x 1.657030 0.000000 0.000000 
#    y 0.000000 1.617000 0.000000 
#    z 0.000000 0.000000 1.725010 
# 
# From -- ./inp_files/7524.got.cif
#   From: 2010.05.17/outbox.cif.g08.bks.cpg/sg16_4_cif.got.tgz:7524.got - 2010.06.03 22:28:35.
