data_PCOD9310912
_publ_section_title
;
Structure prediction by ZEFSAII (Michael W. Deem and Ramdas Pophale) SiO2 
 PCOD9310912
Probable space group: P 2 2 21
;
_chemical_formula_sum "Si O2"
_cell_formula_units_Z 14
_cell_length_a 8.542384
_cell_length_b 7.558340
_cell_length_c 9.030606
_cell_angle_alpha 90.000000
_cell_angle_beta 90.000000
_cell_angle_gamma 90.000000
_cell_volume 583.072299
_symmetry_space_group_name_H-M "P 2 2 21"
_symmetry_group_IT_number 17
_symmetry_cell_setting 'orthorhombic'
loop_
_space_group_symop_operation_xyz
x,y,z
-x,-y,1/2+z
x,-y,-z
-x,y,1/2-z
loop_
_atom_site_type_symbol
_atom_site_label
_atom_site_fract_x
_atom_site_fract_y
_atom_site_fract_z
Si Si1 0.168397 0.201904 0.046215
Si Si2 0.084702 0.500000 0.500000
Si Si3 0.667787 0.639656 0.818569
Si Si4 0.519835 0.809319 0.423210
O O1 0.246057 0.220574 0.210206
O O2 0.021610 0.327796 0.021508
O O3 0.311282 0.278409 0.948397
O O4 0.133077 0.000000 0.000000
O O5 0.197357 0.499810 0.356142
O O6 0.500000 0.581374 0.750000
O O7 0.611898 0.718475 0.976214
O O8 0.500000 0.828794 0.250000
O O9 0.534966 0.000000 0.500000
#
# Coordination Sequence:
#
# PCOD9310912 Si02
#       4
#     4   2   4   4
#     4  10  23  47  73 104 147 189 241 305 366 432
#     4  12  26  44  74 108 144 186 236 304 378 440
#     4  10  24  45  70 103 142 191 250 300 357 438
#     4  10  20  39  70 104 141 192 247 299 357 427
#
# _framework density 24.010745
#
# number of rings (size 3 to 8) (size 9 to 14) (size 15 to 20)
#    0.000    1.714    0.000    5.143    0.000   11.429 
#    0.000   11.429    0.000    1.714    0.000    0.000 
#    0.000    0.000    0.000    0.000    0.000    0.000 
#
# Total GULP energy -78219.330869 kJ/mol
# GULP energy per Si atom -5587.095062 kJ/mol
# Density = 2.395610 g / cm^3
# Si number density = 24.010745 Si / 1000 Ang^3
#
#
#
# Elastic Constant Matrix: (Units=GPa)
#
#
# Indices 1 2 3 4 5 6 
#
# 1 163.4861 91.0715 83.3677 0.0000 0.0000 0.0000
# 2 91.0715 123.2429 51.3920 0.0000 0.0000 0.0000
# 3 83.3677 51.3920 208.9446 0.0000 0.0000 0.0000
# 4 0.0000 0.0000 0.0000 37.6596 0.0000 0.0000
# 5 0.0000 0.0000 0.0000 0.0000 16.4749 0.0000
# 6 0.0000 0.0000 0.0000 0.0000 0.0000 38.9731
#
#
#
# Elastic Compliance Matrix: (Units=1/GPa)
#
#
# Indices 1 2 3 4 5 6 
#
# 1 0.011737 -0.007488 -0.002841 0.000000 0.000000 0.000000
# 2 -0.007488 0.013819 -0.000411 0.000000 0.000000 0.000000
# 3 -0.002841 -0.000411 0.006021 0.000000 0.000000 0.000000
# 4 0.000000 0.000000 0.000000 0.026554 0.000000 0.000000
# 5 0.000000 0.000000 0.000000 0.000000 0.060698 0.000000
# 6 0.000000 0.000000 0.000000 0.000000 0.000000 0.025659
#
#
# Mechanical properties :
#
#
# Convention : Reuss Voigt Hill
#
# Bulk Modulus (GPa) = 99.05455 105.25955 102.15705
# Shear Modulus (GPa) = 29.52741 36.61102 33.06922
#
# Velocity S-wave (km/s) = 3.51060 3.90908 3.71518
# Velocity P-wave (km/s) = 7.60107 8.01924 7.81295
#
# Compressibility (1/GPa) = 0.01009545
#
# Stress axis : x y z
#
# Youngs Moduli (GPa) = 85.20023 72.36336 166.09422
#
# Poissons Ratio (x) = 0.54189 0.47190
# Poissons Ratio (y) = 0.63802 0.06828
# Poissons Ratio (z) = 0.24207 0.02975
#
# Static dielectric constant tensor:
#      x y z
#    x 1.992880 0.000000 0.000000 
#    y 0.000000 1.969280 0.000000 
#    z 0.000000 0.000000 1.971640 
# 
# From -- ./inp_files/3671.got.cif
#   From: 2010.05.17/outbox.cif.g08.bks.cpg/sg17_2_cif.got.tgz:3671.got - 2010.06.03 22:34:06.
