data_PCOD9310375
_publ_section_title
;
Structure prediction by ZEFSAII (Michael W. Deem and Ramdas Pophale) SiO2 
 PCOD9310375
Probable space group: P 2 2 2
;
_chemical_formula_sum "Si O2"
_cell_formula_units_Z 25
_cell_length_a 12.689843
_cell_length_b 7.468704
_cell_length_c 11.464572
_cell_angle_alpha 90.000000
_cell_angle_beta 90.000000
_cell_angle_gamma 90.000000
_cell_volume 1086.574085
_symmetry_space_group_name_H-M "P 2 2 2"
_symmetry_group_IT_number 16
_symmetry_cell_setting 'orthorhombic'
loop_
_space_group_symop_operation_xyz
x,y,z
-x,-y,z
x,-y,-z
-x,y,-z
loop_
_atom_site_type_symbol
_atom_site_label
_atom_site_fract_x
_atom_site_fract_y
_atom_site_fract_z
Si Si1 0.917236 0.657138 0.143940
Si Si2 0.590044 0.097929 0.764144
Si Si3 0.676997 0.541857 0.131217
Si Si4 0.979084 0.211915 0.370306
Si Si5 0.248943 0.125886 0.609599
Si Si6 0.573444 0.659881 0.651456
Si Si7 0.000000 0.000000 0.000000
O O1 0.802993 0.569161 0.131661
O O2 0.000000 0.500000 0.113533
O O3 0.944167 0.700477 0.277944
O O4 0.934488 0.851056 0.077370
O O5 0.635127 0.265437 0.831240
O O6 0.510206 0.181287 0.668235
O O7 0.500000 0.000000 0.840311
O O8 0.685895 0.986890 0.706706
O O9 0.630165 0.402075 0.226388
O O10 0.643204 0.500000 0.000000
O O11 0.855089 0.220921 0.341939
O O12 0.000000 0.279726 0.500000
O O13 0.000000 0.000000 0.368217
O O14 0.332787 0.274919 0.569905
O O15 0.220856 0.000000 0.500000
O O16 0.500000 0.500000 0.616805
#
# Coordination Sequence:
#
# PCOD9310375 Si02
#       7
#     4   4   4   4   4   4   1
#     4  12  26  46  72 104 147 184 240 294 354 438
#     4   9  21  40  65  98 132 174 229 287 345 410
#     4  11  23  44  69  97 137 184 230 288 354 417
#     4  11  22  42  70 106 140 186 235 295 362 423
#     4  11  21  39  70 100 136 180 232 283 349 424
#     4   9  21  42  64  96 135 174 225 289 344 405
#     4  12  26  44  70 102 146 192 234 294 356 422
#
# _framework density 23.008094
#
# number of rings (size 3 to 8) (size 9 to 14) (size 15 to 20)
#    0.000    1.440    2.400    3.120    0.000    6.080 
#    2.880    8.000    0.000    0.000    0.000    0.000 
#    0.000    0.000    0.000    0.000    0.000    0.000 
#
# Total GULP energy -139526.820381 kJ/mol
# GULP energy per Si atom -5581.072815 kJ/mol
# Density = 2.295573 g / cm^3
# Si number density = 23.008094 Si / 1000 Ang^3
#
#
#
# Elastic Constant Matrix: (Units=GPa)
#
#
# Indices 1 2 3 4 5 6 
#
# 1 127.0369 24.1102 8.3129 0.0000 0.0000 0.0000
# 2 24.1102 109.2999 14.0171 0.0000 0.0000 0.0000
# 3 8.3129 14.0171 109.0237 0.0000 0.0000 0.0000
# 4 0.0000 0.0000 0.0000 15.5271 0.0000 0.0000
# 5 0.0000 0.0000 0.0000 0.0000 67.9258 0.0000
# 6 0.0000 0.0000 0.0000 0.0000 0.0000 41.8491
#
#
#
# Elastic Compliance Matrix: (Units=1/GPa)
#
#
# Indices 1 2 3 4 5 6 
#
# 1 0.008233 -0.001765 -0.000401 0.000000 0.000000 0.000000
# 2 -0.001765 0.009681 -0.001110 0.000000 0.000000 0.000000
# 3 -0.000401 -0.001110 0.009346 0.000000 0.000000 0.000000
# 4 0.000000 0.000000 0.000000 0.064404 0.000000 0.000000
# 5 0.000000 0.000000 0.000000 0.000000 0.014722 0.000000
# 6 0.000000 0.000000 0.000000 0.000000 0.000000 0.023895
#
#
# Mechanical properties :
#
#
# Convention : Reuss Voigt Hill
#
# Bulk Modulus (GPa) = 48.29049 48.69342 48.49196
# Shear Modulus (GPa) = 34.78647 44.98842 39.88744
#
# Velocity S-wave (km/s) = 3.89256 4.42671 4.16820
# Velocity P-wave (km/s) = 6.42159 6.88020 6.65485
#
# Compressibility (1/GPa) = 0.02070801
#
# Stress axis : x y z
#
# Youngs Moduli (GPa) = 121.46426 103.29767 107.00215
#
# Poissons Ratio (x) = 0.18229 0.04289
# Poissons Ratio (y) = 0.21434 0.11878
# Poissons Ratio (z) = 0.04869 0.11467
#
# Static dielectric constant tensor:
#      x y z
#    x 2.014350 0.000000 0.000000 
#    y 0.000000 2.104540 0.000000 
#    z 0.000000 0.000000 1.904800 
# 
# From -- ./inp_files/6842.got.cif
#   From: 2010.05.17/outbox.cif.g08.bks.cpg/sg16_4_cif.got.tgz:6842.got - 2010.06.03 22:28:35.
