data_PCOD9310286
_publ_section_title
;
Structure prediction by ZEFSAII (Michael W. Deem and Ramdas Pophale) SiO2 
 PCOD9310286
Probable space group: P 2 2 2
;
_chemical_formula_sum "Si O2"
_cell_formula_units_Z 20
_cell_length_a 8.826343
_cell_length_b 12.446626
_cell_length_c 8.369135
_cell_angle_alpha 90.000000
_cell_angle_beta 90.000000
_cell_angle_gamma 90.000000
_cell_volume 919.418025
_symmetry_space_group_name_H-M "P 2 2 2"
_symmetry_group_IT_number 16
_symmetry_cell_setting 'orthorhombic'
loop_
_space_group_symop_operation_xyz
x,y,z
-x,-y,z
x,-y,-z
-x,y,-z
loop_
_atom_site_type_symbol
_atom_site_label
_atom_site_fract_x
_atom_site_fract_y
_atom_site_fract_z
Si Si1 0.301806 0.754987 0.200907
Si Si2 0.201623 0.115927 0.093540
Si Si3 0.951819 0.122446 0.327639
Si Si4 0.604407 0.794423 0.353521
Si Si5 0.819246 0.621052 0.530406
O O1 0.477580 0.743500 0.237464
O O2 0.214340 0.657195 0.286490
O O3 0.222373 0.853587 0.299207
O O4 0.268179 0.793381 0.022986
O O5 0.044624 0.158160 0.171325
O O6 0.309139 0.115589 0.250524
O O7 0.191910 0.000000 0.000000
O O8 0.000000 0.165378 0.500000
O O9 0.000000 0.000000 0.331015
O O10 0.500000 0.833636 0.500000
O O11 0.721554 0.704662 0.421285
O O12 0.764800 0.500000 0.500000
O O13 0.000000 0.620906 0.500000
#
# Coordination Sequence:
#
# PCOD9310286 Si02
#       5
#     4   4   4   4   4
#     4  11  22  38  63  99 135 177 228 285 354 406
#     4  12  24  42  63  96 142 187 235 293 354 419
#     4  11  22  39  62  92 132 184 236 279 339 427
#     4  10  23  42  65  95 134 181 230 292 352 427
#     4  10  22  45  74 101 132 181 236 290 355 433
#
# _framework density 21.752891000000002
#
# number of rings (size 3 to 8) (size 9 to 14) (size 15 to 20)
#    0.000    1.200    2.000    5.400    0.000    5.200 
#    0.000    4.000    0.000    7.200    0.000    0.000 
#    0.000    0.000    0.000    0.000    0.000    0.000 
#
# Total GULP energy -111442.812650 kJ/mol
# GULP energy per Si atom -5572.140633 kJ/mol
# Density = 2.170338 g / cm^3
# Si number density = 21.752891 Si / 1000 Ang^3
#
#
#
# Elastic Constant Matrix: (Units=GPa)
#
#
# Indices 1 2 3 4 5 6 
#
# 1 144.7442 27.6146 53.3487 0.0000 0.0000 0.0000
# 2 27.6146 109.6133 46.8430 0.0000 0.0000 0.0000
# 3 53.3487 46.8430 151.3509 0.0000 0.0000 0.0000
# 4 0.0000 0.0000 0.0000 24.0220 0.0000 0.0000
# 5 0.0000 0.0000 0.0000 0.0000 53.0824 0.0000
# 6 0.0000 0.0000 0.0000 0.0000 0.0000 10.8736
#
#
#
# Elastic Compliance Matrix: (Units=1/GPa)
#
#
# Indices 1 2 3 4 5 6 
#
# 1 0.008023 -0.000937 -0.002538 0.000000 0.000000 0.000000
# 2 -0.000937 0.010623 -0.002958 0.000000 0.000000 0.000000
# 3 -0.002538 -0.002958 0.008417 0.000000 0.000000 0.000000
# 4 0.000000 0.000000 0.000000 0.041629 0.000000 0.000000
# 5 0.000000 0.000000 0.000000 0.000000 0.018839 0.000000
# 6 0.000000 0.000000 0.000000 0.000000 0.000000 0.091966
#
#
# Mechanical properties :
#
#
# Convention : Reuss Voigt Hill
#
# Bulk Modulus (GPa) = 70.43052 73.48010 71.95531
# Shear Modulus (GPa) = 25.36865 36.12238 30.74552
#
# Velocity S-wave (km/s) = 3.41870 4.07944 3.76360
# Velocity P-wave (km/s) = 6.93045 7.48611 7.21364
#
# Compressibility (1/GPa) = 0.01419839
#
# Stress axis : x y z
#
# Youngs Moduli (GPa) = 124.64351 94.13651 118.80455
#
# Poissons Ratio (x) = 0.08816 0.30153
# Poissons Ratio (y) = 0.11673 0.35138
# Poissons Ratio (z) = 0.31635 0.27842
#
# Static dielectric constant tensor:
#      x y z
#    x 1.878520 0.000000 0.000000 
#    y 0.000000 1.809910 0.000000 
#    z 0.000000 0.000000 1.933170 
# 
# From -- ./inp_files/3980.got.cif
#   From: 2010.05.17/outbox.cif.g08.bks.cpg/sg16_2_cif.got.tgz:3980.got - 2010.06.03 22:28:35.
