data_PCOD9310612
_publ_section_title
;
Structure prediction by ZEFSAII (Michael W. Deem and Ramdas Pophale) SiO2 
 PCOD9310612
Probable space group: P 2 2 21
;
_chemical_formula_sum "Si O2"
_cell_formula_units_Z 26
_cell_length_a 16.596770
_cell_length_b 18.004284
_cell_length_c 5.409651
_cell_angle_alpha 90.000000
_cell_angle_beta 90.000000
_cell_angle_gamma 90.000000
_cell_volume 1616.473831
_symmetry_space_group_name_H-M "P 2 2 21"
_symmetry_group_IT_number 17
_symmetry_cell_setting 'orthorhombic'
loop_
_space_group_symop_operation_xyz
x,y,z
-x,-y,1/2+z
x,-y,-z
-x,y,1/2-z
loop_
_atom_site_type_symbol
_atom_site_label
_atom_site_fract_x
_atom_site_fract_y
_atom_site_fract_z
Si Si1 0.811604 0.197384 0.495702
Si Si2 0.078338 0.586060 0.501566
Si Si3 0.926953 0.073298 0.614907
Si Si4 0.805688 0.000000 0.000000
Si Si5 0.276144 0.846725 0.516775
Si Si6 0.101043 0.645732 0.003799
Si Si7 0.448529 0.911995 0.499510
O O1 0.876926 0.131109 0.453738
O O2 0.754077 0.199423 0.255243
O O3 0.863385 0.272280 0.515188
O O4 0.764854 0.179913 0.756248
O O5 0.053305 0.500000 0.500000
O O6 0.125749 0.603627 0.252700
O O7 0.996709 0.635895 0.499035
O O8 0.125395 0.606468 0.748994
O O9 0.000000 0.114784 0.750000
O O10 0.966913 0.000000 0.500000
O O11 0.861512 0.035449 0.791387
O O12 0.752941 0.930554 0.918096
O O13 0.371622 0.857763 0.492837
O O14 0.500000 0.901010 0.250000
O O15 0.424669 0.000000 0.500000
O O16 0.500000 0.900094 0.750000
#
# Coordination Sequence:
#
# PCOD9310612 Si02
#       7
#     4   4   4   2   4   4   4
#     4  11  24  34  51  70  99 139 168 212 276 297
#     4  10  19  34  56  73  97 131 173 219 262 298
#     4  11  21  34  45  61  86 129 188 230 258 289
#     4  10  20  34  46  62  84 128 166 222 258 316
#     4  11  21  37  52  69 100 128 167 204 274 322
#     4  10  19  33  47  74  98 124 171 212 253 306
#     4  10  20  34  55  80  95 118 162 223 273 310
#
# _framework density 16.084394
#
# number of rings (size 3 to 8) (size 9 to 14) (size 15 to 20)
#    0.000    1.538    3.077    4.154    2.154    0.000 
#    5.538    0.000    0.000    0.000    0.000    0.000 
#    0.000    0.000    0.000    0.000    0.000  316.923 
#
# Total GULP energy -144745.297568 kJ/mol
# GULP energy per Si atom -5567.126830 kJ/mol
# Density = 1.604779 g / cm^3
# Si number density = 16.084394 Si / 1000 Ang^3
#
#
#
# Elastic Constant Matrix: (Units=GPa)
#
#
# Indices 1 2 3 4 5 6 
#
# 1 71.9854 38.3380 32.1218 0.0000 0.0000 0.0000
# 2 38.3380 85.1544 35.4778 0.0000 0.0000 0.0000
# 3 32.1218 35.4778 131.6841 0.0000 0.0000 0.0000
# 4 0.0000 0.0000 0.0000 20.1575 0.0000 0.0000
# 5 0.0000 0.0000 0.0000 0.0000 15.4832 0.0000
# 6 0.0000 0.0000 0.0000 0.0000 0.0000 -28.2169
#
#
#
# Elastic Compliance Matrix: (Units=1/GPa)
#
#
# Indices 1 2 3 4 5 6 
#
# 1 0.019050 -0.007480 -0.002632 0.000000 0.000000 0.000000
# 2 -0.007480 0.016165 -0.002531 0.000000 0.000000 0.000000
# 3 -0.002632 -0.002531 0.008918 0.000000 0.000000 0.000000
# 4 0.000000 0.000000 0.000000 0.049609 0.000000 0.000000
# 5 0.000000 0.000000 0.000000 0.000000 0.064586 0.000000
# 6 0.000000 0.000000 0.000000 0.000000 0.000000 -0.035440
#
#
# Mechanical properties :
#
#
# Convention : Reuss Voigt Hill
#
# Bulk Modulus (GPa) = 53.05543 55.63323 54.34433
# Shear Modulus (GPa) = 32.37165 13.67716 23.02440
#
# Velocity S-wave (km/s) = 4.49108 2.91922 3.78759
# Velocity P-wave (km/s) = 7.74276 6.78424 7.27929
#
# Compressibility (1/GPa) = 0.01884821
#
# Stress axis : x y z
#
# Youngs Moduli (GPa) = 52.49405 61.86049 112.13750
#
# Poissons Ratio (x) = 0.46273 0.29509
# Poissons Ratio (y) = 0.39266 0.28377
# Poissons Ratio (z) = 0.13814 0.15654
#
# Static dielectric constant tensor:
#      x y z
#    x 1.532350 0.000000 0.000000 
#    y 0.000000 1.534440 0.000000 
#    z 0.000000 0.000000 1.720250 
# 
# From -- ./inp_files/2274.got.cif
#   From: 2010.05.17/outbox.cif.g08.bks.cpg/sg17_2_cif.got.tgz:2274.got - 2010.06.03 22:34:06.
