data_PCOD9310452
_publ_section_title
;
Structure prediction by ZEFSAII (Michael W. Deem and Ramdas Pophale) SiO2 
 PCOD9310452
Probable space group: P 2 2 21
;
_chemical_formula_sum "Si O2"
_cell_formula_units_Z 32
_cell_length_a 15.195093
_cell_length_b 5.344937
_cell_length_c 22.589540
_cell_angle_alpha 90.000000
_cell_angle_beta 90.000000
_cell_angle_gamma 90.000000
_cell_volume 1834.650486
_symmetry_space_group_name_H-M "P 2 2 21"
_symmetry_group_IT_number 17
_symmetry_cell_setting 'orthorhombic'
loop_
_space_group_symop_operation_xyz
x,y,z
-x,-y,1/2+z
x,-y,-z
-x,y,1/2-z
loop_
_atom_site_type_symbol
_atom_site_label
_atom_site_fract_x
_atom_site_fract_y
_atom_site_fract_z
Si Si1 0.372697 0.527412 0.196026
Si Si2 0.668849 0.967072 0.851092
Si Si3 0.570794 0.532936 0.164794
Si Si4 0.056108 0.409329 0.689507
Si Si5 0.165891 0.037652 0.565887
Si Si6 0.101907 0.904381 0.730787
Si Si7 0.274870 0.972038 0.787509
Si Si8 0.052556 0.461425 0.434378
O O1 0.465332 0.528340 0.162203
O O2 0.400852 0.529849 0.265572
O O3 0.317473 0.275980 0.185171
O O4 0.314465 0.774629 0.185910
O O5 0.614818 0.713942 0.861967
O O6 0.697230 0.969754 0.781912
O O7 0.609528 0.211713 0.860864
O O8 0.755569 0.984796 0.889797
O O9 0.123271 0.637383 0.701360
O O10 0.005706 0.478718 0.628886
O O11 0.000000 0.389497 0.750000
O O12 0.102293 0.140655 0.687102
O O13 0.127438 0.320665 0.567727
O O14 0.202614 0.000000 0.500000
O O15 0.090760 0.819801 0.570088
O O16 0.169048 0.958916 0.783700
O O17 0.000000 0.879976 0.750000
O O18 0.010798 0.500000 0.500000
#
# Coordination Sequence:
#
# PCOD9310452 Si02
#       8
#     4   4   4   4   4   4   4   4
#     4   9  17  27  39  58  82 108 141 174 213 255
#     4  10  17  26  42  59  80 114 149 177 214 259
#     4   9  17  27  39  58  82 108 138 178 213 251
#     4  10  19  31  46  64  89 121 155 194 239 287
#     4  10  20  31  44  64  90 121 159 196 224 265
#     4  10  20  31  44  64  90 121 155 192 236 281
#     4  10  17  26  42  59  80 114 150 179 212 269
#     4  10  19  31  46  64  89 121 158 198 234 273
#
# _framework density 17.442014
#
# number of rings (size 3 to 8) (size 9 to 14) (size 15 to 20)
#    0.000    2.250    0.000    4.500    0.000    5.000 
#    0.000    0.000    0.000    0.000    0.000    0.000 
#    0.000    0.000    0.000   90.000    0.000   15.750 
#
# Total GULP energy -178188.258291 kJ/mol
# GULP energy per Si atom -5568.383072 kJ/mol
# Density = 1.740231 g / cm^3
# Si number density = 17.442014 Si / 1000 Ang^3
#
#
#
# Elastic Constant Matrix: (Units=GPa)
#
#
# Indices 1 2 3 4 5 6 
#
# 1 79.5585 28.6534 4.9738 0.0000 0.0000 0.0000
# 2 28.6534 142.5465 1.9984 0.0000 0.0000 0.0000
# 3 4.9738 1.9984 56.6143 0.0000 0.0000 0.0000
# 4 0.0000 0.0000 0.0000 12.7465 0.0000 0.0000
# 5 0.0000 0.0000 0.0000 0.0000 15.9979 0.0000
# 6 0.0000 0.0000 0.0000 0.0000 0.0000 -555.7272
#
#
#
# Elastic Compliance Matrix: (Units=1/GPa)
#
#
# Indices 1 2 3 4 5 6 
#
# 1 0.013619 -0.002722 -0.001100 0.000000 0.000000 0.000000
# 2 -0.002722 0.007563 -0.000028 0.000000 0.000000 0.000000
# 3 -0.001100 -0.000028 0.017761 0.000000 0.000000 0.000000
# 4 0.000000 0.000000 0.000000 0.078453 0.000000 0.000000
# 5 0.000000 0.000000 0.000000 0.000000 0.062508 0.000000
# 6 0.000000 0.000000 0.000000 0.000000 0.000000 -0.001799
#
#
# Mechanical properties :
#
#
# Convention : Reuss Voigt Hill
#
# Bulk Modulus (GPa) = 32.00828 38.88561 35.44694
# Shear Modulus (GPa) = 25.48181 -89.19031 -31.85425
#
# Velocity S-wave (km/s) = 3.82638 -7.15865 -4.27815
# Velocity P-wave (km/s) = 6.15732 6.78129 2.00913
#
# Compressibility (1/GPa) = 0.03124192
#
# Stress axis : x y z
#
# Youngs Moduli (GPa) = 73.42944 132.22611 56.30304
#
# Poissons Ratio (x) = 0.35992 0.06195
# Poissons Ratio (y) = 0.19988 0.00157
# Poissons Ratio (z) = 0.08080 0.00368
#
# Static dielectric constant tensor:
#      x y z
#    x 1.648220 0.000000 0.000000 
#    y 0.000000 1.654530 0.000000 
#    z 0.000000 0.000000 11.391170 
# 
# From -- ./inp_files/10669.got.cif
#   From: 2010.05.17/outbox.cif.g08.bks.cpg/sg17_6_cif.got.tgz:10669.got - 2010.06.03 22:34:06.
