data_PCOD9310907
_publ_section_title
;
Structure prediction by ZEFSAII (Michael W. Deem and Ramdas Pophale) SiO2 
 PCOD9310907
Probable space group: P 2 2 21
;
_chemical_formula_sum "Si O2"
_cell_formula_units_Z 24
_cell_length_a 8.268431
_cell_length_b 12.954838
_cell_length_c 8.808738
_cell_angle_alpha 90.000000
_cell_angle_beta 90.000000
_cell_angle_gamma 90.000000
_cell_volume 943.558401
_symmetry_space_group_name_H-M "P 2 2 21"
_symmetry_group_IT_number 17
_symmetry_cell_setting 'orthorhombic'
loop_
_space_group_symop_operation_xyz
x,y,z
-x,-y,1/2+z
x,-y,-z
-x,y,1/2-z
loop_
_atom_site_type_symbol
_atom_site_label
_atom_site_fract_x
_atom_site_fract_y
_atom_site_fract_z
Si Si1 0.981118 0.805101 0.431957
Si Si2 0.877665 0.536935 0.150176
Si Si3 0.166396 0.327935 0.169994
Si Si4 0.761500 0.000000 0.500000
Si Si5 0.339046 0.209256 0.418015
Si Si6 0.500000 0.971197 0.750000
Si Si7 0.462304 0.393272 0.575166
O O1 0.167062 0.800686 0.494378
O O2 0.000000 0.816840 0.250000
O O3 0.871032 0.708691 0.499313
O O4 0.881482 0.901443 0.503759
O O5 0.818515 0.445295 0.262715
O O6 0.730766 0.593544 0.074865
O O7 0.000000 0.600480 0.250000
O O8 0.969627 0.500000 0.000000
O O9 0.302677 0.266260 0.258555
O O10 0.000000 0.294547 0.250000
O O11 0.644827 0.980753 0.352316
O O12 0.409629 0.099723 0.374285
O O13 0.473076 0.281610 0.500823
O O14 0.528094 0.500000 0.500000
O O15 0.500000 0.392071 0.750000
#
# Coordination Sequence:
#
# PCOD9310907 Si02
#       7
#     4   4   4   2   4   2   4
#     4  11  27  47  80 114 150 199 263 329 390 472
#     4  10  20  39  67 102 141 196 262 316 363 438
#     4   9  18  42  69  99 143 195 248 309 385 438
#     4  12  30  50  82 120 150 204 258 318 412 472
#     4  11  24  49  73 107 156 201 258 313 399 463
#     4  12  30  50  82 114 158 200 250 332 404 484
#     4  11  25  45  69 108 155 212 264 315 375 468
#
# _framework density 25.435628000000001
#
# number of rings (size 3 to 8) (size 9 to 14) (size 15 to 20)
#    0.000    1.333    5.000    0.000    5.833    2.667 
#    3.000    1.667    0.000    0.000    0.000    0.000 
#    0.000    0.000    0.000    0.000    0.000    0.000 
#
# Total GULP energy -133831.399072 kJ/mol
# GULP energy per Si atom -5576.308295 kJ/mol
# Density = 2.537774 g / cm^3
# Si number density = 25.435628 Si / 1000 Ang^3
#
#
#
# Elastic Constant Matrix: (Units=GPa)
#
#
# Indices 1 2 3 4 5 6 
#
# 1 76.1179 23.5784 45.7000 0.0000 0.0000 0.0000
# 2 23.5784 99.5832 20.7194 0.0000 0.0000 0.0000
# 3 45.7000 20.7194 147.2942 0.0000 0.0000 0.0000
# 4 0.0000 0.0000 0.0000 21.3489 0.0000 0.0000
# 5 0.0000 0.0000 0.0000 0.0000 52.0184 0.0000
# 6 0.0000 0.0000 0.0000 0.0000 0.0000 -650.7544
#
#
#
# Elastic Compliance Matrix: (Units=1/GPa)
#
#
# Indices 1 2 3 4 5 6 
#
# 1 0.016979 -0.003012 -0.004844 0.000000 0.000000 0.000000
# 2 -0.003012 0.010879 -0.000596 0.000000 0.000000 0.000000
# 3 -0.004844 -0.000596 0.008376 0.000000 0.000000 0.000000
# 4 0.000000 0.000000 0.000000 0.046841 0.000000 0.000000
# 5 0.000000 0.000000 0.000000 0.000000 0.019224 0.000000
# 6 0.000000 0.000000 0.000000 0.000000 0.000000 -0.001537
#
#
# Mechanical properties :
#
#
# Convention : Reuss Voigt Hill
#
# Bulk Modulus (GPa) = 51.73434 55.88788 53.81111
# Shear Modulus (GPa) = 40.28695 -99.94424 -29.82864
#
# Velocity S-wave (km/s) = 3.98412 -6.27521 -3.42820
# Velocity P-wave (km/s) = 6.44575 5.52127 2.35194
#
# Compressibility (1/GPa) = 0.01932952
#
# Stress axis : x y z
#
# Youngs Moduli (GPa) = 58.89632 91.92013 119.38981
#
# Poissons Ratio (x) = 0.27688 0.57835
# Poissons Ratio (y) = 0.17741 0.07112
# Poissons Ratio (z) = 0.28531 0.05476
#
# Static dielectric constant tensor:
#      x y z
#    x 2.220880 0.000000 0.000000 
#    y 0.000000 2.137080 0.000000 
#    z 0.000000 0.000000 0.901520 
# 
# From -- ./inp_files/4306.got.cif
#   From: 2010.05.17/outbox.cif.g08.bks.cpg/sg17_3_cif.got.tgz:4306.got - 2010.06.03 22:34:06.
