data_PCOD9310623
_publ_section_title
;
Structure prediction by ZEFSAII (Michael W. Deem and Ramdas Pophale) SiO2 
 PCOD9310623
Probable space group: P 2 2 21
;
_chemical_formula_sum "Si O2"
_cell_formula_units_Z 24
_cell_length_a 17.732283
_cell_length_b 8.168266
_cell_length_c 8.834482
_cell_angle_alpha 90.000000
_cell_angle_beta 90.000000
_cell_angle_gamma 90.000000
_cell_volume 1279.604080
_symmetry_space_group_name_H-M "P 2 2 21"
_symmetry_group_IT_number 17
_symmetry_cell_setting 'orthorhombic'
loop_
_space_group_symop_operation_xyz
x,y,z
-x,-y,1/2+z
x,-y,-z
-x,y,1/2-z
loop_
_atom_site_type_symbol
_atom_site_label
_atom_site_fract_x
_atom_site_fract_y
_atom_site_fract_z
Si Si1 0.582525 0.974377 0.319630
Si Si2 0.075624 0.405428 0.844198
Si Si3 0.302126 0.157727 0.401225
Si Si4 0.223533 0.605097 0.793163
Si Si5 0.319941 0.303604 0.711317
Si Si6 0.803777 0.825425 0.421054
O O1 0.500000 0.998161 0.250000
O O2 0.609773 0.788277 0.286942
O O3 0.585625 0.000000 0.500000
O O4 0.637947 0.096642 0.225217
O O5 0.145903 0.505992 0.770703
O O6 0.111892 0.228257 0.878425
O O7 0.000000 0.398810 0.750000
O O8 0.059836 0.500000 0.000000
O O9 0.232789 0.243929 0.319789
O O10 0.330121 0.282965 0.531604
O O11 0.282815 0.000000 0.500000
O O12 0.293969 0.484435 0.760471
O O13 0.222789 0.685630 0.959293
O O14 0.250081 0.194281 0.776991
O O15 0.797564 0.000000 0.500000
#
# Coordination Sequence:
#
# PCOD9310623 Si02
#       6
#     4   4   4   4   4   4
#     4  11  22  38  59  84 118 155 189 232 286 343
#     4   9  20  36  56  80 112 151 191 235 289 341
#     4  10  20  34  56  87 114 145 187 232 283 336
#     4  10  20  36  58  84 113 150 192 235 285 344
#     4  10  19  33  56  84 112 145 189 235 278 336
#     4  10  19  35  58  83 111 148 193 239 286 344
#
# _framework density 18.755801999999999
#
# number of rings (size 3 to 8) (size 9 to 14) (size 15 to 20)
#    0.000    2.000    0.000    7.000    0.000    2.667 
#    0.000    4.167    0.000   19.000    0.000    0.000 
#    0.000    0.000    0.000    0.000    0.000    0.000 
#
# Total GULP energy -133746.455900 kJ/mol
# GULP energy per Si atom -5572.768996 kJ/mol
# Density = 1.871311 g / cm^3
# Si number density = 18.755802 Si / 1000 Ang^3
#
#
#
# Elastic Constant Matrix: (Units=GPa)
#
#
# Indices 1 2 3 4 5 6 
#
# 1 66.7075 39.8489 48.7894 0.0000 0.0000 0.0000
# 2 39.8489 87.0102 33.6273 0.0000 0.0000 0.0000
# 3 48.7894 33.6273 130.0984 0.0000 0.0000 0.0000
# 4 0.0000 0.0000 0.0000 28.9828 0.0000 0.0000
# 5 0.0000 0.0000 0.0000 0.0000 36.3788 0.0000
# 6 0.0000 0.0000 0.0000 0.0000 0.0000 20.1290
#
#
#
# Elastic Compliance Matrix: (Units=1/GPa)
#
#
# Indices 1 2 3 4 5 6 
#
# 1 0.025682 -0.008932 -0.007323 0.000000 0.000000 0.000000
# 2 -0.008932 0.015875 -0.000754 0.000000 0.000000 0.000000
# 3 -0.007323 -0.000754 0.010627 0.000000 0.000000 0.000000
# 4 0.000000 0.000000 0.000000 0.034503 0.000000 0.000000
# 5 0.000000 0.000000 0.000000 0.000000 0.027489 0.000000
# 6 0.000000 0.000000 0.000000 0.000000 0.000000 0.049680
#
#
# Mechanical properties :
#
#
# Convention : Reuss Voigt Hill
#
# Bulk Modulus (GPa) = 55.04159 58.70526 56.87342
# Shear Modulus (GPa) = 24.51845 27.86814 26.19329
#
# Velocity S-wave (km/s) = 3.61951 3.85884 3.74109
# Velocity P-wave (km/s) = 6.84675 7.15695 7.00357
#
# Compressibility (1/GPa) = 0.01816808
#
# Stress axis : x y z
#
# Youngs Moduli (GPa) = 38.93756 62.99299 94.09625
#
# Poissons Ratio (x) = 0.56265 0.68903
# Poissons Ratio (y) = 0.34779 0.07091
# Poissons Ratio (z) = 0.28513 0.04747
#
# Static dielectric constant tensor:
#      x y z
#    x 1.632930 0.000000 0.000000 
#    y 0.000000 1.722330 0.000000 
#    z 0.000000 0.000000 1.688310 
# 
# From -- ./inp_files/5436.got.cif
#   From: 2010.05.17/outbox.cif.g08.bks.cpg/sg17_3_cif.got.tgz:5436.got - 2010.06.03 22:34:06.
