data_PCOD9310450
_publ_section_title
;
Structure prediction by ZEFSAII (Michael W. Deem and Ramdas Pophale) SiO2 
 PCOD9310450
Probable space group: P 2 2 21
;
_chemical_formula_sum "Si O2"
_cell_formula_units_Z 24
_cell_length_a 5.188518
_cell_length_b 9.409740
_cell_length_c 20.512217
_cell_angle_alpha 90.000000
_cell_angle_beta 90.000000
_cell_angle_gamma 90.000000
_cell_volume 1001.459876
_symmetry_space_group_name_H-M "P 2 2 21"
_symmetry_group_IT_number 17
_symmetry_cell_setting 'orthorhombic'
loop_
_space_group_symop_operation_xyz
x,y,z
-x,-y,1/2+z
x,-y,-z
-x,y,1/2-z
loop_
_atom_site_type_symbol
_atom_site_label
_atom_site_fract_x
_atom_site_fract_y
_atom_site_fract_z
Si Si1 0.911888 0.000000 0.500000
Si Si2 0.272640 0.883768 0.611051
Si Si3 0.000000 0.626560 0.250000
Si Si4 0.235788 0.742322 0.077289
Si Si5 0.284923 0.795596 0.342996
Si Si6 0.085087 0.593368 0.634062
Si Si7 0.420048 0.358079 0.058625
O O1 0.749144 0.100171 0.546510
O O2 0.098203 0.093004 0.453578
O O3 0.139980 0.757905 0.653216
O O4 0.527819 0.804144 0.584606
O O5 0.296383 0.033880 0.646903
O O6 0.784211 0.742747 0.228836
O O7 0.928731 0.513286 0.193484
O O8 0.448949 0.729939 0.132438
O O9 0.325819 0.649290 0.015593
O O10 0.949741 0.742124 0.108500
O O11 0.309507 0.570629 0.579732
O O12 0.810281 0.581382 0.600715
#
# Coordination Sequence:
#
# PCOD9310450 Si02
#       7
#     2   4   2   4   4   4   4
#     4  10  16  34  72 110 156 154 200 298 366 432
#     4   9  20  38  69 111 126 176 215 279 355 402
#     4  12  30  56  60  92 142 198 248 274 324 400
#     4  11  20  39  67 112 133 170 207 289 359 413
#     4  11  26  39  72  96 144 177 222 279 348 399
#     4  10  24  41  73  89 136 185 230 275 330 403
#     4  10  19  41  71 107 129 164 225 282 343 414
#
# _framework density 23.965014
#
# number of rings (size 3 to 8) (size 9 to 14) (size 15 to 20)
#    1.000    0.667    1.667    4.000    2.333    5.333 
#    0.000    5.000    3.667    0.000    0.000    0.000 
#    0.000    0.000    0.000    0.000    0.000    0.000 
#
# Total GULP energy -133888.661895 kJ/mol
# GULP energy per Si atom -5578.694246 kJ/mol
# Density = 2.391047 g / cm^3
# Si number density = 23.965014 Si / 1000 Ang^3
#
#
#
# Elastic Constant Matrix: (Units=GPa)
#
#
# Indices 1 2 3 4 5 6 
#
# 1 112.3428 9.9680 12.2165 0.0000 0.0000 0.0000
# 2 9.9680 133.9381 32.1271 0.0000 0.0000 0.0000
# 3 12.2165 32.1271 48.4806 0.0000 0.0000 0.0000
# 4 0.0000 0.0000 0.0000 40.7915 0.0000 0.0000
# 5 0.0000 0.0000 0.0000 0.0000 17.0749 0.0000
# 6 0.0000 0.0000 0.0000 0.0000 0.0000 -17.3194
#
#
#
# Elastic Compliance Matrix: (Units=1/GPa)
#
#
# Indices 1 2 3 4 5 6 
#
# 1 0.009155 -0.000152 -0.002206 0.000000 0.000000 0.000000
# 2 -0.000152 0.008880 -0.005846 0.000000 0.000000 0.000000
# 3 -0.002206 -0.005846 0.025057 0.000000 0.000000 0.000000
# 4 0.000000 0.000000 0.000000 0.024515 0.000000 0.000000
# 5 0.000000 0.000000 0.000000 0.000000 0.058566 0.000000
# 6 0.000000 0.000000 0.000000 0.000000 0.000000 -0.057739
#
#
# Mechanical properties :
#
#
# Convention : Reuss Voigt Hill
#
# Bulk Modulus (GPa) = 37.47750 44.82051 41.14900
# Shear Modulus (GPa) = 53.34140 24.13938 38.74039
#
# Velocity S-wave (km/s) = 4.72296 3.17720 4.02498
# Velocity P-wave (km/s) = 6.73900 5.67473 6.22964
#
# Compressibility (1/GPa) = 0.02668268
#
# Stress axis : x y z
#
# Youngs Moduli (GPa) = 109.23331 112.61606 39.90939
#
# Poissons Ratio (x) = 0.01714 0.08804
# Poissons Ratio (y) = 0.01662 0.23331
# Poissons Ratio (z) = 0.24097 0.65836
#
# Static dielectric constant tensor:
#      x y z
#    x 1.897380 0.000000 0.000000 
#    y 0.000000 2.038990 0.000000 
#    z 0.000000 0.000000 1.909100 
# 
# From -- ./inp_files/10847.got.cif
#   From: 2010.05.17/outbox.cif.g08.bks.cpg/sg17_6_cif.got.tgz:10847.got - 2010.06.03 22:34:06.
