data_PCOD9310793
_publ_section_title
;
Structure prediction by ZEFSAII (Michael W. Deem and Ramdas Pophale) SiO2 
 PCOD9310793
Probable space group: P 2 2 21
;
_chemical_formula_sum "Si O2"
_cell_formula_units_Z 16
_cell_length_a 13.049766
_cell_length_b 13.577087
_cell_length_c 5.013349
_cell_angle_alpha 90.000000
_cell_angle_beta 90.000000
_cell_angle_gamma 90.000000
_cell_volume 888.254188
_symmetry_space_group_name_H-M "P 2 2 21"
_symmetry_group_IT_number 17
_symmetry_cell_setting 'orthorhombic'
loop_
_space_group_symop_operation_xyz
x,y,z
-x,-y,1/2+z
x,-y,-z
-x,y,1/2-z
loop_
_atom_site_type_symbol
_atom_site_label
_atom_site_fract_x
_atom_site_fract_y
_atom_site_fract_z
Si Si1 0.571508 0.382140 0.004997
Si Si2 0.072092 0.000000 0.000000
Si Si3 0.070763 0.500000 0.500000
Si Si4 0.878839 0.208399 0.691166
Si Si5 0.795444 0.688713 0.828497
O O1 0.500000 0.357279 0.750000
O O2 0.590461 0.500000 0.000000
O O3 0.500000 0.358724 0.250000
O O4 0.679708 0.333579 0.079625
O O5 0.131983 0.902467 0.084534
O O6 0.000000 0.027122 0.250000
O O7 0.139191 0.408148 0.406411
O O8 0.000000 0.471063 0.750000
O O9 0.826024 0.281040 0.473747
O O10 0.000000 0.226142 0.750000
O O11 0.830017 0.223633 0.978706
#
# Coordination Sequence:
#
# PCOD9310793 Si02
#       5
#     4   2   2   4   4
#     4  10  21  38  58  79 107 144 193 246 281 319
#     4  10  20  36  56  80 110 148 190 234 272 312
#     4  12  24  34  48  76 118 152 178 206 262 340
#     4  11  22  36  57  82 116 148 188 228 273 336
#     4  12  22  37  55  83 111 152 186 226 281 336
#
# _framework density 18.012861999999998
#
# number of rings (size 3 to 8) (size 9 to 14) (size 15 to 20)
#    0.000    1.000    1.250    9.000    0.000    0.000 
#    0.000    0.000    0.000    0.000    0.000   17.500 
#    0.000    0.000    0.000    0.000    0.000    0.000 
#
# Total GULP energy -89266.431756 kJ/mol
# GULP energy per Si atom -5579.151985 kJ/mol
# Density = 1.797186 g / cm^3
# Si number density = 18.012862 Si / 1000 Ang^3
#
#
#
# Elastic Constant Matrix: (Units=GPa)
#
#
# Indices 1 2 3 4 5 6 
#
# 1 123.5127 12.3323 22.7489 0.0000 0.0000 0.0000
# 2 12.3323 59.8273 -6.2186 0.0000 0.0000 0.0000
# 3 22.7489 -6.2186 100.5133 0.0000 0.0000 0.0000
# 4 0.0000 0.0000 0.0000 37.6695 0.0000 0.0000
# 5 0.0000 0.0000 0.0000 0.0000 36.4038 0.0000
# 6 0.0000 0.0000 0.0000 0.0000 0.0000 -0.5387
#
#
#
# Elastic Compliance Matrix: (Units=1/GPa)
#
#
# Indices 1 2 3 4 5 6 
#
# 1 0.008681 -0.002007 -0.002089 0.000000 0.000000 0.000000
# 2 -0.002007 0.017287 0.001524 0.000000 0.000000 0.000000
# 3 -0.002089 0.001524 0.010516 0.000000 0.000000 0.000000
# 4 0.000000 0.000000 0.000000 0.026547 0.000000 0.000000
# 5 0.000000 0.000000 0.000000 0.000000 0.027470 0.000000
# 6 0.000000 0.000000 0.000000 0.000000 0.000000 -1.856252
#
#
# Mechanical properties :
#
#
# Convention : Reuss Voigt Hill
#
# Bulk Modulus (GPa) = 31.90786 37.95318 34.93052
# Shear Modulus (GPa) = -2.85688 31.70630 14.42471
#
# Velocity S-wave (km/s) = -1.26074 4.20003 2.83291
# Velocity P-wave (km/s) = 3.95387 6.68103 5.48950
#
# Compressibility (1/GPa) = 0.03134024
#
# Stress axis : x y z
#
# Youngs Moduli (GPa) = 115.18814 57.84768 95.09324
#
# Poissons Ratio (x) = 0.11608 0.19865
# Poissons Ratio (y) = 0.23114 -0.14489
# Poissons Ratio (z) = 0.24063 -0.08814
#
# Static dielectric constant tensor:
#      x y z
#    x 1.567790 0.000000 0.000000 
#    y 0.000000 1.623870 0.000000 
#    z 0.000000 0.000000 1.644030 
# 
# From -- ./inp_files/1241.got.cif
#   From: 2010.05.17/outbox.cif.g08.bks.cpg/sg17_1_cif.got.tgz:1241.got - 2010.06.03 22:34:06.
