data_PCOD9310978
_publ_section_title
;
Structure prediction by ZEFSAII (Michael W. Deem and Ramdas Pophale) SiO2 
 PCOD9310978
Probable space group: P 2 2 21
;
_chemical_formula_sum "Si O2"
_cell_formula_units_Z 32
_cell_length_a 12.944186
_cell_length_b 14.704934
_cell_length_c 8.655138
_cell_angle_alpha 90.000000
_cell_angle_beta 90.000000
_cell_angle_gamma 90.000000
_cell_volume 1647.448401
_symmetry_space_group_name_H-M "P 2 2 21"
_symmetry_group_IT_number 17
_symmetry_cell_setting 'orthorhombic'
loop_
_space_group_symop_operation_xyz
x,y,z
-x,-y,1/2+z
x,-y,-z
-x,y,1/2-z
loop_
_atom_site_type_symbol
_atom_site_label
_atom_site_fract_x
_atom_site_fract_y
_atom_site_fract_z
Si Si1 0.585666 0.646483 0.923675
Si Si2 0.274823 0.906308 0.432984
Si Si3 0.804906 0.281548 0.548326
Si Si4 0.789354 0.293833 0.919686
Si Si5 0.004014 0.602364 0.437063
Si Si6 0.511180 0.855150 0.921526
Si Si7 0.289208 0.900603 0.064932
Si Si8 0.631447 0.409612 0.423279
O O1 0.545262 0.749945 0.900832
O O2 0.483731 0.600533 0.992792
O O3 0.615825 0.598597 0.761574
O O4 0.685950 0.654055 0.028939
O O5 0.218958 0.811005 0.476810
O O6 0.391884 0.898744 0.493666
O O7 0.281364 0.907437 0.248821
O O8 0.229304 0.000000 0.500000
O O9 0.793786 0.290234 0.733883
O O10 0.908837 0.335145 0.506573
O O11 0.793155 0.175167 0.510487
O O12 0.707349 0.329361 0.470146
O O13 0.889098 0.347566 0.978893
O O14 0.998280 0.500000 0.500000
O O15 0.000000 0.598393 0.250000
O O16 0.500000 0.895354 0.750000
O O17 0.403829 0.868240 0.011634
O O18 0.270459 0.000000 0.000000
O O19 0.677121 0.500000 0.500000
#
# Coordination Sequence:
#
# PCOD9310978 Si02
#       8
#     4   4   4   4   4   4   4   4
#     4  10  21  38  54  83 119 154 192 238 287 344
#     4  10  21  35  53  85 117 153 194 235 288 348
#     4  10  21  40  59  86 117 150 194 244 293 344
#     4   9  22  38  62  82 114 154 193 242 293 342
#     4  10  22  42  64  88 113 148 196 247 294 344
#     4  11  18  34  56  79 115 155 194 238 283 335
#     4  11  21  35  57  85 116 154 194 236 288 350
#     4  11  22  36  56  84 118 157 192 236 295 348
#
# _framework density 19.423977000000001
#
# number of rings (size 3 to 8) (size 9 to 14) (size 15 to 20)
#    0.000    1.750    2.500    1.875    0.000    7.000 
#    0.000    0.625    0.000    0.000    0.000    0.000 
#    0.000    0.000    0.000    0.000    0.000    0.000 
#
# Total GULP energy -178566.425890 kJ/mol
# GULP energy per Si atom -5580.200809 kJ/mol
# Density = 1.937977 g / cm^3
# Si number density = 19.423977 Si / 1000 Ang^3
#
#
#
# Elastic Constant Matrix: (Units=GPa)
#
#
# Indices 1 2 3 4 5 6 
#
# 1 115.9290 38.0257 15.1355 0.0000 0.0000 0.0000
# 2 38.0257 88.8631 23.0078 0.0000 0.0000 0.0000
# 3 15.1355 23.0078 26.7149 0.0000 0.0000 0.0000
# 4 0.0000 0.0000 0.0000 28.1075 0.0000 0.0000
# 5 0.0000 0.0000 0.0000 0.0000 -14.1788 0.0000
# 6 0.0000 0.0000 0.0000 0.0000 0.0000 26.2090
#
#
#
# Elastic Compliance Matrix: (Units=1/GPa)
#
#
# Indices 1 2 3 4 5 6 
#
# 1 0.010172 -0.003682 -0.002592 0.000000 0.000000 0.000000
# 2 -0.003682 0.015815 -0.011535 0.000000 0.000000 0.000000
# 3 -0.002592 -0.011535 0.048835 0.000000 0.000000 0.000000
# 4 0.000000 0.000000 0.000000 0.035578 0.000000 0.000000
# 5 0.000000 0.000000 0.000000 0.000000 -0.070528 0.000000
# 6 0.000000 0.000000 0.000000 0.000000 0.000000 0.038155
#
#
# Mechanical properties :
#
#
# Convention : Reuss Voigt Hill
#
# Bulk Modulus (GPa) = 25.50690 42.64943 34.07817
# Shear Modulus (GPa) = 39.45929 18.38340 28.92135
#
# Velocity S-wave (km/s) = 4.51208 3.07975 3.86288
# Velocity P-wave (km/s) = 6.34864 5.88653 6.12195
#
# Compressibility (1/GPa) = 0.03920508
#
# Stress axis : x y z
#
# Youngs Moduli (GPa) = 98.30910 63.23045 20.47701
#
# Poissons Ratio (x) = 0.23279 0.05308
# Poissons Ratio (y) = 0.36193 0.23620
# Poissons Ratio (z) = 0.25485 0.72935
#
# Static dielectric constant tensor:
#      x y z
#    x 1.656670 0.000000 0.000000 
#    y 0.000000 1.758070 0.000000 
#    z 0.000000 0.000000 1.621820 
# 
# From -- ./inp_files/4929.got.cif
#   From: 2010.05.17/outbox.cif.g08.bks.cpg/sg17_3_cif.got.tgz:4929.got - 2010.06.03 22:34:06.
