data_PCOD9310352
_publ_section_title
;
Structure prediction by ZEFSAII (Michael W. Deem and Ramdas Pophale) SiO2 
 PCOD9310352
Probable space group: P 2 2 2
;
_chemical_formula_sum "Si O2"
_cell_formula_units_Z 11
_cell_length_a 10.128257
_cell_length_b 4.925634
_cell_length_c 9.302429
_cell_angle_alpha 90.000000
_cell_angle_beta 90.000000
_cell_angle_gamma 90.000000
_cell_volume 464.080388
_symmetry_space_group_name_H-M "P 2 2 2"
_symmetry_group_IT_number 16
_symmetry_cell_setting 'orthorhombic'
loop_
_space_group_symop_operation_xyz
x,y,z
-x,-y,z
x,-y,-z
-x,y,-z
loop_
_atom_site_type_symbol
_atom_site_label
_atom_site_fract_x
_atom_site_fract_y
_atom_site_fract_z
Si Si1 0.000000 0.000000 0.500000
Si Si2 0.000000 0.000000 0.000000
Si Si3 0.187314 0.169880 0.762750
Si Si4 0.500000 0.000000 0.500000
Si Si5 0.627164 0.671661 0.248843
O O1 0.103467 0.875628 0.383437
O O2 0.087047 0.180971 0.894211
O O3 0.263676 0.445088 0.738735
O O4 0.294523 0.936759 0.809568
O O5 0.419392 0.199507 0.398471
O O6 0.500000 0.500000 0.187579
#
# Coordination Sequence:
#
# PCOD9310352 Si02
#       5
#     1   1   4   1   4
#     4  10  26  40  66 108 140 194 256 314 360 448
#     4  10  28  56  74 104 152 224 252 322 372 448
#     4  11  26  46  74 104 152 197 263 311 381 455
#     4  12  24  40  74 116 166 186 238 310 428 436
#     4  12  25  42  72 113 145 198 240 321 390 455
#
# _framework density 23.702791999999999
#
# number of rings (size 3 to 8) (size 9 to 14) (size 15 to 20)
#    0.000    0.727    3.636    1.636    5.091   10.182 
#    0.000    5.455    0.000    0.000    0.000    0.000 
#    0.000    0.000    0.000    0.000    0.000    0.000 
#
# Total GULP energy -61360.530048 kJ/mol
# GULP energy per Si atom -5578.230004 kJ/mol
# Density = 2.364884 g / cm^3
# Si number density = 23.702792 Si / 1000 Ang^3
#
#
#
# Elastic Constant Matrix: (Units=GPa)
#
#
# Indices 1 2 3 4 5 6 
#
# 1 81.4920 46.6549 67.1695 0.0000 0.0000 0.0000
# 2 46.6549 165.3411 37.5828 0.0000 0.0000 0.0000
# 3 67.1695 37.5828 147.7254 0.0000 0.0000 0.0000
# 4 0.0000 0.0000 0.0000 21.4109 0.0000 0.0000
# 5 0.0000 0.0000 0.0000 0.0000 32.1838 0.0000
# 6 0.0000 0.0000 0.0000 0.0000 0.0000 13.0984
#
#
#
# Elastic Compliance Matrix: (Units=1/GPa)
#
#
# Indices 1 2 3 4 5 6 
#
# 1 0.022056 -0.004186 -0.008964 0.000000 0.000000 0.000000
# 2 -0.004186 0.007214 0.000068 0.000000 0.000000 0.000000
# 3 -0.008964 0.000068 0.010828 0.000000 0.000000 0.000000
# 4 0.000000 0.000000 0.000000 0.046705 0.000000 0.000000
# 5 0.000000 0.000000 0.000000 0.000000 0.031072 0.000000
# 6 0.000000 0.000000 0.000000 0.000000 0.000000 0.076345
#
#
# Mechanical properties :
#
#
# Convention : Reuss Voigt Hill
#
# Bulk Modulus (GPa) = 71.76607 77.48588 74.62598
# Shear Modulus (GPa) = 22.21951 29.54871 25.88411
#
# Velocity S-wave (km/s) = 3.06506 3.53460 3.30817
# Velocity P-wave (km/s) = 6.54746 7.02990 6.79296
#
# Compressibility (1/GPa) = 0.01393416
#
# Stress axis : x y z
#
# Youngs Moduli (GPa) = 45.33901 138.62253 92.35559
#
# Poissons Ratio (x) = 0.58029 0.82785
# Poissons Ratio (y) = 0.18980 -0.00629
# Poissons Ratio (z) = 0.40641 -0.00944
#
# Static dielectric constant tensor:
#      x y z
#    x 1.975520 0.000000 0.000000 
#    y 0.000000 1.867250 0.000000 
#    z 0.000000 0.000000 1.889010 
# 
# From -- ./inp_files/4266.got.cif
#   From: 2010.05.17/outbox.cif.g08.bks.cpg/sg16_3_cif.got.tgz:4266.got - 2010.06.03 22:28:35.
