data_PCOD9310578
_publ_section_title
;
Structure prediction by ZEFSAII (Michael W. Deem and Ramdas Pophale) SiO2 
 PCOD9310578
Probable space group: P 2 2 21
;
_chemical_formula_sum "Si O2"
_cell_formula_units_Z 20
_cell_length_a 15.363153
_cell_length_b 13.089150
_cell_length_c 5.005438
_cell_angle_alpha 90.000000
_cell_angle_beta 90.000000
_cell_angle_gamma 90.000000
_cell_volume 1006.546601
_symmetry_space_group_name_H-M "P 2 2 21"
_symmetry_group_IT_number 17
_symmetry_cell_setting 'orthorhombic'
loop_
_space_group_symop_operation_xyz
x,y,z
-x,-y,1/2+z
x,-y,-z
-x,y,1/2-z
loop_
_atom_site_type_symbol
_atom_site_label
_atom_site_fract_x
_atom_site_fract_y
_atom_site_fract_z
Si Si1 0.054587 0.376905 0.998936
Si Si2 0.636538 0.390026 0.935768
Si Si3 0.676920 0.885274 0.528938
Si Si4 0.574587 0.829811 0.034908
Si Si5 0.254229 0.669303 0.918828
O O1 0.000000 0.338502 0.750000
O O2 0.051331 0.500000 0.000000
O O3 0.155919 0.350990 0.000699
O O4 0.000000 0.339201 0.250000
O O5 0.574193 0.293172 0.999355
O O6 0.677143 0.371837 0.641938
O O7 0.595265 0.500000 0.000000
O O8 0.717139 0.382588 0.142682
O O9 0.655559 0.855254 0.224352
O O10 0.734389 0.790687 0.623571
O O11 0.709552 0.000000 0.500000
O O12 0.595766 0.880030 0.745995
O O13 0.500000 0.860205 0.250000
#
# Coordination Sequence:
#
# PCOD9310578 Si02
#       5
#     4   4   4   4   4
#     4  10  19  30  48  76 107 138 170 209 261 311
#     4  10  19  33  53  76 104 142 177 208 256 315
#     4  10  21  37  57  77 100 136 178 220 267 309
#     4  10  21  36  53  79 107 131 170 219 265 316
#     4  10  20  34  53  76 106 139 178 220 255 311
#
# _framework density 19.869918999999999
#
# number of rings (size 3 to 8) (size 9 to 14) (size 15 to 20)
#    0.000    2.000    0.000    4.200    0.000    3.200 
#    0.000    6.000    0.000    1.200    0.000    0.000 
#    0.000    0.000    0.000    0.000    0.000    0.000 
#
# Total GULP energy -111425.358535 kJ/mol
# GULP energy per Si atom -5571.267927 kJ/mol
# Density = 1.982469 g / cm^3
# Si number density = 19.869919 Si / 1000 Ang^3
#
#
#
# Elastic Constant Matrix: (Units=GPa)
#
#
# Indices 1 2 3 4 5 6 
#
# 1 25.0083 -22.7127 15.7205 0.0000 0.0000 0.0000
# 2 -22.7127 95.5365 8.4065 0.0000 0.0000 0.0000
# 3 15.7205 8.4065 131.9101 0.0000 0.0000 0.0000
# 4 0.0000 0.0000 0.0000 23.8897 0.0000 0.0000
# 5 0.0000 0.0000 0.0000 0.0000 24.1703 0.0000
# 6 0.0000 0.0000 0.0000 0.0000 0.0000 -4.1986
#
#
#
# Elastic Compliance Matrix: (Units=1/GPa)
#
#
# Indices 1 2 3 4 5 6 
#
# 1 0.058088 0.014500 -0.007847 0.000000 0.000000 0.000000
# 2 0.014500 0.014146 -0.002630 0.000000 0.000000 0.000000
# 3 -0.007847 -0.002630 0.008684 0.000000 0.000000 0.000000
# 4 0.000000 0.000000 0.000000 0.041859 0.000000 0.000000
# 5 0.000000 0.000000 0.000000 0.000000 0.041373 0.000000
# 6 0.000000 0.000000 0.000000 0.000000 0.000000 -0.238176
#
#
# Mechanical properties :
#
#
# Convention : Reuss Voigt Hill
#
# Bulk Modulus (GPa) = 11.24028 28.36485 19.80256
# Shear Modulus (GPa) = -95.38664 25.50832 -34.93916
#
# Velocity S-wave (km/s) = -6.93612 3.58685 -4.19787
# Velocity P-wave (km/s) = 7.64703 5.60895 3.67538
#
# Compressibility (1/GPa) = 0.08896574
#
# Stress axis : x y z
#
# Youngs Moduli (GPa) = 17.21513 70.69207 115.15895
#
# Poissons Ratio (x) = -1.02506 0.90363
# Poissons Ratio (y) = -0.24962 0.30282
# Poissons Ratio (z) = 0.13508 0.18589
#
# Static dielectric constant tensor:
#      x y z
#    x 1.717470 0.000000 0.000000 
#    y 0.000000 1.761790 0.000000 
#    z 0.000000 0.000000 1.714440 
# 
# From -- ./inp_files/1450.got.cif
#   From: 2010.05.17/outbox.cif.g08.bks.cpg/sg17_1_cif.got.tgz:1450.got - 2010.06.03 22:34:06.
