data_PCOD9310906
_publ_section_title
;
Structure prediction by ZEFSAII (Michael W. Deem and Ramdas Pophale) SiO2 
 PCOD9310906
Probable space group: P 2 2 21
;
_chemical_formula_sum "Si O2"
_cell_formula_units_Z 22
_cell_length_a 7.312284
_cell_length_b 9.361662
_cell_length_c 12.011028
_cell_angle_alpha 90.000000
_cell_angle_beta 90.000000
_cell_angle_gamma 90.000000
_cell_volume 822.216498
_symmetry_space_group_name_H-M "P 2 2 21"
_symmetry_group_IT_number 17
_symmetry_cell_setting 'orthorhombic'
loop_
_space_group_symop_operation_xyz
x,y,z
-x,-y,1/2+z
x,-y,-z
-x,y,1/2-z
loop_
_atom_site_type_symbol
_atom_site_label
_atom_site_fract_x
_atom_site_fract_y
_atom_site_fract_z
Si Si1 0.038295 0.163182 0.487158
Si Si2 0.500000 0.713004 0.750000
Si Si3 0.213510 0.481748 0.769371
Si Si4 0.465326 0.200868 0.492945
Si Si5 0.619354 0.500000 0.500000
Si Si6 0.243092 0.172150 0.830877
Si Si7 0.000000 0.079645 0.250000
O O1 0.253690 0.167579 0.505076
O O2 0.914902 0.231616 0.582778
O O3 0.004877 0.182064 0.356556
O O4 0.977135 0.000000 0.500000
O O5 0.339366 0.602129 0.711433
O O6 0.472112 0.805364 0.862508
O O7 0.254760 0.526629 0.895549
O O8 0.276806 0.315018 0.757798
O O9 0.000000 0.489367 0.750000
O O10 0.496471 0.365259 0.523510
O O11 0.592155 0.128055 0.586786
O O12 0.166383 0.035929 0.762823
#
# Coordination Sequence:
#
# PCOD9310906 Si02
#       7
#     4   2   4   4   2   4   2
#     4  10  24  43  67  98 128 178 231 281 347 408
#     4  10  24  38  60 104 132 172 230 268 336 440
#     4  10  20  39  66  93 129 176 215 271 350 404
#     4  10  22  42  64  94 138 174 215 285 346 402
#     4   8  20  40  60 100 132 162 222 280 322 434
#     4  10  22  43  67  96 134 172 227 294 332 413
#     4  10  22  46  68  98 134 178 248 282 338 428
#
# _framework density 26.756943
#
# number of rings (size 3 to 8) (size 9 to 14) (size 15 to 20)
#    0.000    2.182    0.909    0.000    2.545   10.909 
#    0.000    1.818    0.000    0.000    0.000    0.000 
#    0.000    0.000    0.000    0.000    0.000    0.000 
#
# Total GULP energy -123054.077462 kJ/mol
# GULP energy per Si atom -5593.367157 kJ/mol
# Density = 2.669604 g / cm^3
# Si number density = 26.756943 Si / 1000 Ang^3
#
#
#
# Elastic Constant Matrix: (Units=GPa)
#
#
# Indices 1 2 3 4 5 6 
#
# 1 134.3286 20.4135 19.9322 0.0000 0.0000 0.0000
# 2 20.4135 113.3090 14.0187 0.0000 0.0000 0.0000
# 3 19.9322 14.0187 110.8387 0.0000 0.0000 0.0000
# 4 0.0000 0.0000 0.0000 18.9633 0.0000 0.0000
# 5 0.0000 0.0000 0.0000 0.0000 35.9683 0.0000
# 6 0.0000 0.0000 0.0000 0.0000 0.0000 39.8103
#
#
#
# Elastic Compliance Matrix: (Units=1/GPa)
#
#
# Indices 1 2 3 4 5 6 
#
# 1 0.007820 -0.001255 -0.001248 0.000000 0.000000 0.000000
# 2 -0.001255 0.009167 -0.000934 0.000000 0.000000 0.000000
# 3 -0.001248 -0.000934 0.009365 0.000000 0.000000 0.000000
# 4 0.000000 0.000000 0.000000 0.052733 0.000000 0.000000
# 5 0.000000 0.000000 0.000000 0.000000 0.027802 0.000000
# 6 0.000000 0.000000 0.000000 0.000000 0.000000 0.025119
#
#
# Mechanical properties :
#
#
# Convention : Reuss Voigt Hill
#
# Bulk Modulus (GPa) = 51.33521 51.91168 51.62345
# Shear Modulus (GPa) = 34.39459 39.22252 36.80856
#
# Velocity S-wave (km/s) = 3.58920 3.83284 3.71302
# Velocity P-wave (km/s) = 6.03356 6.24747 6.14145
#
# Compressibility (1/GPa) = 0.01947981
#
# Stress axis : x y z
#
# Youngs Moduli (GPa) = 127.87390 109.08731 106.78517
#
# Poissons Ratio (x) = 0.13685 0.13323
# Poissons Ratio (y) = 0.16042 0.09972
# Poissons Ratio (z) = 0.15954 0.10187
#
# Static dielectric constant tensor:
#      x y z
#    x 2.347970 0.000000 0.000000 
#    y 0.000000 2.096390 0.000000 
#    z 0.000000 0.000000 2.336750 
# 
# From -- ./inp_files/7676.got.cif
#   From: 2010.05.17/outbox.cif.g08.bks.cpg/sg17_4_cif.got.tgz:7676.got - 2010.06.03 22:34:06.
