data_PCOD9310274
_publ_section_title
;
Structure prediction by ZEFSAII (Michael W. Deem and Ramdas Pophale) SiO2 
 PCOD9310274
Probable space group: P 2 2 2
;
_chemical_formula_sum "Si O2"
_cell_formula_units_Z 16
_cell_length_a 5.148949
_cell_length_b 8.888845
_cell_length_c 15.431408
_cell_angle_alpha 90.000000
_cell_angle_beta 90.000000
_cell_angle_gamma 90.000000
_cell_volume 706.267915
_symmetry_space_group_name_H-M "P 2 2 2"
_symmetry_group_IT_number 16
_symmetry_cell_setting 'orthorhombic'
loop_
_space_group_symop_operation_xyz
x,y,z
-x,-y,z
x,-y,-z
-x,y,-z
loop_
_atom_site_type_symbol
_atom_site_label
_atom_site_fract_x
_atom_site_fract_y
_atom_site_fract_z
Si Si1 0.433714 0.331533 0.102287
Si Si2 0.746113 0.568692 0.596699
Si Si3 0.073645 0.165952 0.833097
Si Si4 0.768099 0.096267 0.361767
O O1 0.500000 0.500000 0.132842
O O2 0.640877 0.216013 0.140331
O O3 0.145969 0.279077 0.130501
O O4 0.500000 0.330002 0.000000
O O5 0.500000 0.500000 0.644294
O O6 0.748284 0.500000 0.500000
O O7 0.722340 0.746790 0.590192
O O8 0.000000 0.500000 0.640354
O O9 0.103112 0.150011 0.729443
O O10 0.000000 0.000000 0.866466
O O11 0.500000 0.000000 0.352414
O O12 0.000000 0.000000 0.402972
#
# Coordination Sequence:
#
# PCOD9310274 Si02
#       4
#     4   4   4   4
#     4  11  24  41  61  90 127 167 212 263 321 383
#     4  10  22  42  64  94 129 165 214 266 319 390
#     4  11  23  40  62  91 124 164 215 264 319 384
#     4  11  23  42  65  93 129 169 214 270 329 386
#
# _framework density 22.654292000000002
#
# number of rings (size 3 to 8) (size 9 to 14) (size 15 to 20)
#    0.000    1.250    0.000    6.750    0.000    8.000 
#    0.000   15.000    0.000    0.000    0.000    0.000 
#    0.000    0.000    0.000    0.000    0.000    0.000 
#
# Total GULP energy -89360.670169 kJ/mol
# GULP energy per Si atom -5585.041886 kJ/mol
# Density = 2.260273 g / cm^3
# Si number density = 22.654292 Si / 1000 Ang^3
#
#
#
# Elastic Constant Matrix: (Units=GPa)
#
#
# Indices 1 2 3 4 5 6 
#
# 1 155.2031 20.3050 -1.2345 0.0000 0.0000 0.0000
# 2 20.3050 142.6679 14.9848 0.0000 0.0000 0.0000
# 3 -1.2345 14.9848 73.9219 0.0000 0.0000 0.0000
# 4 0.0000 0.0000 0.0000 16.3026 0.0000 0.0000
# 5 0.0000 0.0000 0.0000 0.0000 14.4980 0.0000
# 6 0.0000 0.0000 0.0000 0.0000 0.0000 46.1106
#
#
#
# Elastic Compliance Matrix: (Units=1/GPa)
#
#
# Indices 1 2 3 4 5 6 
#
# 1 0.006572 -0.000968 0.000306 0.000000 0.000000 0.000000
# 2 -0.000968 0.007304 -0.001497 0.000000 0.000000 0.000000
# 3 0.000306 -0.001497 0.013836 0.000000 0.000000 0.000000
# 4 0.000000 0.000000 0.000000 0.061340 0.000000 0.000000
# 5 0.000000 0.000000 0.000000 0.000000 0.068975 0.000000
# 6 0.000000 0.000000 0.000000 0.000000 0.000000 0.021687
#
#
# Mechanical properties :
#
#
# Convention : Reuss Voigt Hill
#
# Bulk Modulus (GPa) = 42.74265 48.87817 45.81041
# Shear Modulus (GPa) = 26.06474 37.89808 31.98141
#
# Velocity S-wave (km/s) = 3.39565 4.09453 3.76136
# Velocity P-wave (km/s) = 5.85510 6.63145 6.25533
#
# Compressibility (1/GPa) = 0.02339584
#
# Stress axis : x y z
#
# Youngs Moduli (GPa) = 152.15649 136.90755 72.27358
#
# Poissons Ratio (x) = 0.13246 -0.02211
# Poissons Ratio (y) = 0.14721 0.10818
# Poissons Ratio (z) = -0.04654 0.20492
#
# Static dielectric constant tensor:
#      x y z
#    x 1.825100 0.000000 0.000000 
#    y 0.000000 1.840530 0.000000 
#    z 0.000000 0.000000 1.859590 
# 
# From -- ./inp_files/8471.got.cif
#   From: 2010.05.17/outbox.cif.g08.bks.cpg/sg16_5_cif.got.tgz:8471.got - 2010.06.03 22:28:35.
