data_PCOD9310052
_publ_section_title
;
Structure prediction by ZEFSAII (Michael W. Deem and Ramdas Pophale) SiO2 
 PCOD9310052
Probable space group: P 2 2 2
;
_chemical_formula_sum "Si O2"
_cell_formula_units_Z 24
_cell_length_a 7.124134
_cell_length_b 26.529906
_cell_length_c 5.234437
_cell_angle_alpha 90.000000
_cell_angle_beta 90.000000
_cell_angle_gamma 90.000000
_cell_volume 989.322231
_symmetry_space_group_name_H-M "P 2 2 2"
_symmetry_group_IT_number 16
_symmetry_cell_setting 'orthorhombic'
loop_
_space_group_symop_operation_xyz
x,y,z
-x,-y,z
x,-y,-z
-x,y,-z
loop_
_atom_site_type_symbol
_atom_site_label
_atom_site_fract_x
_atom_site_fract_y
_atom_site_fract_z
Si Si1 0.127039 0.720842 0.256959
Si Si2 0.724119 0.616512 0.511811
Si Si3 0.223993 0.133692 0.066332
Si Si4 0.778240 0.824065 0.568156
Si Si5 0.271413 0.441559 0.999296
Si Si6 0.287933 0.022687 0.248173
O O1 0.224203 0.669844 0.356568
O O2 0.247213 0.772004 0.271264
O O3 0.000000 0.731887 0.500000
O O4 0.000000 0.716016 0.000000
O O5 0.500000 0.615872 0.500000
O O6 0.786211 0.596219 0.231630
O O7 0.791548 0.577818 0.724761
O O8 0.293312 0.174797 0.276526
O O9 0.271830 0.082051 0.209390
O O10 0.300012 0.136190 0.775845
O O11 0.000000 0.139025 0.000000
O O12 0.000000 0.834694 0.500000
O O13 0.216633 0.500000 0.000000
O O14 0.500000 0.440607 0.000000
O O15 0.500000 0.000000 0.249025
O O16 0.201415 0.000000 0.500000
O O17 0.196191 0.000000 0.000000
#
# Coordination Sequence:
#
# PCOD9310052 Si02
#       6
#     4   4   4   4   4   4
#     4  11  21  36  59  85 117 156 195 236 299 370
#     4  10  20  34  56  83 117 151 191 255 296 345
#     4  10  19  34  57  83 109 140 187 239 280 326
#     4   9  18  33  55  83 110 142 185 237 286 334
#     4   9  17  31  53  82 111 150 199 247 299 347
#     4  10  21  37  57  79 113 153 182 225 280 350
#
# _framework density 24.259035000000001
#
# number of rings (size 3 to 8) (size 9 to 14) (size 15 to 20)
#    0.000    2.167    0.000    5.000    0.000    2.333 
#    0.000    0.833   11.000    7.500    0.000    0.000 
#    0.000    0.000    0.000    0.000    0.000    0.000 
#
# Total GULP energy -133630.744792 kJ/mol
# GULP energy per Si atom -5567.947700 kJ/mol
# Density = 2.420382 g / cm^3
# Si number density = 24.259035 Si / 1000 Ang^3
#
#
#
# Elastic Constant Matrix: (Units=GPa)
#
#
# Indices 1 2 3 4 5 6 
#
# 1 91.9524 -4.2751 22.8719 0.0000 0.0000 0.0000
# 2 -4.2751 120.3883 77.0030 0.0000 0.0000 0.0000
# 3 22.8719 77.0030 248.6277 0.0000 0.0000 0.0000
# 4 0.0000 0.0000 0.0000 46.0772 0.0000 0.0000
# 5 0.0000 0.0000 0.0000 0.0000 -148.5014 0.0000
# 6 0.0000 0.0000 0.0000 0.0000 0.0000 30.9308
#
#
#
# Elastic Compliance Matrix: (Units=1/GPa)
#
#
# Indices 1 2 3 4 5 6 
#
# 1 0.011298 0.001329 -0.001451 0.000000 0.000000 0.000000
# 2 0.001329 0.010515 -0.003379 0.000000 0.000000 0.000000
# 3 -0.001451 -0.003379 0.005202 0.000000 0.000000 0.000000
# 4 0.000000 0.000000 0.000000 0.021703 0.000000 0.000000
# 5 0.000000 0.000000 0.000000 0.000000 -0.006734 0.000000
# 6 0.000000 0.000000 0.000000 0.000000 0.000000 0.032330
#
#
# Mechanical properties :
#
#
# Convention : Reuss Voigt Hill
#
# Bulk Modulus (GPa) = 49.96594 72.46313 61.21453
# Shear Modulus (GPa) = 56.82711 10.05924 33.44317
#
# Velocity S-wave (km/s) = 4.84520 2.03853 3.71696
# Velocity P-wave (km/s) = 7.20714 5.95619 6.61132
#
# Compressibility (1/GPa) = 0.02001363
#
# Stress axis : x y z
#
# Youngs Moduli (GPa) = 88.51192 95.10357 192.23246
#
# Poissons Ratio (x) = -0.12642 0.27893
# Poissons Ratio (y) = -0.11766 0.64953
# Poissons Ratio (z) = 0.12843 0.32134
#
# Static dielectric constant tensor:
#      x y z
#    x 1.969270 0.000000 0.000000 
#    y 0.000000 2.364680 0.000000 
#    z 0.000000 0.000000 1.761730 
# 
# From -- ./inp_files/978.got.cif
#   From: 2010.05.17/outbox.cif.g08.bks.cpg/sg16_1_cif.got.tgz:978.got - 2010.06.03 22:28:35.
