data_PCOD9310215
_publ_section_title
;
Structure prediction by ZEFSAII (Michael W. Deem and Ramdas Pophale) SiO2 
 PCOD9310215
Probable space group: P 2 2 2
;
_chemical_formula_sum "Si O2"
_cell_formula_units_Z 32
_cell_length_a 11.694475
_cell_length_b 16.018514
_cell_length_c 8.853145
_cell_angle_alpha 90.000000
_cell_angle_beta 90.000000
_cell_angle_gamma 90.000000
_cell_volume 1658.442934
_symmetry_space_group_name_H-M "P 2 2 2"
_symmetry_group_IT_number 16
_symmetry_cell_setting 'orthorhombic'
loop_
_space_group_symop_operation_xyz
x,y,z
-x,-y,z
x,-y,-z
-x,y,-z
loop_
_atom_site_type_symbol
_atom_site_label
_atom_site_fract_x
_atom_site_fract_y
_atom_site_fract_z
Si Si1 0.700727 0.649025 0.314620
Si Si2 0.235207 0.157174 0.301649
Si Si3 0.256516 0.647788 0.341748
Si Si4 0.135985 0.506755 0.818807
Si Si5 0.878054 0.812091 0.588856
Si Si6 0.532499 0.092895 0.821699
Si Si7 0.475573 0.719349 0.179523
Si Si8 0.000784 0.906767 0.821900
O O1 0.743277 0.744118 0.293789
O O2 0.694263 0.627143 0.492080
O O3 0.792873 0.588013 0.236506
O O4 0.573249 0.658326 0.247541
O O5 0.213122 0.142409 0.479901
O O6 0.334917 0.106686 0.220052
O O7 0.117492 0.137010 0.222027
O O8 0.197567 0.569938 0.263269
O O9 0.163861 0.719598 0.376091
O O10 0.354382 0.684243 0.232869
O O11 0.000000 0.500000 0.781928
O O12 0.145790 0.500000 0.000000
O O13 0.000000 0.811607 0.500000
O O14 0.897008 0.858694 0.745487
O O15 0.482047 0.182966 0.765643
O O16 0.500000 0.000000 0.762947
O O17 0.500000 0.091395 0.000000
O O18 0.500000 0.720842 0.000000
O O19 0.000000 0.000000 0.758088
O O20 0.000000 0.909697 0.000000
#
# Coordination Sequence:
#
# PCOD9310215 Si02
#       8
#     4   4   4   4   4   4   4   4
#     4  10  22  42  63  86 125 161 204 250 302 376
#     4   9  20  38  59  85 122 166 199 253 311 360
#     4  11  23  39  66  91 119 163 204 252 307 369
#     4  11  26  42  62  95 126 156 200 256 313 371
#     4   9  21  39  60  88 122 161 203 249 311 372
#     4   9  19  35  60  91 125 164 211 259 306 366
#     4  10  21  39  63  92 125 165 208 255 312 361
#     4  10  22  36  56  86 117 157 208 253 306 371
#
# _framework density 19.295207000000001
#
# number of rings (size 3 to 8) (size 9 to 14) (size 15 to 20)
#    0.000    2.125    0.000    1.500    5.250   10.250 
#    0.000    3.750    0.000    9.000    0.000    0.875 
#    0.000    0.000    0.000    0.000    0.000    0.000 
#
# Total GULP energy -178321.411836 kJ/mol
# GULP energy per Si atom -5572.544120 kJ/mol
# Density = 1.925129 g / cm^3
# Si number density = 19.295207 Si / 1000 Ang^3
#
#
#
# Elastic Constant Matrix: (Units=GPa)
#
#
# Indices 1 2 3 4 5 6 
#
# 1 76.6722 43.5246 29.5911 0.0000 0.0000 0.0000
# 2 43.5246 73.0557 38.0651 0.0000 0.0000 0.0000
# 3 29.5911 38.0651 80.9520 0.0000 0.0000 0.0000
# 4 0.0000 0.0000 0.0000 29.5850 0.0000 0.0000
# 5 0.0000 0.0000 0.0000 0.0000 29.9039 0.0000
# 6 0.0000 0.0000 0.0000 0.0000 0.0000 12.5846
#
#
#
# Elastic Compliance Matrix: (Units=1/GPa)
#
#
# Indices 1 2 3 4 5 6 
#
# 1 0.020016 -0.010745 -0.002264 0.000000 0.000000 0.000000
# 2 -0.010745 0.023899 -0.007310 0.000000 0.000000 0.000000
# 3 -0.002264 -0.007310 0.016618 0.000000 0.000000 0.000000
# 4 0.000000 0.000000 0.000000 0.033801 0.000000 0.000000
# 5 0.000000 0.000000 0.000000 0.000000 0.033440 0.000000
# 6 0.000000 0.000000 0.000000 0.000000 0.000000 0.079462
#
#
# Mechanical properties :
#
#
# Convention : Reuss Voigt Hill
#
# Bulk Modulus (GPa) = 50.26563 50.33791 50.30177
# Shear Modulus (GPa) = 19.64589 22.38131 21.01360
#
# Velocity S-wave (km/s) = 3.19435 3.40949 3.30367
# Velocity P-wave (km/s) = 6.30179 6.45325 6.37797
#
# Compressibility (1/GPa) = 0.01989431
#
# Stress axis : x y z
#
# Youngs Moduli (GPa) = 49.95953 41.84329 60.17670
#
# Poissons Ratio (x) = 0.44963 0.13624
# Poissons Ratio (y) = 0.53684 0.43987
# Poissons Ratio (z) = 0.11311 0.30586
#
# Static dielectric constant tensor:
#      x y z
#    x 1.655700 0.000000 0.000000 
#    y 0.000000 1.673380 0.000000 
#    z 0.000000 0.000000 1.708660 
# 
# From -- ./inp_files/4866.got.cif
#   From: 2010.05.17/outbox.cif.g08.bks.cpg/sg16_3_cif.got.tgz:4866.got - 2010.06.03 22:28:35.
