data_PCOD9310206
_publ_section_title
;
Structure prediction by ZEFSAII (Michael W. Deem and Ramdas Pophale) SiO2 
 PCOD9310206
Probable space group: P 2 2 2
;
_chemical_formula_sum "Si O2"
_cell_formula_units_Z 23
_cell_length_a 14.095596
_cell_length_b 8.853204
_cell_length_c 9.262308
_cell_angle_alpha 90.000000
_cell_angle_beta 90.000000
_cell_angle_gamma 90.000000
_cell_volume 1155.854409
_symmetry_space_group_name_H-M "P 2 2 2"
_symmetry_group_IT_number 16
_symmetry_cell_setting 'orthorhombic'
loop_
_space_group_symop_operation_xyz
x,y,z
-x,-y,z
x,-y,-z
-x,y,-z
loop_
_atom_site_type_symbol
_atom_site_label
_atom_site_fract_x
_atom_site_fract_y
_atom_site_fract_z
Si Si1 0.112357 0.509188 0.838689
Si Si2 0.000000 0.000000 0.000000
Si Si3 0.874597 0.849636 0.252983
Si Si4 0.000000 0.000000 0.500000
Si Si5 0.406516 0.580592 0.721010
Si Si6 0.500000 0.500000 0.000000
Si Si7 0.227680 0.616729 0.381485
Si Si8 0.310450 0.138321 0.412338
O O1 0.137669 0.670065 0.768990
O O2 0.152277 0.371767 0.744867
O O3 0.000000 0.500000 0.843262
O O4 0.151124 0.500000 0.000000
O O5 0.930336 0.908268 0.109893
O O6 0.768563 0.907741 0.292764
O O7 0.937304 0.897543 0.391733
O O8 0.500000 0.500000 0.659477
O O9 0.432253 0.591133 0.890685
O O10 0.319389 0.468724 0.685559
O O11 0.382718 0.742433 0.655952
O O12 0.188332 0.500000 0.500000
O O13 0.254797 0.766041 0.464994
O O14 0.353802 0.000000 0.500000
#
# Coordination Sequence:
#
# PCOD9310206 Si02
#       8
#     4   1   4   1   4   1   4   4
#     4  11  24  36  57  90 132 174 229 279 327 387
#     4  10  24  38  66  94 136 192 232 276 340 382
#     4  11  22  42  60  93 133 185 228 273 334 399
#     4  10  24  38  66  82 136 188 222 274 332 402
#     4   9  20  41  70  96 121 165 214 272 342 414
#     4   8  20  40  74  98 118 168 212 260 352 412
#     4  10  21  38  61  93 123 169 220 270 328 393
#     4  11  23  40  64 102 133 171 223 281 340 404
#
# _framework density 19.898700000000002
#
# number of rings (size 3 to 8) (size 9 to 14) (size 15 to 20)
#    0.522    1.217    4.348    1.043    3.652    4.870 
#    0.000    1.739    0.000    1.043    0.000    0.000 
#    0.000    0.000    0.000    0.000    0.000    0.000 
#
# Total GULP energy -128222.910899 kJ/mol
# GULP energy per Si atom -5574.909170 kJ/mol
# Density = 1.985341 g / cm^3
# Si number density = 19.898700 Si / 1000 Ang^3
#
#
#
# Elastic Constant Matrix: (Units=GPa)
#
#
# Indices 1 2 3 4 5 6 
#
# 1 72.6676 16.9297 40.4302 0.0000 0.0000 0.0000
# 2 16.9297 75.1623 40.1275 0.0000 0.0000 0.0000
# 3 40.4302 40.1275 148.2851 0.0000 0.0000 0.0000
# 4 0.0000 0.0000 0.0000 19.8850 0.0000 0.0000
# 5 0.0000 0.0000 0.0000 0.0000 36.6645 0.0000
# 6 0.0000 0.0000 0.0000 0.0000 0.0000 17.1984
#
#
#
# Elastic Compliance Matrix: (Units=1/GPa)
#
#
# Indices 1 2 3 4 5 6 
#
# 1 0.016370 -0.001525 -0.004051 0.000000 0.000000 0.000000
# 2 -0.001525 0.015693 -0.003831 0.000000 0.000000 0.000000
# 3 -0.004051 -0.003831 0.008885 0.000000 0.000000 0.000000
# 4 0.000000 0.000000 0.000000 0.050289 0.000000 0.000000
# 5 0.000000 0.000000 0.000000 0.000000 0.027274 0.000000
# 6 0.000000 0.000000 0.000000 0.000000 0.000000 0.058145
#
#
# Mechanical properties :
#
#
# Convention : Reuss Voigt Hill
#
# Bulk Modulus (GPa) = 45.17637 54.56554 49.87096
# Shear Modulus (GPa) = 24.64896 27.99143 26.32019
#
# Velocity S-wave (km/s) = 3.52337 3.75466 3.64085
# Velocity P-wave (km/s) = 6.26934 6.80278 6.54150
#
# Compressibility (1/GPa) = 0.02213546
#
# Stress axis : x y z
#
# Youngs Moduli (GPa) = 61.08649 63.72155 112.54996
#
# Poissons Ratio (x) = 0.09715 0.45592
# Poissons Ratio (y) = 0.09314 0.43119
# Poissons Ratio (z) = 0.24745 0.24412
#
# Static dielectric constant tensor:
#      x y z
#    x 1.735640 0.000000 0.000000 
#    y 0.000000 1.701580 0.000000 
#    z 0.000000 0.000000 1.729260 
# 
# From -- ./inp_files/5150.got.cif
#   From: 2010.05.17/outbox.cif.g08.bks.cpg/sg16_3_cif.got.tgz:5150.got - 2010.06.03 22:28:35.
