data_PCOD9310076
_publ_section_title
;
Structure prediction by ZEFSAII (Michael W. Deem and Ramdas Pophale) SiO2 
 PCOD9310076
Probable space group: P 2 2 2
;
_chemical_formula_sum "Si O2"
_cell_formula_units_Z 24
_cell_length_a 15.651145
_cell_length_b 8.834090
_cell_length_c 8.978419
_cell_angle_alpha 90.000000
_cell_angle_beta 90.000000
_cell_angle_gamma 90.000000
_cell_volume 1241.388745
_symmetry_space_group_name_H-M "P 2 2 2"
_symmetry_group_IT_number 16
_symmetry_cell_setting 'orthorhombic'
loop_
_space_group_symop_operation_xyz
x,y,z
-x,-y,z
x,-y,-z
-x,y,-z
loop_
_atom_site_type_symbol
_atom_site_label
_atom_site_fract_x
_atom_site_fract_y
_atom_site_fract_z
Si Si1 0.249459 0.260944 0.637172
Si Si2 0.000000 0.500000 0.000000
Si Si3 0.877963 0.667826 0.219187
Si Si4 0.118924 0.500000 0.500000
Si Si5 0.312208 0.478206 0.173856
Si Si6 0.211792 0.972296 0.823759
Si Si7 0.358608 0.806697 0.658598
Si Si8 0.500000 0.000000 0.500000
O O1 0.178296 0.376819 0.580919
O O2 0.309960 0.360098 0.744578
O O3 0.300300 0.208364 0.490556
O O4 0.207167 0.125751 0.729369
O O5 0.939164 0.610763 0.091520
O O6 0.920186 0.600544 0.369175
O O7 0.784106 0.592625 0.189523
O O8 0.857818 0.845718 0.221771
O O9 0.369145 0.357862 0.265550
O O10 0.332312 0.500000 0.000000
O O11 0.303673 0.903462 0.776509
O O12 0.206791 0.000000 0.000000
O O13 0.441776 0.893970 0.604297
#
# Coordination Sequence:
#
# PCOD9310076 Si02
#       8
#     4   1   4   2   4   4   4   1
#     4  11  17  35  64  94 123 154 227 276 299 383
#     4  12  24  42  62  88 144 174 212 268 352 402
#     4  10  22  38  61  97 123 172 211 267 329 387
#     4  10  20  35  68  93 116 164 230 266 304 383
#     4  10  19  37  66  96 119 161 231 267 309 390
#     4  11  22  36  65  99 125 163 219 276 320 388
#     4  11  21  38  61  94 123 174 213 265 334 394
#     4  12  24  40  60  92 140 168 214 284 356 386
#
# _framework density 19.333186000000001
#
# number of rings (size 3 to 8) (size 9 to 14) (size 15 to 20)
#    0.000    1.333    7.500    2.000    2.333    0.333 
#    0.000    2.500    0.000    1.000    4.333    0.000 
#    0.000    0.000    0.000    0.000    0.000    0.000 
#
# Total GULP energy -133885.792276 kJ/mol
# GULP energy per Si atom -5578.574678 kJ/mol
# Density = 1.928918 g / cm^3
# Si number density = 19.333186 Si / 1000 Ang^3
#
#
#
# Elastic Constant Matrix: (Units=GPa)
#
#
# Indices 1 2 3 4 5 6 
#
# 1 43.9647 39.9781 22.6371 0.0000 0.0000 0.0000
# 2 39.9781 161.7996 73.8016 0.0000 0.0000 0.0000
# 3 22.6371 73.8016 148.6031 0.0000 0.0000 0.0000
# 4 0.0000 0.0000 0.0000 39.7993 0.0000 0.0000
# 5 0.0000 0.0000 0.0000 0.0000 48.6596 0.0000
# 6 0.0000 0.0000 0.0000 0.0000 0.0000 -118.6963
#
#
#
# Elastic Compliance Matrix: (Units=1/GPa)
#
#
# Indices 1 2 3 4 5 6 
#
# 1 0.029483 -0.006770 -0.001129 0.000000 0.000000 0.000000
# 2 -0.006770 0.009545 -0.003709 0.000000 0.000000 0.000000
# 3 -0.001129 -0.003709 0.008743 0.000000 0.000000 0.000000
# 4 0.000000 0.000000 0.000000 0.025126 0.000000 0.000000
# 5 0.000000 0.000000 0.000000 0.000000 0.020551 0.000000
# 6 0.000000 0.000000 0.000000 0.000000 0.000000 -0.008425
#
#
# Mechanical properties :
#
#
# Convention : Reuss Voigt Hill
#
# Bulk Modulus (GPa) = 40.72445 69.68900 55.20672
# Shear Modulus (GPa) = 42.94636 8.48255 25.71446
#
# Velocity S-wave (km/s) = 4.71827 2.09692 3.65097
# Velocity P-wave (km/s) = 7.12692 6.47976 6.81103
#
# Compressibility (1/GPa) = 0.02455528
#
# Stress axis : x y z
#
# Youngs Moduli (GPa) = 33.91817 104.76666 114.37151
#
# Poissons Ratio (x) = 0.70924 0.12914
# Poissons Ratio (y) = 0.22962 0.42422
# Poissons Ratio (z) = 0.03830 0.38860
#
# Static dielectric constant tensor:
#      x y z
#    x 1.674610 0.000000 0.000000 
#    y 0.000000 1.707300 0.000000 
#    z 0.000000 0.000000 1.748030 
# 
# From -- ./inp_files/5488.got.cif
#   From: 2010.05.17/outbox.cif.g08.bks.cpg/sg16_3_cif.got.tgz:5488.got - 2010.06.03 22:28:35.
