data_PCOD9310051
_publ_section_title
;
Structure prediction by ZEFSAII (Michael W. Deem and Ramdas Pophale) SiO2 
 PCOD9310051
Probable space group: P 2 2 2
;
_chemical_formula_sum "Si O2"
_cell_formula_units_Z 32
_cell_length_a 8.019541
_cell_length_b 14.892697
_cell_length_c 13.114386
_cell_angle_alpha 90.000000
_cell_angle_beta 90.000000
_cell_angle_gamma 90.000000
_cell_volume 1566.285141
_symmetry_space_group_name_H-M "P 2 2 2"
_symmetry_group_IT_number 16
_symmetry_cell_setting 'orthorhombic'
loop_
_space_group_symop_operation_xyz
x,y,z
-x,-y,z
x,-y,-z
-x,y,-z
loop_
_atom_site_type_symbol
_atom_site_label
_atom_site_fract_x
_atom_site_fract_y
_atom_site_fract_z
Si Si1 0.691381 0.230871 0.520934
Si Si2 0.309024 0.034470 0.394556
Si Si3 0.206200 0.810419 0.109050
Si Si4 0.195202 0.004659 0.172734
Si Si5 0.805069 0.796802 0.116125
Si Si6 0.198057 0.486193 0.617323
Si Si7 0.700640 0.334236 0.703656
Si Si8 0.309901 0.290889 0.688698
O O1 0.500000 0.259501 0.500000
O O2 0.686802 0.140531 0.586479
O O3 0.780447 0.300209 0.595921
O O4 0.750682 0.225658 0.404344
O O5 0.500000 0.000000 0.387496
O O6 0.233318 0.000000 0.500000
O O7 0.216493 0.002676 0.294431
O O8 0.267624 0.913428 0.124889
O O9 0.259587 0.750691 0.204054
O O10 0.004801 0.808894 0.112108
O O11 0.256691 0.775063 0.997725
O O12 0.262641 0.103044 0.142594
O O13 0.000000 0.000000 0.145391
O O14 0.769419 0.720927 0.200231
O O15 0.260443 0.500000 0.500000
O O16 0.276309 0.559519 0.694460
O O17 0.236676 0.386991 0.657331
O O18 0.000000 0.500000 0.616667
O O19 0.507907 0.306270 0.697514
#
# Coordination Sequence:
#
# PCOD9310051 Si02
#       8
#     4   4   4   4   4   4   4   4
#     4  10  19  34  54  85 118 161 190 239 295 351
#     4  11  20  32  53  77 119 160 204 238 289 351
#     4  10  22  39  61  86 119 160 206 251 300 352
#     4  10  21  36  56  83 116 157 205 249 295 348
#     4  10  21  41  61  84 119 163 204 250 300 354
#     4  11  23  41  64  92 123 158 194 240 298 364
#     4  11  22  38  64  89 121 154 199 244 300 356
#     4  11  23  39  62  92 122 153 201 247 300 363
#
# _framework density 20.430509000000001
#
# number of rings (size 3 to 8) (size 9 to 14) (size 15 to 20)
#    0.000    1.500    3.750    2.250    1.750    2.750 
#    0.000    0.625    0.000    6.000    0.000    0.000 
#    0.000    0.000    0.000    0.000    0.000    0.000 
#
# Total GULP energy -178486.978248 kJ/mol
# GULP energy per Si atom -5577.718070 kJ/mol
# Density = 2.038401 g / cm^3
# Si number density = 20.430509 Si / 1000 Ang^3
#
#
#
# Elastic Constant Matrix: (Units=GPa)
#
#
# Indices 1 2 3 4 5 6 
#
# 1 25.4597 5.7160 8.2413 0.0000 0.0000 0.0000
# 2 5.7160 99.0855 42.4577 0.0000 0.0000 0.0000
# 3 8.2413 42.4577 135.7801 0.0000 0.0000 0.0000
# 4 0.0000 0.0000 0.0000 9.1373 0.0000 0.0000
# 5 0.0000 0.0000 0.0000 0.0000 32.0374 0.0000
# 6 0.0000 0.0000 0.0000 0.0000 0.0000 13.1582
#
#
#
# Elastic Compliance Matrix: (Units=1/GPa)
#
#
# Indices 1 2 3 4 5 6 
#
# 1 0.040250 -0.001472 -0.001983 0.000000 0.000000 0.000000
# 2 -0.001472 0.011708 -0.003572 0.000000 0.000000 0.000000
# 3 -0.001983 -0.003572 0.008602 0.000000 0.000000 0.000000
# 4 0.000000 0.000000 0.000000 0.109441 0.000000 0.000000
# 5 0.000000 0.000000 0.000000 0.000000 0.031214 0.000000
# 6 0.000000 0.000000 0.000000 0.000000 0.000000 0.075998
#
#
# Mechanical properties :
#
#
# Convention : Reuss Voigt Hill
#
# Bulk Modulus (GPa) = 21.50231 41.46169 31.48200
# Shear Modulus (GPa) = 16.29897 24.46060 20.37978
#
# Velocity S-wave (km/s) = 2.82756 3.46390 3.16178
# Velocity P-wave (km/s) = 4.60517 6.02795 5.36394
#
# Compressibility (1/GPa) = 0.04650663
#
# Stress axis : x y z
#
# Youngs Moduli (GPa) = 24.84466 85.41441 116.25215
#
# Poissons Ratio (x) = 0.12576 0.23048
# Poissons Ratio (y) = 0.03658 0.41520
# Poissons Ratio (z) = 0.04926 0.30506
#
# Static dielectric constant tensor:
#      x y z
#    x 1.758200 0.000000 0.000000 
#    y 0.000000 1.783980 0.000000 
#    z 0.000000 0.000000 1.766180 
# 
# From -- ./inp_files/4838.got.cif
#   From: 2010.05.17/outbox.cif.g08.bks.cpg/sg16_3_cif.got.tgz:4838.got - 2010.06.03 22:28:35.
