data_PCOD9310395
_publ_section_title
;
Structure prediction by ZEFSAII (Michael W. Deem and Ramdas Pophale) SiO2 
 PCOD9310395
Probable space group: P 2 2 2
;
_chemical_formula_sum "Si O2"
_cell_formula_units_Z 32
_cell_length_a 11.821623
_cell_length_b 18.922539
_cell_length_c 8.663220
_cell_angle_alpha 90.000000
_cell_angle_beta 90.000000
_cell_angle_gamma 90.000000
_cell_volume 1937.920057
_symmetry_space_group_name_H-M "P 2 2 2"
_symmetry_group_IT_number 16
_symmetry_cell_setting 'orthorhombic'
loop_
_space_group_symop_operation_xyz
x,y,z
-x,-y,z
x,-y,-z
-x,y,-z
loop_
_atom_site_type_symbol
_atom_site_label
_atom_site_fract_x
_atom_site_fract_y
_atom_site_fract_z
Si Si1 0.864942 0.499999 0.818782
Si Si2 0.863360 0.075930 0.816315
Si Si3 0.500000 0.416832 0.814783
Si Si4 0.863361 0.075930 0.183686
Si Si5 0.263423 0.365590 0.683865
Si Si6 0.866796 0.231238 0.812734
Si Si7 0.866798 0.768761 0.812734
Si Si8 0.263423 0.365589 0.316135
O O1 0.813392 0.569347 0.741386
O O2 0.813394 0.430650 0.741389
O O3 0.000000 0.500000 0.806533
O O4 0.833621 0.500000 0.000000
O O5 0.827493 0.153016 0.757976
O O6 1.000000 0.076244 0.802715
O O7 0.823052 1.000000 0.751740
O O8 0.838995 0.075223 0.000001
O O9 0.500000 0.500000 0.768996
O O10 0.387790 0.379980 0.750913
O O11 0.612209 0.379980 0.750913
O O12 0.500000 0.414081 0.000000
O O13 0.827494 0.153017 0.242025
O O14 0.207937 0.293649 0.745383
O O15 0.267687 0.364942 0.500000
O O16 0.792059 0.293647 0.745382
O O17 0.999999 0.240579 0.772339
O O18 0.861177 0.232660 1.000000
#
# Coordination Sequence:
#
# PCOD9310395 Si02
#       8
#     4   4   4   4   4   4   4   4
#     4  11  23  38  55  74  99 133 171 205 242 293
#     4   7  10  19  39  68  99 131 169 210 246 281
#     4  11  23  41  63  77  91 122 167 214 256 301
#     4   7  10  19  39  68  99 131 169 210 246 281
#     4  12  24  36  53  76 103 131 164 207 255 302
#     4   9  17  30  49  74 106 141 174 208 247 295
#     4   9  17  30  49  74 106 141 174 208 247 295
#     4  12  24  36  53  76 103 131 164 207 255 302
#
# _framework density 16.512549
#
# number of rings (size 3 to 8) (size 9 to 14) (size 15 to 20)
#    0.000    2.250    1.250    6.000    0.000    5.000 
#    0.000    0.000    0.000    0.750    0.000    4.375 
#    0.000    7.000    0.000    0.000    0.000    0.000 
#
# Total GULP energy -178372.336715 kJ/mol
# GULP energy per Si atom -5574.135522 kJ/mol
# Density = 1.647497 g / cm^3
# Si number density = 16.512549 Si / 1000 Ang^3
#
#
#
# Elastic Constant Matrix: (Units=GPa)
#
#
# Indices 1 2 3 4 5 6 
#
# 1 74.8067 72.9858 39.8851 0.0000 0.0000 0.0000
# 2 72.9858 208.5334 49.2496 0.0000 0.0000 0.0000
# 3 39.8851 49.2496 56.4650 0.0000 0.0000 0.0000
# 4 0.0000 0.0000 0.0000 -8.4191 0.0000 0.0000
# 5 0.0000 0.0000 0.0000 0.0000 35.6026 0.0000
# 6 0.0000 0.0000 0.0000 0.0000 0.0000 -5.0753
#
#
#
# Elastic Compliance Matrix: (Units=1/GPa)
#
#
# Indices 1 2 3 4 5 6 
#
# 1 0.026440 -0.006100 -0.013356 0.000000 0.000000 0.000000
# 2 -0.006100 0.007447 -0.002187 0.000000 0.000000 0.000000
# 3 -0.013356 -0.002187 0.029052 0.000000 0.000000 0.000000
# 4 0.000000 0.000000 0.000000 -0.118778 0.000000 0.000000
# 5 0.000000 0.000000 0.000000 0.000000 0.028088 0.000000
# 6 0.000000 0.000000 0.000000 0.000000 0.000000 -0.197032
#
#
# Mechanical properties :
#
#
# Convention : Reuss Voigt Hill
#
# Bulk Modulus (GPa) = 50.88123 73.78289 62.33206
# Shear Modulus (GPa) = -28.57994 16.26729 -6.15633
#
# Velocity S-wave (km/s) = -4.16480 3.14211 -1.93297
# Velocity P-wave (km/s) = 2.78444 7.61208 5.73135
#
# Compressibility (1/GPa) = 0.01965361
#
# Stress axis : x y z
#
# Youngs Moduli (GPa) = 37.82124 134.28944 34.42139
#
# Poissons Ratio (x) = 0.81911 0.45974
# Poissons Ratio (y) = 0.23069 0.07526
# Poissons Ratio (z) = 0.50515 0.29362
#
# Static dielectric constant tensor:
#      x y z
#    x 1.522810 0.000000 0.000000 
#    y 0.000000 1.593640 0.000000 
#    z 0.000000 0.000000 1.547890 
# 
# From -- ./inp_files/4897.got.cif
#   From: 2010.05.17/outbox.cif.g08.bks.cpg/sg16_3_cif.got.tgz:4897.got - 2010.06.03 22:28:35.
