data_PCOD9310495
_publ_section_title
;
Structure prediction by ZEFSAII (Michael W. Deem and Ramdas Pophale) SiO2 
 PCOD9310495
Probable space group: P 2 2 21
;
_chemical_formula_sum "Si O2"
_cell_formula_units_Z 20
_cell_length_a 7.057562
_cell_length_b 14.769657
_cell_length_c 8.128852
_cell_angle_alpha 90.000000
_cell_angle_beta 90.000000
_cell_angle_gamma 90.000000
_cell_volume 847.333405
_symmetry_space_group_name_H-M "P 2 2 21"
_symmetry_group_IT_number 17
_symmetry_cell_setting 'orthorhombic'
loop_
_space_group_symop_operation_xyz
x,y,z
-x,-y,1/2+z
x,-y,-z
-x,y,1/2-z
loop_
_atom_site_type_symbol
_atom_site_label
_atom_site_fract_x
_atom_site_fract_y
_atom_site_fract_z
Si Si1 0.274244 0.000000 0.500000
Si Si2 0.000000 0.905998 0.250000
Si Si3 0.386738 0.342817 0.605088
Si Si4 0.136724 0.211722 0.026604
Si Si5 0.216129 0.410164 0.912798
Si Si6 0.289849 0.816825 0.634776
O O1 0.137190 0.968646 0.354170
O O2 0.377065 0.909459 0.563241
O O3 0.859241 0.842230 0.355977
O O4 0.500000 0.288230 0.750000
O O5 0.226359 0.395737 0.712198
O O6 0.557314 0.406738 0.547643
O O7 0.338398 0.274785 0.462065
O O8 0.291808 0.194235 0.168188
O O9 0.934103 0.177855 0.091625
O O10 0.132773 0.318502 0.989432
O O11 0.138581 0.500000 0.000000
#
# Coordination Sequence:
#
# PCOD9310495 Si02
#       6
#     2   2   4   4   4   4
#     4  10  18  30  58  76 112 144 188 234 270 366
#     4  10  18  32  52  88 114 148 186 234 306 340
#     4   8  21  37  57  77 113 155 183 240 288 350
#     4  10  20  33  59  81 116 147 183 246 290 347
#     4   9  19  37  57  80 105 149 191 229 289 353
#     4  10  20  36  54  86 113 149 191 233 297 337
#
# _framework density 23.603459999999998
#
# number of rings (size 3 to 8) (size 9 to 14) (size 15 to 20)
#    1.200    1.200    0.000    4.800    0.000    4.000 
#    0.000    7.000    4.400    0.000    0.000    0.000 
#    0.000    0.000    0.000    0.000    0.000    0.000 
#
# Total GULP energy -111374.599740 kJ/mol
# GULP energy per Si atom -5568.729987 kJ/mol
# Density = 2.354974 g / cm^3
# Si number density = 23.603460 Si / 1000 Ang^3
#
#
#
# Elastic Constant Matrix: (Units=GPa)
#
#
# Indices 1 2 3 4 5 6 
#
# 1 21.9243 20.0459 23.3856 0.0000 0.0000 0.0000
# 2 20.0459 169.2909 71.2358 0.0000 0.0000 0.0000
# 3 23.3856 71.2358 115.8071 0.0000 0.0000 0.0000
# 4 0.0000 0.0000 0.0000 42.8875 0.0000 0.0000
# 5 0.0000 0.0000 0.0000 0.0000 30.7314 0.0000
# 6 0.0000 0.0000 0.0000 0.0000 0.0000 84.2615
#
#
#
# Elastic Compliance Matrix: (Units=1/GPa)
#
#
# Indices 1 2 3 4 5 6 
#
# 1 0.059009 -0.002662 -0.010278 0.000000 0.000000 0.000000
# 2 -0.002662 0.008090 -0.004439 0.000000 0.000000 0.000000
# 3 -0.010278 -0.004439 0.013441 0.000000 0.000000 0.000000
# 4 0.000000 0.000000 0.000000 0.023317 0.000000 0.000000
# 5 0.000000 0.000000 0.000000 0.000000 0.032540 0.000000
# 6 0.000000 0.000000 0.000000 0.000000 0.000000 0.011868
#
#
# Mechanical properties :
#
#
# Convention : Reuss Voigt Hill
#
# Bulk Modulus (GPa) = 21.84296 59.59521 40.71908
# Shear Modulus (GPa) = 25.21631 44.39976 34.80803
#
# Velocity S-wave (km/s) = 3.27208 4.34184 3.84435
# Velocity P-wave (km/s) = 4.85279 7.10202 6.08228
#
# Compressibility (1/GPa) = 0.04578135
#
# Stress axis : x y z
#
# Youngs Moduli (GPa) = 16.94648 123.60919 74.39907
#
# Poissons Ratio (x) = 0.32908 0.76471
# Poissons Ratio (y) = 0.04512 0.33024
# Poissons Ratio (z) = 0.17418 0.54867
#
# Static dielectric constant tensor:
#      x y z
#    x 2.005460 0.000000 0.000000 
#    y 0.000000 1.838800 0.000000 
#    z 0.000000 0.000000 1.911310 
# 
# From -- ./inp_files/4151.got.cif
#   From: 2010.05.17/outbox.cif.g08.bks.cpg/sg17_3_cif.got.tgz:4151.got - 2010.06.03 22:34:06.
