data_PCOD9310366
_publ_section_title
;
Structure prediction by ZEFSAII (Michael W. Deem and Ramdas Pophale) SiO2 
 PCOD9310366
Probable space group: P 2 2 2
;
_chemical_formula_sum "Si O2"
_cell_formula_units_Z 25
_cell_length_a 4.971377
_cell_length_b 21.592993
_cell_length_c 12.421073
_cell_angle_alpha 90.000000
_cell_angle_beta 90.000000
_cell_angle_gamma 90.000000
_cell_volume 1333.363790
_symmetry_space_group_name_H-M "P 2 2 2"
_symmetry_group_IT_number 16
_symmetry_cell_setting 'orthorhombic'
loop_
_space_group_symop_operation_xyz
x,y,z
-x,-y,z
x,-y,-z
-x,y,-z
loop_
_atom_site_type_symbol
_atom_site_label
_atom_site_fract_x
_atom_site_fract_y
_atom_site_fract_z
Si Si1 0.566840 0.802104 0.872257
Si Si2 0.905076 0.358051 0.381036
Si Si3 0.763746 0.395880 0.929559
Si Si4 0.926545 0.273270 0.810910
Si Si5 0.000000 0.000000 0.000000
Si Si6 0.607693 0.432777 0.692413
Si Si7 0.604458 0.936447 0.124222
O O1 0.867232 0.778195 0.853797
O O2 0.494201 0.871396 0.833379
O O3 0.368412 0.755843 0.810310
O O4 0.500000 0.799100 0.000000
O O5 0.974504 0.302021 0.300759
O O6 0.605255 0.382438 0.354226
O O7 0.000000 0.340127 0.500000
O O8 0.101687 0.415461 0.353045
O O9 0.652447 0.428453 0.821535
O O10 0.902616 0.332749 0.888097
O O11 0.500000 0.383159 0.000000
O O12 0.000000 0.427513 0.000000
O O13 0.088711 0.948898 0.907797
O O14 0.500000 0.500000 0.662998
O O15 0.500000 0.000000 0.177680
O O16 0.500000 0.939700 0.000000
#
# Coordination Sequence:
#
# PCOD9310366 Si02
#       7
#     4   4   4   4   1   4   4
#     4  11  21  30  51  77 109 145 182 215 258 311
#     4  11  24  42  62  80 108 142 175 234 303 338
#     4  11  21  37  57  77 113 154 179 214 270 321
#     4  11  22  35  51  77 104 135 185 225 258 324
#     4   8  14  28  44  58 104 148 192 212 248 308
#     4  11  24  40  60  88 111 136 185 230 267 342
#     4   8  17  27  42  66 101 147 185 215 255 298
#
# _framework density 18.749572000000001
#
# number of rings (size 3 to 8) (size 9 to 14) (size 15 to 20)
#    0.000    1.760    0.000    7.680    6.720    2.240 
#    0.000    2.400    0.000    0.000    0.000    0.000 
#    0.000    3.840    0.000    0.000    0.000    0.000 
#
# Total GULP energy -139198.597616 kJ/mol
# GULP energy per Si atom -5567.943905 kJ/mol
# Density = 1.870690 g / cm^3
# Si number density = 18.749572 Si / 1000 Ang^3
#
#
#
# Elastic Constant Matrix: (Units=GPa)
#
#
# Indices 1 2 3 4 5 6 
#
# 1 68.6029 -5.3427 8.3912 0.0000 0.0000 0.0000
# 2 -5.3427 78.7306 4.5495 0.0000 0.0000 0.0000
# 3 8.3912 4.5495 77.1009 0.0000 0.0000 0.0000
# 4 0.0000 0.0000 0.0000 7.9561 0.0000 0.0000
# 5 0.0000 0.0000 0.0000 0.0000 19.7605 0.0000
# 6 0.0000 0.0000 0.0000 0.0000 0.0000 11.1768
#
#
#
# Elastic Compliance Matrix: (Units=1/GPa)
#
#
# Indices 1 2 3 4 5 6 
#
# 1 0.014869 0.001106 -0.001683 0.000000 0.000000 0.000000
# 2 0.001106 0.012827 -0.000877 0.000000 0.000000 0.000000
# 3 -0.001683 -0.000877 0.013205 0.000000 0.000000 0.000000
# 4 0.000000 0.000000 0.000000 0.125690 0.000000 0.000000
# 5 0.000000 0.000000 0.000000 0.000000 0.050606 0.000000
# 6 0.000000 0.000000 0.000000 0.000000 0.000000 0.089471
#
#
# Mechanical properties :
#
#
# Convention : Reuss Voigt Hill
#
# Bulk Modulus (GPa) = 26.32135 26.62561 26.47348
# Shear Modulus (GPa) = 15.51631 22.23443 18.87537
#
# Velocity S-wave (km/s) = 2.87985 3.44737 3.17631
# Velocity P-wave (km/s) = 5.01267 5.48428 5.25377
#
# Compressibility (1/GPa) = 0.03799197
#
# Stress axis : x y z
#
# Youngs Moduli (GPa) = 67.25534 77.95864 75.72890
#
# Poissons Ratio (x) = -0.08624 0.12749
# Poissons Ratio (y) = -0.07440 0.06644
# Poissons Ratio (z) = 0.11322 0.06839
#
# Static dielectric constant tensor:
#      x y z
#    x 3.145500 0.000000 0.000000 
#    y 0.000000 1.788090 0.000000 
#    z 0.000000 0.000000 1.682700 
# 
# From -- ./inp_files/6066.got.cif
#   From: 2010.05.17/outbox.cif.g08.bks.cpg/sg16_4_cif.got.tgz:6066.got - 2010.06.03 22:28:35.
