data_PCOD9310740
_publ_section_title
;
Structure prediction by ZEFSAII (Michael W. Deem and Ramdas Pophale) SiO2 
 PCOD9310740
Probable space group: P 2 2 21
;
_chemical_formula_sum "Si O2"
_cell_formula_units_Z 26
_cell_length_a 12.951249
_cell_length_b 5.371012
_cell_length_c 17.922480
_cell_angle_alpha 90.000000
_cell_angle_beta 90.000000
_cell_angle_gamma 90.000000
_cell_volume 1246.711255
_symmetry_space_group_name_H-M "P 2 2 21"
_symmetry_group_IT_number 17
_symmetry_cell_setting 'orthorhombic'
loop_
_space_group_symop_operation_xyz
x,y,z
-x,-y,1/2+z
x,-y,-z
-x,y,1/2-z
loop_
_atom_site_type_symbol
_atom_site_label
_atom_site_fract_x
_atom_site_fract_y
_atom_site_fract_z
Si Si1 0.533903 0.616108 0.337910
Si Si2 0.225515 0.064691 0.277229
Si Si3 0.792968 0.000000 0.500000
Si Si4 0.739372 0.668546 0.627237
Si Si5 0.549999 0.115332 0.166624
Si Si6 0.902176 0.566800 0.195893
Si Si7 0.067758 0.629426 0.079369
O O1 0.500000 0.640409 0.250000
O O2 0.650686 0.527594 0.351068
O O3 0.508810 0.885311 0.370735
O O4 0.467531 0.385033 0.368715
O O5 0.330651 0.052219 0.324023
O O6 0.166964 0.802828 0.280811
O O7 0.259130 0.129213 0.192771
O O8 0.158765 0.304879 0.303898
O O9 0.728650 0.204956 0.454270
O O10 0.869857 0.119673 0.561168
O O11 0.850385 0.535960 0.625247
O O12 0.500000 0.142229 0.250000
O O13 0.000000 0.541117 0.250000
O O14 0.958398 0.641543 0.118909
O O15 0.054427 0.500000 0.000000
#
# Coordination Sequence:
#
# PCOD9310740 Si02
#       7
#     4   4   2   4   4   4   4
#     4  10  20  33  60  89 126 162 200 256 322 379
#     4  12  24  38  63  96 136 163 220 274 333 388
#     4  10  24  40  66  86 136 180 222 266 332 412
#     4  11  22  39  62  97 132 168 223 273 333 407
#     4  10  20  35  56  92 123 165 194 252 322 382
#     4  12  25  38  62  98 131 167 212 279 329 388
#     4  10  24  43  63  92 130 178 223 268 337 405
#
# _framework density 20.854866000000001
#
# number of rings (size 3 to 8) (size 9 to 14) (size 15 to 20)
#    0.000    1.231    4.615    2.308    8.615    0.000 
#    0.000    0.000    0.000    0.000    8.000    0.000 
#    0.000    0.000    0.000    0.000    0.000    0.000 
#
# Total GULP energy -145183.044232 kJ/mol
# GULP energy per Si atom -5583.963240 kJ/mol
# Density = 2.080740 g / cm^3
# Si number density = 20.854866 Si / 1000 Ang^3
#
#
#
# Elastic Constant Matrix: (Units=GPa)
#
#
# Indices 1 2 3 4 5 6 
#
# 1 92.2241 14.6293 17.5697 0.0000 0.0000 0.0000
# 2 14.6293 103.7453 2.2063 0.0000 0.0000 0.0000
# 3 17.5697 2.2063 35.8134 0.0000 0.0000 0.0000
# 4 0.0000 0.0000 0.0000 2.4575 0.0000 0.0000
# 5 0.0000 0.0000 0.0000 0.0000 16.3362 0.0000
# 6 0.0000 0.0000 0.0000 0.0000 0.0000 31.6071
#
#
#
# Elastic Compliance Matrix: (Units=1/GPa)
#
#
# Indices 1 2 3 4 5 6 
#
# 1 0.012220 -0.001598 -0.005897 0.000000 0.000000 0.000000
# 2 -0.001598 0.009861 0.000176 0.000000 0.000000 0.000000
# 3 -0.005897 0.000176 0.030804 0.000000 0.000000 0.000000
# 4 0.000000 0.000000 0.000000 0.406919 0.000000 0.000000
# 5 0.000000 0.000000 0.000000 0.000000 0.061214 0.000000
# 6 0.000000 0.000000 0.000000 0.000000 0.000000 0.031638
#
#
# Mechanical properties :
#
#
# Convention : Reuss Voigt Hill
#
# Bulk Modulus (GPa) = 26.14443 33.39925 29.77184
# Shear Modulus (GPa) = 8.62007 23.23866 15.92937
#
# Velocity S-wave (km/s) = 2.03527 3.34174 2.76673
# Velocity P-wave (km/s) = 4.25285 5.56233 4.95107
#
# Compressibility (1/GPa) = 0.03824907
#
# Stress axis : x y z
#
# Youngs Moduli (GPa) = 81.83331 101.41430 32.46285
#
# Poissons Ratio (x) = 0.16204 0.19142
# Poissons Ratio (y) = 0.13075 -0.00573
# Poissons Ratio (z) = 0.48253 -0.01789
#
# Static dielectric constant tensor:
#      x y z
#    x 1.736980 0.000000 0.000000 
#    y 0.000000 1.834850 0.000000 
#    z 0.000000 0.000000 1.947470 
# 
# From -- ./inp_files/9600.got.cif
#   From: 2010.05.17/outbox.cif.g08.bks.cpg/sg17_5_cif.got.tgz:9600.got - 2010.06.03 22:34:06.
