data_PCOD9310284
_publ_section_title
;
Structure prediction by ZEFSAII (Michael W. Deem and Ramdas Pophale) SiO2 
 PCOD9310284
Probable space group: P 2 2 2
;
_chemical_formula_sum "Si O2"
_cell_formula_units_Z 13
_cell_length_a 5.304896
_cell_length_b 8.276247
_cell_length_c 12.187208
_cell_angle_alpha 90.000000
_cell_angle_beta 90.000000
_cell_angle_gamma 90.000000
_cell_volume 535.074853
_symmetry_space_group_name_H-M "P 2 2 2"
_symmetry_group_IT_number 16
_symmetry_cell_setting 'orthorhombic'
loop_
_space_group_symop_operation_xyz
x,y,z
-x,-y,z
x,-y,-z
-x,y,-z
loop_
_atom_site_type_symbol
_atom_site_label
_atom_site_fract_x
_atom_site_fract_y
_atom_site_fract_z
Si Si1 0.500000 0.000000 0.785646
Si Si2 0.500000 0.500000 0.228381
Si Si3 0.648056 0.254745 0.612408
Si Si4 0.749839 0.764934 0.926558
Si Si5 0.000000 0.000000 0.500000
O O1 0.495090 0.851454 0.702243
O O2 0.727952 0.937408 0.862602
O O3 0.691070 0.588379 0.314319
O O4 0.678453 0.386463 0.153018
O O5 0.500000 0.291496 0.500000
O O6 0.856185 0.126598 0.576415
O O7 0.500000 0.768876 0.000000
O O8 0.000000 0.744401 0.000000
#
# Coordination Sequence:
#
# PCOD9310284 Si02
#       5
#     2   2   4   4   1
#     4  10  22  44  78 108 146 204 252 328 404 474
#     4  10  26  48  76 108 156 220 254 332 414 484
#     4  11  22  48  71 113 158 194 259 320 397 487
#     4  11  26  49  73 111 156 203 269 334 391 470
#     4  12  22  40  82 110 154 206 254 328 380 476
#
# _framework density 24.295665
#
# number of rings (size 3 to 8) (size 9 to 14) (size 15 to 20)
#    0.000    1.231    3.077    1.385    0.000    9.846 
#    5.538    6.154    0.000    0.000    0.000    0.000 
#    0.000    0.000    0.000    0.000    0.000    0.000 
#
# Total GULP energy -72368.281816 kJ/mol
# GULP energy per Si atom -5566.790909 kJ/mol
# Density = 2.424037 g / cm^3
# Si number density = 24.295665 Si / 1000 Ang^3
#
#
#
# Elastic Constant Matrix: (Units=GPa)
#
#
# Indices 1 2 3 4 5 6 
#
# 1 127.0663 35.5139 88.3899 0.0000 0.0000 0.0000
# 2 35.5139 89.5443 80.8368 0.0000 0.0000 0.0000
# 3 88.3899 80.8368 188.0542 0.0000 0.0000 0.0000
# 4 0.0000 0.0000 0.0000 -67.6966 0.0000 0.0000
# 5 0.0000 0.0000 0.0000 0.0000 35.6482 0.0000
# 6 0.0000 0.0000 0.0000 0.0000 0.0000 -3.9775
#
#
#
# Elastic Compliance Matrix: (Units=1/GPa)
#
#
# Indices 1 2 3 4 5 6 
#
# 1 0.011708 0.000530 -0.005731 0.000000 0.000000 0.000000
# 2 0.000530 0.018274 -0.008104 0.000000 0.000000 0.000000
# 3 -0.005731 -0.008104 0.011495 0.000000 0.000000 0.000000
# 4 0.000000 0.000000 0.000000 -0.014772 0.000000 0.000000
# 5 0.000000 0.000000 0.000000 0.000000 0.028052 0.000000
# 6 0.000000 0.000000 0.000000 0.000000 0.000000 -0.251414
#
#
# Mechanical properties :
#
#
# Convention : Reuss Voigt Hill
#
# Bulk Modulus (GPa) = 67.26468 90.46064 78.86266
# Shear Modulus (GPa) = -30.28635 6.12310 -12.08163
#
# Velocity S-wave (km/s) = -3.53452 1.58925 -2.23239
# Velocity P-wave (km/s) = 3.33000 6.37822 5.08776
#
# Compressibility (1/GPa) = 0.01486664
#
# Stress axis : x y z
#
# Youngs Moduli (GPa) = 85.40864 54.72388 86.99379
#
# Poissons Ratio (x) = -0.02901 0.49857
# Poissons Ratio (y) = -0.04528 0.70502
# Poissons Ratio (z) = 0.48949 0.44350
#
# Static dielectric constant tensor:
#      x y z
#    x 2.013500 0.000000 0.000000 
#    y 0.000000 2.121870 0.000000 
#    z 0.000000 0.000000 2.152560 
# 
# From -- ./inp_files/2956.got.cif
#   From: 2010.05.17/outbox.cif.g08.bks.cpg/sg16_2_cif.got.tgz:2956.got - 2010.06.03 22:28:35.
