data_PCOD9310197
_publ_section_title
;
Structure prediction by ZEFSAII (Michael W. Deem and Ramdas Pophale) SiO2 
 PCOD9310197
Probable space group: P 2 2 2
;
_chemical_formula_sum "Si O2"
_cell_formula_units_Z 25
_cell_length_a 18.981725
_cell_length_b 9.086091
_cell_length_c 7.630814
_cell_angle_alpha 90.000000
_cell_angle_beta 90.000000
_cell_angle_gamma 90.000000
_cell_volume 1316.084054
_symmetry_space_group_name_H-M "P 2 2 2"
_symmetry_group_IT_number 16
_symmetry_cell_setting 'orthorhombic'
loop_
_space_group_symop_operation_xyz
x,y,z
-x,-y,z
x,-y,-z
-x,y,-z
loop_
_atom_site_type_symbol
_atom_site_label
_atom_site_fract_x
_atom_site_fract_y
_atom_site_fract_z
Si Si1 0.292780 0.311317 0.294193
Si Si2 0.500000 0.000000 0.000000
Si Si3 0.363076 0.839538 0.013846
Si Si4 0.864851 0.173446 0.303405
Si Si5 0.148519 0.156750 0.279779
Si Si6 0.276187 0.660813 0.292903
Si Si7 0.007080 0.334529 0.207468
O O1 0.354630 0.241176 0.174681
O O2 0.221669 0.231754 0.227138
O O3 0.284404 0.486165 0.271145
O O4 0.295610 0.293424 0.506062
O O5 0.441875 0.113831 0.923853
O O6 0.326852 0.741114 0.158241
O O7 0.326688 0.000000 0.000000
O O8 0.852141 0.154062 0.509548
O O9 0.803261 0.285993 0.249201
O O10 0.942324 0.237853 0.276590
O O11 0.858230 0.011955 0.218595
O O12 0.081554 0.256529 0.236080
O O13 0.000000 0.500000 0.281217
O O14 0.000000 0.344413 0.000000
#
# Coordination Sequence:
#
# PCOD9310197 Si02
#       7
#     4   1   4   4   4   4   4
#     4  10  21  38  63  94 125 161 206 254 306 362
#     4   8  24  44  64 100 124 164 202 232 298 364
#     4  10  21  41  65  90 124 161 198 242 296 355
#     4  10  21  37  57  82 112 152 202 254 304 356
#     4  10  21  37  57  82 112 152 202 254 304 356
#     4  10  21  38  63  94 125 161 206 254 306 362
#     4  11  24  37  50  74 114 159 204 253 307 357
#
# _framework density 18.995747000000001
#
# number of rings (size 3 to 8) (size 9 to 14) (size 15 to 20)
#    0.480    1.440    0.000    3.360    2.240    7.040 
#    0.000    3.200    0.000    1.920    0.000    0.000 
#    0.000    0.000    0.000    0.000    0.000    0.000 
#
# Total GULP energy -139291.463768 kJ/mol
# GULP energy per Si atom -5571.658551 kJ/mol
# Density = 1.895251 g / cm^3
# Si number density = 18.995747 Si / 1000 Ang^3
#
#
#
# Elastic Constant Matrix: (Units=GPa)
#
#
# Indices 1 2 3 4 5 6 
#
# 1 70.8457 16.4660 13.0131 0.0000 0.0000 0.0000
# 2 16.4660 109.7702 32.2501 0.0000 0.0000 0.0000
# 3 13.0131 32.2501 52.3379 0.0000 0.0000 0.0000
# 4 0.0000 0.0000 0.0000 11.3922 0.0000 0.0000
# 5 0.0000 0.0000 0.0000 0.0000 32.6427 0.0000
# 6 0.0000 0.0000 0.0000 0.0000 0.0000 15.0001
#
#
#
# Elastic Compliance Matrix: (Units=1/GPa)
#
#
# Indices 1 2 3 4 5 6 
#
# 1 0.014966 -0.001406 -0.002855 0.000000 0.000000 0.000000
# 2 -0.001406 0.011256 -0.006586 0.000000 0.000000 0.000000
# 3 -0.002855 -0.006586 0.023875 0.000000 0.000000 0.000000
# 4 0.000000 0.000000 0.000000 0.087780 0.000000 0.000000
# 5 0.000000 0.000000 0.000000 0.000000 0.030635 0.000000
# 6 0.000000 0.000000 0.000000 0.000000 0.000000 0.066666
#
#
# Mechanical properties :
#
#
# Convention : Reuss Voigt Hill
#
# Bulk Modulus (GPa) = 35.20779 39.60137 37.40458
# Shear Modulus (GPa) = 18.77304 23.22196 20.99750
#
# Velocity S-wave (km/s) = 3.14710 3.50019 3.32833
# Velocity P-wave (km/s) = 5.63741 6.10147 5.87402
#
# Compressibility (1/GPa) = 0.02840281
#
# Stress axis : x y z
#
# Youngs Moduli (GPa) = 66.81642 88.84258 41.88544
#
# Poissons Ratio (x) = 0.12494 0.11957
# Poissons Ratio (y) = 0.09397 0.27586
# Poissons Ratio (z) = 0.19074 0.58512
#
# Static dielectric constant tensor:
#      x y z
#    x 1.672930 0.000000 0.000000 
#    y 0.000000 1.691310 0.000000 
#    z 0.000000 0.000000 1.686750 
# 
# From -- ./inp_files/5479.got.cif
#   From: 2010.05.17/outbox.cif.g08.bks.cpg/sg16_3_cif.got.tgz:5479.got - 2010.06.03 22:28:35.
