data_PCOD9310056
_publ_section_title
;
Structure prediction by ZEFSAII (Michael W. Deem and Ramdas Pophale) SiO2 
 PCOD9310056
Probable space group: P 2 2 2
;
_chemical_formula_sum "Si O2"
_cell_formula_units_Z 32
_cell_length_a 7.422455
_cell_length_b 15.432502
_cell_length_c 12.037871
_cell_angle_alpha 90.000000
_cell_angle_beta 90.000000
_cell_angle_gamma 90.000000
_cell_volume 1378.902631
_symmetry_space_group_name_H-M "P 2 2 2"
_symmetry_group_IT_number 16
_symmetry_cell_setting 'orthorhombic'
loop_
_space_group_symop_operation_xyz
x,y,z
-x,-y,z
x,-y,-z
-x,y,-z
loop_
_atom_site_type_symbol
_atom_site_label
_atom_site_fract_x
_atom_site_fract_y
_atom_site_fract_z
Si Si1 0.220461 0.491088 0.371085
Si Si2 0.287761 0.905554 0.036734
Si Si3 0.253255 0.824327 0.405325
Si Si4 0.809581 0.673859 0.235116
Si Si5 0.714755 0.284565 0.002625
Si Si6 0.689120 0.028307 0.263633
Si Si7 0.829515 0.845948 0.345359
Si Si8 0.767695 0.334537 0.256732
O O1 0.273558 0.500000 0.500000
O O2 0.274133 0.401390 0.311200
O O3 0.291290 0.572038 0.300153
O O4 0.000000 0.500000 0.369607
O O5 0.239317 0.908640 0.167571
O O6 0.500000 0.903204 0.000000
O O7 0.213663 0.814367 0.993108
O O8 0.219145 0.000000 0.000000
O O9 0.352219 0.911083 0.367298
O O10 0.260143 0.820437 0.537217
O O11 0.312897 0.740794 0.335164
O O12 0.043226 0.840841 0.371154
O O13 0.784260 0.661699 0.103287
O O14 0.756645 0.772725 0.261915
O O15 0.017325 0.670833 0.271051
O O16 0.500000 0.280999 0.000000
O O17 0.748226 0.320197 0.125698
O O18 0.500000 0.000000 0.212680
O O19 0.792221 0.942207 0.299553
#
# Coordination Sequence:
#
# PCOD9310056 Si02
#       8
#     4   4   4   4   4   4   4   4
#     4   9  18  36  65  96 119 149 194 241 292 346
#     4  10  19  35  55  76 104 151 194 238 282 332
#     4  10  21  39  56  83 119 157 189 237 303 351
#     4  10  21  37  62  91 117 150 197 243 288 344
#     4  11  23  38  59  83 119 159 196 238 296 348
#     4  12  22  35  58  84 110 149 205 242 284 341
#     4  10  22  37  58  82 120 156 189 239 299 356
#     4  10  20  38  63  88 120 151 195 246 286 346
#
# _framework density 23.206861
#
# number of rings (size 3 to 8) (size 9 to 14) (size 15 to 20)
#    0.000    1.750    2.500    2.625    1.750    5.500 
#    0.000    3.125    0.000    3.000    0.000    0.000 
#    0.000    0.000    0.000    0.000    0.000    0.000 
#
# Total GULP energy -178647.888161 kJ/mol
# GULP energy per Si atom -5582.746505 kJ/mol
# Density = 2.315404 g / cm^3
# Si number density = 23.206861 Si / 1000 Ang^3
#
#
#
# Elastic Constant Matrix: (Units=GPa)
#
#
# Indices 1 2 3 4 5 6 
#
# 1 43.7301 5.1387 -8.7819 0.0000 0.0000 0.0000
# 2 5.1387 147.9629 72.3069 0.0000 0.0000 0.0000
# 3 -8.7819 72.3069 165.5223 0.0000 0.0000 0.0000
# 4 0.0000 0.0000 0.0000 41.1908 0.0000 0.0000
# 5 0.0000 0.0000 0.0000 0.0000 10.4016 0.0000
# 6 0.0000 0.0000 0.0000 0.0000 0.0000 31.1911
#
#
#
# Elastic Compliance Matrix: (Units=1/GPa)
#
#
# Indices 1 2 3 4 5 6 
#
# 1 0.023490 -0.001812 0.002038 0.000000 0.000000 0.000000
# 2 -0.001812 0.008733 -0.003911 0.000000 0.000000 0.000000
# 3 0.002038 -0.003911 0.007858 0.000000 0.000000 0.000000
# 4 0.000000 0.000000 0.000000 0.024277 0.000000 0.000000
# 5 0.000000 0.000000 0.000000 0.000000 0.096139 0.000000
# 6 0.000000 0.000000 0.000000 0.000000 0.000000 0.032060
#
#
# Mechanical properties :
#
#
# Convention : Reuss Voigt Hill
#
# Bulk Modulus (GPa) = 30.57110 54.94918 42.76014
# Shear Modulus (GPa) = 23.71585 35.79349 29.75467
#
# Velocity S-wave (km/s) = 3.20024 3.93156 3.58460
# Velocity P-wave (km/s) = 5.18240 6.65875 5.96641
#
# Compressibility (1/GPa) = 0.03271063
#
# Stress axis : x y z
#
# Youngs Moduli (GPa) = 42.57203 114.51445 127.25878
#
# Poissons Ratio (x) = 0.20745 -0.25930
# Poissons Ratio (y) = 0.07712 0.49769
# Poissons Ratio (z) = -0.08675 0.44785
#
# Static dielectric constant tensor:
#      x y z
#    x 1.914620 0.000000 0.000000 
#    y 0.000000 1.889100 0.000000 
#    z 0.000000 0.000000 1.886430 
# 
# From -- ./inp_files/6638.got.cif
#   From: 2010.05.17/outbox.cif.g08.bks.cpg/sg16_4_cif.got.tgz:6638.got - 2010.06.03 22:28:35.
