data_PCOD9310253
_publ_section_title
;
Structure prediction by ZEFSAII (Michael W. Deem and Ramdas Pophale) SiO2 
 PCOD9310253
Probable space group: P 2 2 2
;
_chemical_formula_sum "Si O2"
_cell_formula_units_Z 20
_cell_length_a 5.348810
_cell_length_b 17.052207
_cell_length_c 9.811162
_cell_angle_alpha 90.000000
_cell_angle_beta 90.000000
_cell_angle_gamma 90.000000
_cell_volume 894.866425
_symmetry_space_group_name_H-M "P 2 2 2"
_symmetry_group_IT_number 16
_symmetry_cell_setting 'orthorhombic'
loop_
_space_group_symop_operation_xyz
x,y,z
-x,-y,z
x,-y,-z
-x,y,-z
loop_
_atom_site_type_symbol
_atom_site_label
_atom_site_fract_x
_atom_site_fract_y
_atom_site_fract_z
Si Si1 0.798866 0.432052 0.253011
Si Si2 0.500000 0.500000 0.000000
Si Si3 0.652758 0.715240 0.875613
Si Si4 0.000000 0.152266 0.000000
Si Si5 0.500000 0.500000 0.500000
Si Si6 0.463208 0.815542 0.646860
Si Si7 0.022894 0.909644 0.292716
O O1 0.838864 0.340946 0.211701
O O2 0.640492 0.442760 0.391836
O O3 0.000000 0.500000 0.274274
O O4 0.673692 0.457766 0.110824
O O5 0.464794 0.751229 0.764958
O O6 0.789123 0.787825 0.947782
O O7 0.500000 0.677309 0.000000
O O8 0.955987 0.099498 0.867986
O O9 0.500000 0.777780 0.500000
O O10 0.202159 0.861219 0.640126
O O11 0.702372 0.872907 0.677708
O O12 0.000000 0.000000 0.332412
#
# Coordination Sequence:
#
# PCOD9310253 Si02
#       7
#     4   1   4   2   1   4   4
#     4  11  24  43  69 100 136 182 232 291 364 430
#     4  10  22  38  64  96 132 162 228 290 344 428
#     4  11  23  44  71  96 140 179 232 300 355 429
#     4  10  23  40  63 106 138 178 246 290 359 424
#     4  10  26  46  60 104 140 174 236 282 352 460
#     4  11  25  44  67 107 142 184 243 290 358 433
#     4  11  23  42  70 100 146 192 237 298 356 425
#
# _framework density 22.349706000000001
#
# number of rings (size 3 to 8) (size 9 to 14) (size 15 to 20)
#    0.000    1.200    3.000    2.100    4.200    2.400 
#    0.000    6.000    0.000    0.000    0.000    0.000 
#    0.000    0.000    0.000    0.000    0.000    0.000 
#
# Total GULP energy -111404.362664 kJ/mol
# GULP energy per Si atom -5570.218133 kJ/mol
# Density = 2.229884 g / cm^3
# Si number density = 22.349706 Si / 1000 Ang^3
#
#
#
# Elastic Constant Matrix: (Units=GPa)
#
#
# Indices 1 2 3 4 5 6 
#
# 1 68.6542 19.4465 4.7935 0.0000 0.0000 0.0000
# 2 19.4465 66.7793 18.7901 0.0000 0.0000 0.0000
# 3 4.7935 18.7901 167.4962 0.0000 0.0000 0.0000
# 4 0.0000 0.0000 0.0000 -10.7362 0.0000 0.0000
# 5 0.0000 0.0000 0.0000 0.0000 44.6639 0.0000
# 6 0.0000 0.0000 0.0000 0.0000 0.0000 19.8900
#
#
#
# Elastic Compliance Matrix: (Units=1/GPa)
#
#
# Indices 1 2 3 4 5 6 
#
# 1 0.015876 -0.004642 0.000066 0.000000 0.000000 0.000000
# 2 -0.004642 0.016820 -0.001754 0.000000 0.000000 0.000000
# 3 0.000066 -0.001754 0.006165 0.000000 0.000000 0.000000
# 4 0.000000 0.000000 0.000000 -0.093143 0.000000 0.000000
# 5 0.000000 0.000000 0.000000 0.000000 0.022389 0.000000
# 6 0.000000 0.000000 0.000000 0.000000 0.000000 0.050276
#
#
# Mechanical properties :
#
#
# Convention : Reuss Voigt Hill
#
# Bulk Modulus (GPa) = 38.16496 43.22110 40.69303
# Shear Modulus (GPa) = 125.69930 28.09018 76.89474
#
# Velocity S-wave (km/s) = 7.50761 3.54905 5.87196
# Velocity P-wave (km/s) = 9.60549 6.01456 8.01375
#
# Compressibility (1/GPa) = 0.02620205
#
# Stress axis : x y z
#
# Youngs Moduli (GPa) = 62.98844 59.45313 162.20174
#
# Poissons Ratio (x) = 0.27597 -0.01077
# Poissons Ratio (y) = 0.29238 0.28451
# Poissons Ratio (z) = -0.00418 0.10428
#
# Static dielectric constant tensor:
#      x y z
#    x 1.888350 0.000000 0.000000 
#    y 0.000000 1.914990 0.000000 
#    z 0.000000 0.000000 1.788320 
# 
# From -- ./inp_files/3177.got.cif
#   From: 2010.05.17/outbox.cif.g08.bks.cpg/sg16_2_cif.got.tgz:3177.got - 2010.06.03 22:28:35.
