data_PCOD9310299
_publ_section_title
;
Structure prediction by ZEFSAII (Michael W. Deem and Ramdas Pophale) SiO2 
 PCOD9310299
Probable space group: P 2 2 2
;
_chemical_formula_sum "Si O2"
_cell_formula_units_Z 24
_cell_length_a 11.680818
_cell_length_b 5.074359
_cell_length_c 17.968506
_cell_angle_alpha 90.000000
_cell_angle_beta 90.000000
_cell_angle_gamma 90.000000
_cell_volume 1065.041218
_symmetry_space_group_name_H-M "P 2 2 2"
_symmetry_group_IT_number 16
_symmetry_cell_setting 'orthorhombic'
loop_
_space_group_symop_operation_xyz
x,y,z
-x,-y,z
x,-y,-z
-x,y,-z
loop_
_atom_site_type_symbol
_atom_site_label
_atom_site_fract_x
_atom_site_fract_y
_atom_site_fract_z
Si Si1 0.870553 0.957270 0.344709
Si Si2 0.800872 0.469847 0.421480
Si Si3 0.621975 0.643097 0.216881
Si Si4 0.227135 0.128570 0.809588
Si Si5 0.129521 0.246172 0.964994
Si Si6 0.422510 0.752638 0.611561
O O1 0.794327 0.169348 0.392794
O O2 0.846131 0.025842 0.259681
O O3 0.855713 0.646330 0.357288
O O4 0.000000 0.000000 0.368073
O O5 0.863313 0.500000 0.500000
O O6 0.688012 0.654596 0.432903
O O7 0.500000 0.500000 0.197087
O O8 0.706786 0.393881 0.214236
O O9 0.609239 0.765450 0.300417
O O10 0.680794 0.890969 0.173679
O O11 0.144014 0.209504 0.877665
O O12 0.185877 0.500000 0.000000
O O13 0.000000 0.247582 0.000000
O O14 0.191406 0.000000 0.000000
O O15 0.500000 0.500000 0.606061
O O16 0.500000 0.000000 0.589841
#
# Coordination Sequence:
#
# PCOD9310299 Si02
#       6
#     4   4   4   4   4   4
#     4  12  26  44  67 101 131 186 246 288 351 416
#     4  12  26  46  65  94 142 186 238 296 355 424
#     4  11  22  39  70 105 135 178 235 284 346 407
#     4  12  22  43  71 101 145 178 226 292 337 421
#     4  10  23  42  65 102 144 180 217 266 356 416
#     4  11  21  39  67  96 135 170 224 293 355 410
#
# _framework density 22.534338999999999
#
# number of rings (size 3 to 8) (size 9 to 14) (size 15 to 20)
#    0.000    0.667    3.333    5.500    2.333    2.333 
#    3.000    0.833    0.000    7.500    0.000    0.000 
#    0.000    0.000    0.000    0.000    0.000    0.000 
#
# Total GULP energy -133737.290579 kJ/mol
# GULP energy per Si atom -5572.387107 kJ/mol
# Density = 2.248305 g / cm^3
# Si number density = 22.534339 Si / 1000 Ang^3
#
#
#
# Elastic Constant Matrix: (Units=GPa)
#
#
# Indices 1 2 3 4 5 6 
#
# 1 70.2071 17.7769 13.5152 0.0000 0.0000 0.0000
# 2 17.7769 158.4301 41.7468 0.0000 0.0000 0.0000
# 3 13.5152 41.7468 113.0035 0.0000 0.0000 0.0000
# 4 0.0000 0.0000 0.0000 22.7132 0.0000 0.0000
# 5 0.0000 0.0000 0.0000 0.0000 59.1201 0.0000
# 6 0.0000 0.0000 0.0000 0.0000 0.0000 -21.2461
#
#
#
# Elastic Compliance Matrix: (Units=1/GPa)
#
#
# Indices 1 2 3 4 5 6 
#
# 1 0.014826 -0.001325 -0.001284 0.000000 0.000000 0.000000
# 2 -0.001325 0.007111 -0.002469 0.000000 0.000000 0.000000
# 3 -0.001284 -0.002469 0.009915 0.000000 0.000000 0.000000
# 4 0.000000 0.000000 0.000000 0.044027 0.000000 0.000000
# 5 0.000000 0.000000 0.000000 0.000000 0.016915 0.000000
# 6 0.000000 0.000000 0.000000 0.000000 0.000000 -0.047067
#
#
# Mechanical properties :
#
#
# Convention : Reuss Voigt Hill
#
# Bulk Modulus (GPa) = 46.08905 54.19094 50.13999
# Shear Modulus (GPa) = 79.22171 30.02424 54.62298
#
# Velocity S-wave (km/s) = 5.93568 3.65413 4.92874
# Velocity P-wave (km/s) = 8.21423 6.47333 7.39519
#
# Compressibility (1/GPa) = 0.02169713
#
# Stress axis : x y z
#
# Youngs Moduli (GPa) = 67.44792 140.62489 100.85981
#
# Poissons Ratio (x) = 0.18638 0.12946
# Poissons Ratio (y) = 0.08939 0.24898
# Poissons Ratio (z) = 0.08658 0.34714
#
# Static dielectric constant tensor:
#      x y z
#    x 1.864800 0.000000 0.000000 
#    y 0.000000 1.844740 0.000000 
#    z 0.000000 0.000000 1.922360 
# 
# From -- ./inp_files/8994.got.cif
#   From: 2010.05.17/outbox.cif.g08.bks.cpg/sg16_5_cif.got.tgz:8994.got - 2010.06.03 22:28:35.
