data_PCOD9310436
_publ_section_title
;
Structure prediction by ZEFSAII (Michael W. Deem and Ramdas Pophale) SiO2 
 PCOD9310436
Probable space group: P 2 2 21
;
_chemical_formula_sum "Si O2"
_cell_formula_units_Z 16
_cell_length_a 6.965956
_cell_length_b 19.247781
_cell_length_c 5.169977
_cell_angle_alpha 90.000000
_cell_angle_beta 90.000000
_cell_angle_gamma 90.000000
_cell_volume 693.186357
_symmetry_space_group_name_H-M "P 2 2 21"
_symmetry_group_IT_number 17
_symmetry_cell_setting 'orthorhombic'
loop_
_space_group_symop_operation_xyz
x,y,z
-x,-y,1/2+z
x,-y,-z
-x,y,1/2-z
loop_
_atom_site_type_symbol
_atom_site_label
_atom_site_fract_x
_atom_site_fract_y
_atom_site_fract_z
Si Si1 0.137828 0.000000 0.000000
Si Si2 0.279591 0.291676 0.809163
Si Si3 0.136653 0.150144 0.999894
Si Si4 0.269643 0.644319 0.692797
Si Si5 0.365619 0.500000 0.500000
O O1 0.241073 0.925183 0.989436
O O2 0.000000 0.999889 0.250000
O O3 0.500000 0.308628 0.750000
O O4 0.266901 0.216788 0.944650
O O5 0.199508 0.299740 0.519301
O O6 0.192150 0.344067 0.019692
O O7 0.000000 0.148201 0.750000
O O8 0.000000 0.157248 0.250000
O O9 0.500000 0.651424 0.750000
O O10 0.246684 0.568133 0.574669
O O11 0.500000 0.515422 0.250000
#
# Coordination Sequence:
#
# PCOD9310436 Si02
#       5
#     2   4   4   4   2
#     4   8  16  30  50  72  94 120 162 210 244 280
#     4  10  19  31  48  73 103 129 157 203 257 300
#     4  10  19  33  53  75  97 130 171 210 248 298
#     4   9  17  28  44  69  99 128 159 200 249 294
#     4  10  16  26  44  68  96 128 164 202 242 290
#
# _framework density 23.081814999999999
#
# number of rings (size 3 to 8) (size 9 to 14) (size 15 to 20)
#    0.000    2.500    0.000    5.250    0.000    0.000 
#    0.000    0.000    0.000   13.500    0.000   17.500 
#    0.000    0.000    0.000    0.000    0.000    0.000 
#
# Total GULP energy -89185.569084 kJ/mol
# GULP energy per Si atom -5574.098068 kJ/mol
# Density = 2.302928 g / cm^3
# Si number density = 23.081815 Si / 1000 Ang^3
#
#
#
# Elastic Constant Matrix: (Units=GPa)
#
#
# Indices 1 2 3 4 5 6 
#
# 1 37.5843 -10.3674 19.4762 0.0000 0.0000 0.0000
# 2 -10.3674 169.9139 61.5437 0.0000 0.0000 0.0000
# 3 19.4762 61.5437 188.4355 0.0000 0.0000 0.0000
# 4 0.0000 0.0000 0.0000 127.4412 0.0000 0.0000
# 5 0.0000 0.0000 0.0000 0.0000 3.2787 0.0000
# 6 0.0000 0.0000 0.0000 0.0000 0.0000 18.9475
#
#
#
# Elastic Compliance Matrix: (Units=1/GPa)
#
#
# Indices 1 2 3 4 5 6 
#
# 1 0.029671 0.003313 -0.004149 0.000000 0.000000 0.000000
# 2 0.003313 0.007045 -0.002643 0.000000 0.000000 0.000000
# 3 -0.004149 -0.002643 0.006599 0.000000 0.000000 0.000000
# 4 0.000000 0.000000 0.000000 0.007847 0.000000 0.000000
# 5 0.000000 0.000000 0.000000 0.000000 0.305002 0.000000
# 6 0.000000 0.000000 0.000000 0.000000 0.000000 0.052778
#
#
# Mechanical properties :
#
#
# Convention : Reuss Voigt Hill
#
# Bulk Modulus (GPa) = 27.50538 59.69319 43.59929
# Shear Modulus (GPa) = 11.68177 51.61887 31.65032
#
# Velocity S-wave (km/s) = 2.25211 4.73413 3.70702
# Velocity P-wave (km/s) = 4.32493 7.46996 6.10350
#
# Compressibility (1/GPa) = 0.03635653
#
# Stress axis : x y z
#
# Youngs Moduli (GPa) = 33.70335 141.94655 151.53867
#
# Poissons Ratio (x) = -0.47028 0.62870
# Poissons Ratio (y) = -0.11166 0.40057
# Poissons Ratio (z) = 0.13983 0.37521
#
# Static dielectric constant tensor:
#      x y z
#    x 1.729960 0.000000 0.000000 
#    y 0.000000 1.959270 0.000000 
#    z 0.000000 0.000000 1.894670 
# 
# From -- ./inp_files/719.got.cif
#   From: 2010.05.17/outbox.cif.g08.bks.cpg/sg17_1_cif.got.tgz:719.got - 2010.06.03 22:34:06.
