data_PCOD9310534
_publ_section_title
;
Structure prediction by ZEFSAII (Michael W. Deem and Ramdas Pophale) SiO2 
 PCOD9310534
Probable space group: P 2 2 21
;
_chemical_formula_sum "Si O2"
_cell_formula_units_Z 20
_cell_length_a 14.173907
_cell_length_b 8.675535
_cell_length_c 8.958997
_cell_angle_alpha 90.000000
_cell_angle_beta 90.000000
_cell_angle_gamma 90.000000
_cell_volume 1101.654052
_symmetry_space_group_name_H-M "P 2 2 21"
_symmetry_group_IT_number 17
_symmetry_cell_setting 'orthorhombic'
loop_
_space_group_symop_operation_xyz
x,y,z
-x,-y,1/2+z
x,-y,-z
-x,y,1/2-z
loop_
_atom_site_type_symbol
_atom_site_label
_atom_site_fract_x
_atom_site_fract_y
_atom_site_fract_z
Si Si1 0.251581 0.968786 0.161993
Si Si2 0.000000 0.777720 0.750000
Si Si3 0.394627 0.717486 0.249790
Si Si4 0.679374 0.500000 0.000000
Si Si5 0.929695 0.000000 0.500000
Si Si6 0.790899 0.311804 0.244526
Si Si7 0.313973 0.500000 0.000000
O O1 0.237039 0.131616 0.242751
O O2 0.313411 0.846739 0.249166
O O3 0.299335 0.000000 0.000000
O O4 0.146089 0.914902 0.110546
O O5 0.011510 0.886213 0.896395
O O6 0.096143 0.682746 0.739850
O O7 0.500000 0.782918 0.250000
O O8 0.381622 0.606241 0.390985
O O9 0.375193 0.612850 0.103726
O O10 0.743963 0.392395 0.103474
O O11 0.750219 0.397716 0.390064
#
# Coordination Sequence:
#
# PCOD9310534 Si02
#       7
#     4   2   4   2   2   4   2
#     4   9  18  39  58  82 105 153 183 226 279 327
#     4  10  18  34  56  86 106 148 192 222 270 338
#     4  11  21  38  60  84 110 149 193 228 278 341
#     4  10  25  39  52  88 118 150 172 243 295 308
#     4   8  18  32  56  82 116 140 182 230 286 320
#     4  10  21  38  58  81 117 148 188 227 283 333
#     4  10  19  39  58  74 122 154 178 225 289 346
#
# _framework density 18.154520000000002
#
# number of rings (size 3 to 8) (size 9 to 14) (size 15 to 20)
#    0.600    1.600    2.000    0.600    0.000    4.800 
#    3.600    1.000    0.000    1.200    0.000    0.000 
#    0.000    0.000    0.000    0.000    0.000    0.000 
#
# Total GULP energy -111458.607951 kJ/mol
# GULP energy per Si atom -5572.930398 kJ/mol
# Density = 1.811320 g / cm^3
# Si number density = 18.154520 Si / 1000 Ang^3
#
#
#
# Elastic Constant Matrix: (Units=GPa)
#
#
# Indices 1 2 3 4 5 6 
#
# 1 90.3488 20.9570 24.9265 0.0000 0.0000 0.0000
# 2 20.9570 60.1710 23.1933 0.0000 0.0000 0.0000
# 3 24.9265 23.1933 88.1424 0.0000 0.0000 0.0000
# 4 0.0000 0.0000 0.0000 26.1386 0.0000 0.0000
# 5 0.0000 0.0000 0.0000 0.0000 6.0720 0.0000
# 6 0.0000 0.0000 0.0000 0.0000 0.0000 -3.4943
#
#
#
# Elastic Compliance Matrix: (Units=1/GPa)
#
#
# Indices 1 2 3 4 5 6 
#
# 1 0.012584 -0.003351 -0.002677 0.000000 0.000000 0.000000
# 2 -0.003351 0.019388 -0.004154 0.000000 0.000000 0.000000
# 3 -0.002677 -0.004154 0.013195 0.000000 0.000000 0.000000
# 4 0.000000 0.000000 0.000000 0.038258 0.000000 0.000000
# 5 0.000000 0.000000 0.000000 0.000000 0.164690 0.000000
# 6 0.000000 0.000000 0.000000 0.000000 0.000000 -0.286180
#
#
# Mechanical properties :
#
#
# Convention : Reuss Voigt Hill
#
# Bulk Modulus (GPa) = 40.31739 41.86843 41.09291
# Shear Modulus (GPa) = -530.00636 17.04895 -256.47870
#
# Velocity S-wave (km/s) = -17.10484 3.06780 -11.89883
# Velocity P-wave (km/s) = 19.17928 5.97167 12.88766
#
# Compressibility (1/GPa) = 0.02480319
#
# Stress axis : x y z
#
# Youngs Moduli (GPa) = 79.46551 51.57941 75.78428
#
# Poissons Ratio (x) = 0.17285 0.20287
# Poissons Ratio (y) = 0.26629 0.31480
# Poissons Ratio (z) = 0.21273 0.21425
#
# Static dielectric constant tensor:
#      x y z
#    x 1.609380 0.000000 0.000000 
#    y 0.000000 1.617920 0.000000 
#    z 0.000000 0.000000 1.635540 
# 
# From -- ./inp_files/5049.got.cif
#   From: 2010.05.17/outbox.cif.g08.bks.cpg/sg17_3_cif.got.tgz:5049.got - 2010.06.03 22:34:06.
