data_PCOD9310107
_publ_section_title
;
Structure prediction by ZEFSAII (Michael W. Deem and Ramdas Pophale) SiO2 
 PCOD9310107
Probable space group: P 2 2 2
;
_chemical_formula_sum "Si O2"
_cell_formula_units_Z 30
_cell_length_a 14.967397
_cell_length_b 9.760903
_cell_length_c 11.565371
_cell_angle_alpha 90.000000
_cell_angle_beta 90.000000
_cell_angle_gamma 90.000000
_cell_volume 1689.646465
_symmetry_space_group_name_H-M "P 2 2 2"
_symmetry_group_IT_number 16
_symmetry_cell_setting 'orthorhombic'
loop_
_space_group_symop_operation_xyz
x,y,z
-x,-y,z
x,-y,-z
-x,y,-z
loop_
_atom_site_type_symbol
_atom_site_label
_atom_site_fract_x
_atom_site_fract_y
_atom_site_fract_z
Si Si1 0.395741 0.163032 0.014368
Si Si2 0.161260 0.847310 0.354351
Si Si3 0.393207 0.491566 0.631496
Si Si4 0.643305 0.790719 0.282250
Si Si5 0.500000 0.000000 0.303980
Si Si6 0.998370 0.657245 0.359128
Si Si7 0.836899 0.154875 0.627551
Si Si8 0.653996 0.784587 0.770846
O O1 0.372024 0.193752 0.145918
O O2 0.500000 0.197788 0.000000
O O3 0.343355 0.234760 0.909338
O O4 0.384599 0.000000 0.000000
O O5 0.085029 0.740707 0.317983
O O6 0.179841 0.822058 0.490660
O O7 0.252131 0.835025 0.281496
O O8 0.125524 0.002609 0.352305
O O9 0.500000 0.500000 0.626936
O O10 0.357868 0.500000 0.500000
O O11 0.362772 0.631321 0.690053
O O12 0.368344 0.354062 0.700611
O O13 0.741149 0.839863 0.314025
O O14 0.568983 0.883388 0.351343
O O15 0.574195 0.102095 0.245900
O O16 0.000000 0.500000 0.322297
O O17 0.000000 0.660756 0.500000
O O18 0.907213 0.734464 0.327484
#
# Coordination Sequence:
#
# PCOD9310107 Si02
#       8
#     4   4   4   4   2   4   4   4
#     4  11  18  35  61  84 115 151 203 257 285 330
#     4  10  20  35  55  83 114 148 192 240 293 353
#     4  11  24  39  51  76 120 158 190 239 294 349
#     4  12  22  38  58  85 116 157 200 242 295 341
#     4  12  20  39  59  84 116 160 207 247 284 346
#     4   9  19  35  57  82 109 146 188 240 300 354
#     4  10  20  35  55  83 114 148 192 240 293 353
#     4  12  22  38  58  85 116 157 200 242 295 341
#
# _framework density 17.755192000000001
#
# number of rings (size 3 to 8) (size 9 to 14) (size 15 to 20)
#    0.000    1.200    5.333    1.200    1.867    2.133 
#    0.000    4.000    0.000    0.800    0.000    3.733 
#    0.000    0.000    0.000    0.000    0.000    0.000 
#
# Total GULP energy -167206.068035 kJ/mol
# GULP energy per Si atom -5573.535601 kJ/mol
# Density = 1.771478 g / cm^3
# Si number density = 17.755192 Si / 1000 Ang^3
#
#
#
# Elastic Constant Matrix: (Units=GPa)
#
#
# Indices 1 2 3 4 5 6 
#
# 1 109.2642 46.8923 35.0946 0.0000 0.0000 0.0000
# 2 46.8923 117.7962 40.7770 0.0000 0.0000 0.0000
# 3 35.0946 40.7770 75.7062 0.0000 0.0000 0.0000
# 4 0.0000 0.0000 0.0000 32.4270 0.0000 0.0000
# 5 0.0000 0.0000 0.0000 0.0000 14.5416 0.0000
# 6 0.0000 0.0000 0.0000 0.0000 0.0000 39.5195
#
#
#
# Elastic Compliance Matrix: (Units=1/GPa)
#
#
# Indices 1 2 3 4 5 6 
#
# 1 0.011790 -0.003443 -0.003611 0.000000 0.000000 0.000000
# 2 -0.003443 0.011441 -0.004566 0.000000 0.000000 0.000000
# 3 -0.003611 -0.004566 0.017342 0.000000 0.000000 0.000000
# 4 0.000000 0.000000 0.000000 0.030839 0.000000 0.000000
# 5 0.000000 0.000000 0.000000 0.000000 0.068768 0.000000
# 6 0.000000 0.000000 0.000000 0.000000 0.000000 0.025304
#
#
# Mechanical properties :
#
#
# Convention : Reuss Voigt Hill
#
# Bulk Modulus (GPa) = 57.69519 60.92158 59.30839
# Shear Modulus (GPa) = 25.70694 29.29779 27.50237
#
# Velocity S-wave (km/s) = 3.80920 4.06655 3.93997
# Velocity P-wave (km/s) = 7.20500 7.51236 7.36028
#
# Compressibility (1/GPa) = 0.01733247
#
# Stress axis : x y z
#
# Youngs Moduli (GPa) = 84.82087 87.40859 57.66363
#
# Poissons Ratio (x) = 0.30098 0.20820
# Poissons Ratio (y) = 0.29207 0.26329
# Poissons Ratio (z) = 0.30625 0.39910
#
# Static dielectric constant tensor:
#      x y z
#    x 1.564580 0.000000 0.000000 
#    y 0.000000 1.626340 0.000000 
#    z 0.000000 0.000000 1.584960 
# 
# From -- ./inp_files/4813.got.cif
#   From: 2010.05.17/outbox.cif.g08.bks.cpg/sg16_3_cif.got.tgz:4813.got - 2010.06.03 22:28:35.
