data_PCOD9310418
_publ_section_title
;
Structure prediction by ZEFSAII (Michael W. Deem and Ramdas Pophale) SiO2 
 PCOD9310418
Probable space group: P 2 2 2
;
_chemical_formula_sum "Si O2"
_cell_formula_units_Z 18
_cell_length_a 5.127068
_cell_length_b 5.484833
_cell_length_c 25.780473
_cell_angle_alpha 90.000000
_cell_angle_beta 90.000000
_cell_angle_gamma 90.000000
_cell_volume 724.975562
_symmetry_space_group_name_H-M "P 2 2 2"
_symmetry_group_IT_number 16
_symmetry_cell_setting 'orthorhombic'
loop_
_space_group_symop_operation_xyz
x,y,z
-x,-y,z
x,-y,-z
-x,y,-z
loop_
_atom_site_type_symbol
_atom_site_label
_atom_site_fract_x
_atom_site_fract_y
_atom_site_fract_z
Si Si1 0.259614 0.336265 0.919794
Si Si2 0.500000 0.000000 0.000000
Si Si3 0.168224 0.751134 0.195085
Si Si4 0.738262 0.159843 0.418925
Si Si5 0.000000 0.500000 0.500000
Si Si6 0.170482 0.251451 0.693590
O O1 0.500000 0.500000 0.935613
O O2 0.294683 0.121708 0.959981
O O3 0.307794 0.255070 0.860191
O O4 0.000000 0.500000 0.922498
O O5 0.315328 0.749333 0.250624
O O6 0.000000 0.500000 0.195702
O O7 0.000000 0.000000 0.194157
O O8 0.675374 0.249127 0.360473
O O9 0.812622 0.357356 0.460936
O O10 0.500000 0.000000 0.437097
O O11 0.000000 0.000000 0.414924
O O12 0.000000 0.500000 0.691692
O O13 0.000000 0.000000 0.694247
#
# Coordination Sequence:
#
# PCOD9310418 Si02
#       6
#     4   1   4   4   1   4
#     4  11  28  51  73 111 149 199 259 318 390 466
#     4  12  30  50  80 104 160 206 270 326 396 470
#     4   9  20  42  75 109 152 196 251 317 390 466
#     4  11  26  47  73 112 149 199 260 318 388 466
#     4  12  26  50  80 104 160 210 266 322 400 470
#     4   9  18  42  73 111 152 195 249 320 388 465
#
# _framework density 24.828423000000001
#
# number of rings (size 3 to 8) (size 9 to 14) (size 15 to 20)
#    0.000    1.778    1.111    0.667    6.222    6.222 
#    2.000    6.667    0.000    0.000    0.000    0.000 
#    0.000    0.000    0.000    0.000    0.000    0.000 
#
# Total GULP energy -100616.166114 kJ/mol
# GULP energy per Si atom -5589.787006 kJ/mol
# Density = 2.477191 g / cm^3
# Si number density = 24.828423 Si / 1000 Ang^3
#
#
#
# Elastic Constant Matrix: (Units=GPa)
#
#
# Indices 1 2 3 4 5 6 
#
# 1 97.9753 31.4468 26.6099 0.0000 0.0000 0.0000
# 2 31.4468 128.6438 49.5455 0.0000 0.0000 0.0000
# 3 26.6099 49.5455 272.2185 0.0000 0.0000 0.0000
# 4 0.0000 0.0000 0.0000 54.2263 0.0000 0.0000
# 5 0.0000 0.0000 0.0000 0.0000 -210.3963 0.0000
# 6 0.0000 0.0000 0.0000 0.0000 0.0000 39.4251
#
#
#
# Elastic Compliance Matrix: (Units=1/GPa)
#
#
# Indices 1 2 3 4 5 6 
#
# 1 0.011178 -0.002486 -0.000640 0.000000 0.000000 0.000000
# 2 -0.002486 0.008912 -0.001379 0.000000 0.000000 0.000000
# 3 -0.000640 -0.001379 0.003987 0.000000 0.000000 0.000000
# 4 0.000000 0.000000 0.000000 0.018441 0.000000 0.000000
# 5 0.000000 0.000000 0.000000 0.000000 -0.004753 0.000000
# 6 0.000000 0.000000 0.000000 0.000000 0.000000 0.025365
#
#
# Mechanical properties :
#
#
# Convention : Reuss Voigt Hill
#
# Bulk Modulus (GPa) = 66.36937 79.33801 72.85369
# Shear Modulus (GPa) = 64.79736 2.73338 33.76537
#
# Velocity S-wave (km/s) = 5.11417 1.05038 3.69175
# Velocity P-wave (km/s) = 7.85253 5.78748 6.89772
#
# Compressibility (1/GPa) = 0.01506719
#
# Stress axis : x y z
#
# Youngs Moduli (GPa) = 89.45776 112.20539 250.80852
#
# Poissons Ratio (x) = 0.27894 0.16058
# Poissons Ratio (y) = 0.22239 0.34588
# Poissons Ratio (z) = 0.05728 0.15474
#
# Static dielectric constant tensor:
#      x y z
#    x 2.888820 0.000000 0.000000 
#    y 0.000000 2.030290 0.000000 
#    z 0.000000 0.000000 2.000570 
# 
# From -- ./inp_files/9604.got.cif
#   From: 2010.05.17/outbox.cif.g08.bks.cpg/sg16_5_cif.got.tgz:9604.got - 2010.06.03 22:28:35.
