data_PCOD9310775
_publ_section_title
;
Structure prediction by ZEFSAII (Michael W. Deem and Ramdas Pophale) SiO2 
 PCOD9310775
Probable space group: P 2 2 21
;
_chemical_formula_sum "Si O2"
_cell_formula_units_Z 32
_cell_length_a 16.332420
_cell_length_b 11.987352
_cell_length_c 8.756248
_cell_angle_alpha 90.000000
_cell_angle_beta 90.000000
_cell_angle_gamma 90.000000
_cell_volume 1714.319840
_symmetry_space_group_name_H-M "P 2 2 21"
_symmetry_group_IT_number 17
_symmetry_cell_setting 'orthorhombic'
loop_
_space_group_symop_operation_xyz
x,y,z
-x,-y,1/2+z
x,-y,-z
-x,y,1/2-z
loop_
_atom_site_type_symbol
_atom_site_label
_atom_site_fract_x
_atom_site_fract_y
_atom_site_fract_z
Si Si1 0.298171 0.613534 0.160757
Si Si2 0.231996 0.607452 0.840407
Si Si3 0.570091 0.869024 0.027171
Si Si4 0.731517 0.173859 0.152799
Si Si5 0.397560 0.185242 0.883879
Si Si6 0.088349 0.465868 0.676554
Si Si7 0.815739 0.754916 0.148654
Si Si8 0.764316 0.953244 0.349954
O O1 0.304726 0.482727 0.188923
O O2 0.374524 0.684825 0.105413
O O3 0.262837 0.678213 0.306002
O O4 0.231215 0.622112 0.023334
O O5 0.251587 0.725700 0.768468
O O6 0.153871 0.544901 0.765950
O O7 0.585296 0.840889 0.205263
O O8 0.474306 0.840123 0.008335
O O9 0.640881 0.817513 0.921629
O O10 0.578413 0.000000 0.000000
O O11 0.742037 0.054056 0.234866
O O12 0.797067 0.194328 0.016956
O O13 0.317444 0.109900 0.912843
O O14 0.089648 0.500000 0.500000
O O15 0.113149 0.334865 0.673194
O O16 0.000000 0.481285 0.750000
O O17 0.815025 0.858777 0.262921
O O18 0.807700 0.000000 0.500000
#
# Coordination Sequence:
#
# PCOD9310775 Si02
#       8
#     4   4   4   4   4   4   4   4
#     4   9  19  38  56  82 117 158 201 248 305 353
#     4  10  22  37  64  86 119 156 196 249 296 370
#     4  11  20  34  54  83 117 156 202 262 314 355
#     4  12  19  36  61  91 118 162 212 248 304 363
#     4  10  20  35  55  81 119 157 201 265 312 348
#     4  11  24  42  66  96 123 149 195 248 312 372
#     4  10  20  37  60  87 124 157 196 249 293 363
#     4  11  21  36  58  91 122 160 208 254 302 359
#
# _framework density 18.666294000000001
#
# number of rings (size 3 to 8) (size 9 to 14) (size 15 to 20)
#    0.000    1.500    5.000    2.250    3.500    0.000 
#    0.000    0.000   11.000    2.250    0.000    0.000 
#    0.000    0.000    0.000    0.000    0.000    0.000 
#
# Total GULP energy -178324.114841 kJ/mol
# GULP energy per Si atom -5572.628589 kJ/mol
# Density = 1.862381 g / cm^3
# Si number density = 18.666294 Si / 1000 Ang^3
#
#
#
# Elastic Constant Matrix: (Units=GPa)
#
#
# Indices 1 2 3 4 5 6 
#
# 1 68.5806 38.2852 16.1870 0.0000 0.0000 0.0000
# 2 38.2852 123.9108 17.3242 0.0000 0.0000 0.0000
# 3 16.1870 17.3242 56.1349 0.0000 0.0000 0.0000
# 4 0.0000 0.0000 0.0000 34.9980 0.0000 0.0000
# 5 0.0000 0.0000 0.0000 0.0000 16.6168 0.0000
# 6 0.0000 0.0000 0.0000 0.0000 0.0000 22.4429
#
#
#
# Elastic Compliance Matrix: (Units=1/GPa)
#
#
# Indices 1 2 3 4 5 6 
#
# 1 0.018326 -0.005146 -0.003697 0.000000 0.000000 0.000000
# 2 -0.005146 0.009879 -0.001565 0.000000 0.000000 0.000000
# 3 -0.003697 -0.001565 0.019363 0.000000 0.000000 0.000000
# 4 0.000000 0.000000 0.000000 0.028573 0.000000 0.000000
# 5 0.000000 0.000000 0.000000 0.000000 0.060180 0.000000
# 6 0.000000 0.000000 0.000000 0.000000 0.000000 0.044558
#
#
# Mechanical properties :
#
#
# Convention : Reuss Voigt Hill
#
# Bulk Modulus (GPa) = 37.37734 43.57991 40.47862
# Shear Modulus (GPa) = 23.74038 26.60020 25.17029
#
# Velocity S-wave (km/s) = 3.57014 3.77906 3.67609
# Velocity P-wave (km/s) = 6.08786 6.51455 6.30481
#
# Compressibility (1/GPa) = 0.02675418
#
# Stress axis : x y z
#
# Youngs Moduli (GPa) = 54.56611 101.22501 51.64443
#
# Poissons Ratio (x) = 0.52086 0.19091
# Poissons Ratio (y) = 0.28077 0.08083
# Poissons Ratio (z) = 0.20171 0.15842
#
# Static dielectric constant tensor:
#      x y z
#    x 1.678310 0.000000 0.000000 
#    y 0.000000 1.659680 0.000000 
#    z 0.000000 0.000000 1.688020 
# 
# From -- ./inp_files/5279.got.cif
#   From: 2010.05.17/outbox.cif.g08.bks.cpg/sg17_3_cif.got.tgz:5279.got - 2010.06.03 22:34:06.
