data_PCOD9310288
_publ_section_title
;
Structure prediction by ZEFSAII (Michael W. Deem and Ramdas Pophale) SiO2 
 PCOD9310288
Probable space group: P 2 2 2
;
_chemical_formula_sum "Si O2"
_cell_formula_units_Z 32
_cell_length_a 12.063153
_cell_length_b 13.883572
_cell_length_c 10.151844
_cell_angle_alpha 90.000000
_cell_angle_beta 90.000000
_cell_angle_gamma 90.000000
_cell_volume 1700.227313
_symmetry_space_group_name_H-M "P 2 2 2"
_symmetry_group_IT_number 16
_symmetry_cell_setting 'orthorhombic'
loop_
_space_group_symop_operation_xyz
x,y,z
-x,-y,z
x,-y,-z
-x,y,-z
loop_
_atom_site_type_symbol
_atom_site_label
_atom_site_fract_x
_atom_site_fract_y
_atom_site_fract_z
Si Si1 0.498410 0.888027 0.776959
Si Si2 0.774141 0.387101 0.790076
Si Si3 0.214867 0.609161 0.491089
Si Si4 0.122048 0.261486 0.981421
Si Si5 0.480019 0.386607 0.145670
Si Si6 0.419768 0.285824 0.615233
Si Si7 0.680164 0.887164 0.006748
Si Si8 0.104959 0.570689 0.229210
O O1 0.535545 0.819157 0.658264
O O2 0.381704 0.867672 0.852759
O O3 0.500000 0.000000 0.738094
O O4 0.589227 0.875189 0.892124
O O5 0.813778 0.366656 0.641237
O O6 0.644732 0.365557 0.807848
O O7 0.793012 0.501091 0.810689
O O8 0.844614 0.328323 0.894904
O O9 0.267441 0.500000 0.500000
O O10 0.297776 0.690314 0.436467
O O11 0.118743 0.596014 0.383257
O O12 0.111660 0.334336 0.858264
O O13 0.217931 0.182361 0.976292
O O14 0.000000 0.217992 0.000000
O O15 0.500000 0.500000 0.140995
O O16 0.563520 0.344030 0.250795
O O17 0.500000 0.346189 0.000000
O O18 0.500000 0.322844 0.500000
O O19 0.712180 0.000000 0.000000
O O20 0.000000 0.500000 0.207495
#
# Coordination Sequence:
#
# PCOD9310288 Si02
#       8
#     4   4   4   4   4   4   4   4
#     4   9  20  40  64  93 122 157 199 251 312 377
#     4  11  23  39  54  83 121 159 206 248 301 351
#     4  10  23  39  58  81 120 170 208 246 288 367
#     4  12  24  38  61  89 123 154 202 265 308 356
#     4  11  25  36  54  86 121 165 205 250 298 365
#     4  12  23  36  59  89 126 163 199 247 304 365
#     4   9  20  39  66  92 121 156 199 251 315 380
#     4  11  23  41  59  83 115 162 208 252 302 349
#
# _framework density 18.821014000000002
#
# number of rings (size 3 to 8) (size 9 to 14) (size 15 to 20)
#    0.000    1.375    2.500    4.125    8.750    2.750 
#    0.000    0.000    0.000    0.000    0.000    0.000 
#    0.000    2.000    0.000    0.000    0.000    0.000 
#
# Total GULP energy -178652.861568 kJ/mol
# GULP energy per Si atom -5582.901924 kJ/mol
# Density = 1.877818 g / cm^3
# Si number density = 18.821014 Si / 1000 Ang^3
#
#
#
# Elastic Constant Matrix: (Units=GPa)
#
#
# Indices 1 2 3 4 5 6 
#
# 1 81.3666 41.0850 18.9005 0.0000 0.0000 0.0000
# 2 41.0850 96.4593 37.9869 0.0000 0.0000 0.0000
# 3 18.9005 37.9869 106.6097 0.0000 0.0000 0.0000
# 4 0.0000 0.0000 0.0000 18.8054 0.0000 0.0000
# 5 0.0000 0.0000 0.0000 0.0000 23.6815 0.0000
# 6 0.0000 0.0000 0.0000 0.0000 0.0000 29.7259
#
#
#
# Elastic Compliance Matrix: (Units=1/GPa)
#
#
# Indices 1 2 3 4 5 6 
#
# 1 0.015677 -0.006494 -0.000465 0.000000 0.000000 0.000000
# 2 -0.006494 0.014749 -0.004104 0.000000 0.000000 0.000000
# 3 -0.000465 -0.004104 0.010925 0.000000 0.000000 0.000000
# 4 0.000000 0.000000 0.000000 0.053176 0.000000 0.000000
# 5 0.000000 0.000000 0.000000 0.000000 0.042227 0.000000
# 6 0.000000 0.000000 0.000000 0.000000 0.000000 0.033641
#
#
# Mechanical properties :
#
#
# Convention : Reuss Voigt Hill
#
# Bulk Modulus (GPa) = 52.01780 53.37560 52.69670
# Shear Modulus (GPa) = 25.13432 26.87342 26.00387
#
# Velocity S-wave (km/s) = 3.65833 3.78278 3.72107
# Velocity P-wave (km/s) = 6.74853 6.89205 6.82067
#
# Compressibility (1/GPa) = 0.01922419
#
# Stress axis : x y z
#
# Youngs Moduli (GPa) = 63.78650 67.79939 91.53407
#
# Poissons Ratio (x) = 0.44030 0.04260
# Poissons Ratio (y) = 0.41424 0.37567
# Poissons Ratio (z) = 0.02969 0.27826
#
# Static dielectric constant tensor:
#      x y z
#    x 1.342220 0.000000 0.000000 
#    y 0.000000 1.672410 0.000000 
#    z 0.000000 0.000000 1.664010 
# 
# From -- ./inp_files/4831.got.cif
#   From: 2010.05.17/outbox.cif.g08.bks.cpg/sg16_3_cif.got.tgz:4831.got - 2010.06.03 22:28:35.
