data_PCOD9310344
_publ_section_title
;
Structure prediction by ZEFSAII (Michael W. Deem and Ramdas Pophale) SiO2 
 PCOD9310344
Probable space group: P 2 2 2
;
_chemical_formula_sum "Si O2"
_cell_formula_units_Z 12
_cell_length_a 5.274338
_cell_length_b 5.213948
_cell_length_c 17.775487
_cell_angle_alpha 90.000000
_cell_angle_beta 90.000000
_cell_angle_gamma 90.000000
_cell_volume 488.828098
_symmetry_space_group_name_H-M "P 2 2 2"
_symmetry_group_IT_number 16
_symmetry_cell_setting 'orthorhombic'
loop_
_space_group_symop_operation_xyz
x,y,z
-x,-y,z
x,-y,-z
-x,y,-z
loop_
_atom_site_type_symbol
_atom_site_label
_atom_site_fract_x
_atom_site_fract_y
_atom_site_fract_z
Si Si1 0.671764 0.254579 0.371918
Si Si2 0.000000 0.500000 0.500000
Si Si3 0.754519 0.657220 0.143280
Si Si4 0.000000 0.000000 0.749891
Si Si5 0.000000 0.500000 0.000000
O O1 0.500000 0.500000 0.352821
O O2 0.822779 0.326071 0.447381
O O3 0.500000 0.000000 0.379992
O O4 0.875143 0.200927 0.307112
O O5 0.500000 0.500000 0.152067
O O6 0.779109 0.906691 0.193722
O O7 0.000000 0.500000 0.170745
O O8 0.824764 0.673143 0.054571
#
# Coordination Sequence:
#
# PCOD9310344 Si02
#       5
#     4   1   4   2   1
#     4  12  31  51  82 114 159 210 270 337 411 491
#     4  12  30  56  76 120 152 216 266 342 406 496
#     4  10  25  46  77 113 160 209 268 331 402 481
#     4  12  30  46  80 116 158 208 270 332 414 482
#     4   8  22  44  78 108 164 210 270 334 402 480
#
# _framework density 24.548507000000001
#
# number of rings (size 3 to 8) (size 9 to 14) (size 15 to 20)
#    1.000    0.000    0.000    3.000   11.667   10.667 
#    0.000    0.000    7.333    0.000    0.000    0.000 
#    0.000    0.000    0.000    0.000    0.000    0.000 
#
# Total GULP energy -67174.511108 kJ/mol
# GULP energy per Si atom -5597.875926 kJ/mol
# Density = 2.449263 g / cm^3
# Si number density = 24.548507 Si / 1000 Ang^3
#
#
#
# Elastic Constant Matrix: (Units=GPa)
#
#
# Indices 1 2 3 4 5 6 
#
# 1 179.3543 74.1226 73.8705 0.0000 0.0000 0.0000
# 2 74.1226 134.7905 73.7116 0.0000 0.0000 0.0000
# 3 73.8705 73.7116 208.7313 0.0000 0.0000 0.0000
# 4 0.0000 0.0000 0.0000 -2.4489 0.0000 0.0000
# 5 0.0000 0.0000 0.0000 0.0000 23.8500 0.0000
# 6 0.0000 0.0000 0.0000 0.0000 0.0000 38.2869
#
#
#
# Elastic Compliance Matrix: (Units=1/GPa)
#
#
# Indices 1 2 3 4 5 6 
#
# 1 0.007576 -0.003346 -0.001500 0.000000 0.000000 0.000000
# 2 -0.003346 0.010672 -0.002585 0.000000 0.000000 0.000000
# 3 -0.001500 -0.002585 0.006234 0.000000 0.000000 0.000000
# 4 0.000000 0.000000 0.000000 -0.408354 0.000000 0.000000
# 5 0.000000 0.000000 0.000000 0.000000 0.041929 0.000000
# 6 0.000000 0.000000 0.000000 0.000000 0.000000 0.026119
#
#
# Mechanical properties :
#
#
# Convention : Reuss Voigt Hill
#
# Bulk Modulus (GPa) = 103.92706 107.36505 105.64605
# Shear Modulus (GPa) = -16.79227 32.01571 7.61172
#
# Velocity S-wave (km/s) = -2.61826 3.61526 1.76279
# Velocity P-wave (km/s) = 5.76948 7.82673 6.87548
#
# Compressibility (1/GPa) = 0.00962213
#
# Stress axis : x y z
#
# Youngs Moduli (GPa) = 131.99537 93.69937 160.40312
#
# Poissons Ratio (x) = 0.31353 0.24053
# Poissons Ratio (y) = 0.44167 0.41459
# Poissons Ratio (z) = 0.19793 0.24218
#
# Static dielectric constant tensor:
#      x y z
#    x 2.087560 0.000000 0.000000 
#    y 0.000000 1.660810 0.000000 
#    z 0.000000 0.000000 1.928260 
# 
# From -- ./inp_files/8416.got.cif
#   From: 2010.05.17/outbox.cif.g08.bks.cpg/sg16_5_cif.got.tgz:8416.got - 2010.06.03 22:28:35.
