data_PCOD9310493
_publ_section_title
;
Structure prediction by ZEFSAII (Michael W. Deem and Ramdas Pophale) SiO2 
 PCOD9310493
Probable space group: P 2 2 21
;
_chemical_formula_sum "Si O2"
_cell_formula_units_Z 24
_cell_length_a 5.473939
_cell_length_b 12.917073
_cell_length_c 17.245318
_cell_angle_alpha 90.000000
_cell_angle_beta 90.000000
_cell_angle_gamma 90.000000
_cell_volume 1219.369350
_symmetry_space_group_name_H-M "P 2 2 21"
_symmetry_group_IT_number 17
_symmetry_cell_setting 'orthorhombic'
loop_
_space_group_symop_operation_xyz
x,y,z
-x,-y,1/2+z
x,-y,-z
-x,y,1/2-z
loop_
_atom_site_type_symbol
_atom_site_label
_atom_site_fract_x
_atom_site_fract_y
_atom_site_fract_z
Si Si1 0.500000 0.925173 0.750000
Si Si2 0.001721 0.672435 0.845575
Si Si3 0.000000 0.760000 0.250000
Si Si4 0.499471 0.570687 0.838600
Si Si5 0.533690 0.000000 0.500000
Si Si6 0.500000 0.369291 0.750000
Si Si7 0.137908 0.054591 0.854328
Si Si8 0.221785 0.875447 0.608020
O O1 0.403634 0.855870 0.679801
O O2 0.294320 0.998649 0.786865
O O3 0.761007 0.606797 0.869660
O O4 0.970234 0.783368 0.886673
O O5 0.000000 0.682264 0.750000
O O6 0.251336 0.617554 0.872017
O O7 0.249269 0.694380 0.258274
O O8 0.051044 0.835318 0.176789
O O9 0.500000 0.611288 0.750000
O O10 0.480761 0.447549 0.823684
O O11 0.696289 0.953904 0.430703
O O12 0.372629 0.904574 0.532307
O O13 0.908982 0.982736 0.872259
#
# Coordination Sequence:
#
# PCOD9310493 Si02
#       8
#     2   4   2   4   2   2   4   4
#     4  10  19  33  54  82 126 156 209 251 304 354
#     4  10  18  30  57  87 120 161 186 245 314 383
#     4  12  22  36  66  90 124 170 218 254 318 378
#     4   8  18  33  50  83 127 148 189 246 328 371
#     4  10  26  40  56  76 146 170 216 254 308 366
#     4  10  21  37  56  90 132 158 191 273 334 358
#     4  11  22  39  56  90 125 172 213 258 301 383
#     4  11  22  35  56  85 126 172 201 257 308 377
#
# _framework density 19.682307000000002
#
# number of rings (size 3 to 8) (size 9 to 14) (size 15 to 20)
#    0.500    1.333    1.667    3.000   10.500    0.000 
#    0.000    0.000    0.000    0.000    0.000    1.167 
#    0.000    0.000    0.000    0.000    0.000    0.000 
#
# Total GULP energy -133758.175346 kJ/mol
# GULP energy per Si atom -5573.257306 kJ/mol
# Density = 1.963751 g / cm^3
# Si number density = 19.682307 Si / 1000 Ang^3
#
#
#
# Elastic Constant Matrix: (Units=GPa)
#
#
# Indices 1 2 3 4 5 6 
#
# 1 134.2010 62.5554 32.0453 0.0000 0.0000 0.0000
# 2 62.5554 122.8077 24.9283 0.0000 0.0000 0.0000
# 3 32.0453 24.9283 60.3383 0.0000 0.0000 0.0000
# 4 0.0000 0.0000 0.0000 -7.5296 0.0000 0.0000
# 5 0.0000 0.0000 0.0000 0.0000 26.3854 0.0000
# 6 0.0000 0.0000 0.0000 0.0000 0.0000 46.8904
#
#
#
# Elastic Compliance Matrix: (Units=1/GPa)
#
#
# Indices 1 2 3 4 5 6 
#
# 1 0.010464 -0.004587 -0.003662 0.000000 0.000000 0.000000
# 2 -0.004587 0.010899 -0.002067 0.000000 0.000000 0.000000
# 3 -0.003662 -0.002067 0.019372 0.000000 0.000000 0.000000
# 4 0.000000 0.000000 0.000000 -0.132810 0.000000 0.000000
# 5 0.000000 0.000000 0.000000 0.000000 0.037900 0.000000
# 6 0.000000 0.000000 0.000000 0.000000 0.000000 0.021326
#
#
# Mechanical properties :
#
#
# Convention : Reuss Voigt Hill
#
# Bulk Modulus (GPa) = 49.74342 61.82278 55.78310
# Shear Modulus (GPa) = -906.50793 26.33710 -440.08542
#
# Velocity S-wave (km/s) = -21.48418 3.66199 -14.96930
# Velocity P-wave (km/s) = 24.29194 7.02558 16.44293
#
# Compressibility (1/GPa) = 0.02010316
#
# Stress axis : x y z
#
# Youngs Moduli (GPa) = 95.56509 91.75403 51.62043
#
# Poissons Ratio (x) = 0.42085 0.18906
# Poissons Ratio (y) = 0.43833 0.10669
# Poissons Ratio (z) = 0.35000 0.18963
#
# Static dielectric constant tensor:
#      x y z
#    x 1.762670 0.000000 0.000000 
#    y 0.000000 1.712080 0.000000 
#    z 0.000000 0.000000 1.710240 
# 
# From -- ./inp_files/9071.got.cif
#   From: 2010.05.17/outbox.cif.g08.bks.cpg/sg17_5_cif.got.tgz:9071.got - 2010.06.03 22:34:06.
