data_PCOD9310841
_publ_section_title
;
Structure prediction by ZEFSAII (Michael W. Deem and Ramdas Pophale) SiO2 
 PCOD9310841
Probable space group: P 2 2 21
;
_chemical_formula_sum "Si O2"
_cell_formula_units_Z 18
_cell_length_a 12.951229
_cell_length_b 14.133595
_cell_length_c 5.147558
_cell_angle_alpha 90.000000
_cell_angle_beta 90.000000
_cell_angle_gamma 90.000000
_cell_volume 942.247239
_symmetry_space_group_name_H-M "P 2 2 21"
_symmetry_group_IT_number 17
_symmetry_cell_setting 'orthorhombic'
loop_
_space_group_symop_operation_xyz
x,y,z
-x,-y,1/2+z
x,-y,-z
-x,y,1/2-z
loop_
_atom_site_type_symbol
_atom_site_label
_atom_site_fract_x
_atom_site_fract_y
_atom_site_fract_z
Si Si1 0.121839 0.564705 0.249999
Si Si2 0.432244 0.500000 0.000000
Si Si3 0.381455 0.702514 0.831811
Si Si4 0.120949 0.065313 0.748879
Si Si5 0.260272 0.249796 0.685359
O O1 0.143080 0.500000 0.500000
O O2 0.189971 0.658441 0.256920
O O3 0.000000 0.590270 0.250000
O O4 0.140694 0.500000 0.000000
O O5 0.500000 0.466288 0.750000
O O6 0.372055 0.589690 0.887414
O O7 0.500000 0.717292 0.750000
O O8 0.307805 0.736837 0.600539
O O9 0.350500 0.751163 0.100369
O O10 0.191892 0.156857 0.723875
O O11 0.000000 0.093903 0.750000
O O12 0.137739 0.000000 0.500000
O O13 0.140671 0.000000 0.000000
#
# Coordination Sequence:
#
# PCOD9310841 Si02
#       5
#     4   2   4   4   4
#     4  10  22  38  55  84 124 158 192 236 292 370
#     4  10  20  38  56  80 118 166 216 256 298 336
#     4  11  24  39  58  87 124 165 208 261 293 348
#     4  10  22  42  68  96 123 151 199 263 318 369
#     4  12  23  38  65  89 119 163 205 250 305 374
#
# _framework density 19.103265
#
# number of rings (size 3 to 8) (size 9 to 14) (size 15 to 20)
#    0.000    1.333    0.000    6.667    4.667    0.000 
#    0.000    8.889    0.000   13.333    0.000    0.000 
#    0.000    0.000    0.000    0.000    0.000    0.000 
#
# Total GULP energy -100648.386479 kJ/mol
# GULP energy per Si atom -5591.577027 kJ/mol
# Density = 1.905978 g / cm^3
# Si number density = 19.103265 Si / 1000 Ang^3
#
#
#
# Elastic Constant Matrix: (Units=GPa)
#
#
# Indices 1 2 3 4 5 6 
#
# 1 76.7029 56.8594 23.7888 0.0000 0.0000 0.0000
# 2 56.8594 103.4315 36.3870 0.0000 0.0000 0.0000
# 3 23.7888 36.3870 141.6752 0.0000 0.0000 0.0000
# 4 0.0000 0.0000 0.0000 -3.3366 0.0000 0.0000
# 5 0.0000 0.0000 0.0000 0.0000-4993.2953 0.0000
# 6 0.0000 0.0000 0.0000 0.0000 0.0000 21.3545
#
#
#
# Elastic Compliance Matrix: (Units=1/GPa)
#
#
# Indices 1 2 3 4 5 6 
#
# 1 0.022058 -0.011898 -0.000648 0.000000 0.000000 0.000000
# 2 -0.011898 0.017046 -0.002380 0.000000 0.000000 0.000000
# 3 -0.000648 -0.002380 0.007779 0.000000 0.000000 0.000000
# 4 0.000000 0.000000 0.000000 -0.299706 0.000000 0.000000
# 5 0.000000 0.000000 0.000000 0.000000 -0.000200 0.000000
# 6 0.000000 0.000000 0.000000 0.000000 0.000000 0.046829
#
#
# Mechanical properties :
#
#
# Convention : Reuss Voigt Hill
#
# Bulk Modulus (GPa) = 58.71841 61.76444 60.24142
# Shear Modulus (GPa) = -29.29714 -981.40386 -505.35050
#
# Velocity S-wave (km/s) = -3.92039 -22.69034 -16.28221
# Velocity P-wave (km/s) = 3.21114 25.57473 17.94095
#
# Compressibility (1/GPa) = 0.01703043
#
# Stress axis : x y z
#
# Youngs Moduli (GPa) = 45.33443 58.66350 128.55892
#
# Poissons Ratio (x) = 0.69799 0.08330
# Poissons Ratio (y) = 0.53940 0.30600
# Poissons Ratio (z) = 0.02938 0.13963
#
# Static dielectric constant tensor:
#      x y z
#    x 1.710500 0.000000 0.000000 
#    y 0.000000 5.371310 0.000000 
#    z 0.000000 0.000000 1.603560 
# 
# From -- ./inp_files/1342.got.cif
#   From: 2010.05.17/outbox.cif.g08.bks.cpg/sg17_1_cif.got.tgz:1342.got - 2010.06.03 22:34:06.
