data_PCOD9310634
_publ_section_title
;
Structure prediction by ZEFSAII (Michael W. Deem and Ramdas Pophale) SiO2 
 PCOD9310634
Probable space group: P 2 2 21
;
_chemical_formula_sum "Si O2"
_cell_formula_units_Z 32
_cell_length_a 12.206714
_cell_length_b 15.387642
_cell_length_c 8.752615
_cell_angle_alpha 90.000000
_cell_angle_beta 90.000000
_cell_angle_gamma 90.000000
_cell_volume 1644.025951
_symmetry_space_group_name_H-M "P 2 2 21"
_symmetry_group_IT_number 17
_symmetry_cell_setting 'orthorhombic'
loop_
_space_group_symop_operation_xyz
x,y,z
-x,-y,1/2+z
x,-y,-z
-x,y,1/2-z
loop_
_atom_site_type_symbol
_atom_site_label
_atom_site_fract_x
_atom_site_fract_y
_atom_site_fract_z
Si Si1 0.931563 0.689786 0.611859
Si Si2 0.732337 0.378014 0.216864
Si Si3 0.401101 0.459674 0.848089
Si Si4 0.781027 0.678599 0.344142
Si Si5 0.622187 0.010859 0.317065
Si Si6 0.379115 0.800406 0.822738
Si Si7 0.376358 0.179903 0.809467
Si Si8 0.128813 0.401999 0.553823
O O1 0.851190 0.621077 0.697713
O O2 0.848636 0.724537 0.480838
O O3 0.000000 0.736521 0.750000
O O4 0.027048 0.650086 0.510967
O O5 0.659933 0.461441 0.259995
O O6 0.680256 0.286284 0.265695
O O7 0.760714 0.376999 0.038133
O O8 0.500000 0.421315 0.750000
O O9 0.311030 0.389721 0.899923
O O10 0.451752 0.500000 0.000000
O O11 0.711984 0.750712 0.254008
O O12 0.854508 0.621604 0.229814
O O13 0.500000 0.014595 0.250000
O O14 0.665575 0.916864 0.266634
O O15 0.615901 0.000000 0.500000
O O16 0.672678 0.105090 0.278424
O O17 0.500000 0.797341 0.750000
O O18 0.384072 0.804590 0.007027
O O19 0.500000 0.190100 0.750000
O O20 0.110372 0.500000 0.500000
#
# Coordination Sequence:
#
# PCOD9310634 Si02
#       8
#     4   4   4   4   4   4   4   4
#     4  10  23  41  61  83 106 148 192 257 299 338
#     4  11  22  39  55  82 115 149 195 237 288 352
#     4  12  25  37  55  78 118 156 193 230 283 354
#     4  12  23  39  58  85 116 153 192 242 296 356
#     4   8  16  31  53  82 114 150 191 232 277 335
#     4  10  19  34  57  83 118 157 194 230 284 348
#     4  10  20  35  56  87 122 153 190 234 286 348
#     4  11  25  38  61  83 109 147 200 255 307 335
#
# _framework density 19.464414000000001
#
# number of rings (size 3 to 8) (size 9 to 14) (size 15 to 20)
#    0.000    1.500    3.750    1.125    5.250    1.000 
#    0.000    0.000    0.000    0.000    0.000    8.750 
#    0.000    0.000    0.000    0.000    0.000    0.000 
#
# Total GULP energy -178178.473043 kJ/mol
# GULP energy per Si atom -5568.077283 kJ/mol
# Density = 1.942011 g / cm^3
# Si number density = 19.464414 Si / 1000 Ang^3
#
#
#
# Elastic Constant Matrix: (Units=GPa)
#
#
# Indices 1 2 3 4 5 6 
#
# 1 58.2256 9.6108 10.3974 0.0000 0.0000 0.0000
# 2 9.6108 90.4693 -15.0640 0.0000 0.0000 0.0000
# 3 10.3974 -15.0640 36.6291 0.0000 0.0000 0.0000
# 4 0.0000 0.0000 0.0000 15.4352 0.0000 0.0000
# 5 0.0000 0.0000 0.0000 0.0000 35.1339 0.0000
# 6 0.0000 0.0000 0.0000 0.0000 0.0000 -3.5551
#
#
#
# Elastic Compliance Matrix: (Units=1/GPa)
#
#
# Indices 1 2 3 4 5 6 
#
# 1 0.018873 -0.003110 -0.006636 0.000000 0.000000 0.000000
# 2 -0.003110 0.012378 0.005974 0.000000 0.000000 0.000000
# 3 -0.006636 0.005974 0.031641 0.000000 0.000000 0.000000
# 4 0.000000 0.000000 0.000000 0.064787 0.000000 0.000000
# 5 0.000000 0.000000 0.000000 0.000000 0.028463 0.000000
# 6 0.000000 0.000000 0.000000 0.000000 0.000000 -0.281283
#
#
# Mechanical properties :
#
#
# Convention : Reuss Voigt Hill
#
# Bulk Modulus (GPa) = 18.06768 21.69024 19.87896
# Shear Modulus (GPa) = -50.43012 21.42811 -14.50101
#
# Velocity S-wave (km/s) = -5.09560 3.32156 -2.73243
# Velocity P-wave (km/s) = 5.03166 5.08705 0.52938
#
# Compressibility (1/GPa) = 0.05534745
#
# Stress axis : x y z
#
# Youngs Moduli (GPa) = 52.98593 80.78524 31.60445
#
# Poissons Ratio (x) = 0.25123 0.20973
# Poissons Ratio (y) = 0.16478 -0.18879
# Poissons Ratio (z) = 0.35162 -0.48257
#
# Static dielectric constant tensor:
#      x y z
#    x 1.685770 0.000000 0.000000 
#    y 0.000000 1.722100 0.000000 
#    z 0.000000 0.000000 1.772480 
# 
# From -- ./inp_files/4953.got.cif
#   From: 2010.05.17/outbox.cif.g08.bks.cpg/sg17_3_cif.got.tgz:4953.got - 2010.06.03 22:34:06.
