data_PCOD9310999
_publ_section_title
;
Structure prediction by ZEFSAII (Michael W. Deem and Ramdas Pophale) SiO2 
 PCOD9310999
Probable space group: P 2 2 21
;
_chemical_formula_sum "Si O2"
_cell_formula_units_Z 30
_cell_length_a 7.433456
_cell_length_b 12.980480
_cell_length_c 14.631978
_cell_angle_alpha 90.000000
_cell_angle_beta 90.000000
_cell_angle_gamma 90.000000
_cell_volume 1411.837025
_symmetry_space_group_name_H-M "P 2 2 21"
_symmetry_group_IT_number 17
_symmetry_cell_setting 'orthorhombic'
loop_
_space_group_symop_operation_xyz
x,y,z
-x,-y,1/2+z
x,-y,-z
-x,y,1/2-z
loop_
_atom_site_type_symbol
_atom_site_label
_atom_site_fract_x
_atom_site_fract_y
_atom_site_fract_z
Si Si1 0.321397 0.783039 0.417468
Si Si2 0.705970 0.618475 0.222191
Si Si3 0.826933 0.255023 0.109284
Si Si4 0.716090 0.064264 0.754124
Si Si5 0.874346 0.614511 0.541502
Si Si6 0.747479 0.757049 0.383451
Si Si7 0.782524 0.387223 0.258992
Si Si8 0.000000 0.113031 0.250000
O O1 0.247973 0.678008 0.370293
O O2 0.266396 0.795780 0.522284
O O3 0.256273 0.873293 0.349217
O O4 0.536029 0.770636 0.407384
O O5 0.500000 0.642750 0.250000
O O6 0.802473 0.670834 0.308124
O O7 0.725610 0.497602 0.221698
O O8 0.709423 0.296464 0.194560
O O9 0.973370 0.182288 0.159337
O O10 0.923056 0.357772 0.070754
O O11 0.500000 0.050588 0.750000
O O12 0.785003 0.136923 0.670655
O O13 0.826018 0.959761 0.748600
O O14 0.857128 0.500000 0.500000
O O15 0.829585 0.709440 0.474568
O O16 0.751225 0.618776 0.632727
O O17 0.000000 0.383399 0.250000
#
# Coordination Sequence:
#
# PCOD9310999 Si02
#       8
#     4   4   4   4   4   4   4   2
#     4   9  21  40  64  92 126 163 209 279 321 388
#     4   9  18  34  59  89 124 161 211 259 314 387
#     4  11  25  42  57  91 134 167 216 270 327 398
#     4   9  22  46  73  99 127 164 221 283 336 388
#     4  11  21  37  62  91 129 172 210 261 313 389
#     4   9  19  40  63  96 125 159 216 269 324 381
#     4  10  21  37  51  82 130 173 203 258 314 376
#     4  12  24  48  68  92 132 174 218 274 346 396
#
# _framework density 21.248911
#
# number of rings (size 3 to 8) (size 9 to 14) (size 15 to 20)
#    0.000    2.133    3.333    1.600    5.600    1.600 
#    4.800    0.667    0.000    0.000    0.000    0.000 
#    0.000    0.000    0.000    0.000    0.000    0.000 
#
# Total GULP energy -167144.472581 kJ/mol
# GULP energy per Si atom -5571.482419 kJ/mol
# Density = 2.120055 g / cm^3
# Si number density = 21.248911 Si / 1000 Ang^3
#
#
#
# Elastic Constant Matrix: (Units=GPa)
#
#
# Indices 1 2 3 4 5 6 
#
# 1 38.5279 14.2447 25.9792 0.0000 0.0000 0.0000
# 2 14.2447 89.7629 52.2640 0.0000 0.0000 0.0000
# 3 25.9792 52.2640 158.6115 0.0000 0.0000 0.0000
# 4 0.0000 0.0000 0.0000 17.8118 0.0000 0.0000
# 5 0.0000 0.0000 0.0000 0.0000 29.2120 0.0000
# 6 0.0000 0.0000 0.0000 0.0000 0.0000 44.6559
#
#
#
# Elastic Compliance Matrix: (Units=1/GPa)
#
#
# Indices 1 2 3 4 5 6 
#
# 1 0.029562 -0.002316 -0.004079 0.000000 0.000000 0.000000
# 2 -0.002316 0.013967 -0.004223 0.000000 0.000000 0.000000
# 3 -0.004079 -0.004223 0.008364 0.000000 0.000000 0.000000
# 4 0.000000 0.000000 0.000000 0.056142 0.000000 0.000000
# 5 0.000000 0.000000 0.000000 0.000000 0.034233 0.000000
# 6 0.000000 0.000000 0.000000 0.000000 0.000000 0.022393
#
#
# Mechanical properties :
#
#
# Convention : Reuss Voigt Hill
#
# Bulk Modulus (GPa) = 32.61895 52.43092 42.52493
# Shear Modulus (GPa) = 25.49510 31.29690 28.39600
#
# Velocity S-wave (km/s) = 3.46762 3.84196 3.65958
# Velocity P-wave (km/s) = 5.60506 6.66402 6.15734
#
# Compressibility (1/GPa) = 0.03065703
#
# Stress axis : x y z
#
# Youngs Moduli (GPa) = 33.82735 71.59861 119.55701
#
# Poissons Ratio (x) = 0.16585 0.48764
# Poissons Ratio (y) = 0.07836 0.50486
# Poissons Ratio (z) = 0.13797 0.30234
#
# Static dielectric constant tensor:
#      x y z
#    x 1.815440 0.000000 0.000000 
#    y 0.000000 1.765970 0.000000 
#    z 0.000000 0.000000 1.863680 
# 
# From -- ./inp_files/8246.got.cif
#   From: 2010.05.17/outbox.cif.g08.bks.cpg/sg17_5_cif.got.tgz:8246.got - 2010.06.03 22:34:06.
