data_PCOD9310527
_publ_section_title
;
Structure prediction by ZEFSAII (Michael W. Deem and Ramdas Pophale) SiO2 
 PCOD9310527
Probable space group: P 2 2 21
;
_chemical_formula_sum "Si O2"
_cell_formula_units_Z 32
_cell_length_a 16.012003
_cell_length_b 9.227046
_cell_length_c 11.669811
_cell_angle_alpha 90.000000
_cell_angle_beta 90.000000
_cell_angle_gamma 90.000000
_cell_volume 1724.138584
_symmetry_space_group_name_H-M "P 2 2 21"
_symmetry_group_IT_number 17
_symmetry_cell_setting 'orthorhombic'
loop_
_space_group_symop_operation_xyz
x,y,z
-x,-y,1/2+z
x,-y,-z
-x,y,1/2-z
loop_
_atom_site_type_symbol
_atom_site_label
_atom_site_fract_x
_atom_site_fract_y
_atom_site_fract_z
Si Si1 0.781203 0.669393 0.639573
Si Si2 0.871485 0.343323 0.019475
Si Si3 0.409606 0.378213 0.725464
Si Si4 0.801471 0.861467 0.171111
Si Si5 0.377095 0.853302 0.451132
Si Si6 0.744236 0.665093 0.377150
Si Si7 0.091614 0.144677 0.278720
Si Si8 0.309396 0.642850 0.637500
O O1 0.755645 0.704055 0.509780
O O2 0.786895 0.493089 0.643666
O O3 0.862347 0.757186 0.682221
O O4 0.710380 0.702655 0.735267
O O5 0.919136 0.246730 0.110893
O O6 0.781070 0.371967 0.078679
O O7 0.910768 0.500000 0.000000
O O8 0.854352 0.250366 0.906217
O O9 0.500000 0.442592 0.750000
O O10 0.422471 0.234501 0.649469
O O11 0.352482 0.350892 0.837184
O O12 0.353495 0.488410 0.651161
O O13 0.714425 0.886482 0.103660
O O14 0.782124 0.782697 0.290861
O O15 0.848092 0.012182 0.189082
O O16 0.362411 0.748389 0.558827
O O17 0.415435 0.000000 0.500000
O O18 0.000000 0.088824 0.250000
#
# Coordination Sequence:
#
# PCOD9310527 Si02
#       8
#     4   4   4   4   4   4   4   4
#     4   9  18  37  58  78 116 153 195 229 275 355
#     4  10  18  36  63  82 107 142 193 238 279 346
#     4  10  20  35  56  86 122 142 189 248 289 323
#     4  10  19  35  59  86 110 148 189 229 287 342
#     4  10  18  33  59  80 108 149 191 228 279 343
#     4   9  19  37  60  82 108 162 198 223 279 356
#     4  11  23  38  54  86 120 146 190 248 294 333
#     4   9  17  33  58  87 107 144 188 232 282 338
#
# _framework density 18.559992000000001
#
# number of rings (size 3 to 8) (size 9 to 14) (size 15 to 20)
#    0.000    2.250    0.000    6.750    0.000    0.500 
#   15.750    1.875    5.500    0.000    0.000    0.000 
#    0.000    0.000    0.000    0.000    0.000    0.000 
#
# Total GULP energy -178476.426847 kJ/mol
# GULP energy per Si atom -5577.388339 kJ/mol
# Density = 1.851775 g / cm^3
# Si number density = 18.559992 Si / 1000 Ang^3
#
#
#
# Elastic Constant Matrix: (Units=GPa)
#
#
# Indices 1 2 3 4 5 6 
#
# 1 32.5618 9.0966 9.1411 0.0000 0.0000 0.0000
# 2 9.0966 70.2774 35.1868 0.0000 0.0000 0.0000
# 3 9.1411 35.1868 126.3376 0.0000 0.0000 0.0000
# 4 0.0000 0.0000 0.0000 25.4638 0.0000 0.0000
# 5 0.0000 0.0000 0.0000 0.0000 2.0162 0.0000
# 6 0.0000 0.0000 0.0000 0.0000 0.0000 7.4270
#
#
#
# Elastic Compliance Matrix: (Units=1/GPa)
#
#
# Indices 1 2 3 4 5 6 
#
# 1 0.032061 -0.003473 -0.001353 0.000000 0.000000 0.000000
# 2 -0.003473 0.016911 -0.004459 0.000000 0.000000 0.000000
# 3 -0.001353 -0.004459 0.009255 0.000000 0.000000 0.000000
# 4 0.000000 0.000000 0.000000 0.039271 0.000000 0.000000
# 5 0.000000 0.000000 0.000000 0.000000 0.495974 0.000000
# 6 0.000000 0.000000 0.000000 0.000000 0.000000 0.134644
#
#
# Mechanical properties :
#
#
# Convention : Reuss Voigt Hill
#
# Bulk Modulus (GPa) = 25.21499 37.33621 31.27560
# Shear Modulus (GPa) = 6.57978 18.69823 12.63901
#
# Velocity S-wave (km/s) = 1.88490 3.17748 2.61239
# Velocity P-wave (km/s) = 4.28396 5.79845 5.09776
#
# Compressibility (1/GPa) = 0.03965894
#
# Stress axis : x y z
#
# Youngs Moduli (GPa) = 31.19085 59.13222 108.04984
#
# Poissons Ratio (x) = 0.20535 0.14614
# Poissons Ratio (y) = 0.10832 0.48177
# Poissons Ratio (z) = 0.04219 0.26366
#
# Static dielectric constant tensor:
#      x y z
#    x 1.617000 0.000000 0.000000 
#    y 0.000000 1.662560 0.000000 
#    z 0.000000 0.000000 1.662500 
# 
# From -- ./inp_files/7311.got.cif
#   From: 2010.05.17/outbox.cif.g08.bks.cpg/sg17_4_cif.got.tgz:7311.got - 2010.06.03 22:34:06.
