data_PCOD9310996
_publ_section_title
;
Structure prediction by ZEFSAII (Michael W. Deem and Ramdas Pophale) SiO2 
 PCOD9310996
Probable space group: P 2 2 21
;
_chemical_formula_sum "Si O2"
_cell_formula_units_Z 18
_cell_length_a 15.830530
_cell_length_b 5.611760
_cell_length_c 8.395799
_cell_angle_alpha 90.000000
_cell_angle_beta 90.000000
_cell_angle_gamma 90.000000
_cell_volume 745.858729
_symmetry_space_group_name_H-M "P 2 2 21"
_symmetry_group_IT_number 17
_symmetry_cell_setting 'orthorhombic'
loop_
_space_group_symop_operation_xyz
x,y,z
-x,-y,1/2+z
x,-y,-z
-x,y,1/2-z
loop_
_atom_site_type_symbol
_atom_site_label
_atom_site_fract_x
_atom_site_fract_y
_atom_site_fract_z
Si Si1 0.801818 0.000000 0.500000
Si Si2 0.900695 0.310628 0.755878
Si Si3 0.815540 0.000000 0.000000
Si Si4 0.754294 0.664574 0.741705
Si Si5 0.481777 0.748813 0.060446
Si Si6 0.359503 0.500000 0.500000
O O1 0.863605 0.878096 0.371344
O O2 0.743387 0.792211 0.573644
O O3 0.846609 0.547045 0.728991
O O4 0.000000 0.345324 0.750000
O O5 0.873917 0.202541 0.925108
O O6 0.758629 0.119571 0.133123
O O7 0.694703 0.482661 0.837759
O O8 0.500000 0.744041 0.250000
O O9 0.438700 0.500000 0.000000
O O10 0.574896 0.716643 0.980817
O O11 0.446257 0.000000 0.000000
#
# Coordination Sequence:
#
# PCOD9310996 Si02
#       6
#     2   4   2   4   4   2
#     4  10  25  38  62  88 139 160 238 286 347 402
#     4  11  22  38  59  87 126 172 228 290 347 402
#     4  10  21  36  62  84 119 168 232 274 339 410
#     4  11  22  42  62  93 126 174 225 278 340 408
#     4  10  23  44  77 109 148 184 233 280 346 423
#     4  10  24  42  76  94 138 184 224 280 352 420
#
# _framework density 24.133255999999999
#
# number of rings (size 3 to 8) (size 9 to 14) (size 15 to 20)
#    0.667    0.889    2.222    2.000    1.556    7.111 
#    0.000    4.444    2.444    0.000    0.000    0.000 
#    0.000    0.000    0.000    0.000    0.000    0.000 
#
# Total GULP energy -100475.403316 kJ/mol
# GULP energy per Si atom -5581.966851 kJ/mol
# Density = 2.407833 g / cm^3
# Si number density = 24.133256 Si / 1000 Ang^3
#
#
#
# Elastic Constant Matrix: (Units=GPa)
#
#
# Indices 1 2 3 4 5 6 
#
# 1 93.1227 11.8441 -3.8430 0.0000 0.0000 0.0000
# 2 11.8441 134.9628 20.7652 0.0000 0.0000 0.0000
# 3 -3.8430 20.7652 79.6256 0.0000 0.0000 0.0000
# 4 0.0000 0.0000 0.0000 46.4681 0.0000 0.0000
# 5 0.0000 0.0000 0.0000 0.0000 7.4714 0.0000
# 6 0.0000 0.0000 0.0000 0.0000 0.0000 24.0801
#
#
#
# Elastic Compliance Matrix: (Units=1/GPa)
#
#
# Indices 1 2 3 4 5 6 
#
# 1 0.010909 -0.001082 0.000809 0.000000 0.000000 0.000000
# 2 -0.001082 0.007826 -0.002093 0.000000 0.000000 0.000000
# 3 0.000809 -0.002093 0.013144 0.000000 0.000000 0.000000
# 4 0.000000 0.000000 0.000000 0.021520 0.000000 0.000000
# 5 0.000000 0.000000 0.000000 0.000000 0.133844 0.000000
# 6 0.000000 0.000000 0.000000 0.000000 0.000000 0.041528
#
#
# Mechanical properties :
#
#
# Convention : Reuss Voigt Hill
#
# Bulk Modulus (GPa) = 36.83674 40.58264 38.70969
# Shear Modulus (GPa) = 20.61397 34.20024 27.40711
#
# Velocity S-wave (km/s) = 2.92579 3.76858 3.37361
# Velocity P-wave (km/s) = 5.16824 5.98238 5.59015
#
# Compressibility (1/GPa) = 0.02714681
#
# Stress axis : x y z
#
# Youngs Moduli (GPa) = 91.66339 127.77188 76.08217
#
# Poissons Ratio (x) = 0.13823 -0.06152
# Poissons Ratio (y) = 0.09916 0.15926
# Poissons Ratio (z) = -0.07412 0.26746
#
# Static dielectric constant tensor:
#      x y z
#    x 1.889480 0.000000 0.000000 
#    y 0.000000 2.003190 0.000000 
#    z 0.000000 0.000000 1.974470 
# 
# From -- ./inp_files/3446.got.cif
#   From: 2010.05.17/outbox.cif.g08.bks.cpg/sg17_2_cif.got.tgz:3446.got - 2010.06.03 22:34:06.
