data_PCOD9310196
_publ_section_title
;
Structure prediction by ZEFSAII (Michael W. Deem and Ramdas Pophale) SiO2 
 PCOD9310196
Probable space group: P 2 2 2
;
_chemical_formula_sum "Si O2"
_cell_formula_units_Z 24
_cell_length_a 27.371739
_cell_length_b 5.324273
_cell_length_c 7.093645
_cell_angle_alpha 90.000000
_cell_angle_beta 90.000000
_cell_angle_gamma 90.000000
_cell_volume 1033.789594
_symmetry_space_group_name_H-M "P 2 2 2"
_symmetry_group_IT_number 16
_symmetry_cell_setting 'orthorhombic'
loop_
_space_group_symop_operation_xyz
x,y,z
-x,-y,z
x,-y,-z
-x,y,-z
loop_
_atom_site_type_symbol
_atom_site_label
_atom_site_fract_x
_atom_site_fract_y
_atom_site_fract_z
Si Si1 0.876078 0.748825 0.128730
Si Si2 0.021558 0.750321 0.711066
Si Si3 0.766891 0.250516 0.872394
Si Si4 0.370569 0.567227 0.275598
Si Si5 0.670047 0.934678 0.284660
Si Si6 0.521437 0.747485 0.786805
O O1 0.920200 0.752651 0.276311
O O2 0.821406 0.735810 0.212941
O O3 0.881745 0.500000 0.000000
O O4 0.879456 0.000000 0.000000
O O5 0.000000 0.500000 0.799391
O O6 0.000000 0.750241 0.500000
O O7 0.000000 0.000000 0.800186
O O8 0.722655 0.199018 0.729162
O O9 0.760336 0.500000 0.000000
O O10 0.766540 0.000000 0.000000
O O11 0.367528 0.500000 0.500000
O O12 0.364844 0.282494 0.197491
O O13 0.421011 0.705138 0.225845
O O14 0.331678 0.779294 0.207412
O O15 0.656424 0.000000 0.500000
O O16 0.500000 0.500000 0.696026
O O17 0.500000 0.000000 0.702438
O O18 0.500000 0.748775 0.000000
#
# Coordination Sequence:
#
# PCOD9310196 Si02
#       6
#     4   4   4   4   4   4
#     4  10  21  37  61  85 121 165 202 250 315 369
#     4  10  21  37  56  84 123 154 206 255 300 364
#     4  10  21  40  60  92 124 156 207 260 310 378
#     4  10  21  39  62  85 120 162 203 248 307 368
#     4  10  21  40  62  90 121 159 208 254 309 377
#     4  10  21  39  56  84 122 151 197 246 300 365
#
# _framework density 23.215558999999999
#
# number of rings (size 3 to 8) (size 9 to 14) (size 15 to 20)
#    0.000    2.000    0.000    3.000    0.000    2.333 
#   21.000    0.833    7.333    0.000    0.000    0.000 
#    0.000    0.000    0.000    0.000    0.000    0.000 
#
# Total GULP energy -133852.684809 kJ/mol
# GULP energy per Si atom -5577.195200 kJ/mol
# Density = 2.316272 g / cm^3
# Si number density = 23.215559 Si / 1000 Ang^3
#
#
#
# Elastic Constant Matrix: (Units=GPa)
#
#
# Indices 1 2 3 4 5 6 
#
# 1 169.4569 65.1048 16.3162 0.0000 0.0000 0.0000
# 2 65.1048 251.0431 30.9266 0.0000 0.0000 0.0000
# 3 16.3162 30.9266 83.4932 0.0000 0.0000 0.0000
# 4 0.0000 0.0000 0.0000 -22.0769 0.0000 0.0000
# 5 0.0000 0.0000 0.0000 0.0000 67.0391 0.0000
# 6 0.0000 0.0000 0.0000 0.0000 0.0000 37.0804
#
#
#
# Elastic Compliance Matrix: (Units=1/GPa)
#
#
# Indices 1 2 3 4 5 6 
#
# 1 0.006592 -0.001625 -0.000686 0.000000 0.000000 0.000000
# 2 -0.001625 0.004574 -0.001377 0.000000 0.000000 0.000000
# 3 -0.000686 -0.001377 0.012621 0.000000 0.000000 0.000000
# 4 0.000000 0.000000 0.000000 -0.045296 0.000000 0.000000
# 5 0.000000 0.000000 0.000000 0.000000 0.014917 0.000000
# 6 0.000000 0.000000 0.000000 0.000000 0.000000 0.026968
#
#
# Mechanical properties :
#
#
# Convention : Reuss Voigt Hill
#
# Bulk Modulus (GPa) = 60.93442 80.96539 70.94990
# Shear Modulus (GPa) = 150.50151 42.51823 96.50987
#
# Velocity S-wave (km/s) = 8.06031 4.28419 6.45457
# Velocity P-wave (km/s) = 10.62681 7.70867 9.28312
#
# Compressibility (1/GPa) = 0.01641109
#
# Stress axis : x y z
#
# Youngs Moduli (GPa) = 151.70914 218.60816 79.23223
#
# Poissons Ratio (x) = 0.35522 0.05437
# Poissons Ratio (y) = 0.24651 0.10909
# Poissons Ratio (z) = 0.10411 0.30099
#
# Static dielectric constant tensor:
#      x y z
#    x 1.948880 0.000000 0.000000 
#    y 0.000000 1.996390 0.000000 
#    z 0.000000 0.000000 1.855960 
# 
# From -- ./inp_files/5601.got.cif
#   From: 2010.05.17/outbox.cif.g08.bks.cpg/sg16_3_cif.got.tgz:5601.got - 2010.06.03 22:28:35.
