data_PCOD9310381
_publ_section_title
;
Structure prediction by ZEFSAII (Michael W. Deem and Ramdas Pophale) SiO2 
 PCOD9310381
Probable space group: P 2 2 2
;
_chemical_formula_sum "Si O2"
_cell_formula_units_Z 19
_cell_length_a 9.242210
_cell_length_b 10.259836
_cell_length_c 10.010923
_cell_angle_alpha 90.000000
_cell_angle_beta 90.000000
_cell_angle_gamma 90.000000
_cell_volume 949.271347
_symmetry_space_group_name_H-M "P 2 2 2"
_symmetry_group_IT_number 16
_symmetry_cell_setting 'orthorhombic'
loop_
_space_group_symop_operation_xyz
x,y,z
-x,-y,z
x,-y,-z
-x,y,-z
loop_
_atom_site_type_symbol
_atom_site_label
_atom_site_fract_x
_atom_site_fract_y
_atom_site_fract_z
Si Si1 0.357305 0.142563 0.738893
Si Si2 0.263207 0.000000 0.000000
Si Si3 0.033121 0.154871 0.655505
Si Si4 0.440828 0.637305 0.850810
Si Si5 0.500000 0.000000 0.500000
Si Si6 0.875002 0.269059 0.899621
O O1 0.347118 0.045250 0.866316
O O2 0.193940 0.187905 0.708626
O O3 0.480664 0.248248 0.769877
O O4 0.399755 0.077628 0.600451
O O5 0.173627 0.870758 0.962062
O O6 0.000000 0.181307 0.500000
O O7 0.933333 0.236555 0.753572
O O8 0.000000 0.000000 0.676228
O O9 0.500000 0.500000 0.797953
O O10 0.269115 0.647175 0.873273
O O11 0.500000 0.652454 0.000000
O O12 0.000000 0.320919 0.000000
#
# Coordination Sequence:
#
# PCOD9310381 Si02
#       6
#     4   2   4   4   1   4
#     4  12  25  42  66 101 141 180 226 283 352 415
#     4  12  21  39  68 106 132 172 218 284 354 412
#     4  11  22  37  61  98 141 174 212 280 353 425
#     4  11  25  45  68  97 134 182 241 284 329 398
#     4  12  28  38  68 108 140 178 222 270 372 422
#     4  12  21  40  67 100 134 172 222 282 348 412
#
# _framework density 20.015353000000001
#
# number of rings (size 3 to 8) (size 9 to 14) (size 15 to 20)
#    0.000    0.421    6.316    2.842    2.947    0.842 
#    0.000    7.895    0.000    1.263    0.000    0.000 
#    0.000    0.000    0.000    0.000    0.000    0.000 
#
# Total GULP energy -106086.607463 kJ/mol
# GULP energy per Si atom -5583.505656 kJ/mol
# Density = 1.996980 g / cm^3
# Si number density = 20.015353 Si / 1000 Ang^3
#
#
#
# Elastic Constant Matrix: (Units=GPa)
#
#
# Indices 1 2 3 4 5 6 
#
# 1 163.2701 43.4606 54.7668 0.0000 0.0000 0.0000
# 2 43.4606 60.2601 32.3517 0.0000 0.0000 0.0000
# 3 54.7668 32.3517 154.3785 0.0000 0.0000 0.0000
# 4 0.0000 0.0000 0.0000 -29.7789 0.0000 0.0000
# 5 0.0000 0.0000 0.0000 0.0000 37.2234 0.0000
# 6 0.0000 0.0000 0.0000 0.0000 0.0000 -13.0385
#
#
#
# Elastic Compliance Matrix: (Units=1/GPa)
#
#
# Indices 1 2 3 4 5 6 
#
# 1 0.008018 -0.004795 -0.001840 0.000000 0.000000 0.000000
# 2 -0.004795 0.021566 -0.002818 0.000000 0.000000 0.000000
# 3 -0.001840 -0.002818 0.007721 0.000000 0.000000 0.000000
# 4 0.000000 0.000000 0.000000 -0.033581 0.000000 0.000000
# 5 0.000000 0.000000 0.000000 0.000000 0.026865 0.000000
# 6 0.000000 0.000000 0.000000 0.000000 0.000000 -0.076696
#
#
# Mechanical properties :
#
#
# Convention : Reuss Voigt Hill
#
# Bulk Modulus (GPa) = 54.35105 71.00743 62.67924
# Shear Modulus (GPa) = -237.33552 15.36984 -110.98284
#
# Velocity S-wave (km/s) = -10.90111 2.77411 -7.45448
# Velocity P-wave (km/s) = 11.45565 6.76864 6.53519
#
# Compressibility (1/GPa) = 0.01839891
#
# Stress axis : x y z
#
# Youngs Moduli (GPa) = 124.71371 46.36883 129.51999
#
# Poissons Ratio (x) = 0.22235 0.23827
# Poissons Ratio (y) = 0.59804 0.36502
# Poissons Ratio (z) = 0.22943 0.13068
#
# Static dielectric constant tensor:
#      x y z
#    x 3.433390 0.000000 0.000000 
#    y 0.000000 1.774110 0.000000 
#    z 0.000000 0.000000 1.664590 
# 
# From -- ./inp_files/3828.got.cif
#   From: 2010.05.17/outbox.cif.g08.bks.cpg/sg16_2_cif.got.tgz:3828.got - 2010.06.03 22:28:35.
