data_PCOD9310419
_publ_section_title
;
Structure prediction by ZEFSAII (Michael W. Deem and Ramdas Pophale) SiO2 
 PCOD9310419
Probable space group: P 2 2 2
;
_chemical_formula_sum "Si O2"
_cell_formula_units_Z 12
_cell_length_a 11.596990
_cell_length_b 7.651898
_cell_length_c 5.387292
_cell_angle_alpha 90.000000
_cell_angle_beta 90.000000
_cell_angle_gamma 90.000000
_cell_volume 478.062822
_symmetry_space_group_name_H-M "P 2 2 2"
_symmetry_group_IT_number 16
_symmetry_cell_setting 'orthorhombic'
loop_
_space_group_symop_operation_xyz
x,y,z
-x,-y,z
x,-y,-z
-x,y,-z
loop_
_atom_site_type_symbol
_atom_site_label
_atom_site_fract_x
_atom_site_fract_y
_atom_site_fract_z
Si Si1 0.880209 0.805386 0.383930
Si Si2 0.704516 0.500000 0.500000
Si Si3 0.574361 0.224423 0.248320
Si Si4 0.233186 0.000000 0.000000
O O1 0.783613 0.662732 0.433042
O O2 0.000000 0.740154 0.500000
O O3 0.869069 0.000000 0.500000
O O4 0.853768 0.851096 0.097735
O O5 0.626049 0.417921 0.286198
O O6 0.500000 0.191701 0.500000
O O7 0.500000 0.214120 0.000000
O O8 0.678577 0.087516 0.197457
#
# Coordination Sequence:
#
# PCOD9310419 Si02
#       4
#     4   2   4   2
#     4  11  26  51  81 114 157 208 273 337 409 481
#     4  12  26  52  82 116 160 212 268 340 408 490
#     4  12  29  50  82 123 168 218 276 336 417 494
#     4  12  27  51  84 118 168 214 276 342 414 488
#
# _framework density 25.101302
#
# number of rings (size 3 to 8) (size 9 to 14) (size 15 to 20)
#    0.000    0.333    3.333    3.500    0.000   16.000 
#    0.000    0.000   14.667    0.000    0.000    0.000 
#    0.000    0.000    0.000    0.000    0.000    0.000 
#
# Total GULP energy -67063.343663 kJ/mol
# GULP energy per Si atom -5588.611972 kJ/mol
# Density = 2.504417 g / cm^3
# Si number density = 25.101302 Si / 1000 Ang^3
#
#
#
# Elastic Constant Matrix: (Units=GPa)
#
#
# Indices 1 2 3 4 5 6 
#
# 1 172.0841 38.3579 85.7196 0.0000 0.0000 0.0000
# 2 38.3579 112.0864 23.7076 0.0000 0.0000 0.0000
# 3 85.7196 23.7076 145.2645 0.0000 0.0000 0.0000
# 4 0.0000 0.0000 0.0000 35.1958 0.0000 0.0000
# 5 0.0000 0.0000 0.0000 0.0000 25.8498 0.0000
# 6 0.0000 0.0000 0.0000 0.0000 0.0000 69.0810
#
#
#
# Elastic Compliance Matrix: (Units=1/GPa)
#
#
# Indices 1 2 3 4 5 6 
#
# 1 0.008620 -0.001941 -0.004770 0.000000 0.000000 0.000000
# 2 -0.001941 0.009678 -0.000434 0.000000 0.000000 0.000000
# 3 -0.004770 -0.000434 0.009769 0.000000 0.000000 0.000000
# 4 0.000000 0.000000 0.000000 0.028412 0.000000 0.000000
# 5 0.000000 0.000000 0.000000 0.000000 0.038685 0.000000
# 6 0.000000 0.000000 0.000000 0.000000 0.000000 0.014476
#
#
# Mechanical properties :
#
#
# Convention : Reuss Voigt Hill
#
# Bulk Modulus (GPa) = 72.58267 80.55615 76.56941
# Shear Modulus (GPa) = 38.90392 44.80198 41.85295
#
# Velocity S-wave (km/s) = 3.94112 4.22933 4.08776
# Velocity P-wave (km/s) = 7.04901 7.48410 7.26981
#
# Compressibility (1/GPa) = 0.01377739
#
# Stress axis : x y z
#
# Youngs Moduli (GPa) = 116.01429 103.33000 102.36088
#
# Poissons Ratio (x) = 0.20056 0.48822
# Poissons Ratio (y) = 0.22518 0.04443
# Poissons Ratio (z) = 0.55334 0.04485
#
# Static dielectric constant tensor:
#      x y z
#    x 2.046740 0.000000 0.000000 
#    y 0.000000 1.956810 0.000000 
#    z 0.000000 0.000000 2.138590 
# 
# From -- ./inp_files/1061.got.cif
#   From: 2010.05.17/outbox.cif.g08.bks.cpg/sg16_1_cif.got.tgz:1061.got - 2010.06.03 22:28:35.
