data_PCOD9310023
_publ_section_title
;
Structure prediction by ZEFSAII (Michael W. Deem and Ramdas Pophale) SiO2 
 PCOD9310023
Probable space group: P 2 2 2
;
_chemical_formula_sum "Si O2"
_cell_formula_units_Z 32
_cell_length_a 14.201842
_cell_length_b 7.824340
_cell_length_c 12.203438
_cell_angle_alpha 90.000000
_cell_angle_beta 90.000000
_cell_angle_gamma 90.000000
_cell_volume 1356.046524
_symmetry_space_group_name_H-M "P 2 2 2"
_symmetry_group_IT_number 16
_symmetry_cell_setting 'orthorhombic'
loop_
_space_group_symop_operation_xyz
x,y,z
-x,-y,z
x,-y,-z
-x,y,-z
loop_
_atom_site_type_symbol
_atom_site_label
_atom_site_fract_x
_atom_site_fract_y
_atom_site_fract_z
Si Si1 0.490293 0.705810 0.234810
Si Si2 0.331340 0.655562 0.085129
Si Si3 0.136217 0.879867 0.762770
Si Si4 0.679687 0.194079 0.672785
Si Si5 0.139931 0.801610 0.004432
Si Si6 0.776039 0.553226 0.694143
Si Si7 0.371830 0.691371 0.452262
Si Si8 0.947504 0.259806 0.222734
O O1 0.500000 0.500000 0.231424
O O2 0.425157 0.747224 0.130541
O O3 0.594067 0.784781 0.242531
O O4 0.438225 0.741216 0.350791
O O5 0.247617 0.775054 0.042000
O O6 0.283873 0.581011 0.195152
O O7 0.349959 0.500000 0.000000
O O8 0.238185 0.925886 0.713299
O O9 0.047515 0.770581 0.718292
O O10 0.096430 0.070197 0.775906
O O11 0.146442 0.768156 0.874850
O O12 0.745884 0.363235 0.662814
O O13 0.632937 0.181936 0.554116
O O14 0.070591 0.705974 0.090706
O O15 0.111628 0.000000 0.000000
O O16 0.730672 0.671378 0.601111
O O17 0.881884 0.605556 0.716827
O O18 0.397103 0.500000 0.500000
#
# Coordination Sequence:
#
# PCOD9310023 Si02
#       8
#     4   4   4   4   4   4   4   4
#     4  11  19  32  53  84 109 149 180 221 270 335
#     4  10  19  32  50  80 114 142 175 219 274 326
#     4  10  20  35  55  81 106 138 188 226 271 329
#     4  11  20  32  54  86 105 134 183 238 267 314
#     4   9  18  34  57  78 102 143 189 225 261 326
#     4   9  18  33  53  79 105 139 175 223 277 321
#     4   9  17  31  55  79 106 135 184 223 266 320
#     4   9  19  37  57  74 106 148 177 221 277 336
#
# _framework density 23.598012000000001
#
# number of rings (size 3 to 8) (size 9 to 14) (size 15 to 20)
#    0.000    2.250    3.750    1.500    0.000    2.250 
#    0.000    1.250    0.000   21.750    0.000   10.500 
#    0.000    0.000    0.000    0.000    0.000    0.000 
#
# Total GULP energy -178256.168252 kJ/mol
# GULP energy per Si atom -5570.505258 kJ/mol
# Density = 2.354430 g / cm^3
# Si number density = 23.598012 Si / 1000 Ang^3
#
#
#
# Elastic Constant Matrix: (Units=GPa)
#
#
# Indices 1 2 3 4 5 6 
#
# 1 116.4049 23.0755 23.1101 0.0000 0.0000 0.0000
# 2 23.0755 35.7831 3.9457 0.0000 0.0000 0.0000
# 3 23.1101 3.9457 53.6590 0.0000 0.0000 0.0000
# 4 0.0000 0.0000 0.0000 11.3497 0.0000 0.0000
# 5 0.0000 0.0000 0.0000 0.0000 20.7342 0.0000
# 6 0.0000 0.0000 0.0000 0.0000 0.0000 19.6884
#
#
#
# Elastic Compliance Matrix: (Units=1/GPa)
#
#
# Indices 1 2 3 4 5 6 
#
# 1 0.010686 -0.006436 -0.004129 0.000000 0.000000 0.000000
# 2 -0.006436 0.032051 0.000415 0.000000 0.000000 0.000000
# 3 -0.004129 0.000415 0.020384 0.000000 0.000000 0.000000
# 4 0.000000 0.000000 0.000000 0.088108 0.000000 0.000000
# 5 0.000000 0.000000 0.000000 0.000000 0.048229 0.000000
# 6 0.000000 0.000000 0.000000 0.000000 0.000000 0.050791
#
#
# Mechanical properties :
#
#
# Convention : Reuss Voigt Hill
#
# Bulk Modulus (GPa) = 23.35302 34.01219 28.68260
# Shear Modulus (GPa) = 17.55472 20.73551 19.14511
#
# Velocity S-wave (km/s) = 2.73042 2.96750 2.85143
# Velocity P-wave (km/s) = 4.45623 5.11721 4.79811
#
# Compressibility (1/GPa) = 0.04282102
#
# Stress axis : x y z
#
# Youngs Moduli (GPa) = 93.57759 31.20045 49.05797
#
# Poissons Ratio (x) = 0.20081 0.20257
# Poissons Ratio (y) = 0.60227 -0.02036
# Poissons Ratio (z) = 0.38640 -0.01295
#
# Static dielectric constant tensor:
#      x y z
#    x 2.069310 0.000000 0.000000 
#    y 0.000000 2.003540 0.000000 
#    z 0.000000 0.000000 2.048160 
# 
# From -- ./inp_files/7156.got.cif
#   From: 2010.05.17/outbox.cif.g08.bks.cpg/sg16_4_cif.got.tgz:7156.got - 2010.06.03 22:28:35.
