data_PCOD9310010
_publ_section_title
;
Structure prediction by ZEFSAII (Michael W. Deem and Ramdas Pophale) SiO2 
 PCOD9310010
Probable space group: P 2 2 2
;
_chemical_formula_sum "Si O2"
_cell_formula_units_Z 32
_cell_length_a 12.039654
_cell_length_b 5.126247
_cell_length_c 29.464005
_cell_angle_alpha 90.000000
_cell_angle_beta 90.000000
_cell_angle_gamma 90.000000
_cell_volume 1818.466538
_symmetry_space_group_name_H-M "P 2 2 2"
_symmetry_group_IT_number 16
_symmetry_cell_setting 'orthorhombic'
loop_
_space_group_symop_operation_xyz
x,y,z
-x,-y,z
x,-y,-z
-x,y,-z
loop_
_atom_site_type_symbol
_atom_site_label
_atom_site_fract_x
_atom_site_fract_y
_atom_site_fract_z
Si Si1 0.570740 0.253954 0.718470
Si Si2 0.779643 0.931591 0.333779
Si Si3 0.129538 0.034862 0.235519
Si Si4 0.125772 0.441655 0.623870
Si Si5 0.874878 0.255473 0.478955
Si Si6 0.262066 0.509951 0.208089
Si Si7 0.634906 0.008178 0.051937
Si Si8 0.634066 0.495503 0.890372
O O1 0.500000 0.500000 0.700354
O O2 0.654944 0.132503 0.681654
O O3 0.644023 0.392153 0.757964
O O4 0.500000 0.000000 0.734848
O O5 0.815824 0.722724 0.371889
O O6 0.851281 0.885755 0.288124
O O7 0.806803 0.227573 0.347501
O O8 0.204027 0.775892 0.225937
O O9 0.173087 0.277471 0.206546
O O10 0.000000 0.000000 0.227464
O O11 0.116452 0.309585 0.574220
O O12 0.000000 0.500000 0.639754
O O13 0.813463 0.500000 0.500000
O O14 0.000000 0.252875 0.500000
O O15 0.821850 0.000000 0.500000
O O16 0.314685 0.543800 0.158796
O O17 0.667048 0.275184 0.075697
O O18 0.500000 0.000000 0.049931
O O19 0.667468 0.772239 0.084984
O O20 0.674585 0.000000 0.000000
O O21 0.500000 0.500000 0.885592
#
# Coordination Sequence:
#
# PCOD9310010 Si02
#       8
#     4   4   4   4   4   4   4   4
#     4  11  22  39  58  76 111 150 184 241 286 312
#     4  11  24  35  53  83 105 142 198 214 261 335
#     4  11  22  39  54  74 112 147 180 228 274 318
#     4  12  21  34  54  79 115 151 174 218 256 324
#     4  10  19  32  49  73 109 148 172 198 265 324
#     4  11  22  35  56  81 104 142 193 228 270 335
#     4   9  17  29  45  68 104 144 170 204 270 339
#     4  10  19  30  48  75 106 136 177 224 262 320
#
# _framework density 17.597244
#
# number of rings (size 3 to 8) (size 9 to 14) (size 15 to 20)
#    0.000    1.375    1.250    7.500    1.750    3.000 
#    0.000    0.000    0.000    0.000    0.000    0.000 
#    0.000   70.000    0.000    0.000    0.000    0.000 
#
# Total GULP energy -178385.082092 kJ/mol
# GULP energy per Si atom -5574.533815 kJ/mol
# Density = 1.755719 g / cm^3
# Si number density = 17.597244 Si / 1000 Ang^3
#
#
#
# Elastic Constant Matrix: (Units=GPa)
#
#
# Indices 1 2 3 4 5 6 
#
# 1 56.2747 20.0154 21.5898 0.0000 0.0000 0.0000
# 2 20.0154 117.6422 19.4289 0.0000 0.0000 0.0000
# 3 21.5898 19.4289 78.4327 0.0000 0.0000 0.0000
# 4 0.0000 0.0000 0.0000 24.2758 0.0000 0.0000
# 5 0.0000 0.0000 0.0000 0.0000 11.9625 0.0000
# 6 0.0000 0.0000 0.0000 0.0000 0.0000 24.5389
#
#
#
# Elastic Compliance Matrix: (Units=1/GPa)
#
#
# Indices 1 2 3 4 5 6 
#
# 1 0.020650 -0.002684 -0.005019 0.000000 0.000000 0.000000
# 2 -0.002684 0.009212 -0.001543 0.000000 0.000000 0.000000
# 3 -0.005019 -0.001543 0.014514 0.000000 0.000000 0.000000
# 4 0.000000 0.000000 0.000000 0.041193 0.000000 0.000000
# 5 0.000000 0.000000 0.000000 0.000000 0.083595 0.000000
# 6 0.000000 0.000000 0.000000 0.000000 0.000000 0.040752
#
#
# Mechanical properties :
#
#
# Convention : Reuss Voigt Hill
#
# Bulk Modulus (GPa) = 38.63631 41.60196 40.11913
# Shear Modulus (GPa) = 21.09379 24.90982 23.00181
#
# Velocity S-wave (km/s) = 3.46598 3.76646 3.61934
# Velocity P-wave (km/s) = 6.16611 6.52744 6.34935
#
# Compressibility (1/GPa) = 0.02588239
#
# Stress axis : x y z
#
# Youngs Moduli (GPa) = 48.42513 108.55517 68.90065
#
# Poissons Ratio (x) = 0.29141 0.34584
# Poissons Ratio (y) = 0.13000 0.10631
# Poissons Ratio (z) = 0.24306 0.16750
#
# Static dielectric constant tensor:
#      x y z
#    x 1.612040 0.000000 0.000000 
#    y 0.000000 1.627440 0.000000 
#    z 0.000000 0.000000 1.622090 
# 
# From -- ./inp_files/9670.got.cif
#   From: 2010.05.17/outbox.cif.g08.bks.cpg/sg16_5_cif.got.tgz:9670.got - 2010.06.03 22:28:35.
