data_PCOD9310307
_publ_section_title
;
Structure prediction by ZEFSAII (Michael W. Deem and Ramdas Pophale) SiO2 
 PCOD9310307
Probable space group: P 2 2 2
;
_chemical_formula_sum "Si O2"
_cell_formula_units_Z 19
_cell_length_a 8.630114
_cell_length_b 11.718696
_cell_length_c 9.490654
_cell_angle_alpha 90.000000
_cell_angle_beta 90.000000
_cell_angle_gamma 90.000000
_cell_volume 959.824788
_symmetry_space_group_name_H-M "P 2 2 2"
_symmetry_group_IT_number 16
_symmetry_cell_setting 'orthorhombic'
loop_
_space_group_symop_operation_xyz
x,y,z
-x,-y,z
x,-y,-z
-x,y,-z
loop_
_atom_site_type_symbol
_atom_site_label
_atom_site_fract_x
_atom_site_fract_y
_atom_site_fract_z
Si Si1 0.825493 0.632023 0.456843
Si Si2 0.363949 0.213817 0.662992
Si Si3 0.664350 0.310255 0.818073
Si Si4 0.500000 0.000000 0.500000
Si Si5 0.000000 0.000000 0.000000
Si Si6 0.157278 0.212965 0.932894
Si Si7 0.500000 0.500000 0.000000
O O1 0.803594 0.500000 0.500000
O O2 0.699645 0.708063 0.537582
O O3 0.796177 0.653187 0.291976
O O4 0.000000 0.664835 0.500000
O O5 0.524090 0.255377 0.731580
O O6 0.239228 0.241179 0.787328
O O7 0.397403 0.086894 0.598308
O O8 0.603690 0.420466 0.901257
O O9 0.723763 0.225268 0.938728
O O10 0.104469 0.083189 0.909946
O O11 0.000000 0.269494 0.000000
#
# Coordination Sequence:
#
# PCOD9310307 Si02
#       7
#     4   4   4   1   1   4   1
#     4  11  25  45  70  98 137 179 226 282 346 410
#     4  12  24  46  68 101 139 179 233 278 341 417
#     4  12  23  44  69 100 136 176 229 282 342 409
#     4  12  28  40  70 104 144 188 236 274 352 412
#     4   8  24  40  66  92 128 176 218 274 348 366
#     4  10  23  43  67  96 132 171 228 277 335 397
#     4  12  24  40  72 106 136 180 228 288 362 388
#
# _framework density 19.795278
#
# number of rings (size 3 to 8) (size 9 to 14) (size 15 to 20)
#    0.632    0.211    4.211    2.526    2.947    0.842 
#    0.000    0.000    0.000    0.000    0.000    0.000 
#    0.000    0.000    0.000    0.000    0.000    0.000 
#
# Total GULP energy -105845.051069 kJ/mol
# GULP energy per Si atom -5570.792162 kJ/mol
# Density = 1.975022 g / cm^3
# Si number density = 19.795278 Si / 1000 Ang^3
#
#
#
# Elastic Constant Matrix: (Units=GPa)
#
#
# Indices 1 2 3 4 5 6 
#
# 1 96.1423 32.6350 52.8172 0.0000 0.0000 0.0000
# 2 32.6350 77.1559 34.8772 0.0000 0.0000 0.0000
# 3 52.8172 34.8772 150.4385 0.0000 0.0000 0.0000
# 4 0.0000 0.0000 0.0000 39.8018 0.0000 0.0000
# 5 0.0000 0.0000 0.0000 0.0000 56.1816 0.0000
# 6 0.0000 0.0000 0.0000 0.0000 0.0000 37.1413
#
#
#
# Elastic Compliance Matrix: (Units=1/GPa)
#
#
# Indices 1 2 3 4 5 6 
#
# 1 0.013970 -0.004124 -0.003949 0.000000 0.000000 0.000000
# 2 -0.004124 0.015696 -0.002191 0.000000 0.000000 0.000000
# 3 -0.003949 -0.002191 0.008542 0.000000 0.000000 0.000000
# 4 0.000000 0.000000 0.000000 0.025124 0.000000 0.000000
# 5 0.000000 0.000000 0.000000 0.000000 0.017799 0.000000
# 6 0.000000 0.000000 0.000000 0.000000 0.000000 0.026924
#
#
# Mechanical properties :
#
#
# Convention : Reuss Voigt Hill
#
# Bulk Modulus (GPa) = 56.56112 62.71059 59.63585
# Shear Modulus (GPa) = 37.18121 40.18543 38.68332
#
# Velocity S-wave (km/s) = 4.33862 4.51050 4.42539
# Velocity P-wave (km/s) = 7.33030 7.67297 7.50359
#
# Compressibility (1/GPa) = 0.01767999
#
# Stress axis : x y z
#
# Youngs Moduli (GPa) = 71.57948 63.71234 117.07531
#
# Poissons Ratio (x) = 0.26276 0.46230
# Poissons Ratio (y) = 0.29521 0.25649
# Poissons Ratio (z) = 0.28265 0.13958
#
# Static dielectric constant tensor:
#      x y z
#    x 1.759750 0.000000 0.000000 
#    y 0.000000 1.680350 0.000000 
#    z 0.000000 0.000000 1.747810 
# 
# From -- ./inp_files/3864.got.cif
#   From: 2010.05.17/outbox.cif.g08.bks.cpg/sg16_2_cif.got.tgz:3864.got - 2010.06.03 22:28:35.
