data_PCOD9310670
_publ_section_title
;
Structure prediction by ZEFSAII (Michael W. Deem and Ramdas Pophale) SiO2 
 PCOD9310670
Probable space group: P 2 2 21
;
_chemical_formula_sum "Si O2"
_cell_formula_units_Z 18
_cell_length_a 25.634625
_cell_length_b 5.759689
_cell_length_c 5.216773
_cell_angle_alpha 90.000000
_cell_angle_beta 90.000000
_cell_angle_gamma 90.000000
_cell_volume 770.243323
_symmetry_space_group_name_H-M "P 2 2 21"
_symmetry_group_IT_number 17
_symmetry_cell_setting 'orthorhombic'
loop_
_space_group_symop_operation_xyz
x,y,z
-x,-y,1/2+z
x,-y,-z
-x,y,1/2-z
loop_
_atom_site_type_symbol
_atom_site_label
_atom_site_fract_x
_atom_site_fract_y
_atom_site_fract_z
Si Si1 0.724557 0.834989 0.250677
Si Si2 0.500000 0.644971 0.250000
Si Si3 0.385289 0.153837 0.746257
Si Si4 0.838846 0.834934 0.251199
Si Si5 0.082410 0.500000 0.500000
Si Si6 0.000000 0.845577 0.750000
O O1 0.668906 0.698631 0.256280
O O2 0.781093 0.717010 0.261655
O O3 0.723032 0.000000 0.500000
O O4 0.726824 0.000000 0.000000
O O5 0.510021 0.500000 0.500000
O O6 0.555966 0.760436 0.208414
O O7 0.376391 0.000000 0.500000
O O8 0.387219 0.000000 0.000000
O O9 0.881982 0.641432 0.199933
O O10 0.845694 0.000000 0.500000
O O11 0.840726 0.000000 0.000000
O O12 0.046545 0.318471 0.347042
O O13 0.985755 0.000000 0.500000
#
# Coordination Sequence:
#
# PCOD9310670 Si02
#       6
#     4   2   4   4   2   2
#     4   8  16  34  61  89 121 161 208 268 328 385
#     4  12  24  36  50  86 126 158 204 270 330 370
#     4  10  19  36  62  83 112 164 218 256 315 398
#     4  10  23  43  69 103 141 176 225 289 342 404
#     4  12  28  48  78 108 138 192 240 272 356 424
#     4  12  30  52  74 108 148 186 236 292 338 404
#
# _framework density 23.369240000000001
#
# number of rings (size 3 to 8) (size 9 to 14) (size 15 to 20)
#    0.000    1.778    0.000    3.333    0.000    9.778 
#    2.000    0.000    0.000    0.000    0.000    0.000 
#    0.000    0.000    0.000    0.000    0.000    0.000 
#
# Total GULP energy -100472.015430 kJ/mol
# GULP energy per Si atom -5581.778635 kJ/mol
# Density = 2.331605 g / cm^3
# Si number density = 23.369240 Si / 1000 Ang^3
#
#
#
# Elastic Constant Matrix: (Units=GPa)
#
#
# Indices 1 2 3 4 5 6 
#
# 1 224.2522 57.5235 -8.7850 0.0000 0.0000 0.0000
# 2 57.5235 52.9761 22.0781 0.0000 0.0000 0.0000
# 3 -8.7850 22.0781 136.0333 0.0000 0.0000 0.0000
# 4 0.0000 0.0000 0.0000 35.3716 0.0000 0.0000
# 5 0.0000 0.0000 0.0000 0.0000 -19.1915 0.0000
# 6 0.0000 0.0000 0.0000 0.0000 0.0000 1147.7709
#
#
#
# Elastic Compliance Matrix: (Units=1/GPa)
#
#
# Indices 1 2 3 4 5 6 
#
# 1 0.006522 -0.007784 0.001684 0.000000 0.000000 0.000000
# 2 -0.007784 0.029536 -0.005296 0.000000 0.000000 0.000000
# 3 0.001684 -0.005296 0.008320 0.000000 0.000000 0.000000
# 4 0.000000 0.000000 0.000000 0.028271 0.000000 0.000000
# 5 0.000000 0.000000 0.000000 0.000000 -0.052106 0.000000
# 6 0.000000 0.000000 0.000000 0.000000 0.000000 0.000871
#
#
# Mechanical properties :
#
#
# Convention : Reuss Voigt Hill
#
# Bulk Modulus (GPa) = 46.32656 61.65500 53.99078
# Shear Modulus (GPa) = 97.27754 255.61986 176.44870
#
# Velocity S-wave (km/s) = 6.45885 10.46998 8.69877
# Velocity P-wave (km/s) = 8.68844 13.13777 11.13755
#
# Compressibility (1/GPa) = 0.02158589
#
# Stress axis : x y z
#
# Youngs Moduli (GPa) = 153.33012 33.85752 120.19941
#
# Poissons Ratio (x) = 0.26354 -0.20247
# Poissons Ratio (y) = 1.19348 0.63661
# Poissons Ratio (z) = -0.25828 0.17932
#
# Static dielectric constant tensor:
#      x y z
#    x 2.107030 0.000000 0.000000 
#    y 0.000000 1.971470 0.000000 
#    z 0.000000 0.000000 1.662360 
# 
# From -- ./inp_files/3044.got.cif
#   From: 2010.05.17/outbox.cif.g08.bks.cpg/sg17_2_cif.got.tgz:3044.got - 2010.06.03 22:34:06.
