data_PCOD9310199
_publ_section_title
;
Structure prediction by ZEFSAII (Michael W. Deem and Ramdas Pophale) SiO2 
 PCOD9310199
Probable space group: P 2 2 2
;
_chemical_formula_sum "Si O2"
_cell_formula_units_Z 24
_cell_length_a 10.939237
_cell_length_b 11.348467
_cell_length_c 8.155056
_cell_angle_alpha 90.000000
_cell_angle_beta 90.000000
_cell_angle_gamma 90.000000
_cell_volume 1012.397766
_symmetry_space_group_name_H-M "P 2 2 2"
_symmetry_group_IT_number 16
_symmetry_cell_setting 'orthorhombic'
loop_
_space_group_symop_operation_xyz
x,y,z
-x,-y,z
x,-y,-z
-x,y,-z
loop_
_atom_site_type_symbol
_atom_site_label
_atom_site_fract_x
_atom_site_fract_y
_atom_site_fract_z
Si Si1 0.206091 0.824820 0.778552
Si Si2 0.931983 0.608182 0.176037
Si Si3 0.630625 0.319774 0.542781
Si Si4 0.369866 0.245935 0.920605
Si Si5 0.678337 0.520219 0.758610
Si Si6 0.639181 0.965994 0.691595
O O1 0.083184 0.744334 0.765964
O O2 0.283662 0.772618 0.627982
O O3 0.244659 0.961896 0.767208
O O4 0.264820 0.786073 0.950928
O O5 0.797130 0.550229 0.180442
O O6 0.000000 0.500000 0.269350
O O7 0.000000 0.616568 0.000000
O O8 0.500000 0.266701 0.500000
O O9 0.596920 0.415467 0.684579
O O10 0.696010 0.394114 0.400520
O O11 0.366325 0.385164 0.888414
O O12 0.349017 0.167307 0.757961
O O13 0.500000 0.215471 0.000000
O O14 0.500000 0.000000 0.747869
O O15 0.641527 0.000000 0.500000
#
# Coordination Sequence:
#
# PCOD9310199 Si02
#       6
#     4   4   4   4   4   4
#     4  11  23  38  66  95 128 176 227 279 342 408
#     4  10  21  42  65  91 126 167 226 292 349 382
#     4  10  21  39  59  93 142 179 214 266 342 438
#     4  12  22  35  59  92 132 172 219 269 324 415
#     4  10  21  37  61  91 125 175 219 269 337 410
#     4  11  24  41  62  90 136 186 225 267 335 420
#
# _framework density 23.706097
#
# number of rings (size 3 to 8) (size 9 to 14) (size 15 to 20)
#    0.000    1.333    1.667    5.500    2.333    3.333 
#    3.000   10.000    0.000    8.000    0.000    4.667 
#    0.000    0.000    0.000    0.000    0.000    0.000 
#
# Total GULP energy -133746.852707 kJ/mol
# GULP energy per Si atom -5572.785529 kJ/mol
# Density = 2.365214 g / cm^3
# Si number density = 23.706097 Si / 1000 Ang^3
#
#
#
# Elastic Constant Matrix: (Units=GPa)
#
#
# Indices 1 2 3 4 5 6 
#
# 1 54.2671 19.4249 16.4457 0.0000 0.0000 0.0000
# 2 19.4249 137.4558 8.2527 0.0000 0.0000 0.0000
# 3 16.4457 8.2527 78.0239 0.0000 0.0000 0.0000
# 4 0.0000 0.0000 0.0000 39.4659 0.0000 0.0000
# 5 0.0000 0.0000 0.0000 0.0000 31.6964 0.0000
# 6 0.0000 0.0000 0.0000 0.0000 0.0000 23.8124
#
#
#
# Elastic Compliance Matrix: (Units=1/GPa)
#
#
# Indices 1 2 3 4 5 6 
#
# 1 0.020614 -0.002669 -0.004063 0.000000 0.000000 0.000000
# 2 -0.002669 0.007667 -0.000248 0.000000 0.000000 0.000000
# 3 -0.004063 -0.000248 0.013699 0.000000 0.000000 0.000000
# 4 0.000000 0.000000 0.000000 0.025338 0.000000 0.000000
# 5 0.000000 0.000000 0.000000 0.000000 0.031549 0.000000
# 6 0.000000 0.000000 0.000000 0.000000 0.000000 0.041995
#
#
# Mechanical properties :
#
#
# Convention : Reuss Voigt Hill
#
# Bulk Modulus (GPa) = 35.68888 39.77705 37.73296
# Shear Modulus (GPa) = 30.45745 34.03649 32.24697
#
# Velocity S-wave (km/s) = 3.58829 3.79327 3.69220
# Velocity P-wave (km/s) = 5.67936 6.00007 5.84192
#
# Compressibility (1/GPa) = 0.02801994
#
# Stress axis : x y z
#
# Youngs Moduli (GPa) = 48.51069 130.42597 72.99712
#
# Poissons Ratio (x) = 0.34813 0.29656
# Poissons Ratio (y) = 0.12948 0.01813
# Poissons Ratio (z) = 0.19708 0.03239
#
# Static dielectric constant tensor:
#      x y z
#    x 1.965380 0.000000 0.000000 
#    y 0.000000 1.997740 0.000000 
#    z 0.000000 0.000000 1.999770 
# 
# From -- ./inp_files/4703.got.cif
#   From: 2010.05.17/outbox.cif.g08.bks.cpg/sg16_3_cif.got.tgz:4703.got - 2010.06.03 22:28:35.
