data_PCOD9310657
_publ_section_title
;
Structure prediction by ZEFSAII (Michael W. Deem and Ramdas Pophale) SiO2 
 PCOD9310657
Probable space group: P 2 2 21
;
_chemical_formula_sum "Si O2"
_cell_formula_units_Z 32
_cell_length_a 9.216637
_cell_length_b 12.090359
_cell_length_c 15.683091
_cell_angle_alpha 90.000000
_cell_angle_beta 90.000000
_cell_angle_gamma 90.000000
_cell_volume 1747.605255
_symmetry_space_group_name_H-M "P 2 2 21"
_symmetry_group_IT_number 17
_symmetry_cell_setting 'orthorhombic'
loop_
_space_group_symop_operation_xyz
x,y,z
-x,-y,1/2+z
x,-y,-z
-x,y,1/2-z
loop_
_atom_site_type_symbol
_atom_site_label
_atom_site_fract_x
_atom_site_fract_y
_atom_site_fract_z
Si Si1 0.173806 0.742954 0.911405
Si Si2 0.325895 0.869316 0.250000
Si Si3 0.326618 0.277102 0.914976
Si Si4 0.673382 0.722898 0.085024
Si Si5 0.825367 0.894370 0.750000
Si Si6 0.828825 0.506526 0.351923
Si Si7 0.828825 0.506526 0.148077
Si Si8 0.826194 0.257046 0.088595
O O1 0.213816 0.823852 0.833956
O O2 0.205880 0.616578 0.883900
O O3 1.000000 0.750487 0.924098
O O4 0.256485 0.767666 0.998451
O O5 0.500000 0.883969 0.250000
O O6 0.287216 0.798767 0.166082
O O7 0.287216 0.798767 0.333919
O O8 0.248768 0.986992 0.250000
O O9 0.500000 0.281218 0.921711
O O10 0.263599 0.399030 0.897021
O O11 0.736402 0.600971 0.102979
O O12 0.743514 0.767666 0.998451
O O13 0.786184 0.823851 0.833956
O O14 0.000000 0.906170 0.750000
O O15 0.806603 0.511430 0.250000
O O16 1.000000 0.526354 0.368749
O O17 0.794120 0.383422 0.116100
#
# Coordination Sequence:
#
# PCOD9310657 Si02
#       8
#     4   4   4   4   4   4   4   4
#     4  10  21  39  61  89 119 148 187 239 292 344
#     4  10  24  43  58  78 116 157 195 238 287 338
#     4  11  23  39  58  85 120 157 193 234 282 341
#     4  11  23  39  58  85 120 157 193 234 282 341
#     4  10  22  41  64  86 112 147 195 246 289 338
#     4  10  19  35  61  88 117 152 187 232 291 346
#     4  10  19  35  61  88 117 152 187 232 291 346
#     4  10  21  39  61  89 119 148 187 239 292 344
#
# _framework density 18.310772
#
# number of rings (size 3 to 8) (size 9 to 14) (size 15 to 20)
#    0.000    1.750    2.500    1.500    0.000    8.000 
#    0.000    5.000    0.000    0.000    0.000    0.000 
#    0.000    0.000    0.000    0.000    0.000    0.000 
#
# Total GULP energy -178827.966155 kJ/mol
# GULP energy per Si atom -5588.373942 kJ/mol
# Density = 1.826910 g / cm^3
# Si number density = 18.310772 Si / 1000 Ang^3
#
#
#
# Elastic Constant Matrix: (Units=GPa)
#
#
# Indices 1 2 3 4 5 6 
#
# 1 23.4217 31.4145 40.2907 0.0000 0.0000 0.0000
# 2 31.4145 90.9440 30.7829 0.0000 0.0000 0.0000
# 3 40.2907 30.7829 116.4684 0.0000 0.0000 0.0000
# 4 0.0000 0.0000 0.0000 0.1419 0.0000 0.0000
# 5 0.0000 0.0000 0.0000 0.0000 31.2606 0.0000
# 6 0.0000 0.0000 0.0000 0.0000 0.0000 77.6473
#
#
#
# Elastic Compliance Matrix: (Units=1/GPa)
#
#
# Indices 1 2 3 4 5 6 
#
# 1 0.233845 -0.058641 -0.065397 0.000000 0.000000 0.000000
# 2 -0.058641 0.026781 0.013208 0.000000 0.000000 0.000000
# 3 -0.065397 0.013208 0.027718 0.000000 0.000000 0.000000
# 4 0.000000 0.000000 0.000000 7.046240 0.000000 0.000000
# 5 0.000000 0.000000 0.000000 0.000000 0.031989 0.000000
# 6 0.000000 0.000000 0.000000 0.000000 0.000000 0.012879
#
#
# Mechanical properties :
#
#
# Convention : Reuss Voigt Hill
#
# Bulk Modulus (GPa) = 14.99585 48.42335 31.70960
# Shear Modulus (GPa) = 0.65588 30.36636 15.51112
#
# Velocity S-wave (km/s) = 0.59914 4.07675 2.91366
# Velocity P-wave (km/s) = 2.94721 6.97585 5.35484
#
# Compressibility (1/GPa) = 0.06668513
#
# Stress axis : x y z
#
# Youngs Moduli (GPa) = 4.27634 37.33952 36.07720
#
# Poissons Ratio (x) = 2.18961 2.35933
# Poissons Ratio (y) = 0.25077 -0.47649
# Poissons Ratio (z) = 0.27966 -0.49316
#
# Static dielectric constant tensor:
#      x y z
#    x 1.606410 0.000000 0.000000 
#    y 0.000000 1.593610 0.000000 
#    z 0.000000 0.000000 1.630430 
# 
# From -- ./inp_files/8289.got.cif
#   From: 2010.05.17/outbox.cif.g08.bks.cpg/sg17_5_cif.got.tgz:8289.got - 2010.06.03 22:34:06.
