data_PCOD9310937
_publ_section_title
;
Structure prediction by ZEFSAII (Michael W. Deem and Ramdas Pophale) SiO2 
 PCOD9310937
Probable space group: P 2 2 21
;
_chemical_formula_sum "Si O2"
_cell_formula_units_Z 16
_cell_length_a 8.250669
_cell_length_b 7.478176
_cell_length_c 9.535528
_cell_angle_alpha 90.000000
_cell_angle_beta 90.000000
_cell_angle_gamma 90.000000
_cell_volume 588.341648
_symmetry_space_group_name_H-M "P 2 2 21"
_symmetry_group_IT_number 17
_symmetry_cell_setting 'orthorhombic'
loop_
_space_group_symop_operation_xyz
x,y,z
-x,-y,1/2+z
x,-y,-z
-x,y,1/2-z
loop_
_atom_site_type_symbol
_atom_site_label
_atom_site_fract_x
_atom_site_fract_y
_atom_site_fract_z
Si Si1 0.923452 0.723571 0.057909
Si Si2 0.724076 0.248757 0.224256
Si Si3 0.000000 0.043184 0.250000
Si Si4 0.269577 0.376425 0.820571
Si Si5 0.500000 0.933148 0.250000
O O1 0.788505 0.639192 0.159975
O O2 0.101664 0.643272 0.093683
O O3 0.933344 0.916167 0.129883
O O4 0.845632 0.709929 0.905344
O O5 0.854348 0.149433 0.322121
O O6 0.662388 0.419486 0.314394
O O7 0.608463 0.086637 0.173902
O O8 0.391514 0.208576 0.839938
#
# Coordination Sequence:
#
# PCOD9310937 Si02
#       5
#     4   4   2   4   2
#     4  10  21  45  72 106 145 194 252 304 358 445
#     4  12  23  43  78 104 150 206 238 309 396 416
#     4  10  20  40  72 108 140 188 258 298 344 458
#     4  10  23  44  69 111 155 185 258 314 348 462
#     4  12  24  44  68 110 160 184 246 320 372 462
#
# _framework density 27.195084999999999
#
# number of rings (size 3 to 8) (size 9 to 14) (size 15 to 20)
#    0.000    1.500    5.000    3.750    0.000    0.000 
#    0.000    5.000    0.000    6.000    0.000    0.000 
#    0.000    0.000    0.000    0.000    0.000    0.000 
#
# Total GULP energy -89102.198996 kJ/mol
# GULP energy per Si atom -5568.887437 kJ/mol
# Density = 2.713319 g / cm^3
# Si number density = 27.195085 Si / 1000 Ang^3
#
#
#
# Elastic Constant Matrix: (Units=GPa)
#
#
# Indices 1 2 3 4 5 6 
#
# 1 116.5940 59.8979 -1.7293 0.0000 0.0000 0.0000
# 2 59.8979 220.0922 15.4359 0.0000 0.0000 0.0000
# 3 -1.7293 15.4359 30.9019 0.0000 0.0000 0.0000
# 4 0.0000 0.0000 0.0000 42.1701 0.0000 0.0000
# 5 0.0000 0.0000 0.0000 0.0000 19.4581 0.0000
# 6 0.0000 0.0000 0.0000 0.0000 0.0000 -17.9233
#
#
#
# Elastic Compliance Matrix: (Units=1/GPa)
#
#
# Indices 1 2 3 4 5 6 
#
# 1 0.010089 -0.002887 0.002007 0.000000 0.000000 0.000000
# 2 -0.002887 0.005534 -0.002926 0.000000 0.000000 0.000000
# 3 0.002007 -0.002926 0.033934 0.000000 0.000000 0.000000
# 4 0.000000 0.000000 0.000000 0.023713 0.000000 0.000000
# 5 0.000000 0.000000 0.000000 0.000000 0.051393 0.000000
# 6 0.000000 0.000000 0.000000 0.000000 0.000000 -0.055793
#
#
# Mechanical properties :
#
#
# Convention : Reuss Voigt Hill
#
# Bulk Modulus (GPa) = 23.84021 57.19967 40.51994
# Shear Modulus (GPa) = 55.27010 28.33989 41.80499
#
# Velocity S-wave (km/s) = 4.51306 3.23165 3.92500
# Velocity P-wave (km/s) = 5.99519 5.91638 5.95591
#
# Compressibility (1/GPa) = 0.04194594
#
# Stress axis : x y z
#
# Youngs Moduli (GPa) = 99.11342 180.69006 29.46872
#
# Poissons Ratio (x) = 0.52157 -0.05913
# Poissons Ratio (y) = 0.28610 0.08623
# Poissons Ratio (z) = -0.19887 0.52870
#
# Static dielectric constant tensor:
#      x y z
#    x 2.254090 0.000000 0.000000 
#    y 0.000000 2.445230 0.000000 
#    z 0.000000 0.000000 2.206910 
# 
# From -- ./inp_files/6245.got.cif
#   From: 2010.05.17/outbox.cif.g08.bks.cpg/sg17_4_cif.got.tgz:6245.got - 2010.06.03 22:34:06.
