data_PCOD9310761
_publ_section_title
;
Structure prediction by ZEFSAII (Michael W. Deem and Ramdas Pophale) SiO2 
 PCOD9310761
Probable space group: P 2 2 21
;
_chemical_formula_sum "Si O2"
_cell_formula_units_Z 32
_cell_length_a 11.594210
_cell_length_b 15.827515
_cell_length_c 8.709907
_cell_angle_alpha 90.000000
_cell_angle_beta 90.000000
_cell_angle_gamma 90.000000
_cell_volume 1598.333544
_symmetry_space_group_name_H-M "P 2 2 21"
_symmetry_group_IT_number 17
_symmetry_cell_setting 'orthorhombic'
loop_
_space_group_symop_operation_xyz
x,y,z
-x,-y,1/2+z
x,-y,-z
-x,y,1/2-z
loop_
_atom_site_type_symbol
_atom_site_label
_atom_site_fract_x
_atom_site_fract_y
_atom_site_fract_z
Si Si1 0.953995 0.237960 0.592295
Si Si2 0.695585 0.953900 0.853433
Si Si3 0.240643 0.301474 0.130653
Si Si4 0.808550 0.931745 0.371466
Si Si5 0.605608 0.864094 0.564264
Si Si6 0.798727 0.775654 0.950809
Si Si7 0.564864 0.750215 0.088146
Si Si8 0.451855 0.409804 0.078294
O O1 0.866098 0.289340 0.484359
O O2 0.889203 0.149879 0.632145
O O3 0.000000 0.279060 0.750000
O O4 0.070673 0.220474 0.501749
O O5 0.618281 0.927098 0.706998
O O6 0.761622 0.868416 0.895890
O O7 0.789393 0.020432 0.787238
O O8 0.639608 0.000000 0.000000
O O9 0.325442 0.221304 0.106223
O O10 0.209881 0.290636 0.309655
O O11 0.318502 0.381436 0.089663
O O12 0.681096 0.901855 0.426257
O O13 0.847713 0.000000 0.500000
O O14 0.481899 0.828726 0.514829
O O15 0.703357 0.752348 0.080875
O O16 0.500000 0.758624 0.250000
O O17 0.520543 0.663168 0.013345
O O18 0.500000 0.411236 0.250000
O O19 0.465312 0.500000 0.000000
#
# Coordination Sequence:
#
# PCOD9310761 Si02
#       8
#     4   4   4   4   4   4   4   4
#     4  11  23  36  62  90 123 167 228 281 329 386
#     4  10  20  34  58  85 121 164 224 281 341 393
#     4   9  20  40  63  91 131 168 209 267 319 400
#     4   9  19  37  56  80 118 165 215 290 344 386
#     4   8  19  37  58  82 121 164 209 263 339 388
#     4  11  23  40  62  91 122 178 231 270 341 405
#     4  11  24  40  68  95 132 169 219 276 327 414
#     4  11  22  43  73 109 140 167 201 260 338 409
#
# _framework density 20.020852999999999
#
# number of rings (size 3 to 8) (size 9 to 14) (size 15 to 20)
#    0.000    2.000    1.250    2.250    7.000    1.500 
#    0.000    4.375    0.000    2.250    0.000    0.000 
#    0.000    0.000    0.000    0.000    0.000    0.000 
#
# Total GULP energy -178713.046411 kJ/mol
# GULP energy per Si atom -5584.782700 kJ/mol
# Density = 1.997528 g / cm^3
# Si number density = 20.020853 Si / 1000 Ang^3
#
#
#
# Elastic Constant Matrix: (Units=GPa)
#
#
# Indices 1 2 3 4 5 6 
#
# 1 137.1121 34.1684 32.8344 0.0000 0.0000 0.0000
# 2 34.1684 83.0210 32.9478 0.0000 0.0000 0.0000
# 3 32.8344 32.9478 84.6169 0.0000 0.0000 0.0000
# 4 0.0000 0.0000 0.0000 27.8982 0.0000 0.0000
# 5 0.0000 0.0000 0.0000 0.0000 24.5204 0.0000
# 6 0.0000 0.0000 0.0000 0.0000 0.0000 16.0389
#
#
#
# Elastic Compliance Matrix: (Units=1/GPa)
#
#
# Indices 1 2 3 4 5 6 
#
# 1 0.008485 -0.002585 -0.002286 0.000000 0.000000 0.000000
# 2 -0.002585 0.015034 -0.004851 0.000000 0.000000 0.000000
# 3 -0.002286 -0.004851 0.014594 0.000000 0.000000 0.000000
# 4 0.000000 0.000000 0.000000 0.035845 0.000000 0.000000
# 5 0.000000 0.000000 0.000000 0.000000 0.040782 0.000000
# 6 0.000000 0.000000 0.000000 0.000000 0.000000 0.062348
#
#
# Mechanical properties :
#
#
# Convention : Reuss Voigt Hill
#
# Bulk Modulus (GPa) = 53.56363 56.07235 54.81799
# Shear Modulus (GPa) = 24.66035 27.34481 26.00258
#
# Velocity S-wave (km/s) = 3.51341 3.69970 3.60776
# Velocity P-wave (km/s) = 6.57805 6.80575 6.69287
#
# Compressibility (1/GPa) = 0.01866938
#
# Stress axis : x y z
#
# Youngs Moduli (GPa) = 117.85679 66.51541 68.52208
#
# Poissons Ratio (x) = 0.17193 0.15664
# Poissons Ratio (y) = 0.30464 0.33239
# Poissons Ratio (z) = 0.26942 0.32266
#
# Static dielectric constant tensor:
#      x y z
#    x 1.715480 0.000000 0.000000 
#    y 0.000000 1.676970 0.000000 
#    z 0.000000 0.000000 1.784440 
# 
# From -- ./inp_files/4936.got.cif
#   From: 2010.05.17/outbox.cif.g08.bks.cpg/sg17_3_cif.got.tgz:4936.got - 2010.06.03 22:34:06.
