data_PCOD9310156
_publ_section_title
;
Structure prediction by ZEFSAII (Michael W. Deem and Ramdas Pophale) SiO2 
 PCOD9310156
Probable space group: P 2 2 2
;
_chemical_formula_sum "Si O2"
_cell_formula_units_Z 32
_cell_length_a 10.135181
_cell_length_b 13.864744
_cell_length_c 11.922944
_cell_angle_alpha 90.000000
_cell_angle_beta 90.000000
_cell_angle_gamma 90.000000
_cell_volume 1675.432240
_symmetry_space_group_name_H-M "P 2 2 2"
_symmetry_group_IT_number 16
_symmetry_cell_setting 'orthorhombic'
loop_
_space_group_symop_operation_xyz
x,y,z
-x,-y,z
x,-y,-z
-x,y,-z
loop_
_atom_site_type_symbol
_atom_site_label
_atom_site_fract_x
_atom_site_fract_y
_atom_site_fract_z
Si Si1 0.749216 0.217035 0.835661
Si Si2 0.363866 0.893698 0.449617
Si Si3 0.840455 0.607857 0.287063
Si Si4 0.734398 0.770878 0.896394
Si Si5 0.151305 0.730870 0.487624
Si Si6 0.512285 0.892485 0.794676
Si Si7 0.987600 0.110053 0.136169
Si Si8 0.848617 0.615228 0.741901
O O1 0.748347 0.323711 0.786251
O O2 0.634230 0.150961 0.784495
O O3 0.892326 0.169986 0.811742
O O4 0.741942 0.224714 0.969814
O O5 0.500000 0.853613 0.500000
O O6 0.248354 0.821523 0.483423
O O7 0.402413 0.903641 0.318991
O O8 0.341232 0.000000 0.500000
O O9 0.831907 0.653915 0.411282
O O10 0.808406 0.495298 0.278731
O O11 0.992121 0.616937 0.242959
O O12 0.593997 0.814891 0.865126
O O13 0.771694 0.667992 0.842591
O O14 0.846876 0.841271 0.843806
O O15 0.173994 0.675351 0.371250
O O16 0.000000 0.764089 0.500000
O O17 0.500000 0.000000 0.845190
O O18 0.000000 0.000000 0.173581
O O19 0.000000 0.110699 0.000000
#
# Coordination Sequence:
#
# PCOD9310156 Si02
#       8
#     4   4   4   4   4   4   4   4
#     4  11  23  38  60  93 124 167 215 258 309 373
#     4  11  22  40  63  91 125 167 205 250 313 375
#     4  10  21  37  65  94 125 162 209 262 322 378
#     4  11  22  39  61  90 127 165 213 261 311 370
#     4  10  21  40  65  93 124 159 207 263 315 379
#     4  12  24  41  64  89 126 171 211 251 310 380
#     4   9  18  35  57  83 120 159 205 259 304 360
#     4  10  20  39  64  94 124 164 207 263 323 376
#
# _framework density 19.099547999999999
#
# number of rings (size 3 to 8) (size 9 to 14) (size 15 to 20)
#    0.000    1.500    3.750    2.250    0.000    4.250 
#    0.000    1.875    0.000    2.250    0.000    0.000 
#    0.000    0.000    0.000    0.000    0.000    0.000 
#
# Total GULP energy -178609.352591 kJ/mol
# GULP energy per Si atom -5581.542268 kJ/mol
# Density = 1.905608 g / cm^3
# Si number density = 19.099548 Si / 1000 Ang^3
#
#
#
# Elastic Constant Matrix: (Units=GPa)
#
#
# Indices 1 2 3 4 5 6 
#
# 1 75.2989 54.9643 2.8756 0.0000 0.0000 0.0000
# 2 54.9643 139.4682 21.8890 0.0000 0.0000 0.0000
# 3 2.8756 21.8890 49.1322 0.0000 0.0000 0.0000
# 4 0.0000 0.0000 0.0000 14.8177 0.0000 0.0000
# 5 0.0000 0.0000 0.0000 0.0000 19.4367 0.0000
# 6 0.0000 0.0000 0.0000 0.0000 0.0000 30.0724
#
#
#
# Elastic Compliance Matrix: (Units=1/GPa)
#
#
# Indices 1 2 3 4 5 6 
#
# 1 0.018899 -0.007821 0.002378 0.000000 0.000000 0.000000
# 2 -0.007821 0.010946 -0.004419 0.000000 0.000000 0.000000
# 3 0.002378 -0.004419 0.022183 0.000000 0.000000 0.000000
# 4 0.000000 0.000000 0.000000 0.067487 0.000000 0.000000
# 5 0.000000 0.000000 0.000000 0.000000 0.051449 0.000000
# 6 0.000000 0.000000 0.000000 0.000000 0.000000 0.033253
#
#
# Mechanical properties :
#
#
# Convention : Reuss Voigt Hill
#
# Bulk Modulus (GPa) = 30.95597 47.03968 38.99782
# Shear Modulus (GPa) = 21.30308 25.14338 23.22323
#
# Velocity S-wave (km/s) = 3.34334 3.63221 3.49077
# Velocity P-wave (km/s) = 5.58093 6.50175 6.05886
#
# Compressibility (1/GPa) = 0.03230395
#
# Stress axis : x y z
#
# Youngs Moduli (GPa) = 52.91375 91.35810 45.08026
#
# Poissons Ratio (x) = 0.71453 -0.10722
# Poissons Ratio (y) = 0.41385 0.19920
# Poissons Ratio (z) = -0.12585 0.40369
#
# Static dielectric constant tensor:
#      x y z
#    x 1.655400 0.000000 0.000000 
#    y 0.000000 1.656510 0.000000 
#    z 0.000000 0.000000 1.703740 
# 
# From -- ./inp_files/4836.got.cif
#   From: 2010.05.17/outbox.cif.g08.bks.cpg/sg16_3_cif.got.tgz:4836.got - 2010.06.03 22:28:35.
