data_PCOD9310709
_publ_section_title
;
Structure prediction by ZEFSAII (Michael W. Deem and Ramdas Pophale) SiO2 
 PCOD9310709
Probable space group: P 2 2 21
;
_chemical_formula_sum "Si O2"
_cell_formula_units_Z 24
_cell_length_a 7.807366
_cell_length_b 11.983257
_cell_length_c 11.717808
_cell_angle_alpha 90.000000
_cell_angle_beta 90.000000
_cell_angle_gamma 90.000000
_cell_volume 1096.290852
_symmetry_space_group_name_H-M "P 2 2 21"
_symmetry_group_IT_number 17
_symmetry_cell_setting 'orthorhombic'
loop_
_space_group_symop_operation_xyz
x,y,z
-x,-y,1/2+z
x,-y,-z
-x,y,1/2-z
loop_
_atom_site_type_symbol
_atom_site_label
_atom_site_fract_x
_atom_site_fract_y
_atom_site_fract_z
Si Si1 0.700902 0.722656 0.732460
Si Si2 0.000000 0.933712 0.250000
Si Si3 0.837447 0.500000 0.000000
Si Si4 0.860493 0.904875 0.568639
Si Si5 0.310125 0.234697 0.716505
Si Si6 0.793551 0.479691 0.750475
Si Si7 0.134223 0.261042 0.483232
O O1 0.500000 0.728801 0.750000
O O2 0.756918 0.818861 0.645698
O O3 0.743810 0.595993 0.691236
O O4 0.798473 0.744039 0.853347
O O5 0.167018 0.855442 0.250310
O O6 0.014390 0.019570 0.145402
O O7 0.733951 0.500713 0.882311
O O8 0.939869 0.614570 0.000327
O O9 0.985427 0.826555 0.495614
O O10 0.757681 0.000000 0.500000
O O11 0.500000 0.199018 0.750000
O O12 0.275336 0.356104 0.775391
O O13 0.279899 0.249012 0.579682
O O14 0.000000 0.473882 0.750000
#
# Coordination Sequence:
#
# PCOD9310709 Si02
#       7
#     4   2   2   4   4   4   4
#     4  11  23  40  67 103 138 178 237 297 356 427
#     4  12  24  44  66  94 136 192 236 278 346 416
#     4   8  18  32  62  94 122 172 224 274 352 416
#     4  12  24  43  69  93 133 190 246 281 351 433
#     4  11  24  42  69 103 141 182 235 296 358 420
#     4  10  19  39  67  98 137 180 226 285 362 429
#     4  10  20  42  65  92 135 180 223 295 356 419
#
# _framework density 21.892001
#
# number of rings (size 3 to 8) (size 9 to 14) (size 15 to 20)
#    0.000    1.333    4.167    2.500    0.000    2.000 
#    0.000    2.500    0.000    1.000    0.000    0.000 
#    0.000    0.000    0.000    0.000    0.000    0.000 
#
# Total GULP energy -133876.971017 kJ/mol
# GULP energy per Si atom -5578.207126 kJ/mol
# Density = 2.184217 g / cm^3
# Si number density = 21.892001 Si / 1000 Ang^3
#
#
#
# Elastic Constant Matrix: (Units=GPa)
#
#
# Indices 1 2 3 4 5 6 
#
# 1 126.5539 56.3313 10.9344 0.0000 0.0000 0.0000
# 2 56.3313 187.0333 27.3596 0.0000 0.0000 0.0000
# 3 10.9344 27.3596 51.3535 0.0000 0.0000 0.0000
# 4 0.0000 0.0000 0.0000 40.4868 0.0000 0.0000
# 5 0.0000 0.0000 0.0000 0.0000 25.6972 0.0000
# 6 0.0000 0.0000 0.0000 0.0000 0.0000 -1.8873
#
#
#
# Elastic Compliance Matrix: (Units=1/GPa)
#
#
# Indices 1 2 3 4 5 6 
#
# 1 0.009138 -0.002676 -0.000520 0.000000 0.000000 0.000000
# 2 -0.002676 0.006582 -0.002937 0.000000 0.000000 0.000000
# 3 -0.000520 -0.002937 0.021148 0.000000 0.000000 0.000000
# 4 0.000000 0.000000 0.000000 0.024699 0.000000 0.000000
# 5 0.000000 0.000000 0.000000 0.000000 0.038915 0.000000
# 6 0.000000 0.000000 0.000000 0.000000 0.000000 -0.529860
#
#
# Mechanical properties :
#
#
# Convention : Reuss Voigt Hill
#
# Bulk Modulus (GPa) = 40.64650 61.57681 51.11165
# Shear Modulus (GPa) = -12.22761 30.88036 9.32637
#
# Velocity S-wave (km/s) = -2.36591 3.75984 2.06626
# Velocity P-wave (km/s) = 3.33822 6.85836 5.39355
#
# Compressibility (1/GPa) = 0.02460237
#
# Stress axis : x y z
#
# Youngs Moduli (GPa) = 109.43459 151.92303 47.28500
#
# Poissons Ratio (x) = 0.40656 0.02458
# Poissons Ratio (y) = 0.29286 0.13888
# Poissons Ratio (z) = 0.05690 0.44620
#
# Static dielectric constant tensor:
#      x y z
#    x 1.743960 0.000000 0.000000 
#    y 0.000000 1.821790 0.000000 
#    z 0.000000 0.000000 2.019680 
# 
# From -- ./inp_files/6608.got.cif
#   From: 2010.05.17/outbox.cif.g08.bks.cpg/sg17_4_cif.got.tgz:6608.got - 2010.06.03 22:34:06.
