data_PCOD9310194
_publ_section_title
;
Structure prediction by ZEFSAII (Michael W. Deem and Ramdas Pophale) SiO2 
 PCOD9310194
Probable space group: P 2 2 2
;
_chemical_formula_sum "Si O2"
_cell_formula_units_Z 22
_cell_length_a 13.233910
_cell_length_b 16.342969
_cell_length_c 5.100657
_cell_angle_alpha 90.000000
_cell_angle_beta 90.000000
_cell_angle_gamma 90.000000
_cell_volume 1103.177139
_symmetry_space_group_name_H-M "P 2 2 2"
_symmetry_group_IT_number 16
_symmetry_cell_setting 'orthorhombic'
loop_
_space_group_symop_operation_xyz
x,y,z
-x,-y,z
x,-y,-z
-x,y,-z
loop_
_atom_site_type_symbol
_atom_site_label
_atom_site_fract_x
_atom_site_fract_y
_atom_site_fract_z
Si Si1 0.245837 0.557728 0.757262
Si Si2 0.500000 0.826482 0.000000
Si Si3 0.067586 0.684991 0.742428
Si Si4 0.599018 0.692409 0.380129
Si Si5 0.770590 0.193033 0.500042
Si Si6 0.289886 0.903473 0.017640
O O1 0.242004 0.500000 0.500000
O O2 0.146142 0.612616 0.798052
O O3 0.336606 0.622907 0.756618
O O4 0.258971 0.500000 0.000000
O O5 0.549737 0.764925 0.208890
O O6 0.406345 0.881952 0.094246
O O7 0.132962 0.760278 0.621049
O O8 0.000000 0.656866 0.500000
O O9 0.000000 0.703868 0.000000
O O10 0.500000 0.652039 0.500000
O O11 0.683643 0.738435 0.556411
O O12 0.779821 0.140929 0.235365
O O13 0.731988 0.135035 0.733708
O O14 0.275288 0.000000 0.000000
#
# Coordination Sequence:
#
# PCOD9310194 Si02
#       6
#     4   2   4   4   4   4
#     4  11  26  42  60  93 130 160 209 272 328 384
#     4  10  21  36  59  86 124 170 230 254 287 372
#     4  11  23  42  71  93 116 162 214 266 329 391
#     4  10  21  39  61  82 124 175 217 252 306 365
#     4  10  22  39  61  91 126 160 212 259 305 388
#     4  11  21  36  60  92 130 166 202 259 319 363
#
# _framework density 19.942399000000002
#
# number of rings (size 3 to 8) (size 9 to 14) (size 15 to 20)
#    0.000    1.455    1.818    3.000    2.545    5.455 
#    0.000    1.818    0.000    8.182    0.000    0.000 
#    0.000    0.000    0.000    0.000    0.000    0.000 
#
# Total GULP energy -122766.149688 kJ/mol
# GULP energy per Si atom -5580.279531 kJ/mol
# Density = 1.989701 g / cm^3
# Si number density = 19.942399 Si / 1000 Ang^3
#
#
#
# Elastic Constant Matrix: (Units=GPa)
#
#
# Indices 1 2 3 4 5 6 
#
# 1 94.1691 31.7902 18.5291 0.0000 0.0000 0.0000
# 2 31.7902 106.3867 26.9483 0.0000 0.0000 0.0000
# 3 18.5291 26.9483 80.6154 0.0000 0.0000 0.0000
# 4 0.0000 0.0000 0.0000 35.4352 0.0000 0.0000
# 5 0.0000 0.0000 0.0000 0.0000 21.9335 0.0000
# 6 0.0000 0.0000 0.0000 0.0000 0.0000 14.5767
#
#
#
# Elastic Compliance Matrix: (Units=1/GPa)
#
#
# Indices 1 2 3 4 5 6 
#
# 1 0.012022 -0.003160 -0.001707 0.000000 0.000000 0.000000
# 2 -0.003160 0.011100 -0.002984 0.000000 0.000000 0.000000
# 3 -0.001707 -0.002984 0.013794 0.000000 0.000000 0.000000
# 4 0.000000 0.000000 0.000000 0.028220 0.000000 0.000000
# 5 0.000000 0.000000 0.000000 0.000000 0.045592 0.000000
# 6 0.000000 0.000000 0.000000 0.000000 0.000000 0.068603
#
#
# Mechanical properties :
#
#
# Convention : Reuss Voigt Hill
#
# Bulk Modulus (GPa) = 47.13840 48.41179 47.77510
# Shear Modulus (GPa) = 24.73962 27.98266 26.36114
#
# Velocity S-wave (km/s) = 3.52597 3.74996 3.63969
# Velocity P-wave (km/s) = 6.34549 6.56339 6.45536
#
# Compressibility (1/GPa) = 0.02121413
#
# Stress axis : x y z
#
# Youngs Moduli (GPa) = 83.18224 90.09147 72.49297
#
# Poissons Ratio (x) = 0.28469 0.12373
# Poissons Ratio (y) = 0.26285 0.21633
# Poissons Ratio (z) = 0.14198 0.26885
#
# Static dielectric constant tensor:
#      x y z
#    x 1.750190 0.000000 0.000000 
#    y 0.000000 1.665510 0.000000 
#    z 0.000000 0.000000 1.705800 
# 
# From -- ./inp_files/1458.got.cif
#   From: 2010.05.17/outbox.cif.g08.bks.cpg/sg16_1_cif.got.tgz:1458.got - 2010.06.03 22:28:35.
