data_PCOD9310426
_publ_section_title
;
Structure prediction by ZEFSAII (Michael W. Deem and Ramdas Pophale) SiO2 
 PCOD9310426
Probable space group: P 2 2 2
;
_chemical_formula_sum "Si O2"
_cell_formula_units_Z 24
_cell_length_a 8.073494
_cell_length_b 7.597000
_cell_length_c 18.054454
_cell_angle_alpha 90.000000
_cell_angle_beta 90.000000
_cell_angle_gamma 90.000000
_cell_volume 1107.357910
_symmetry_space_group_name_H-M "P 2 2 2"
_symmetry_group_IT_number 16
_symmetry_cell_setting 'orthorhombic'
loop_
_space_group_symop_operation_xyz
x,y,z
-x,-y,z
x,-y,-z
-x,y,-z
loop_
_atom_site_type_symbol
_atom_site_label
_atom_site_fract_x
_atom_site_fract_y
_atom_site_fract_z
Si Si1 0.811993 0.794056 0.321213
Si Si2 0.188007 0.794056 0.321213
Si Si3 0.198484 0.298695 0.843817
Si Si4 0.500000 0.216108 0.414057
Si Si5 0.303928 0.701946 1.000000
Si Si6 0.801516 0.298696 0.843817
O O1 0.666580 0.721050 0.372677
O O2 0.757024 0.781654 0.235256
O O3 0.000000 0.718941 0.327913
O O4 0.825898 0.000000 0.339451
O O5 0.242976 0.781654 0.235256
O O6 0.333420 0.721050 0.372677
O O7 0.252850 0.216171 0.921644
O O8 0.261883 0.500000 0.842931
O O9 1.000000 0.300791 0.845531
O O10 0.500000 0.264554 0.500000
O O11 0.500000 0.000000 0.409978
O O12 0.232803 0.500000 0.000000
O O13 0.500000 0.691042 0.000000
O O14 0.252850 0.783828 0.921644
#
# Coordination Sequence:
#
# PCOD9310426 Si02
#       6
#     4   4   4   4   4   4
#     4   9  18  32  50  72  97 124 155 193 236 280
#     4   9  18  32  50  72  97 124 155 193 236 280
#     4   9  17  30  48  68  92 125 161 195 232 274
#     4   9  18  32  51  74  97 122 154 193 235 281
#     4   9  17  27  42  67  94 122 159 198 230 267
#     4   9  17  30  48  68  92 125 161 195 232 274
#
# _framework density 21.673209
#
# number of rings (size 3 to 8) (size 9 to 14) (size 15 to 20)
#    0.000    3.000    0.000    0.500    2.333    2.667 
#    0.000    4.167    0.000    7.000    0.000    4.667 
#    0.000    0.000    0.000    0.000    0.000    0.000 
#
# Total GULP energy -133761.380216 kJ/mol
# GULP energy per Si atom -5573.390842 kJ/mol
# Density = 2.162388 g / cm^3
# Si number density = 21.673209 Si / 1000 Ang^3
#
#
#
# Elastic Constant Matrix: (Units=GPa)
#
#
# Indices 1 2 3 4 5 6 
#
# 1 109.1055 9.6403 113.3181 0.0000 0.0000 0.0000
# 2 9.6403 43.6355 1.0323 0.0000 0.0000 0.0000
# 3 113.3181 1.0323 204.4424 0.0000 0.0000 0.0000
# 4 0.0000 0.0000 0.0000 20.0370 0.0000 0.0000
# 5 0.0000 0.0000 0.0000 0.0000 45.0656 0.0000
# 6 0.0000 0.0000 0.0000 0.0000 0.0000 0.9305
#
#
#
# Elastic Compliance Matrix: (Units=1/GPa)
#
#
# Indices 1 2 3 4 5 6 
#
# 1 0.022517 -0.004680 -0.012457 0.000000 0.000000 0.000000
# 2 -0.004680 0.023893 0.002473 0.000000 0.000000 0.000000
# 3 -0.012457 0.002473 0.011784 0.000000 0.000000 0.000000
# 4 0.000000 0.000000 0.000000 0.049908 0.000000 0.000000
# 5 0.000000 0.000000 0.000000 0.000000 0.022190 0.000000
# 6 0.000000 0.000000 0.000000 0.000000 0.000000 1.074718
#
#
# Mechanical properties :
#
#
# Convention : Reuss Voigt Hill
#
# Bulk Modulus (GPa) = 34.64310 67.24052 50.94181
# Shear Modulus (GPa) = 4.01943 28.75279 16.38611
#
# Velocity S-wave (km/s) = 1.36330 3.64627 2.75263
# Velocity P-wave (km/s) = 4.30083 6.98707 5.80156
#
# Compressibility (1/GPa) = 0.02886578
#
# Stress axis : x y z
#
# Youngs Moduli (GPa) = 44.41102 41.85408 84.86423
#
# Poissons Ratio (x) = 0.19587 1.05716
# Poissons Ratio (y) = 0.20784 -0.20990
# Poissons Ratio (z) = 0.55323 -0.10352
#
# Static dielectric constant tensor:
#      x y z
#    x 1.778570 0.000000 0.000000 
#    y 0.000000 1.856030 0.000000 
#    z 0.000000 0.000000 1.783650 
# 
# From -- ./inp_files/7852.got.cif
#   From: 2010.05.17/outbox.cif.g08.bks.cpg/sg16_4_cif.got.tgz:7852.got - 2010.06.03 22:28:35.
