data_PCOD9310944
_publ_section_title
;
Structure prediction by ZEFSAII (Michael W. Deem and Ramdas Pophale) SiO2 
 PCOD9310944
Probable space group: P 2 2 21
;
_chemical_formula_sum "Si O2"
_cell_formula_units_Z 12
_cell_length_a 9.159290
_cell_length_b 7.155750
_cell_length_c 8.763990
_cell_angle_alpha 90.000000
_cell_angle_beta 90.000000
_cell_angle_gamma 90.000000
_cell_volume 574.405834
_symmetry_space_group_name_H-M "P 2 2 21"
_symmetry_group_IT_number 17
_symmetry_cell_setting 'orthorhombic'
loop_
_space_group_symop_operation_xyz
x,y,z
-x,-y,1/2+z
x,-y,-z
-x,y,1/2-z
loop_
_atom_site_type_symbol
_atom_site_label
_atom_site_fract_x
_atom_site_fract_y
_atom_site_fract_z
Si Si1 0.720191 0.500000 0.500000
Si Si2 0.106913 0.148863 0.117420
Si Si3 0.649358 0.955538 0.175609
Si Si4 0.500000 0.590067 0.250000
O O1 0.820437 0.683232 0.520707
O O2 0.605633 0.482265 0.361480
O O3 0.000000 0.222552 0.250000
O O4 0.226576 0.028709 0.211677
O O5 0.036581 0.000000 0.000000
O O6 0.500000 0.035929 0.250000
O O7 0.614583 0.734298 0.173518
O O8 0.672783 0.000000 0.000000
#
# Coordination Sequence:
#
# PCOD9310944 Si02
#       4
#     2   4   4   2
#     4  12  26  46  68 114 138 184 238 294 354 414
#     4  12  26  49  71  98 147 189 235 285 355 427
#     4  10  20  41  69 102 132 181 234 285 344 410
#     4  10  24  40  74 102 146 168 244 298 342 408
#
# _framework density 20.891152000000002
#
# number of rings (size 3 to 8) (size 9 to 14) (size 15 to 20)
#    1.000    0.000    3.333    4.000    7.000    1.333 
#    6.000    0.000    0.000    0.000    0.000    0.000 
#    0.000    0.000    0.000    0.000    0.000    0.000 
#
# Total GULP energy -66815.282674 kJ/mol
# GULP energy per Si atom -5567.940223 kJ/mol
# Density = 2.084360 g / cm^3
# Si number density = 20.891152 Si / 1000 Ang^3
#
#
#
# Elastic Constant Matrix: (Units=GPa)
#
#
# Indices 1 2 3 4 5 6 
#
# 1 65.3631 10.2529 12.4838 0.0000 0.0000 0.0000
# 2 10.2529 77.0155 17.2641 0.0000 0.0000 0.0000
# 3 12.4838 17.2641 86.0654 0.0000 0.0000 0.0000
# 4 0.0000 0.0000 0.0000 18.6285 0.0000 0.0000
# 5 0.0000 0.0000 0.0000 0.0000 -48.3712 0.0000
# 6 0.0000 0.0000 0.0000 0.0000 0.0000 15.0177
#
#
#
# Elastic Compliance Matrix: (Units=1/GPa)
#
#
# Indices 1 2 3 4 5 6 
#
# 1 0.015940 -0.001679 -0.001975 0.000000 0.000000 0.000000
# 2 -0.001679 0.013773 -0.002519 0.000000 0.000000 0.000000
# 3 -0.001975 -0.002519 0.012411 0.000000 0.000000 0.000000
# 4 0.000000 0.000000 0.000000 0.053681 0.000000 0.000000
# 5 0.000000 0.000000 0.000000 0.000000 -0.020673 0.000000
# 6 0.000000 0.000000 0.000000 0.000000 0.000000 0.066588
#
#
# Mechanical properties :
#
#
# Convention : Reuss Voigt Hill
#
# Bulk Modulus (GPa) = 33.58391 34.27173 33.92782
# Shear Modulus (GPa) = 30.48930 9.61788 20.05359
#
# Velocity S-wave (km/s) = 3.82440 2.14798 3.10160
# Velocity P-wave (km/s) = 5.96757 4.75313 5.39464
#
# Compressibility (1/GPa) = 0.02977617
#
# Stress axis : x y z
#
# Youngs Moduli (GPa) = 62.73597 72.60766 80.57435
#
# Poissons Ratio (x) = 0.12193 0.15915
# Poissons Ratio (y) = 0.10535 0.20298
# Poissons Ratio (z) = 0.12392 0.18291
#
# Static dielectric constant tensor:
#      x y z
#    x 1.740670 0.000000 0.000000 
#    y 0.000000 1.790640 0.000000 
#    z 0.000000 0.000000 1.754520 
# 
# From -- ./inp_files/4446.got.cif
#   From: 2010.05.17/outbox.cif.g08.bks.cpg/sg17_3_cif.got.tgz:4446.got - 2010.06.03 22:34:06.
