data_PCOD9310446
_publ_section_title
;
Structure prediction by ZEFSAII (Michael W. Deem and Ramdas Pophale) SiO2 
 PCOD9310446
Probable space group: P 2 2 21
;
_chemical_formula_sum "Si O2"
_cell_formula_units_Z 16
_cell_length_a 11.357464
_cell_length_b 7.434588
_cell_length_c 7.778353
_cell_angle_alpha 90.000000
_cell_angle_beta 90.000000
_cell_angle_gamma 90.000000
_cell_volume 656.789081
_symmetry_space_group_name_H-M "P 2 2 21"
_symmetry_group_IT_number 17
_symmetry_cell_setting 'orthorhombic'
loop_
_space_group_symop_operation_xyz
x,y,z
-x,-y,1/2+z
x,-y,-z
-x,y,1/2-z
loop_
_atom_site_type_symbol
_atom_site_label
_atom_site_fract_x
_atom_site_fract_y
_atom_site_fract_z
Si Si1 0.815013 0.238205 0.607620
Si Si2 0.624873 0.000000 0.500000
Si Si3 0.960851 0.293534 0.053592
Si Si4 0.500000 0.727660 0.750000
Si Si5 0.249423 0.397674 0.268006
O O1 0.717387 0.086248 0.637750
O O2 0.801325 0.401583 0.739890
O O3 0.774862 0.310838 0.419318
O O4 0.951701 0.187482 0.573626
O O5 0.543590 0.144911 0.405200
O O6 0.821065 0.288652 0.085773
O O7 0.000000 0.262726 0.250000
O O8 0.987347 0.500000 0.000000
O O9 0.612412 0.608516 0.799074
#
# Coordination Sequence:
#
# PCOD9310446 Si02
#       5
#     4   2   4   2   4
#     4   9  17  35  61  82 115 158 186 246 322 340
#     4  10  22  40  62  82 128 160 196 248 314 366
#     4  10  16  32  58  85 111 142 197 258 289 344
#     4  10  22  42  58  84 124 166 204 244 290 374
#     4   9  18  35  60  82 115 154 202 246 286 351
#
# _framework density 24.360938999999998
#
# number of rings (size 3 to 8) (size 9 to 14) (size 15 to 20)
#    0.000    2.500    5.000    0.000    0.000    1.000 
#   13.500    1.250   22.000    0.000    0.000    0.000 
#    0.000    0.000    0.000    0.000    0.000    0.000 
#
# Total GULP energy -89167.560070 kJ/mol
# GULP energy per Si atom -5572.972504 kJ/mol
# Density = 2.430549 g / cm^3
# Si number density = 24.360939 Si / 1000 Ang^3
#
#
#
# Elastic Constant Matrix: (Units=GPa)
#
#
# Indices 1 2 3 4 5 6 
#
# 1 220.6722 18.2497 43.5040 0.0000 0.0000 0.0000
# 2 18.2497 58.3628 9.0703 0.0000 0.0000 0.0000
# 3 43.5040 9.0703 103.0534 0.0000 0.0000 0.0000
# 4 0.0000 0.0000 0.0000 20.9294 0.0000 0.0000
# 5 0.0000 0.0000 0.0000 0.0000 14.8769 0.0000
# 6 0.0000 0.0000 0.0000 0.0000 0.0000 -138.9288
#
#
#
# Elastic Compliance Matrix: (Units=1/GPa)
#
#
# Indices 1 2 3 4 5 6 
#
# 1 0.005033 -0.001261 -0.002014 0.000000 0.000000 0.000000
# 2 -0.001261 0.017688 -0.001025 0.000000 0.000000 0.000000
# 3 -0.002014 -0.001025 0.010644 0.000000 0.000000 0.000000
# 4 0.000000 0.000000 0.000000 0.047780 0.000000 0.000000
# 5 0.000000 0.000000 0.000000 0.000000 0.067218 0.000000
# 6 0.000000 0.000000 0.000000 0.000000 0.000000 -0.007198
#
#
# Mechanical properties :
#
#
# Convention : Reuss Voigt Hill
#
# Bulk Modulus (GPa) = 40.37715 58.19296 49.28506
# Shear Modulus (GPa) = 31.64195 0.12644 15.88419
#
# Velocity S-wave (km/s) = 3.60791 0.22807 2.55627
# Velocity P-wave (km/s) = 5.82808 4.89990 5.38403
#
# Compressibility (1/GPa) = 0.02476648
#
# Stress axis : x y z
#
# Youngs Moduli (GPa) = 198.69437 56.53654 93.95014
#
# Poissons Ratio (x) = 0.07128 0.18918
# Poissons Ratio (y) = 0.25051 0.09626
# Poissons Ratio (z) = 0.40010 0.05792
#
# Static dielectric constant tensor:
#      x y z
#    x 2.030640 0.000000 0.000000 
#    y 0.000000 2.004420 0.000000 
#    z 0.000000 0.000000 1.973830 
# 
# From -- ./inp_files/3942.got.cif
#   From: 2010.05.17/outbox.cif.g08.bks.cpg/sg17_2_cif.got.tgz:3942.got - 2010.06.03 22:34:06.
