data_PCOD9310358
_publ_section_title
;
Structure prediction by ZEFSAII (Michael W. Deem and Ramdas Pophale) SiO2 
 PCOD9310358
Probable space group: P 2 2 2
;
_chemical_formula_sum "Si O2"
_cell_formula_units_Z 28
_cell_length_a 8.826735
_cell_length_b 12.167986
_cell_length_c 17.297925
_cell_angle_alpha 90.000000
_cell_angle_beta 90.000000
_cell_angle_gamma 90.000000
_cell_volume 1857.859208
_symmetry_space_group_name_H-M "P 2 2 2"
_symmetry_group_IT_number 16
_symmetry_cell_setting 'orthorhombic'
loop_
_space_group_symop_operation_xyz
x,y,z
-x,-y,z
x,-y,-z
-x,y,-z
loop_
_atom_site_type_symbol
_atom_site_label
_atom_site_fract_x
_atom_site_fract_y
_atom_site_fract_z
Si Si1 0.684105 1.000000 0.410584
Si Si2 0.821922 0.623390 0.777961
Si Si3 0.681413 0.500000 0.910331
Si Si4 0.682019 0.239083 0.355615
Si Si5 0.317981 0.760917 0.644385
Si Si6 0.821922 0.376611 0.777961
Si Si7 0.181884 0.370940 0.500000
O O1 0.730211 0.112843 0.369508
O O2 0.500000 0.000000 0.412216
O O3 0.735281 0.000000 0.500000
O O4 0.730211 0.887157 0.369507
O O5 0.748693 0.603056 0.862182
O O6 0.740057 0.710807 0.724569
O O7 0.805940 0.500000 0.741357
O O8 1.000000 0.646273 0.784228
O O9 0.500000 0.500000 0.904206
O O10 0.748693 0.396944 0.862182
O O11 0.724419 0.500000 0.000000
O O12 0.500000 0.244598 0.359189
O O13 0.750792 0.311361 0.424853
O O14 0.259942 0.710807 0.724569
O O15 0.249207 0.688639 0.575148
O O16 0.220343 0.500000 0.500000
O O17 0.000000 0.360730 0.500000
#
# Coordination Sequence:
#
# PCOD9310358 Si02
#       7
#     4   4   4   4   4   4   4
#     4   9  18  34  50  68  91 124 171 222 260 285
#     4   9  19  32  48  72 106 133 157 195 244 294
#     4   9  17  31  53  80 105 130 163 195 231 291
#     4  11  20  33  52  69  92 127 172 213 248 293
#     4  11  20  33  52  69  92 127 172 213 248 293
#     4   9  19  32  48  72 106 133 157 195 244 294
#     4  11  23  34  45  64  96 129 162 205 257 300
#
# _framework density 15.071109999999999
#
# number of rings (size 3 to 8) (size 9 to 14) (size 15 to 20)
#    0.857    1.286    1.429    3.000    0.000    5.714 
#    0.000    3.571    0.000    0.000    0.000    1.000 
#    0.000    8.000    0.000    0.000    0.000    0.000 
#
# Total GULP energy -155962.756254 kJ/mol
# GULP energy per Si atom -5570.098438 kJ/mol
# Density = 1.503681 g / cm^3
# Si number density = 15.071110 Si / 1000 Ang^3
#
#
#
# Elastic Constant Matrix: (Units=GPa)
#
#
# Indices 1 2 3 4 5 6 
#
# 1 63.0965 51.1201 44.0385 0.0000 0.0000 0.0000
# 2 51.1201 120.5859 71.8037 0.0000 0.0000 0.0000
# 3 44.0385 71.8037 130.5657 0.0000 0.0000 0.0000
# 4 0.0000 0.0000 0.0000 7.7830 0.0000 0.0000
# 5 0.0000 0.0000 0.0000 0.0000 -1.9712 0.0000
# 6 0.0000 0.0000 0.0000 0.0000 0.0000 6.7051
#
#
#
# Elastic Compliance Matrix: (Units=1/GPa)
#
#
# Indices 1 2 3 4 5 6 
#
# 1 0.025433 -0.008436 -0.003939 0.000000 0.000000 0.000000
# 2 -0.008436 0.015129 -0.005475 0.000000 0.000000 0.000000
# 3 -0.003939 -0.005475 0.011998 0.000000 0.000000 0.000000
# 4 0.000000 0.000000 0.000000 0.128484 0.000000 0.000000
# 5 0.000000 0.000000 0.000000 0.000000 -0.507317 0.000000
# 6 0.000000 0.000000 0.000000 0.000000 0.000000 0.149140
#
#
# Mechanical properties :
#
#
# Convention : Reuss Voigt Hill
#
# Bulk Modulus (GPa) = 59.30955 72.01917 65.66436
# Shear Modulus (GPa) = -36.81572 12.32245 -12.24664
#
# Velocity S-wave (km/s) = -4.94783 2.86251 -2.85369
# Velocity P-wave (km/s) = 2.60714 7.66911 5.72767
#
# Compressibility (1/GPa) = 0.01686069
#
# Stress axis : x y z
#
# Youngs Moduli (GPa) = 39.31913 66.09700 83.34564
#
# Poissons Ratio (x) = 0.55763 0.32827
# Poissons Ratio (y) = 0.33172 0.45629
# Poissons Ratio (z) = 0.15487 0.36186
#
# Static dielectric constant tensor:
#      x y z
#    x 1.502240 0.000000 0.000000 
#    y 0.000000 1.495580 0.000000 
#    z 0.000000 0.000000 1.484700 
# 
# From -- ./inp_files/8952.got.cif
#   From: 2010.05.17/outbox.cif.g08.bks.cpg/sg16_5_cif.got.tgz:8952.got - 2010.06.03 22:28:35.
