data_PCOD9310839
_publ_section_title
;
Structure prediction by ZEFSAII (Michael W. Deem and Ramdas Pophale) SiO2 
 PCOD9310839
Probable space group: P 2 2 21
;
_chemical_formula_sum "Si O2"
_cell_formula_units_Z 20
_cell_length_a 7.533501
_cell_length_b 11.215169
_cell_length_c 10.543925
_cell_angle_alpha 90.000000
_cell_angle_beta 90.000000
_cell_angle_gamma 90.000000
_cell_volume 890.850813
_symmetry_space_group_name_H-M "P 2 2 21"
_symmetry_group_IT_number 17
_symmetry_cell_setting 'orthorhombic'
loop_
_space_group_symop_operation_xyz
x,y,z
-x,-y,1/2+z
x,-y,-z
-x,y,1/2-z
loop_
_atom_site_type_symbol
_atom_site_label
_atom_site_fract_x
_atom_site_fract_y
_atom_site_fract_z
Si Si1 0.785840 0.172661 0.258807
Si Si2 0.701517 0.082223 0.784926
Si Si3 0.884177 0.128146 0.518008
Si Si4 0.888524 0.691739 0.119070
Si Si5 0.500000 0.374630 0.250000
Si Si6 0.378848 0.500000 0.500000
O O1 0.744367 0.134601 0.404430
O O2 0.672068 0.289244 0.234097
O O3 0.000000 0.183495 0.250000
O O4 0.729760 0.055823 0.180066
O O5 0.500000 0.100884 0.750000
O O6 0.811539 0.111309 0.657927
O O7 0.772729 0.186709 0.872527
O O8 0.971159 0.259158 0.516883
O O9 0.980561 0.000000 0.500000
O O10 0.756181 0.591934 0.069518
O O11 0.000000 0.664480 0.250000
O O12 0.496399 0.448322 0.382598
#
# Coordination Sequence:
#
# PCOD9310839 Si02
#       6
#     4   4   4   4   2   2
#     4  11  22  44  70 103 142 179 231 303 372 438
#     4  10  20  37  69 107 143 177 226 297 376 443
#     4   9  19  37  64 104 137 177 228 293 375 438
#     4  10  23  43  71 102 138 194 249 297 362 435
#     4  12  30  50  70 108 142 198 254 306 366 436
#     4  12  30  48  72 104 150 204 258 304 356 432
#
# _framework density 22.450448999999999
#
# number of rings (size 3 to 8) (size 9 to 14) (size 15 to 20)
#    0.000    1.600    1.000    4.200    4.200    4.000 
#    0.000    1.000    0.000    0.000    0.000    0.000 
#    0.000    0.000    0.000    0.000    0.000    0.000 
#
# Total GULP energy -111402.980858 kJ/mol
# GULP energy per Si atom -5570.149043 kJ/mol
# Density = 2.239935 g / cm^3
# Si number density = 22.450449 Si / 1000 Ang^3
#
#
#
# Elastic Constant Matrix: (Units=GPa)
#
#
# Indices 1 2 3 4 5 6 
#
# 1 66.1906 29.9647 -4.4659 0.0000 0.0000 0.0000
# 2 29.9647 111.9149 44.1229 0.0000 0.0000 0.0000
# 3 -4.4659 44.1229 77.7688 0.0000 0.0000 0.0000
# 4 0.0000 0.0000 0.0000 70.1891 0.0000 0.0000
# 5 0.0000 0.0000 0.0000 0.0000 14.2584 0.0000
# 6 0.0000 0.0000 0.0000 0.0000 0.0000 43.4232
#
#
#
# Elastic Compliance Matrix: (Units=1/GPa)
#
#
# Indices 1 2 3 4 5 6 
#
# 1 0.018595 -0.006956 0.005014 0.000000 0.000000 0.000000
# 2 -0.006956 0.014112 -0.008406 0.000000 0.000000 0.000000
# 3 0.005014 -0.008406 0.017916 0.000000 0.000000 0.000000
# 4 0.000000 0.000000 0.000000 0.014247 0.000000 0.000000
# 5 0.000000 0.000000 0.000000 0.000000 0.070134 0.000000
# 6 0.000000 0.000000 0.000000 0.000000 0.000000 0.023029
#
#
# Mechanical properties :
#
#
# Convention : Reuss Voigt Hill
#
# Bulk Modulus (GPa) = 33.41367 43.90195 38.65781
# Shear Modulus (GPa) = 26.49660 37.99098 32.24379
#
# Velocity S-wave (km/s) = 3.43917 4.11812 3.79386
# Velocity P-wave (km/s) = 5.53950 6.49687 6.03720
#
# Compressibility (1/GPa) = 0.02992787
#
# Stress axis : x y z
#
# Youngs Moduli (GPa) = 53.77789 70.86313 55.81697
#
# Poissons Ratio (x) = 0.49289 -0.27987
# Poissons Ratio (y) = 0.37406 0.46919
# Poissons Ratio (z) = -0.26965 0.59566
#
# Static dielectric constant tensor:
#      x y z
#    x 1.898500 0.000000 0.000000 
#    y 0.000000 1.886080 0.000000 
#    z 0.000000 0.000000 1.872790 
# 
# From -- ./inp_files/6417.got.cif
#   From: 2010.05.17/outbox.cif.g08.bks.cpg/sg17_4_cif.got.tgz:6417.got - 2010.06.03 22:34:06.
