data_PCOD9310445
_publ_section_title
;
Structure prediction by ZEFSAII (Michael W. Deem and Ramdas Pophale) SiO2 
 PCOD9310445
Probable space group: P 2 2 21
;
_chemical_formula_sum "Si O2"
_cell_formula_units_Z 22
_cell_length_a 8.143934
_cell_length_b 9.399836
_cell_length_c 13.093298
_cell_angle_alpha 90.000000
_cell_angle_beta 90.000000
_cell_angle_gamma 90.000000
_cell_volume 1002.313487
_symmetry_space_group_name_H-M "P 2 2 21"
_symmetry_group_IT_number 17
_symmetry_cell_setting 'orthorhombic'
loop_
_space_group_symop_operation_xyz
x,y,z
-x,-y,1/2+z
x,-y,-z
-x,y,1/2-z
loop_
_atom_site_type_symbol
_atom_site_label
_atom_site_fract_x
_atom_site_fract_y
_atom_site_fract_z
Si Si1 0.966394 0.660198 0.455905
Si Si2 0.612815 0.500000 0.000000
Si Si3 0.617777 0.730901 0.465991
Si Si4 0.000000 0.561784 0.250000
Si Si5 0.683901 0.638799 0.701821
Si Si6 0.791976 0.232170 0.106348
Si Si7 0.578993 0.000000 0.000000
O O1 0.947237 0.500000 0.500000
O O2 0.795169 0.723083 0.419743
O O3 0.064777 0.645016 0.350109
O O4 0.037445 0.757642 0.546365
O O5 0.495992 0.599792 0.068790
O O6 0.715000 0.618107 0.938494
O O7 0.649024 0.694925 0.587188
O O8 0.533382 0.880620 0.448233
O O9 0.163098 0.474067 0.211488
O O10 0.500000 0.609684 0.750000
O O11 0.766951 0.758729 0.773768
O O12 0.692929 0.096055 0.070510
#
# Coordination Sequence:
#
# PCOD9310445 Si02
#       7
#     4   2   4   2   4   4   2
#     4  12  22  41  66  95 137 161 213 289 338 373
#     4  10  16  32  56  88 124 156 212 264 318 370
#     4  11  22  39  63  94 130 174 216 276 328 394
#     4  12  24  40  64 114 130 166 222 290 336 398
#     4  12  20  36  66  96 128 174 232 260 321 411
#     4  11  22  39  63  94 130 174 216 276 328 394
#     4  10  24  40  60  92 136 176 226 258 330 398
#
# _framework density 21.949221999999999
#
# number of rings (size 3 to 8) (size 9 to 14) (size 15 to 20)
#    0.000    0.727    9.091    0.000    0.000    0.727 
#    0.000    3.636    0.000    8.727    0.000    0.000 
#    0.000    0.000    0.000    0.000    0.000    0.000 
#
# Total GULP energy -122546.537106 kJ/mol
# GULP energy per Si atom -5570.297141 kJ/mol
# Density = 2.189926 g / cm^3
# Si number density = 21.949222 Si / 1000 Ang^3
#
#
#
# Elastic Constant Matrix: (Units=GPa)
#
#
# Indices 1 2 3 4 5 6 
#
# 1 83.0101 20.5835 -20.4313 0.0000 0.0000 0.0000
# 2 20.5835 117.1551 7.6044 0.0000 0.0000 0.0000
# 3 -20.4313 7.6044 89.2703 0.0000 0.0000 0.0000
# 4 0.0000 0.0000 0.0000 11.3570 0.0000 0.0000
# 5 0.0000 0.0000 0.0000 0.0000 23.8377 0.0000
# 6 0.0000 0.0000 0.0000 0.0000 0.0000 18.8650
#
#
#
# Elastic Compliance Matrix: (Units=1/GPa)
#
#
# Indices 1 2 3 4 5 6 
#
# 1 0.013503 -0.002587 0.003311 0.000000 0.000000 0.000000
# 2 -0.002587 0.009079 -0.001366 0.000000 0.000000 0.000000
# 3 0.003311 -0.001366 0.012076 0.000000 0.000000 0.000000
# 4 0.000000 0.000000 0.000000 0.088051 0.000000 0.000000
# 5 0.000000 0.000000 0.000000 0.000000 0.041950 0.000000
# 6 0.000000 0.000000 0.000000 0.000000 0.000000 0.053008
#
#
# Mechanical properties :
#
#
# Convention : Reuss Voigt Hill
#
# Bulk Modulus (GPa) = 29.96333 33.88318 31.92326
# Shear Modulus (GPa) = 21.73187 29.59054 25.66120
#
# Velocity S-wave (km/s) = 3.14999 3.67568 3.42294
# Velocity P-wave (km/s) = 5.18756 5.78660 5.49525
#
# Compressibility (1/GPa) = 0.03337412
#
# Stress axis : x y z
#
# Youngs Moduli (GPa) = 74.05650 110.14534 82.80877
#
# Poissons Ratio (x) = 0.28498 -0.27417
# Poissons Ratio (y) = 0.19161 0.11308
# Poissons Ratio (z) = -0.24519 0.15041
#
# Static dielectric constant tensor:
#      x y z
#    x 1.965060 0.000000 0.000000 
#    y 0.000000 1.774980 0.000000 
#    z 0.000000 0.000000 1.936350 
# 
# From -- ./inp_files/8062.got.cif
#   From: 2010.05.17/outbox.cif.g08.bks.cpg/sg17_5_cif.got.tgz:8062.got - 2010.06.03 22:34:06.
