data_PCOD9310716
_publ_section_title
;
Structure prediction by ZEFSAII (Michael W. Deem and Ramdas Pophale) SiO2 
 PCOD9310716
Probable space group: P 2 2 21
;
_chemical_formula_sum "Si O2"
_cell_formula_units_Z 32
_cell_length_a 8.698122
_cell_length_b 10.958924
_cell_length_c 14.517887
_cell_angle_alpha 90.000000
_cell_angle_beta 90.000000
_cell_angle_gamma 90.000000
_cell_volume 1383.874866
_symmetry_space_group_name_H-M "P 2 2 21"
_symmetry_group_IT_number 17
_symmetry_cell_setting 'orthorhombic'
loop_
_space_group_symop_operation_xyz
x,y,z
-x,-y,1/2+z
x,-y,-z
-x,y,1/2-z
loop_
_atom_site_type_symbol
_atom_site_label
_atom_site_fract_x
_atom_site_fract_y
_atom_site_fract_z
Si Si1 0.428086 0.242037 0.876505
Si Si2 0.083977 0.909898 0.348032
Si Si3 0.377901 0.710165 0.681106
Si Si4 0.872887 0.447529 0.102806
Si Si5 0.416717 0.020259 0.348619
Si Si6 0.273728 0.674463 0.317006
Si Si7 0.893168 0.247247 0.323640
Si Si8 0.189796 0.126728 0.990707
O O1 0.509304 0.107603 0.884489
O O2 0.570492 0.334536 0.877678
O O3 0.337586 0.273161 0.780755
O O4 0.294567 0.234375 0.950950
O O5 0.232110 0.999087 0.354797
O O6 0.163393 0.778013 0.355296
O O7 0.000000 0.917293 0.250000
O O8 0.951814 0.907069 0.424614
O O9 0.500000 0.645265 0.750000
O O10 0.279663 0.636834 0.606484
O O11 0.256709 0.738308 0.762643
O O12 0.437612 0.834524 0.631065
O O13 0.824534 0.552361 0.175568
O O14 0.015990 0.367867 0.140920
O O15 0.899547 0.500000 0.000000
O O16 0.500000 0.018344 0.250000
O O17 0.866539 0.166466 0.411013
O O18 0.000000 0.181843 0.250000
O O19 0.280959 0.000000 0.000000
#
# Coordination Sequence:
#
# PCOD9310716 Si02
#       8
#     4   4   4   4   4   4   4   4
#     4  10  21  44  68 112 143 179 243 301 372 442
#     4  11  21  36  67 104 142 186 234 294 369 430
#     4  10  25  43  77 100 140 196 246 287 388 442
#     4  11  25  48  71  99 142 192 250 312 360 435
#     4  10  19  40  72 102 146 195 228 298 370 452
#     4  10  21  42  74  95 143 185 236 299 367 426
#     4  10  26  50  67  97 147 195 246 303 370 438
#     4  12  27  39  69 112 148 191 243 300 371 458
#
# _framework density 23.123477999999999
#
# number of rings (size 3 to 8) (size 9 to 14) (size 15 to 20)
#    0.000    1.500    3.750    0.750   10.500    2.500 
#    6.750    3.125    0.000    0.000    0.000    0.000 
#    0.000    0.000    0.000    0.000    0.000    0.000 
#
# Total GULP energy -178319.942495 kJ/mol
# GULP energy per Si atom -5572.498203 kJ/mol
# Density = 2.307085 g / cm^3
# Si number density = 23.123478 Si / 1000 Ang^3
#
#
#
# Elastic Constant Matrix: (Units=GPa)
#
#
# Indices 1 2 3 4 5 6 
#
# 1 60.0089 4.2232 28.9852 0.0000 0.0000 0.0000
# 2 4.2232 90.6134 12.2677 0.0000 0.0000 0.0000
# 3 28.9852 12.2677 115.4580 0.0000 0.0000 0.0000
# 4 0.0000 0.0000 0.0000 19.9689 0.0000 0.0000
# 5 0.0000 0.0000 0.0000 0.0000 13.7485 0.0000
# 6 0.0000 0.0000 0.0000 0.0000 0.0000 207.8095
#
#
#
# Elastic Compliance Matrix: (Units=1/GPa)
#
#
# Indices 1 2 3 4 5 6 
#
# 1 0.018969 -0.000243 -0.004736 0.000000 0.000000 0.000000
# 2 -0.000243 0.011200 -0.001129 0.000000 0.000000 0.000000
# 3 -0.004736 -0.001129 0.009970 0.000000 0.000000 0.000000
# 4 0.000000 0.000000 0.000000 0.050078 0.000000 0.000000
# 5 0.000000 0.000000 0.000000 0.000000 0.072735 0.000000
# 6 0.000000 0.000000 0.000000 0.000000 0.000000 0.004812
#
#
# Mechanical properties :
#
#
# Convention : Reuss Voigt Hill
#
# Bulk Modulus (GPa) = 35.81306 39.67030 37.74168
# Shear Modulus (GPa) = 26.41475 63.01233 44.71354
#
# Velocity S-wave (km/s) = 3.38351 5.22585 4.40214
# Velocity P-wave (km/s) = 5.54847 7.32160 6.49582
#
# Compressibility (1/GPa) = 0.02792278
#
# Stress axis : x y z
#
# Youngs Moduli (GPa) = 52.71767 89.28516 100.29949
#
# Poissons Ratio (x) = 0.02168 0.47505
# Poissons Ratio (y) = 0.01280 0.11324
# Poissons Ratio (z) = 0.24969 0.10081
#
# Static dielectric constant tensor:
#      x y z
#    x 2.097890 0.000000 0.000000 
#    y 0.000000 1.911370 0.000000 
#    z 0.000000 0.000000 1.744340 
# 
# From -- ./inp_files/8272.got.cif
#   From: 2010.05.17/outbox.cif.g08.bks.cpg/sg17_5_cif.got.tgz:8272.got - 2010.06.03 22:34:06.
