data_PCOD9310346
_publ_section_title
;
Structure prediction by ZEFSAII (Michael W. Deem and Ramdas Pophale) SiO2 
 PCOD9310346
Probable space group: P 2 2 2
;
_chemical_formula_sum "Si O2"
_cell_formula_units_Z 21
_cell_length_a 13.172989
_cell_length_b 5.247733
_cell_length_c 11.740008
_cell_angle_alpha 90.000000
_cell_angle_beta 90.000000
_cell_angle_gamma 90.000000
_cell_volume 811.567136
_symmetry_space_group_name_H-M "P 2 2 2"
_symmetry_group_IT_number 16
_symmetry_cell_setting 'orthorhombic'
loop_
_space_group_symop_operation_xyz
x,y,z
-x,-y,z
x,-y,-z
-x,y,-z
loop_
_atom_site_type_symbol
_atom_site_label
_atom_site_fract_x
_atom_site_fract_y
_atom_site_fract_z
Si Si1 0.450037 0.252594 0.625895
Si Si2 0.329835 0.182805 0.103566
Si Si3 0.500000 0.500000 0.000000
Si Si4 0.239762 0.903445 0.308018
Si Si5 0.936974 0.751828 0.339164
Si Si6 0.139844 0.486045 0.866944
O O1 0.500000 0.500000 0.683124
O O2 0.500000 0.254247 0.500000
O O3 0.326146 0.247678 0.620350
O O4 0.500000 0.000000 0.677323
O O5 0.434325 0.308922 0.074232
O O6 0.253547 0.414825 0.120044
O O7 0.313362 0.020812 0.214292
O O8 0.296414 0.000000 0.000000
O O9 0.159155 0.737991 0.229657
O O10 0.177104 0.137419 0.367337
O O11 0.924694 0.693550 0.203904
O O12 0.000000 0.500000 0.381088
O O13 0.000000 0.000000 0.368415
O O14 0.105782 0.500000 0.000000
#
# Coordination Sequence:
#
# PCOD9310346 Si02
#       6
#     4   4   1   4   4   4
#     4  10  25  48  74 108 146 181 239 302 378 473
#     4  11  22  37  53  84 129 192 241 300 346 426
#     4  12  22  36  52  78 136 196 250 300 350 412
#     4  11  24  43  69  95 143 195 247 313 376 436
#     4  11  24  43  63  99 137 188 256 306 369 428
#     4  11  22  41  58  87 139 184 249 299 364 416
#
# _framework density 25.875864
#
# number of rings (size 3 to 8) (size 9 to 14) (size 15 to 20)
#    0.000    1.143    4.762    0.286    5.333    3.429 
#    5.143    0.000    0.000    0.000    0.000    2.667 
#   22.857    0.000    0.000    0.000    0.000    0.000 
#
# Total GULP energy -116919.529754 kJ/mol
# GULP energy per Si atom -5567.596655 kJ/mol
# Density = 2.581697 g / cm^3
# Si number density = 25.875864 Si / 1000 Ang^3
#
#
#
# Elastic Constant Matrix: (Units=GPa)
#
#
# Indices 1 2 3 4 5 6 
#
# 1 166.9568 56.6833 47.9904 0.0000 0.0000 0.0000
# 2 56.6833 178.3930 16.4030 0.0000 0.0000 0.0000
# 3 47.9904 16.4030 97.0320 0.0000 0.0000 0.0000
# 4 0.0000 0.0000 0.0000 -99.7759 0.0000 0.0000
# 5 0.0000 0.0000 0.0000 0.0000 -5.0779 0.0000
# 6 0.0000 0.0000 0.0000 0.0000 0.0000 49.5480
#
#
#
# Elastic Compliance Matrix: (Units=1/GPa)
#
#
# Indices 1 2 3 4 5 6 
#
# 1 0.007705 -0.002131 -0.003450 0.000000 0.000000 0.000000
# 2 -0.002131 0.006283 -0.000008 0.000000 0.000000 0.000000
# 3 -0.003450 -0.000008 0.012014 0.000000 0.000000 0.000000
# 4 0.000000 0.000000 0.000000 -0.010022 0.000000 0.000000
# 5 0.000000 0.000000 0.000000 0.000000 -0.196932 0.000000
# 6 0.000000 0.000000 0.000000 0.000000 0.000000 0.020182
#
#
# Mechanical properties :
#
#
# Convention : Reuss Voigt Hill
#
# Bulk Modulus (GPa) = 67.46364 76.05946 71.76155
# Shear Modulus (GPa) = -34.56620 10.35918 -12.10351
#
# Velocity S-wave (km/s) = -3.65889 2.00302 -2.16511
# Velocity P-wave (km/s) = 2.87727 5.89977 4.64144
#
# Compressibility (1/GPa) = 0.01482280
#
# Stress axis : x y z
#
# Youngs Moduli (GPa) = 129.78847 159.14833 83.23743
#
# Poissons Ratio (x) = 0.33913 0.28721
# Poissons Ratio (y) = 0.27657 0.00069
# Poissons Ratio (z) = 0.44783 0.00132
#
# Static dielectric constant tensor:
#      x y z
#    x 2.385100 0.000000 0.000000 
#    y 0.000000 2.293880 0.000000 
#    z 0.000000 0.000000 1.309420 
# 
# From -- ./inp_files/8106.got.cif
#   From: 2010.05.17/outbox.cif.g08.bks.cpg/sg16_5_cif.got.tgz:8106.got - 2010.06.03 22:28:35.
