data_PCOD9310301
_publ_section_title
;
Structure prediction by ZEFSAII (Michael W. Deem and Ramdas Pophale) SiO2 
 PCOD9310301
Probable space group: P 2 2 2
;
_chemical_formula_sum "Si O2"
_cell_formula_units_Z 16
_cell_length_a 9.216334
_cell_length_b 5.531328
_cell_length_c 15.981216
_cell_angle_alpha 90.000000
_cell_angle_beta 90.000000
_cell_angle_gamma 90.000000
_cell_volume 814.699480
_symmetry_space_group_name_H-M "P 2 2 2"
_symmetry_group_IT_number 16
_symmetry_cell_setting 'orthorhombic'
loop_
_space_group_symop_operation_xyz
x,y,z
-x,-y,z
x,-y,-z
-x,y,-z
loop_
_atom_site_type_symbol
_atom_site_label
_atom_site_fract_x
_atom_site_fract_y
_atom_site_fract_z
Si Si1 0.583495 0.757724 0.838178
Si Si2 0.500000 0.500000 0.500000
Si Si3 0.259750 0.182258 0.423704
Si Si4 0.848188 0.124603 0.273023
Si Si5 0.000000 0.500000 0.392775
Si Si6 0.500000 0.000000 0.000000
O O1 0.500000 0.500000 0.825891
O O2 0.741444 0.769254 0.796587
O O3 0.500000 0.000000 0.804194
O O4 0.588465 0.826463 0.936984
O O5 0.397073 0.351347 0.437632
O O6 0.110298 0.323131 0.437946
O O7 0.273444 0.000000 0.500000
O O8 0.239778 0.059194 0.333593
O O9 0.898045 0.337472 0.334252
O O10 0.000000 0.000000 0.243908
#
# Coordination Sequence:
#
# PCOD9310301 Si02
#       6
#     4   1   4   4   2   1
#     4  10  23  42  72 103 136 175 223 273 340 408
#     4  12  26  42  60  82 128 168 234 288 326 398
#     4  11  25  43  58  89 123 171 224 278 335 392
#     4  10  24  43  64  96 131 175 226 278 339 405
#     4  10  24  41  66  82 127 170 220 272 341 390
#     4   8  22  44  72 100 140 172 220 264 342 404
#
# _framework density 19.639142
#
# number of rings (size 3 to 8) (size 9 to 14) (size 15 to 20)
#    0.750    1.000    0.000    2.250    7.000   16.000 
#    2.250    0.625    0.000    0.000    0.000    0.000 
#    0.000    0.000    0.000    0.000    0.000    0.000 
#
# Total GULP energy -89206.699400 kJ/mol
# GULP energy per Si atom -5575.418713 kJ/mol
# Density = 1.959444 g / cm^3
# Si number density = 19.639142 Si / 1000 Ang^3
#
#
#
# Elastic Constant Matrix: (Units=GPa)
#
#
# Indices 1 2 3 4 5 6 
#
# 1 155.2575 71.5910 78.1457 0.0000 0.0000 0.0000
# 2 71.5910 119.8779 37.6872 0.0000 0.0000 0.0000
# 3 78.1457 37.6872 89.3026 0.0000 0.0000 0.0000
# 4 0.0000 0.0000 0.0000 65.0730 0.0000 0.0000
# 5 0.0000 0.0000 0.0000 0.0000 233.3914 0.0000
# 6 0.0000 0.0000 0.0000 0.0000 0.0000 38.7677
#
#
#
# Elastic Compliance Matrix: (Units=1/GPa)
#
#
# Indices 1 2 3 4 5 6 
#
# 1 0.013786 -0.005120 -0.009903 0.000000 0.000000 0.000000
# 2 -0.005120 0.011519 -0.000381 0.000000 0.000000 0.000000
# 3 -0.009903 -0.000381 0.020025 0.000000 0.000000 0.000000
# 4 0.000000 0.000000 0.000000 0.015367 0.000000 0.000000
# 5 0.000000 0.000000 0.000000 0.000000 0.004285 0.000000
# 6 0.000000 0.000000 0.000000 0.000000 0.000000 0.025795
#
#
# Mechanical properties :
#
#
# Convention : Reuss Voigt Hill
#
# Bulk Modulus (GPa) = 68.86191 82.14286 75.50239
# Shear Modulus (GPa) = 39.54879 79.24735 59.39807
#
# Velocity S-wave (km/s) = 4.49238 6.35919 5.50549
# Velocity P-wave (km/s) = 7.87708 9.78959 8.88494
#
# Compressibility (1/GPa) = 0.01452182
#
# Stress axis : x y z
#
# Youngs Moduli (GPa) = 72.53554 86.81173 49.93809
#
# Poissons Ratio (x) = 0.44446 0.49455
# Poissons Ratio (y) = 0.37137 0.01903
# Poissons Ratio (z) = 0.71834 0.03309
#
# Static dielectric constant tensor:
#      x y z
#    x 1.566150 0.000000 0.000000 
#    y 0.000000 1.742820 0.000000 
#    z 0.000000 0.000000 1.711150 
# 
# From -- ./inp_files/8754.got.cif
#   From: 2010.05.17/outbox.cif.g08.bks.cpg/sg16_5_cif.got.tgz:8754.got - 2010.06.03 22:28:35.
