data_PCOD9310174
_publ_section_title
;
Structure prediction by ZEFSAII (Michael W. Deem and Ramdas Pophale) SiO2 
 PCOD9310174
Probable space group: P 2 2 2
;
_chemical_formula_sum "Si O2"
_cell_formula_units_Z 20
_cell_length_a 11.626772
_cell_length_b 14.921443
_cell_length_c 6.342736
_cell_angle_alpha 90.000000
_cell_angle_beta 90.000000
_cell_angle_gamma 90.000000
_cell_volume 1100.389951
_symmetry_space_group_name_H-M "P 2 2 2"
_symmetry_group_IT_number 16
_symmetry_cell_setting 'orthorhombic'
loop_
_space_group_symop_operation_xyz
x,y,z
-x,-y,z
x,-y,-z
-x,y,-z
loop_
_atom_site_type_symbol
_atom_site_label
_atom_site_fract_x
_atom_site_fract_y
_atom_site_fract_z
Si Si1 0.500000 0.500000 0.000000
Si Si2 0.000000 0.350170 0.500000
Si Si3 0.881271 0.909755 0.120903
Si Si4 0.000000 0.000000 0.500000
Si Si5 0.875803 0.588371 0.890440
Si Si6 0.198038 0.723458 0.790864
Si Si7 0.382051 0.408317 0.380701
O O1 0.422829 0.559884 0.848148
O O2 0.911025 0.406926 0.353979
O O3 0.920715 0.292687 0.658832
O O4 0.921822 0.940396 0.350078
O O5 0.795622 0.827519 0.151065
O O6 0.000000 0.880949 0.000000
O O7 0.840976 0.000000 0.000000
O O8 0.823643 0.500000 0.000000
O O9 0.808262 0.671932 0.984654
O O10 0.000000 0.593335 0.000000
O O11 0.293641 0.672493 0.651463
O O12 0.339166 0.500000 0.500000
O O13 0.500000 0.382134 0.500000
#
# Coordination Sequence:
#
# PCOD9310174 Si02
#       7
#     1   2   4   1   4   4   4
#     4   8  18  40  56  70 104 144 194 236 272 320
#     4  10  21  33  47  77 118 144 189 223 277 351
#     4   9  18  33  50  77 114 143 187 229 272 342
#     4   8  16  32  54  70 108 156 176 220 274 324
#     4   9  20  31  43  70 110 151 181 214 269 331
#     4  11  21  32  56  80 111 149 186 229 288 340
#     4   9  21  38  55  78 105 147 196 240 277 334
#
# _framework density 18.175373
#
# number of rings (size 3 to 8) (size 9 to 14) (size 15 to 20)
#    0.000    3.000    0.000    2.400    4.200    8.800 
#    0.000    0.000    0.000    0.000    0.000    4.200 
#    0.000    1.600    0.000    0.000    0.000    0.000 
#
# Total GULP energy -111347.610214 kJ/mol
# GULP energy per Si atom -5567.380511 kJ/mol
# Density = 1.813401 g / cm^3
# Si number density = 18.175373 Si / 1000 Ang^3
#
#
#
# Elastic Constant Matrix: (Units=GPa)
#
#
# Indices 1 2 3 4 5 6 
#
# 1 73.8925 46.3765 17.4930 0.0000 0.0000 0.0000
# 2 46.3765 151.4793 46.4449 0.0000 0.0000 0.0000
# 3 17.4930 46.4449 112.0079 0.0000 0.0000 0.0000
# 4 0.0000 0.0000 0.0000 8.5237 0.0000 0.0000
# 5 0.0000 0.0000 0.0000 0.0000 7.1968 0.0000
# 6 0.0000 0.0000 0.0000 0.0000 0.0000 11.7188
#
#
#
# Elastic Compliance Matrix: (Units=1/GPa)
#
#
# Indices 1 2 3 4 5 6 
#
# 1 0.016783 -0.004966 -0.000562 0.000000 0.000000 0.000000
# 2 -0.004966 0.009032 -0.002970 0.000000 0.000000 0.000000
# 3 -0.000562 -0.002970 0.010247 0.000000 0.000000 0.000000
# 4 0.000000 0.000000 0.000000 0.117320 0.000000 0.000000
# 5 0.000000 0.000000 0.000000 0.000000 0.138952 0.000000
# 6 0.000000 0.000000 0.000000 0.000000 0.000000 0.085333
#
#
# Mechanical properties :
#
#
# Convention : Reuss Voigt Hill
#
# Bulk Modulus (GPa) = 52.44606 62.00092 57.22349
# Shear Modulus (GPa) = 12.46826 20.62554 16.54690
#
# Velocity S-wave (km/s) = 2.62200 3.37234 3.02056
# Velocity P-wave (km/s) = 6.17128 7.02497 6.61192
#
# Compressibility (1/GPa) = 0.01906721
#
# Stress axis : x y z
#
# Youngs Moduli (GPa) = 59.58436 110.71139 97.58795
#
# Poissons Ratio (x) = 0.54978 0.05484
# Poissons Ratio (y) = 0.29589 0.28982
# Poissons Ratio (z) = 0.03348 0.32879
#
# Static dielectric constant tensor:
#      x y z
#    x 1.658240 0.000000 0.000000 
#    y 0.000000 1.701020 0.000000 
#    z 0.000000 0.000000 1.681960 
# 
# From -- ./inp_files/1408.got.cif
#   From: 2010.05.17/outbox.cif.g08.bks.cpg/sg16_1_cif.got.tgz:1408.got - 2010.06.03 22:28:35.
