data_PCOD9310108
_publ_section_title
;
Structure prediction by ZEFSAII (Michael W. Deem and Ramdas Pophale) SiO2 
 PCOD9310108
Probable space group: P 2 2 2
;
_chemical_formula_sum "Si O2"
_cell_formula_units_Z 30
_cell_length_a 15.069126
_cell_length_b 9.621607
_cell_length_c 10.671547
_cell_angle_alpha 90.000000
_cell_angle_beta 90.000000
_cell_angle_gamma 90.000000
_cell_volume 1547.259150
_symmetry_space_group_name_H-M "P 2 2 2"
_symmetry_group_IT_number 16
_symmetry_cell_setting 'orthorhombic'
loop_
_space_group_symop_operation_xyz
x,y,z
-x,-y,z
x,-y,-z
-x,y,-z
loop_
_atom_site_type_symbol
_atom_site_label
_atom_site_fract_x
_atom_site_fract_y
_atom_site_fract_z
Si Si1 0.329955 0.661223 0.851028
Si Si2 0.139909 0.312944 0.790623
Si Si3 0.664205 0.343257 0.150000
Si Si4 0.101928 0.950829 0.361306
Si Si5 0.501950 0.839531 0.153292
Si Si6 0.100582 0.444796 0.368237
Si Si7 0.000000 0.244072 0.000000
Si Si8 0.144024 0.808787 0.791119
O O1 0.338377 0.502833 0.801856
O O2 0.409137 0.760069 0.804612
O O3 0.234767 0.734192 0.830672
O O4 0.343264 0.649311 0.000049
O O5 0.239654 0.275826 0.826959
O O6 0.145169 0.468646 0.741451
O O7 0.109131 0.209208 0.679584
O O8 0.068766 0.315141 0.903298
O O9 0.583637 0.248282 0.196203
O O10 0.158462 0.038197 0.261838
O O11 0.128235 0.000000 0.500000
O O12 0.000000 0.000000 0.345940
O O13 0.500000 0.000000 0.193312
O O14 0.500000 0.840274 0.000000
O O15 0.138489 0.500000 0.500000
O O16 0.106779 0.285771 0.325157
O O17 0.000000 0.500000 0.367288
O O18 0.070551 0.177291 0.098224
#
# Coordination Sequence:
#
# PCOD9310108 Si02
#       8
#     4   4   4   4   4   4   2   4
#     4  10  20  35  55  85 121 156 190 231 296 358
#     4  12  23  37  58  86 121 158 193 243 295 352
#     4  10  20  35  55  85 121 156 190 231 296 358
#     4  11  24  42  58  77 112 163 213 250 283 329
#     4   9  19  35  55  83 116 157 196 235 276 352
#     4  11  22  38  58  81 112 161 211 244 273 325
#     4  12  24  38  54  92 128 158 190 234 304 360
#     4  12  23  37  58  86 121 158 193 243 295 352
#
# _framework density 19.389123999999999
#
# number of rings (size 3 to 8) (size 9 to 14) (size 15 to 20)
#    0.000    1.200    5.333    1.200    1.867    5.867 
#    0.000    0.000    0.000    0.000    0.000    5.600 
#    0.000    0.000    0.000    0.000    0.000    0.000 
#
# Total GULP energy -167164.043430 kJ/mol
# GULP energy per Si atom -5572.134781 kJ/mol
# Density = 1.934499 g / cm^3
# Si number density = 19.389124 Si / 1000 Ang^3
#
#
#
# Elastic Constant Matrix: (Units=GPa)
#
#
# Indices 1 2 3 4 5 6 
#
# 1 136.8514 50.0116 12.7941 0.0000 0.0000 0.0000
# 2 50.0116 105.9679 11.3703 0.0000 0.0000 0.0000
# 3 12.7941 11.3703 58.6843 0.0000 0.0000 0.0000
# 4 0.0000 0.0000 0.0000 13.5414 0.0000 0.0000
# 5 0.0000 0.0000 0.0000 0.0000 6.7321 0.0000
# 6 0.0000 0.0000 0.0000 0.0000 0.0000 16.0934
#
#
#
# Elastic Compliance Matrix: (Units=1/GPa)
#
#
# Indices 1 2 3 4 5 6 
#
# 1 0.008906 -0.004080 -0.001151 0.000000 0.000000 0.000000
# 2 -0.004080 0.011506 -0.001340 0.000000 0.000000 0.000000
# 3 -0.001151 -0.001340 0.017551 0.000000 0.000000 0.000000
# 4 0.000000 0.000000 0.000000 0.073848 0.000000 0.000000
# 5 0.000000 0.000000 0.000000 0.000000 0.148543 0.000000
# 6 0.000000 0.000000 0.000000 0.000000 0.000000 0.062137
#
#
# Mechanical properties :
#
#
# Convention : Reuss Voigt Hill
#
# Bulk Modulus (GPa) = 40.28793 49.98395 45.13594
# Shear Modulus (GPa) = 14.53889 22.42855 18.48372
#
# Velocity S-wave (km/s) = 2.74131 3.40481 3.09091
# Velocity P-wave (km/s) = 5.55368 6.42591 6.00565
#
# Compressibility (1/GPa) = 0.02482133
#
# Stress axis : x y z
#
# Youngs Moduli (GPa) = 112.28836 86.91181 56.97708
#
# Poissons Ratio (x) = 0.35456 0.06559
# Poissons Ratio (y) = 0.45808 0.07635
# Poissons Ratio (z) = 0.12926 0.11646
#
# Static dielectric constant tensor:
#      x y z
#    x 1.721210 0.000000 0.000000 
#    y 0.000000 1.739050 0.000000 
#    z 0.000000 0.000000 1.695700 
# 
# From -- ./inp_files/4807.got.cif
#   From: 2010.05.17/outbox.cif.g08.bks.cpg/sg16_3_cif.got.tgz:4807.got - 2010.06.03 22:28:35.
