data_PCOD9310826
_publ_section_title
;
Structure prediction by ZEFSAII (Michael W. Deem and Ramdas Pophale) SiO2 
 PCOD9310826
Probable space group: P 2 2 21
;
_chemical_formula_sum "Si O2"
_cell_formula_units_Z 18
_cell_length_a 13.670579
_cell_length_b 11.721054
_cell_length_c 5.531331
_cell_angle_alpha 90.000000
_cell_angle_beta 90.000000
_cell_angle_gamma 90.000000
_cell_volume 886.305049
_symmetry_space_group_name_H-M "P 2 2 21"
_symmetry_group_IT_number 17
_symmetry_cell_setting 'orthorhombic'
loop_
_space_group_symop_operation_xyz
x,y,z
-x,-y,1/2+z
x,-y,-z
-x,y,1/2-z
loop_
_atom_site_type_symbol
_atom_site_label
_atom_site_fract_x
_atom_site_fract_y
_atom_site_fract_z
Si Si1 0.766550 0.297193 0.673485
Si Si2 0.409656 0.381850 0.115206
Si Si3 0.045710 0.364029 0.006634
Si Si4 0.268531 0.500000 0.500000
Si Si5 0.117671 0.931836 0.251965
O O1 0.655328 0.311371 0.578387
O O2 0.841393 0.331117 0.463834
O O3 0.787343 0.400754 0.859919
O O4 0.808500 0.176402 0.757223
O O5 0.500000 0.322012 0.250000
O O6 0.334974 0.430411 0.312767
O O7 0.449551 0.500000 0.000000
O O8 0.000000 0.315296 0.250000
O O9 0.035540 0.500000 0.000000
O O10 0.000000 0.325743 0.750000
O O11 0.000000 0.908003 0.250000
O O12 0.135433 0.000000 0.500000
O O13 0.136679 0.000000 0.000000
#
# Coordination Sequence:
#
# PCOD9310826 Si02
#       5
#     4   4   4   2   4
#     4  11  24  37  64  98 129 172 226 274 335 406
#     4  10  20  37  60  94 136 175 214 266 336 409
#     4  10  22  35  52  83 133 172 202 251 323 394
#     4  10  22  36  64  96 134 170 210 268 340 412
#     4  10  24  46  69  94 130 181 236 283 330 391
#
# _framework density 20.309035999999999
#
# number of rings (size 3 to 8) (size 9 to 14) (size 15 to 20)
#    0.000    1.778    1.111    2.667   10.889    2.667 
#    0.000    0.000    0.000    0.000    5.778    0.000 
#    0.000    0.000    0.000    0.000    0.000    0.000 
#
# Total GULP energy -100343.533556 kJ/mol
# GULP energy per Si atom -5574.640753 kJ/mol
# Density = 2.026281 g / cm^3
# Si number density = 20.309036 Si / 1000 Ang^3
#
#
#
# Elastic Constant Matrix: (Units=GPa)
#
#
# Indices 1 2 3 4 5 6 
#
# 1 101.9045 55.5978 44.4390 0.0000 0.0000 0.0000
# 2 55.5978 127.9938 64.2756 0.0000 0.0000 0.0000
# 3 44.4390 64.2756 105.8004 0.0000 0.0000 0.0000
# 4 0.0000 0.0000 0.0000 1.2393 0.0000 0.0000
# 5 0.0000 0.0000 0.0000 0.0000 39.3278 0.0000
# 6 0.0000 0.0000 0.0000 0.0000 0.0000 114.4249
#
#
#
# Elastic Compliance Matrix: (Units=1/GPa)
#
#
# Indices 1 2 3 4 5 6 
#
# 1 0.013506 -0.004343 -0.003034 0.000000 0.000000 0.000000
# 2 -0.004343 0.012639 -0.005855 0.000000 0.000000 0.000000
# 3 -0.003034 -0.005855 0.014283 0.000000 0.000000 0.000000
# 4 0.000000 0.000000 0.000000 0.806899 0.000000 0.000000
# 5 0.000000 0.000000 0.000000 0.000000 0.025427 0.000000
# 6 0.000000 0.000000 0.000000 0.000000 0.000000 0.008739
#
#
# Mechanical properties :
#
#
# Convention : Reuss Voigt Hill
#
# Bulk Modulus (GPa) = 71.60974 73.81373 72.71173
# Shear Modulus (GPa) = 5.47878 42.42414 23.95146
#
# Velocity S-wave (km/s) = 1.64425 4.57544 3.43789
# Velocity P-wave (km/s) = 6.24030 8.02104 7.18604
#
# Compressibility (1/GPa) = 0.01396458
#
# Stress axis : x y z
#
# Youngs Moduli (GPa) = 74.04247 79.11837 70.01316
#
# Poissons Ratio (x) = 0.34359 0.21245
# Poissons Ratio (y) = 0.32155 0.40989
# Poissons Ratio (z) = 0.22468 0.46320
#
# Static dielectric constant tensor:
#      x y z
#    x 1.772320 0.000000 0.000000 
#    y 0.000000 1.741130 0.000000 
#    z 0.000000 0.000000 1.840200 
# 
# From -- ./inp_files/1995.got.cif
#   From: 2010.05.17/outbox.cif.g08.bks.cpg/sg17_1_cif.got.tgz:1995.got - 2010.06.03 22:34:06.
