data_PCOD9310225
_publ_section_title
;
Structure prediction by ZEFSAII (Michael W. Deem and Ramdas Pophale) SiO2 
 PCOD9310225
Probable space group: P 2 2 2
;
_chemical_formula_sum "Si O2"
_cell_formula_units_Z 18
_cell_length_a 8.851663
_cell_length_b 11.839373
_cell_length_c 9.218212
_cell_angle_alpha 90.000000
_cell_angle_beta 90.000000
_cell_angle_gamma 90.000000
_cell_volume 966.051471
_symmetry_space_group_name_H-M "P 2 2 2"
_symmetry_group_IT_number 16
_symmetry_cell_setting 'orthorhombic'
loop_
_space_group_symop_operation_xyz
x,y,z
-x,-y,z
x,-y,-z
-x,y,-z
loop_
_atom_site_type_symbol
_atom_site_label
_atom_site_fract_x
_atom_site_fract_y
_atom_site_fract_z
Si Si1 0.172354 0.311021 0.332929
Si Si2 0.366385 0.790075 0.406489
Si Si3 0.074243 0.886450 0.276199
Si Si4 0.465543 0.366503 0.169148
Si Si5 0.000000 0.500000 0.500000
Si Si6 0.000000 0.000000 0.000000
O O1 0.274205 0.276107 0.470197
O O2 0.290885 0.336377 0.204942
O O3 0.043627 0.216628 0.300016
O O4 0.093665 0.422437 0.391284
O O5 0.500000 0.846396 0.500000
O O6 0.239064 0.867403 0.337734
O O7 0.435469 0.708576 0.281856
O O8 0.090700 0.918424 0.106808
O O9 0.000000 0.000000 0.338892
O O10 0.500000 0.500000 0.194854
O O11 0.500000 0.342787 0.000000
#
# Coordination Sequence:
#
# PCOD9310225 Si02
#       6
#     4   4   4   4   1   1
#     4  11  22  38  65  94 129 171 217 272 330 398
#     4  10  21  40  64  93 127 170 212 279 329 394
#     4  10  22  42  66  94 130 171 221 271 333 393
#     4  10  23  39  59  88 133 175 221 272 336 399
#     4  12  20  36  64 102 132 164 222 268 344 392
#     4   8  24  40  70  92 136 176 212 280 338 368
#
# _framework density 18.632546999999999
#
# number of rings (size 3 to 8) (size 9 to 14) (size 15 to 20)
#    0.667    1.111    2.222    1.333    3.111    4.889 
#    0.000    7.778    0.000    6.667    0.000    0.000 
#    0.000    0.000    0.000    0.000    0.000    0.000 
#
# Total GULP energy -100237.147482 kJ/mol
# GULP energy per Si atom -5568.730416 kJ/mol
# Density = 1.859014 g / cm^3
# Si number density = 18.632547 Si / 1000 Ang^3
#
#
#
# Elastic Constant Matrix: (Units=GPa)
#
#
# Indices 1 2 3 4 5 6 
#
# 1 162.4059 75.0391 74.3359 0.0000 0.0000 0.0000
# 2 75.0391 99.3186 48.5879 0.0000 0.0000 0.0000
# 3 74.3359 48.5879 145.6660 0.0000 0.0000 0.0000
# 4 0.0000 0.0000 0.0000 3.4524 0.0000 0.0000
# 5 0.0000 0.0000 0.0000 0.0000 18.7043 0.0000
# 6 0.0000 0.0000 0.0000 0.0000 0.0000 45.5905
#
#
#
# Elastic Compliance Matrix: (Units=1/GPa)
#
#
# Indices 1 2 3 4 5 6 
#
# 1 0.010627 -0.006425 -0.003280 0.000000 0.000000 0.000000
# 2 -0.006425 0.015916 -0.002030 0.000000 0.000000 0.000000
# 3 -0.003280 -0.002030 0.009216 0.000000 0.000000 0.000000
# 4 0.000000 0.000000 0.000000 0.289652 0.000000 0.000000
# 5 0.000000 0.000000 0.000000 0.000000 0.053464 0.000000
# 6 0.000000 0.000000 0.000000 0.000000 0.000000 0.021934
#
#
# Mechanical properties :
#
#
# Convention : Reuss Voigt Hill
#
# Bulk Modulus (GPa) = 81.37329 89.25738 85.31534
# Shear Modulus (GPa) = 11.67199 27.51128 19.59164
#
# Velocity S-wave (km/s) = 2.50557 3.84672 3.24616
# Velocity P-wave (km/s) = 7.22067 8.23029 7.74195
#
# Compressibility (1/GPa) = 0.01228904
#
# Stress axis : x y z
#
# Youngs Moduli (GPa) = 94.09696 62.83037 108.50397
#
# Poissons Ratio (x) = 0.40366 0.35593
# Poissons Ratio (y) = 0.60453 0.22029
# Poissons Ratio (z) = 0.30867 0.12756
#
# Static dielectric constant tensor:
#      x y z
#    x 1.721580 0.000000 0.000000 
#    y 0.000000 1.682960 0.000000 
#    z 0.000000 0.000000 1.514480 
# 
# From -- ./inp_files/3727.got.cif
#   From: 2010.05.17/outbox.cif.g08.bks.cpg/sg16_2_cif.got.tgz:3727.got - 2010.06.03 22:28:35.
