data_PCOD9310469
_publ_section_title
;
Structure prediction by ZEFSAII (Michael W. Deem and Ramdas Pophale) SiO2 
 PCOD9310469
Probable space group: P 2 2 21
;
_chemical_formula_sum "Si O2"
_cell_formula_units_Z 20
_cell_length_a 11.659258
_cell_length_b 5.812586
_cell_length_c 14.267886
_cell_angle_alpha 90.000000
_cell_angle_beta 90.000000
_cell_angle_gamma 90.000000
_cell_volume 966.940910
_symmetry_space_group_name_H-M "P 2 2 21"
_symmetry_group_IT_number 17
_symmetry_cell_setting 'orthorhombic'
loop_
_space_group_symop_operation_xyz
x,y,z
-x,-y,1/2+z
x,-y,-z
-x,y,1/2-z
loop_
_atom_site_type_symbol
_atom_site_label
_atom_site_fract_x
_atom_site_fract_y
_atom_site_fract_z
Si Si1 0.831381 0.000000 0.500000
Si Si2 0.343811 0.296791 0.340399
Si Si3 0.500000 0.628516 0.250000
Si Si4 0.725536 0.084082 0.701472
Si Si5 0.043633 0.500000 0.000000
Si Si6 0.280824 0.000000 0.500000
Si Si7 0.851578 0.338632 0.864383
O O1 0.762563 0.947887 0.404720
O O2 0.895203 0.750257 0.517949
O O3 0.450406 0.462474 0.329347
O O4 0.359555 0.120303 0.423781
O O5 0.233390 0.446952 0.363146
O O6 0.310487 0.157291 0.247800
O O7 0.390270 0.767912 0.214704
O O8 0.826400 0.204053 0.765889
O O9 0.969748 0.564016 0.093845
O O10 0.198438 0.167786 0.557308
#
# Coordination Sequence:
#
# PCOD9310469 Si02
#       7
#     2   4   2   4   2   2   4
#     4  12  31  50  73 108 164 192 255 307 382 458
#     4  10  20  39  71  99 141 176 240 310 357 443
#     4  10  22  44  72 100 136 196 242 296 392 440
#     4  10  25  48  69 106 146 197 243 317 367 459
#     4  12  26  48  74 110 146 206 240 306 382 444
#     4  10  17  36  67 106 140 170 227 317 352 418
#     4  10  21  41  71 104 142 179 249 297 358 445
#
# _framework density 20.683788
#
# number of rings (size 3 to 8) (size 9 to 14) (size 15 to 20)
#    0.000    1.600    2.000    1.200    8.400    0.800 
#    0.000   24.000    0.000    0.000    0.000    0.000 
#    0.000    0.000    0.000    0.000    0.000    0.000 
#
# Total GULP energy -111481.079315 kJ/mol
# GULP energy per Si atom -5574.053966 kJ/mol
# Density = 2.063671 g / cm^3
# Si number density = 20.683788 Si / 1000 Ang^3
#
#
#
# Elastic Constant Matrix: (Units=GPa)
#
#
# Indices 1 2 3 4 5 6 
#
# 1 77.3262 65.5818 63.3516 0.0000 0.0000 0.0000
# 2 65.5818 137.9593 57.0948 0.0000 0.0000 0.0000
# 3 63.3516 57.0948 155.5051 0.0000 0.0000 0.0000
# 4 0.0000 0.0000 0.0000 26.0746 0.0000 0.0000
# 5 0.0000 0.0000 0.0000 0.0000 -26.3224 0.0000
# 6 0.0000 0.0000 0.0000 0.0000 0.0000 -235.2479
#
#
#
# Elastic Compliance Matrix: (Units=1/GPa)
#
#
# Indices 1 2 3 4 5 6 
#
# 1 0.027618 -0.009991 -0.007583 0.000000 0.000000 0.000000
# 2 -0.009991 0.012161 -0.000395 0.000000 0.000000 0.000000
# 3 -0.007583 -0.000395 0.009665 0.000000 0.000000 0.000000
# 4 0.000000 0.000000 0.000000 0.038352 0.000000 0.000000
# 5 0.000000 0.000000 0.000000 0.000000 -0.037990 0.000000
# 6 0.000000 0.000000 0.000000 0.000000 0.000000 -0.004251
#
#
# Mechanical properties :
#
#
# Convention : Reuss Voigt Hill
#
# Bulk Modulus (GPa) = 74.03709 82.53857 78.28783
# Shear Modulus (GPa) = 58.14299 -34.78166 11.68067
#
# Velocity S-wave (km/s) = 5.30768 -4.10517 2.37897
# Velocity P-wave (km/s) = 8.56939 4.18589 6.74374
#
# Compressibility (1/GPa) = 0.01350674
#
# Stress axis : x y z
#
# Youngs Moduli (GPa) = 36.20793 82.22884 103.46508
#
# Poissons Ratio (x) = 0.82151 0.78462
# Poissons Ratio (y) = 0.36174 0.04087
# Poissons Ratio (z) = 0.27458 0.03248
#
# Static dielectric constant tensor:
#      x y z
#    x 1.759370 0.000000 0.000000 
#    y 0.000000 1.831690 0.000000 
#    z 0.000000 0.000000 1.773180 
# 
# From -- ./inp_files/7582.got.cif
#   From: 2010.05.17/outbox.cif.g08.bks.cpg/sg17_4_cif.got.tgz:7582.got - 2010.06.03 22:34:06.
