data_PCOD9310377
_publ_section_title
;
Structure prediction by ZEFSAII (Michael W. Deem and Ramdas Pophale) SiO2 
 PCOD9310377
Probable space group: P 2 2 2
;
_chemical_formula_sum "Si O2"
_cell_formula_units_Z 20
_cell_length_a 9.650784
_cell_length_b 9.243026
_cell_length_c 10.518229
_cell_angle_alpha 90.000000
_cell_angle_beta 90.000000
_cell_angle_gamma 90.000000
_cell_volume 938.251769
_symmetry_space_group_name_H-M "P 2 2 2"
_symmetry_group_IT_number 16
_symmetry_cell_setting 'orthorhombic'
loop_
_space_group_symop_operation_xyz
x,y,z
-x,-y,z
x,-y,-z
-x,y,-z
loop_
_atom_site_type_symbol
_atom_site_label
_atom_site_fract_x
_atom_site_fract_y
_atom_site_fract_z
Si Si1 0.677513 0.000000 0.000000
Si Si2 0.500000 0.500000 0.188979
Si Si3 0.111680 0.774670 0.896229
Si Si4 0.734494 0.500000 0.000000
Si Si5 0.927774 0.661973 0.374290
Si Si6 0.500000 0.000000 0.223840
Si Si7 0.394750 0.262624 0.380861
O O1 0.765920 0.886997 0.080920
O O2 0.593902 0.079245 0.115133
O O3 0.628180 0.444234 0.105684
O O4 0.449306 0.371109 0.275088
O O5 0.053334 0.753358 0.754882
O O6 0.171553 0.619630 0.935966
O O7 0.000000 0.817523 0.000000
O O8 0.762342 0.679406 0.403258
O O9 0.000000 0.500000 0.357203
O O10 0.000000 0.722555 0.500000
O O11 0.412429 0.104739 0.315947
O O12 0.500000 0.269436 0.500000
#
# Coordination Sequence:
#
# PCOD9310377 Si02
#       7
#     2   2   4   2   4   2   4
#     4  11  23  44  76 102 139 179 240 316 380 435
#     4  11  23  38  68 108 135 173 250 320 374 423
#     4  12  24  42  69 104 141 193 242 301 374 453
#     4  11  21  40  68 102 139 175 238 320 371 424
#     4  11  26  46  69 107 157 204 252 311 384 461
#     4  11  23  48  74 104 141 183 244 322 378 447
#     4  12  26  44  73 106 145 197 251 308 381 452
#
# _framework density 21.316238999999999
#
# number of rings (size 3 to 8) (size 9 to 14) (size 15 to 20)
#    0.000    0.600    4.000    3.600    5.600    4.800 
#    0.000    0.000    0.000    0.000    0.000    0.000 
#    0.000    0.000    0.000    0.000    0.000    0.000 
#
# Total GULP energy -111508.437702 kJ/mol
# GULP energy per Si atom -5575.421885 kJ/mol
# Density = 2.126772 g / cm^3
# Si number density = 21.316239 Si / 1000 Ang^3
#
#
#
# Elastic Constant Matrix: (Units=GPa)
#
#
# Indices 1 2 3 4 5 6 
#
# 1 107.1590 24.3541 58.4675 0.0000 0.0000 0.0000
# 2 24.3541 65.5564 22.7751 0.0000 0.0000 0.0000
# 3 58.4675 22.7751 167.6721 0.0000 0.0000 0.0000
# 4 0.0000 0.0000 0.0000 9.8665 0.0000 0.0000
# 5 0.0000 0.0000 0.0000 0.0000 45.2883 0.0000
# 6 0.0000 0.0000 0.0000 0.0000 0.0000 22.5448
#
#
#
# Elastic Compliance Matrix: (Units=1/GPa)
#
#
# Indices 1 2 3 4 5 6 
#
# 1 0.012127 -0.003186 -0.003796 0.000000 0.000000 0.000000
# 2 -0.003186 0.016847 -0.001177 0.000000 0.000000 0.000000
# 3 -0.003796 -0.001177 0.007448 0.000000 0.000000 0.000000
# 4 0.000000 0.000000 0.000000 0.101353 0.000000 0.000000
# 5 0.000000 0.000000 0.000000 0.000000 0.022081 0.000000
# 6 0.000000 0.000000 0.000000 0.000000 0.000000 0.044356
#
#
# Mechanical properties :
#
#
# Convention : Reuss Voigt Hill
#
# Bulk Modulus (GPa) = 49.74546 61.28677 55.51611
# Shear Modulus (GPa) = 22.00399 31.19265 26.59832
#
# Velocity S-wave (km/s) = 3.21637 3.82950 3.53625
# Velocity P-wave (km/s) = 6.09762 6.95464 6.54018
#
# Compressibility (1/GPa) = 0.02010234
#
# Stress axis : x y z
#
# Youngs Moduli (GPa) = 82.45890 59.35851 134.27184
#
# Poissons Ratio (x) = 0.18915 0.50969
# Poissons Ratio (y) = 0.26275 0.15806
# Poissons Ratio (z) = 0.31301 0.06988
#
# Static dielectric constant tensor:
#      x y z
#    x 1.988790 0.000000 0.000000 
#    y 0.000000 1.771340 0.000000 
#    z 0.000000 0.000000 1.825670 
# 
# From -- ./inp_files/6427.got.cif
#   From: 2010.05.17/outbox.cif.g08.bks.cpg/sg16_4_cif.got.tgz:6427.got - 2010.06.03 22:28:35.
