data_PCOD9310399
_publ_section_title
;
Structure prediction by ZEFSAII (Michael W. Deem and Ramdas Pophale) SiO2 
 PCOD9310399
Probable space group: P 2 2 2
;
_chemical_formula_sum "Si O2"
_cell_formula_units_Z 16
_cell_length_a 4.918840
_cell_length_b 11.928188
_cell_length_c 11.470840
_cell_angle_alpha 90.000000
_cell_angle_beta 90.000000
_cell_angle_gamma 90.000000
_cell_volume 673.026855
_symmetry_space_group_name_H-M "P 2 2 2"
_symmetry_group_IT_number 16
_symmetry_cell_setting 'orthorhombic'
loop_
_space_group_symop_operation_xyz
x,y,z
-x,-y,z
x,-y,-z
-x,y,-z
loop_
_atom_site_type_symbol
_atom_site_label
_atom_site_fract_x
_atom_site_fract_y
_atom_site_fract_z
Si Si1 0.264846 0.174117 0.421225
Si Si2 0.237440 0.076197 0.172326
Si Si3 0.531610 0.618590 0.716758
Si Si4 0.933001 0.327458 0.869566
O O1 0.500000 0.123668 0.500000
O O2 0.203753 0.096862 0.310896
O O3 0.405437 0.284486 0.364421
O O4 0.000000 0.197018 0.500000
O O5 0.194876 0.201387 0.123841
O O6 0.500000 0.000000 0.151307
O O7 0.000000 0.000000 0.127409
O O8 0.500000 0.500000 0.651691
O O9 0.311690 0.600584 0.819104
O O10 0.813260 0.660206 0.777981
O O11 0.000000 0.360733 0.000000
#
# Coordination Sequence:
#
# PCOD9310399 Si02
#       4
#     4   4   4   4
#     4  11  23  41  63  90 124 163 210 264 320 383
#     4  11  23  41  63  90 124 163 210 264 320 383
#     4  11  24  43  66  96 133 171 218 274 331 401
#     4  11  24  43  66  96 133 171 218 274 331 401
#
# _framework density 23.773199000000002
#
# number of rings (size 3 to 8) (size 9 to 14) (size 15 to 20)
#    0.000    1.000    0.000    9.000    0.000    7.000 
#    0.000    7.500    0.000    0.000    0.000    0.000 
#    0.000    0.000    0.000    0.000    0.000    0.000 
#
# Total GULP energy -89402.166814 kJ/mol
# GULP energy per Si atom -5587.635426 kJ/mol
# Density = 2.371909 g / cm^3
# Si number density = 23.773199 Si / 1000 Ang^3
#
#
#
# Elastic Constant Matrix: (Units=GPa)
#
#
# Indices 1 2 3 4 5 6 
#
# 1 181.1526 52.5339 34.6255 0.0000 0.0000 0.0000
# 2 52.5339 147.4077 19.7799 0.0000 0.0000 0.0000
# 3 34.6255 19.7799 101.6505 0.0000 0.0000 0.0000
# 4 0.0000 0.0000 0.0000 1.3820 0.0000 0.0000
# 5 0.0000 0.0000 0.0000 0.0000 35.0949 0.0000
# 6 0.0000 0.0000 0.0000 0.0000 0.0000 29.3335
#
#
#
# Elastic Compliance Matrix: (Units=1/GPa)
#
#
# Indices 1 2 3 4 5 6 
#
# 1 0.006462 -0.002061 -0.001800 0.000000 0.000000 0.000000
# 2 -0.002061 0.007623 -0.000781 0.000000 0.000000 0.000000
# 3 -0.001800 -0.000781 0.010603 0.000000 0.000000 0.000000
# 4 0.000000 0.000000 0.000000 0.723602 0.000000 0.000000
# 5 0.000000 0.000000 0.000000 0.000000 0.028494 0.000000
# 6 0.000000 0.000000 0.000000 0.000000 0.000000 0.034091
#
#
# Mechanical properties :
#
#
# Convention : Reuss Voigt Hill
#
# Bulk Modulus (GPa) = 64.92314 71.56547 68.24431
# Shear Modulus (GPa) = 6.05844 34.71351 20.38598
#
# Velocity S-wave (km/s) = 1.59811 3.82540 2.93152
# Velocity P-wave (km/s) = 5.54743 7.04843 6.34249
#
# Compressibility (1/GPa) = 0.01540283
#
# Stress axis : x y z
#
# Youngs Moduli (GPa) = 154.74875 131.17502 94.31468
#
# Poissons Ratio (x) = 0.27041 0.16977
# Poissons Ratio (y) = 0.31901 0.07368
# Poissons Ratio (z) = 0.27856 0.10248
#
# Static dielectric constant tensor:
#      x y z
#    x 1.884190 0.000000 0.000000 
#    y 0.000000 1.914700 0.000000 
#    z 0.000000 0.000000 1.961940 
# 
# From -- ./inp_files/5792.got.cif
#   From: 2010.05.17/outbox.cif.g08.bks.cpg/sg16_3_cif.got.tgz:5792.got - 2010.06.03 22:28:35.
