data_PCOD9310635
_publ_section_title
;
Structure prediction by ZEFSAII (Michael W. Deem and Ramdas Pophale) SiO2 
 PCOD9310635
Probable space group: P 2 2 21
;
_chemical_formula_sum "Si O2"
_cell_formula_units_Z 16
_cell_length_a 7.136867
_cell_length_b 6.639810
_cell_length_c 17.430431
_cell_angle_alpha 90.000000
_cell_angle_beta 90.000000
_cell_angle_gamma 90.000000
_cell_volume 825.983518
_symmetry_space_group_name_H-M "P 2 2 21"
_symmetry_group_IT_number 17
_symmetry_cell_setting 'orthorhombic'
loop_
_space_group_symop_operation_xyz
x,y,z
-x,-y,1/2+z
x,-y,-z
-x,y,1/2-z
loop_
_atom_site_type_symbol
_atom_site_label
_atom_site_fract_x
_atom_site_fract_y
_atom_site_fract_z
Si Si1 0.700443 0.135630 0.179823
Si Si2 0.058423 0.088310 0.084292
Si Si3 0.306989 0.357581 0.169139
Si Si4 0.798044 0.782963 0.285084
O O1 0.503376 0.238941 0.159671
O O2 0.774809 0.271720 0.250406
O O3 0.845732 0.125796 0.110915
O O4 0.696484 0.914558 0.219013
O O5 0.173157 0.292807 0.100018
O O6 0.149302 0.930716 0.144688
O O7 0.071232 0.000000 0.000000
O O8 0.316709 0.594545 0.182955
O O9 0.000000 0.717548 0.250000
#
# Coordination Sequence:
#
# PCOD9310635 Si02
#       4
#     4   4   4   4
#     4   9  20  35  56  83 109 142 185 235 281 324
#     4  10  21  36  54  80 116 149 182 225 278 337
#     4  10  19  34  58  83 108 142 189 234 277 328
#     4   9  18  36  60  83 109 145 188 234 281 329
#
# _framework density 19.370847000000001
#
# number of rings (size 3 to 8) (size 9 to 14) (size 15 to 20)
#    0.000    2.500    0.000    3.750    0.000   10.000 
#    0.000    0.000    0.000   21.000    0.000    0.000 
#    0.000    0.000    0.000    0.000    0.000    0.000 
#
# Total GULP energy -89197.113728 kJ/mol
# GULP energy per Si atom -5574.819608 kJ/mol
# Density = 1.932676 g / cm^3
# Si number density = 19.370847 Si / 1000 Ang^3
#
#
#
# Elastic Constant Matrix: (Units=GPa)
#
#
# Indices 1 2 3 4 5 6 
#
# 1 117.7639 49.9397 22.5131 0.0000 0.0000 0.0000
# 2 49.9397 108.8892 -0.6783 0.0000 0.0000 0.0000
# 3 22.5131 -0.6783 57.3493 0.0000 0.0000 0.0000
# 4 0.0000 0.0000 0.0000 11.1440 0.0000 0.0000
# 5 0.0000 0.0000 0.0000 0.0000 14.4324 0.0000
# 6 0.0000 0.0000 0.0000 0.0000 0.0000 24.2456
#
#
#
# Elastic Compliance Matrix: (Units=1/GPa)
#
#
# Indices 1 2 3 4 5 6 
#
# 1 0.011658 -0.005376 -0.004640 0.000000 0.000000 0.000000
# 2 -0.005376 0.011663 0.002248 0.000000 0.000000 0.000000
# 3 -0.004640 0.002248 0.019285 0.000000 0.000000 0.000000
# 4 0.000000 0.000000 0.000000 0.089734 0.000000 0.000000
# 5 0.000000 0.000000 0.000000 0.000000 0.069288 0.000000
# 6 0.000000 0.000000 0.000000 0.000000 0.000000 0.041245
#
#
# Mechanical properties :
#
#
# Convention : Reuss Voigt Hill
#
# Bulk Modulus (GPa) = 36.93958 47.50571 42.22264
# Shear Modulus (GPa) = 18.69628 24.11293 21.40460
#
# Velocity S-wave (km/s) = 3.11010 3.53201 3.32775
# Velocity P-wave (km/s) = 5.65756 6.41958 6.05058
#
# Compressibility (1/GPa) = 0.02707124
#
# Stress axis : x y z
#
# Youngs Moduli (GPa) = 85.77575 85.74033 51.85340
#
# Poissons Ratio (x) = 0.46092 0.24061
# Poissons Ratio (y) = 0.46111 -0.11658
# Poissons Ratio (z) = 0.39801 -0.19276
#
# Static dielectric constant tensor:
#      x y z
#    x 1.740160 0.000000 0.000000 
#    y 0.000000 1.723090 0.000000 
#    z 0.000000 0.000000 1.637990 
# 
# From -- ./inp_files/8856.got.cif
#   From: 2010.05.17/outbox.cif.g08.bks.cpg/sg17_5_cif.got.tgz:8856.got - 2010.06.03 22:34:06.
