data_PCOD9310901
_publ_section_title
;
Structure prediction by ZEFSAII (Michael W. Deem and Ramdas Pophale) SiO2 
 PCOD9310901
Probable space group: P 2 2 21
;
_chemical_formula_sum "Si O2"
_cell_formula_units_Z 32
_cell_length_a 10.895484
_cell_length_b 9.359285
_cell_length_c 15.501092
_cell_angle_alpha 90.000000
_cell_angle_beta 90.000000
_cell_angle_gamma 90.000000
_cell_volume 1580.707425
_symmetry_space_group_name_H-M "P 2 2 21"
_symmetry_group_IT_number 17
_symmetry_cell_setting 'orthorhombic'
loop_
_space_group_symop_operation_xyz
x,y,z
-x,-y,1/2+z
x,-y,-z
-x,y,1/2-z
loop_
_atom_site_type_symbol
_atom_site_label
_atom_site_fract_x
_atom_site_fract_y
_atom_site_fract_z
Si Si1 0.982368 0.669946 0.018637
Si Si2 0.777488 0.417578 0.590223
Si Si3 0.201076 0.532054 0.730127
Si Si4 0.738017 0.731818 0.123747
Si Si5 0.286348 0.955043 0.598896
Si Si6 0.437599 0.292884 0.336577
Si Si7 0.947583 0.777777 0.840524
Si Si8 0.485412 0.406077 0.855461
O O1 0.850262 0.722820 0.054967
O O2 0.100210 0.678949 0.081254
O O3 0.966012 0.500000 0.000000
O O4 0.015539 0.756002 0.931319
O O5 0.765391 0.500000 0.500000
O O6 0.803348 0.528860 0.667615
O O7 0.646246 0.347973 0.614437
O O8 0.212044 0.369657 0.699498
O O9 0.319100 0.618173 0.696201
O O10 0.094074 0.616954 0.683909
O O11 0.606166 0.660802 0.100117
O O12 0.706272 0.893713 0.147444
O O13 0.395872 0.840787 0.607629
O O14 0.168580 0.873691 0.635168
O O15 0.274087 0.000000 0.500000
O O16 0.500000 0.236258 0.250000
O O17 0.516636 0.422971 0.375402
O O18 0.000000 0.834493 0.750000
O O19 0.500000 0.390712 0.750000
#
# Coordination Sequence:
#
# PCOD9310901 Si02
#       8
#     4   4   4   4   4   4   4   4
#     4  11  22  37  63 102 124 161 215 279 333 384
#     4  11  22  37  60 102 132 156 206 285 337 381
#     4  10  20  39  65  90 124 163 216 265 325 395
#     4  11  22  39  65  95 132 167 220 273 321 384
#     4  11  24  40  61  95 129 171 223 275 312 393
#     4   9  18  39  67  86 123 170 217 259 322 390
#     4  11  22  42  65  88 126 176 217 264 331 403
#     4  10  20  42  66  96 129 167 217 276 332 396
#
# _framework density 20.244098999999999
#
# number of rings (size 3 to 8) (size 9 to 14) (size 15 to 20)
#    0.000    1.500    6.250    1.500    0.000    2.000 
#    2.250    0.000    0.000    0.000    6.500    0.000 
#    0.000    0.000    0.000    0.000    0.000    0.000 
#
# Total GULP energy -178266.876899 kJ/mol
# GULP energy per Si atom -5570.839903 kJ/mol
# Density = 2.019802 g / cm^3
# Si number density = 20.244099 Si / 1000 Ang^3
#
#
#
# Elastic Constant Matrix: (Units=GPa)
#
#
# Indices 1 2 3 4 5 6 
#
# 1 120.6331 20.0625 26.8564 0.0000 0.0000 0.0000
# 2 20.0625 101.8216 25.5958 0.0000 0.0000 0.0000
# 3 26.8564 25.5958 88.4436 0.0000 0.0000 0.0000
# 4 0.0000 0.0000 0.0000 19.3626 0.0000 0.0000
# 5 0.0000 0.0000 0.0000 0.0000 32.0470 0.0000
# 6 0.0000 0.0000 0.0000 0.0000 0.0000 9.0625
#
#
#
# Elastic Compliance Matrix: (Units=1/GPa)
#
#
# Indices 1 2 3 4 5 6 
#
# 1 0.009019 -0.001174 -0.002399 0.000000 0.000000 0.000000
# 2 -0.001174 0.010744 -0.002753 0.000000 0.000000 0.000000
# 3 -0.002399 -0.002753 0.012832 0.000000 0.000000 0.000000
# 4 0.000000 0.000000 0.000000 0.051646 0.000000 0.000000
# 5 0.000000 0.000000 0.000000 0.000000 0.031204 0.000000
# 6 0.000000 0.000000 0.000000 0.000000 0.000000 0.110345
#
#
# Mechanical properties :
#
#
# Convention : Reuss Voigt Hill
#
# Bulk Modulus (GPa) = 50.14185 50.65861 50.40023
# Shear Modulus (GPa) = 20.40064 27.98665 24.19365
#
# Velocity S-wave (km/s) = 3.17792 3.72218 3.46077
# Velocity P-wave (km/s) = 6.18773 6.59932 6.39684
#
# Compressibility (1/GPa) = 0.01994342
#
# Stress axis : x y z
#
# Youngs Moduli (GPa) = 110.87817 93.07116 77.93150
#
# Poissons Ratio (x) = 0.10927 0.18695
# Poissons Ratio (y) = 0.13017 0.21454
# Poissons Ratio (z) = 0.26598 0.25622
#
# Static dielectric constant tensor:
#      x y z
#    x 1.800980 0.000000 0.000000 
#    y 0.000000 1.715970 0.000000 
#    z 0.000000 0.000000 1.787960 
# 
# From -- ./inp_files/8582.got.cif
#   From: 2010.05.17/outbox.cif.g08.bks.cpg/sg17_5_cif.got.tgz:8582.got - 2010.06.03 22:34:06.
