data_PCOD9310159
_publ_section_title
;
Structure prediction by ZEFSAII (Michael W. Deem and Ramdas Pophale) SiO2 
 PCOD9310159
Probable space group: P 2 2 2
;
_chemical_formula_sum "Si O2"
_cell_formula_units_Z 19
_cell_length_a 5.415993
_cell_length_b 18.706101
_cell_length_c 8.065081
_cell_angle_alpha 90.000000
_cell_angle_beta 90.000000
_cell_angle_gamma 90.000000
_cell_volume 817.090390
_symmetry_space_group_name_H-M "P 2 2 2"
_symmetry_group_IT_number 16
_symmetry_cell_setting 'orthorhombic'
loop_
_space_group_symop_operation_xyz
x,y,z
-x,-y,z
x,-y,-z
-x,y,-z
loop_
_atom_site_type_symbol
_atom_site_label
_atom_site_fract_x
_atom_site_fract_y
_atom_site_fract_z
Si Si1 0.500000 0.814655 0.500000
Si Si2 0.500000 0.835774 0.000000
Si Si3 0.743955 0.530020 0.311572
Si Si4 0.179409 0.694706 0.658129
Si Si5 0.000000 0.251349 0.000000
Si Si6 0.637330 0.071043 0.267192
Si Si7 0.000000 0.000000 0.000000
O O1 0.371027 0.759350 0.626758
O O2 0.310634 0.870416 0.409954
O O3 0.747531 0.791964 0.968892
O O4 0.442342 0.886378 0.845017
O O5 0.500000 0.500000 0.225956
O O6 0.746830 0.500000 0.500000
O O7 0.716511 0.614960 0.328817
O O8 0.000000 0.500000 0.237480
O O9 0.000000 0.696616 0.500000
O O10 0.042581 0.706365 0.830984
O O11 0.500000 0.000000 0.326512
O O12 0.841302 0.047358 0.131755
#
# Coordination Sequence:
#
# PCOD9310159 Si02
#       7
#     2   2   4   4   2   4   1
#     4  12  27  48  73 114 158 196 268 330 407 468
#     4  12  23  50  72 106 147 198 246 330 381 474
#     4  10  20  40  74 107 148 200 253 307 380 464
#     4  12  26  47  79 113 155 211 256 329 396 477
#     4  12  29  46  78 116 157 190 266 316 401 466
#     4  12  25  45  76 103 145 202 263 322 392 472
#     4  12  24  48  82  98 146 216 266 318 408 470
#
# _framework density 23.253242
#
# number of rings (size 3 to 8) (size 9 to 14) (size 15 to 20)
#    0.000    0.421    6.316    3.474    0.000    1.684 
#    0.000    3.684    0.000    2.526    0.000    0.000 
#    0.000    0.000    0.000    0.000    0.000    0.000 
#
# Total GULP energy -106092.763329 kJ/mol
# GULP energy per Si atom -5583.829649 kJ/mol
# Density = 2.320032 g / cm^3
# Si number density = 23.253242 Si / 1000 Ang^3
#
#
#
# Elastic Constant Matrix: (Units=GPa)
#
#
# Indices 1 2 3 4 5 6 
#
# 1 136.8927 70.0360 33.9526 0.0000 0.0000 0.0000
# 2 70.0360 215.5788 66.6078 0.0000 0.0000 0.0000
# 3 33.9526 66.6078 127.3314 0.0000 0.0000 0.0000
# 4 0.0000 0.0000 0.0000 30.2100 0.0000 0.0000
# 5 0.0000 0.0000 0.0000 0.0000 12.6788 0.0000
# 6 0.0000 0.0000 0.0000 0.0000 0.0000 237.4849
#
#
#
# Elastic Compliance Matrix: (Units=1/GPa)
#
#
# Indices 1 2 3 4 5 6 
#
# 1 0.008872 -0.002566 -0.001023 0.000000 0.000000 0.000000
# 2 -0.002566 0.006275 -0.002598 0.000000 0.000000 0.000000
# 3 -0.001023 -0.002598 0.009486 0.000000 0.000000 0.000000
# 4 0.000000 0.000000 0.000000 0.033102 0.000000 0.000000
# 5 0.000000 0.000000 0.000000 0.000000 0.078872 0.000000
# 6 0.000000 0.000000 0.000000 0.000000 0.000000 0.004211
#
#
# Mechanical properties :
#
#
# Convention : Reuss Voigt Hill
#
# Bulk Modulus (GPa) = 81.58577 91.22176 86.40376
# Shear Modulus (GPa) = 31.79093 76.68851 54.23972
#
# Velocity S-wave (km/s) = 3.70153 5.74903 4.83490
# Velocity P-wave (km/s) = 7.30960 9.13144 8.27084
#
# Compressibility (1/GPa) = 0.01225704
#
# Stress axis : x y z
#
# Youngs Moduli (GPa) = 112.71944 159.35982 105.42305
#
# Poissons Ratio (x) = 0.40891 0.10788
# Poissons Ratio (y) = 0.28924 0.27392
# Poissons Ratio (z) = 0.11535 0.41407
#
# Static dielectric constant tensor:
#      x y z
#    x 1.960120 0.000000 0.000000 
#    y 0.000000 1.903780 0.000000 
#    z 0.000000 0.000000 1.883400 
# 
# From -- ./inp_files/3181.got.cif
#   From: 2010.05.17/outbox.cif.g08.bks.cpg/sg16_2_cif.got.tgz:3181.got - 2010.06.03 22:28:35.
