data_PCOD9310123
_publ_section_title
;
Structure prediction by ZEFSAII (Michael W. Deem and Ramdas Pophale) SiO2 
 PCOD9310123
Probable space group: P 2 2 2
;
_chemical_formula_sum "Si O2"
_cell_formula_units_Z 19
_cell_length_a 7.928240
_cell_length_b 13.528660
_cell_length_c 8.219739
_cell_angle_alpha 90.000000
_cell_angle_beta 90.000000
_cell_angle_gamma 90.000000
_cell_volume 881.636574
_symmetry_space_group_name_H-M "P 2 2 2"
_symmetry_group_IT_number 16
_symmetry_cell_setting 'orthorhombic'
loop_
_space_group_symop_operation_xyz
x,y,z
-x,-y,z
x,-y,-z
-x,y,-z
loop_
_atom_site_type_symbol
_atom_site_label
_atom_site_fract_x
_atom_site_fract_y
_atom_site_fract_z
Si Si1 0.601637 0.219774 0.167398
Si Si2 0.065531 0.111847 0.823943
Si Si3 0.200998 0.386830 0.003104
Si Si4 0.500000 0.500000 0.500000
Si Si5 0.000000 0.230693 0.500000
Si Si6 0.318231 0.681147 0.650266
O O1 0.733912 0.130778 0.185344
O O2 0.471733 0.242460 0.313632
O O3 0.500000 0.203190 0.000000
O O4 0.712078 0.319597 0.134869
O O5 0.999744 0.167464 0.664878
O O6 0.000000 0.000000 0.815844
O O7 0.000000 0.150775 0.000000
O O8 0.240999 0.333874 0.172125
O O9 0.264749 0.500000 0.000000
O O10 0.000000 0.390586 0.000000
O O11 0.389615 0.574621 0.604415
O O12 0.174482 0.290256 0.478989
#
# Coordination Sequence:
#
# PCOD9310123 Si02
#       6
#     4   4   4   1   2   4
#     4  10  20  40  66  96 132 173 223 279 338 405
#     4  11  24  45  72  99 131 173 222 283 354 420
#     4  10  20  35  61  95 134 183 230 271 327 400
#     4  12  24  38  54  88 130 174 224 274 324 394
#     4  12  25  45  68  98 134 178 226 281 351 418
#     4  11  24  38  61  92 134 179 222 279 336 401
#
# _framework density 21.550830000000001
#
# number of rings (size 3 to 8) (size 9 to 14) (size 15 to 20)
#    0.000    1.263    0.000    7.263    0.000    6.737 
#    0.000    7.368    0.000    7.579    0.000    0.000 
#    0.000    0.000    0.000    0.000    0.000    0.000 
#
# Total GULP energy -106159.113396 kJ/mol
# GULP energy per Si atom -5587.321758 kJ/mol
# Density = 2.150178 g / cm^3
# Si number density = 21.550830 Si / 1000 Ang^3
#
#
#
# Elastic Constant Matrix: (Units=GPa)
#
#
# Indices 1 2 3 4 5 6 
#
# 1 140.9931 63.5678 42.6028 0.0000 0.0000 0.0000
# 2 63.5678 115.4384 40.9914 0.0000 0.0000 0.0000
# 3 42.6028 40.9914 131.7574 0.0000 0.0000 0.0000
# 4 0.0000 0.0000 0.0000 32.8462 0.0000 0.0000
# 5 0.0000 0.0000 0.0000 0.0000 36.9702 0.0000
# 6 0.0000 0.0000 0.0000 0.0000 0.0000 44.2347
#
#
#
# Elastic Compliance Matrix: (Units=1/GPa)
#
#
# Indices 1 2 3 4 5 6 
#
# 1 0.009750 -0.004777 -0.001666 0.000000 0.000000 0.000000
# 2 -0.004777 0.012079 -0.002213 0.000000 0.000000 0.000000
# 3 -0.001666 -0.002213 0.008817 0.000000 0.000000 0.000000
# 4 0.000000 0.000000 0.000000 0.030445 0.000000 0.000000
# 5 0.000000 0.000000 0.000000 0.000000 0.027049 0.000000
# 6 0.000000 0.000000 0.000000 0.000000 0.000000 0.022607
#
#
# Mechanical properties :
#
#
# Convention : Reuss Voigt Hill
#
# Bulk Modulus (GPa) = 75.00466 75.83475 75.41970
# Shear Modulus (GPa) = 37.73461 38.87870 38.30666
#
# Velocity S-wave (km/s) = 4.18899 4.25201 4.22062
# Velocity P-wave (km/s) = 7.63387 7.70528 7.66966
#
# Compressibility (1/GPa) = 0.01333250
#
# Stress axis : x y z
#
# Youngs Moduli (GPa) = 102.56533 82.78697 113.41615
#
# Poissons Ratio (x) = 0.39549 0.18899
# Poissons Ratio (y) = 0.48998 0.25103
# Poissons Ratio (z) = 0.17090 0.18323
#
# Static dielectric constant tensor:
#      x y z
#    x 1.829500 0.000000 0.000000 
#    y 0.000000 1.779900 0.000000 
#    z 0.000000 0.000000 1.771140 
# 
# From -- ./inp_files/3837.got.cif
#   From: 2010.05.17/outbox.cif.g08.bks.cpg/sg16_2_cif.got.tgz:3837.got - 2010.06.03 22:28:35.
