data_PCOD9310769
_publ_section_title
;
Structure prediction by ZEFSAII (Michael W. Deem and Ramdas Pophale) SiO2 
 PCOD9310769
Probable space group: P 2 2 21
;
_chemical_formula_sum "Si O2"
_cell_formula_units_Z 26
_cell_length_a 6.082983
_cell_length_b 13.574675
_cell_length_c 14.441095
_cell_angle_alpha 90.000000
_cell_angle_beta 90.000000
_cell_angle_gamma 90.000000
_cell_volume 1192.466448
_symmetry_space_group_name_H-M "P 2 2 21"
_symmetry_group_IT_number 17
_symmetry_cell_setting 'orthorhombic'
loop_
_space_group_symop_operation_xyz
x,y,z
-x,-y,1/2+z
x,-y,-z
-x,y,1/2-z
loop_
_atom_site_type_symbol
_atom_site_label
_atom_site_fract_x
_atom_site_fract_y
_atom_site_fract_z
Si Si1 0.331231 0.500000 0.500000
Si Si2 0.318917 0.362700 0.094234
Si Si3 0.433318 0.019427 0.355649
Si Si4 0.943936 0.678248 0.051385
Si Si5 0.302625 0.224602 0.384695
Si Si6 0.072418 0.870519 0.354680
Si Si7 0.801941 0.000000 0.500000
Si Si8 0.000000 0.649703 0.750000
O O1 0.490028 0.561699 0.567012
O O2 0.177272 0.426471 0.558841
O O3 0.447501 0.263679 0.125284
O O4 0.159142 0.401955 0.175366
O O5 0.169662 0.340100 0.004439
O O6 0.500000 0.026161 0.250000
O O7 0.317229 0.914306 0.369421
O O8 0.268143 0.108919 0.374367
O O9 0.635191 0.041567 0.423016
O O10 0.961868 0.753249 0.136022
O O11 0.784738 0.739857 0.983152
O O12 0.157130 0.282529 0.311304
O O13 0.000000 0.901054 0.250000
O O14 0.936915 0.921756 0.438574
#
# Coordination Sequence:
#
# PCOD9310769 Si02
#       8
#     2   4   4   4   4   4   2   2
#     4  10  22  42  72  92 124 174 228 288 360 432
#     4  10  20  39  66  97 126 172 218 284 355 416
#     4  12  24  41  65 102 140 188 243 283 341 417
#     4  10  22  42  69  92 129 176 229 285 354 419
#     4  10  21  36  63  97 131 171 218 280 339 402
#     4  12  26  45  69 101 147 192 238 289 357 430
#     4  12  24  44  68  98 144 196 236 300 340 408
#     4  10  20  34  62  98 134 158 210 280 350 418
#
# _framework density 21.803546000000001
#
# number of rings (size 3 to 8) (size 9 to 14) (size 15 to 20)
#    0.000    1.231    1.538    5.077    1.077    3.692 
#    0.000    0.000   40.615    0.000    0.000    0.000 
#    0.000    0.000    0.000    0.000    0.000    0.000 
#
# Total GULP energy -145175.296856 kJ/mol
# GULP energy per Si atom -5583.665264 kJ/mol
# Density = 2.175392 g / cm^3
# Si number density = 21.803546 Si / 1000 Ang^3
#
#
#
# Elastic Constant Matrix: (Units=GPa)
#
#
# Indices 1 2 3 4 5 6 
#
# 1 74.8736 28.0390 20.9922 0.0000 0.0000 0.0000
# 2 28.0390 102.6735 26.1857 0.0000 0.0000 0.0000
# 3 20.9922 26.1857 101.5171 0.0000 0.0000 0.0000
# 4 0.0000 0.0000 0.0000 10.3223 0.0000 0.0000
# 5 0.0000 0.0000 0.0000 0.0000 9.8331 0.0000
# 6 0.0000 0.0000 0.0000 0.0000 0.0000 24.4013
#
#
#
# Elastic Compliance Matrix: (Units=1/GPa)
#
#
# Indices 1 2 3 4 5 6 
#
# 1 0.015338 -0.003618 -0.002239 0.000000 0.000000 0.000000
# 2 -0.003618 0.011279 -0.002161 0.000000 0.000000 0.000000
# 3 -0.002239 -0.002161 0.010871 0.000000 0.000000 0.000000
# 4 0.000000 0.000000 0.000000 0.096878 0.000000 0.000000
# 5 0.000000 0.000000 0.000000 0.000000 0.101698 0.000000
# 6 0.000000 0.000000 0.000000 0.000000 0.000000 0.040981
#
#
# Mechanical properties :
#
#
# Convention : Reuss Voigt Hill
#
# Bulk Modulus (GPa) = 46.61369 47.72201 47.16785
# Shear Modulus (GPa) = 16.65385 22.50114 19.57749
#
# Velocity S-wave (km/s) = 2.76672 3.21595 2.99976
# Velocity P-wave (km/s) = 5.62420 5.97700 5.80328
#
# Compressibility (1/GPa) = 0.02145293
#
# Stress axis : x y z
#
# Youngs Moduli (GPa) = 65.19641 88.66203 91.98856
#
# Poissons Ratio (x) = 0.32076 0.20592
# Poissons Ratio (y) = 0.23587 0.19880
# Poissons Ratio (z) = 0.14594 0.19162
#
# Static dielectric constant tensor:
#      x y z
#    x 1.842320 0.000000 0.000000 
#    y 0.000000 1.863660 0.000000 
#    z 0.000000 0.000000 1.820010 
# 
# From -- ./inp_files/7780.got.cif
#   From: 2010.05.17/outbox.cif.g08.bks.cpg/sg17_4_cif.got.tgz:7780.got - 2010.06.03 22:34:06.
