data_PCOD9310214
_publ_section_title
;
Structure prediction by ZEFSAII (Michael W. Deem and Ramdas Pophale) SiO2 
 PCOD9310214
Probable space group: P 2 2 2
;
_chemical_formula_sum "Si O2"
_cell_formula_units_Z 14
_cell_length_a 5.595249
_cell_length_b 11.066659
_cell_length_c 10.600968
_cell_angle_alpha 90.000000
_cell_angle_beta 90.000000
_cell_angle_gamma 90.000000
_cell_volume 656.419494
_symmetry_space_group_name_H-M "P 2 2 2"
_symmetry_group_IT_number 16
_symmetry_cell_setting 'orthorhombic'
loop_
_space_group_symop_operation_xyz
x,y,z
-x,-y,z
x,-y,-z
-x,y,-z
loop_
_atom_site_type_symbol
_atom_site_label
_atom_site_fract_x
_atom_site_fract_y
_atom_site_fract_z
Si Si1 0.755437 0.547899 0.856646
Si Si2 0.616490 0.865572 0.375032
Si Si3 0.000000 0.000000 0.257907
Si Si4 0.642664 0.179983 0.129249
O O1 0.500000 0.500000 0.802372
O O2 0.774142 0.692044 0.871836
O O3 0.000000 0.500000 0.794141
O O4 0.752820 0.500000 0.000000
O O5 0.500000 0.808701 0.500000
O O6 0.537697 0.804462 0.246190
O O7 0.500000 0.000000 0.372639
O O8 0.891911 0.898249 0.351756
O O9 0.812986 0.068735 0.167605
O O10 0.500000 0.160522 0.000000
#
# Coordination Sequence:
#
# PCOD9310214 Si02
#       4
#     4   4   2   4
#     4  10  21  39  63  91 121 174 229 273 320 396
#     4   9  21  39  60  91 127 174 219 261 327 412
#     4  10  24  40  66  94 142 176 212 280 348 404
#     4  11  23  39  62  99 131 170 222 275 339 405
#
# _framework density 21.327826000000002
#
# number of rings (size 3 to 8) (size 9 to 14) (size 15 to 20)
#    0.000    2.000    2.857    0.000    4.000   16.571 
#    0.000    0.000    0.000    0.857    0.000    0.000 
#    0.000    0.000    0.000    0.000    0.000    0.000 
#
# Total GULP energy -77985.208384 kJ/mol
# GULP energy per Si atom -5570.372027 kJ/mol
# Density = 2.127928 g / cm^3
# Si number density = 21.327826 Si / 1000 Ang^3
#
#
#
# Elastic Constant Matrix: (Units=GPa)
#
#
# Indices 1 2 3 4 5 6 
#
# 1 136.9880 26.1648 49.5163 0.0000 0.0000 0.0000
# 2 26.1648 75.3474 25.4284 0.0000 0.0000 0.0000
# 3 49.5163 25.4284 153.3022 0.0000 0.0000 0.0000
# 4 0.0000 0.0000 0.0000 -16.1689 0.0000 0.0000
# 5 0.0000 0.0000 0.0000 0.0000 7.4063 0.0000
# 6 0.0000 0.0000 0.0000 0.0000 0.0000 39.1162
#
#
#
# Elastic Compliance Matrix: (Units=1/GPa)
#
#
# Indices 1 2 3 4 5 6 
#
# 1 0.008586 -0.002167 -0.002414 0.000000 0.000000 0.000000
# 2 -0.002167 0.014606 -0.001723 0.000000 0.000000 0.000000
# 3 -0.002414 -0.001723 0.007589 0.000000 0.000000 0.000000
# 4 0.000000 0.000000 0.000000 -0.061847 0.000000 0.000000
# 5 0.000000 0.000000 0.000000 0.000000 0.135021 0.000000
# 6 0.000000 0.000000 0.000000 0.000000 0.000000 0.025565
#
#
# Mechanical properties :
#
#
# Convention : Reuss Voigt Hill
#
# Bulk Modulus (GPa) = 55.02580 63.09516 59.06048
# Shear Modulus (GPa) = 33.74179 23.70591 28.72385
#
# Velocity S-wave (km/s) = 3.98182 3.33754 3.67383
# Velocity P-wave (km/s) = 6.85535 6.67083 6.76372
#
# Compressibility (1/GPa) = 0.01817329
#
# Stress axis : x y z
#
# Youngs Moduli (GPa) = 116.46385 68.46613 131.77812
#
# Poissons Ratio (x) = 0.14837 0.31810
# Poissons Ratio (y) = 0.25238 0.22702
# Poissons Ratio (z) = 0.28114 0.11795
#
# Static dielectric constant tensor:
#      x y z
#    x 2.143410 0.000000 0.000000 
#    y 0.000000 1.862110 0.000000 
#    z 0.000000 0.000000 1.794770 
# 
# From -- ./inp_files/5750.got.cif
#   From: 2010.05.17/outbox.cif.g08.bks.cpg/sg16_3_cif.got.tgz:5750.got - 2010.06.03 22:28:35.
