data_PCOD9310803
_publ_section_title
;
Structure prediction by ZEFSAII (Michael W. Deem and Ramdas Pophale) SiO2 
 PCOD9310803
Probable space group: P 2 2 21
;
_chemical_formula_sum "Si O2"
_cell_formula_units_Z 32
_cell_length_a 14.040266
_cell_length_b 7.348438
_cell_length_c 13.583931
_cell_angle_alpha 90.000000
_cell_angle_beta 90.000000
_cell_angle_gamma 90.000000
_cell_volume 1401.508826
_symmetry_space_group_name_H-M "P 2 2 21"
_symmetry_group_IT_number 17
_symmetry_cell_setting 'orthorhombic'
loop_
_space_group_symop_operation_xyz
x,y,z
-x,-y,1/2+z
x,-y,-z
-x,y,1/2-z
loop_
_atom_site_type_symbol
_atom_site_label
_atom_site_fract_x
_atom_site_fract_y
_atom_site_fract_z
Si Si1 0.602912 0.311485 0.722914
Si Si2 0.595787 0.253054 0.302836
Si Si3 0.329869 0.291426 0.990430
Si Si4 0.890151 0.217715 0.510993
Si Si5 0.898060 0.045253 0.705889
Si Si6 0.212618 0.681870 0.330994
Si Si7 0.899201 0.783111 0.977197
Si Si8 0.801100 0.721614 0.769281
O O1 0.500000 0.236082 0.750000
O O2 0.590358 0.526246 0.700146
O O3 0.646738 0.230273 0.621350
O O4 0.674013 0.298965 0.815922
O O5 0.500000 0.185589 0.250000
O O6 0.618893 0.196804 0.416074
O O7 0.691647 0.218099 0.240923
O O8 0.215357 0.293324 0.004509
O O9 0.361262 0.500000 0.000000
O O10 0.910048 0.207364 0.628031
O O11 0.990917 0.284264 0.468243
O O12 0.880613 0.000000 0.500000
O O13 0.828700 0.137197 0.783134
O O14 0.000000 0.009079 0.750000
O O15 0.855740 0.843032 0.687525
O O16 0.162092 0.682484 0.437590
O O17 0.191645 0.497902 0.267759
O O18 0.846170 0.764901 0.874394
O O19 0.906116 0.000000 0.000000
#
# Coordination Sequence:
#
# PCOD9310803 Si02
#       8
#     4   4   4   4   4   4   4   4
#     4   9  19  37  63  94 127 167 218 271 330 387
#     4   9  20  39  62  93 127 165 216 274 332 386
#     4  10  20  36  61  90 124 164 215 272 324 389
#     4  11  22  38  61  87 125 174 211 264 332 381
#     4  12  22  42  62  90 135 168 210 272 323 380
#     4  11  22  40  66  95 129 173 219 267 320 388
#     4  11  22  42  63  91 135 177 215 265 323 385
#     4  11  24  40  67  94 125 172 220 267 322 387
#
# _framework density 22.832535
#
# number of rings (size 3 to 8) (size 9 to 14) (size 15 to 20)
#    0.000    1.500    3.750    1.875    0.000    2.500 
#    0.000    4.375    0.000    0.000    0.000    0.000 
#    0.000    0.000    0.000    0.000    0.000    0.000 
#
# Total GULP energy -178379.592358 kJ/mol
# GULP energy per Si atom -5574.362261 kJ/mol
# Density = 2.278057 g / cm^3
# Si number density = 22.832535 Si / 1000 Ang^3
#
#
#
# Elastic Constant Matrix: (Units=GPa)
#
#
# Indices 1 2 3 4 5 6 
#
# 1 168.6624 10.9931 54.7329 0.0000 0.0000 0.0000
# 2 10.9931 73.5465 -13.1868 0.0000 0.0000 0.0000
# 3 54.7329 -13.1868 81.5400 0.0000 0.0000 0.0000
# 4 0.0000 0.0000 0.0000 37.5244 0.0000 0.0000
# 5 0.0000 0.0000 0.0000 0.0000 35.5384 0.0000
# 6 0.0000 0.0000 0.0000 0.0000 0.0000 29.0767
#
#
#
# Elastic Compliance Matrix: (Units=1/GPa)
#
#
# Indices 1 2 3 4 5 6 
#
# 1 0.007911 -0.002198 -0.005666 0.000000 0.000000 0.000000
# 2 -0.002198 0.014614 0.003839 0.000000 0.000000 0.000000
# 3 -0.005666 0.003839 0.016688 0.000000 0.000000 0.000000
# 4 0.000000 0.000000 0.000000 0.026649 0.000000 0.000000
# 5 0.000000 0.000000 0.000000 0.000000 0.028139 0.000000
# 6 0.000000 0.000000 0.000000 0.000000 0.000000 0.034392
#
#
# Mechanical properties :
#
#
# Convention : Reuss Voigt Hill
#
# Bulk Modulus (GPa) = 32.08991 47.64747 39.86869
# Shear Modulus (GPa) = 34.05315 38.50854 36.28084
#
# Velocity S-wave (km/s) = 3.86609 4.11124 3.99055
# Velocity P-wave (km/s) = 5.83214 6.59165 6.22349
#
# Compressibility (1/GPa) = 0.03116244
#
# Stress axis : x y z
#
# Youngs Moduli (GPa) = 126.40905 68.42875 59.92436
#
# Poissons Ratio (x) = 0.15043 0.33951
# Poissons Ratio (y) = 0.27788 -0.23005
# Poissons Ratio (z) = 0.71618 -0.26269
#
# Static dielectric constant tensor:
#      x y z
#    x 1.762810 0.000000 0.000000 
#    y 0.000000 1.898000 0.000000 
#    z 0.000000 0.000000 2.066780 
# 
# From -- ./inp_files/8538.got.cif
#   From: 2010.05.17/outbox.cif.g08.bks.cpg/sg17_5_cif.got.tgz:8538.got - 2010.06.03 22:34:06.
