data_PCOD9310296
_publ_section_title
;
Structure prediction by ZEFSAII (Michael W. Deem and Ramdas Pophale) SiO2 
 PCOD9310296
Probable space group: P 2 2 2
;
_chemical_formula_sum "Si O2"
_cell_formula_units_Z 32
_cell_length_a 9.163679
_cell_length_b 15.527911
_cell_length_c 10.545886
_cell_angle_alpha 90.000000
_cell_angle_beta 90.000000
_cell_angle_gamma 90.000000
_cell_volume 1500.603562
_symmetry_space_group_name_H-M "P 2 2 2"
_symmetry_group_IT_number 16
_symmetry_cell_setting 'orthorhombic'
loop_
_space_group_symop_operation_xyz
x,y,z
-x,-y,z
x,-y,-z
-x,y,-z
loop_
_atom_site_type_symbol
_atom_site_label
_atom_site_fract_x
_atom_site_fract_y
_atom_site_fract_z
Si Si1 0.422405 0.230738 0.134349
Si Si2 0.828307 0.292306 0.537846
Si Si3 0.690492 0.214135 0.296101
Si Si4 0.050727 0.257154 0.856718
Si Si5 0.596947 0.570247 0.131182
Si Si6 0.668132 0.018023 0.350670
Si Si7 0.886999 0.423936 0.742436
Si Si8 0.826897 0.144848 0.743873
O O1 0.525193 0.207486 0.251526
O O2 0.390271 0.330114 0.161591
O O3 0.277055 0.175732 0.142216
O O4 0.500000 0.218792 0.000000
O O5 0.731942 0.276169 0.412880
O O6 0.811887 0.380918 0.617659
O O7 0.795894 0.210561 0.627938
O O8 0.000000 0.288393 0.500000
O O9 0.721686 0.115149 0.329715
O O10 0.779395 0.253140 0.176357
O O11 0.977775 0.342902 0.798222
O O12 0.986921 0.172642 0.786710
O O13 0.000000 0.255479 0.000000
O O14 0.500000 0.500000 0.205643
O O15 0.765559 0.543291 0.155352
O O16 0.500000 0.576876 0.000000
O O17 0.500000 0.000000 0.304599
O O18 0.665425 0.000000 0.500000
O O19 0.781197 0.950582 0.290342
O O20 0.000000 0.500000 0.712034
#
# Coordination Sequence:
#
# PCOD9310296 Si02
#       8
#     4   4   4   4   4   4   4   4
#     4  11  23  42  68  95 140 182 221 283 348 414
#     4  11  22  44  65  99 135 174 222 276 347 412
#     4  12  24  41  71 103 131 180 230 284 350 415
#     4  11  25  44  67  98 134 179 234 271 342 418
#     4  10  23  41  67 100 135 175 230 287 333 399
#     4  11  23  39  65 101 132 169 229 284 343 418
#     4  11  25  45  71 100 141 184 226 287 344 414
#     4  11  21  44  65  95 138 170 224 288 340 409
#
# _framework density 21.324755
#
# number of rings (size 3 to 8) (size 9 to 14) (size 15 to 20)
#    0.000    1.000    7.500    0.750    3.500    2.500 
#    0.000    5.000    0.000    0.000    0.000    0.000 
#    0.000    0.000    0.000    0.000    0.000    0.000 
#
# Total GULP energy -178340.675790 kJ/mol
# GULP energy per Si atom -5573.146118 kJ/mol
# Density = 2.127622 g / cm^3
# Si number density = 21.324755 Si / 1000 Ang^3
#
#
#
# Elastic Constant Matrix: (Units=GPa)
#
#
# Indices 1 2 3 4 5 6 
#
# 1 68.1398 20.6401 8.8070 0.0000 0.0000 0.0000
# 2 20.6401 88.6933 20.5038 0.0000 0.0000 0.0000
# 3 8.8070 20.5038 80.2092 0.0000 0.0000 0.0000
# 4 0.0000 0.0000 0.0000-1093.8462 0.0000 0.0000
# 5 0.0000 0.0000 0.0000 0.0000 34.0168 0.0000
# 6 0.0000 0.0000 0.0000 0.0000 0.0000 39.5339
#
#
#
# Elastic Compliance Matrix: (Units=1/GPa)
#
#
# Indices 1 2 3 4 5 6 
#
# 1 0.015843 -0.003491 -0.000847 0.000000 0.000000 0.000000
# 2 -0.003491 0.012752 -0.002877 0.000000 0.000000 0.000000
# 3 -0.000847 -0.002877 0.013296 0.000000 0.000000 0.000000
# 4 0.000000 0.000000 0.000000 -0.000914 0.000000 0.000000
# 5 0.000000 0.000000 0.000000 0.000000 0.029397 0.000000
# 6 0.000000 0.000000 0.000000 0.000000 0.000000 0.025295
#
#
# Mechanical properties :
#
#
# Convention : Reuss Voigt Hill
#
# Bulk Modulus (GPa) = 36.41483 37.43822 36.92653
# Shear Modulus (GPa) = 41.92825 -191.58634 -74.82905
#
# Velocity S-wave (km/s) = 4.43897 -9.48880 -5.93013
# Velocity P-wave (km/s) = 6.58680 10.12202 5.43458
#
# Compressibility (1/GPa) = 0.02746134
#
# Stress axis : x y z
#
# Youngs Moduli (GPa) = 63.12080 78.41796 75.21204
#
# Poissons Ratio (x) = 0.27375 0.06372
# Poissons Ratio (y) = 0.22035 0.21635
# Poissons Ratio (z) = 0.05347 0.22557
#
# Static dielectric constant tensor:
#      x y z
#    x 3.256030 0.000000 0.000000 
#    y 0.000000 1.766760 0.000000 
#    z 0.000000 0.000000 1.796650 
# 
# From -- ./inp_files/6641.got.cif
#   From: 2010.05.17/outbox.cif.g08.bks.cpg/sg16_4_cif.got.tgz:6641.got - 2010.06.03 22:28:35.
