data_PCOD9311728
_publ_section_title
;
Structure prediction by ZEFSAII (Michael W. Deem and Ramdas Pophale) SiO2 
 PCOD9311728
Probable space group: P 21 21 2
;
_chemical_formula_sum "Si O2"
_cell_formula_units_Z 20
_cell_length_a 13.088693
_cell_length_b 5.442881
_cell_length_c 10.917322
_cell_angle_alpha 90.000000
_cell_angle_beta 90.000000
_cell_angle_gamma 90.000000
_cell_volume 777.752186
_symmetry_space_group_name_H-M "P 21 21 2"
_symmetry_group_IT_number 18
_symmetry_cell_setting 'orthorhombic'
loop_
_space_group_symop_operation_xyz
x,y,z
-x,-y,z
1/2+x,1/2-y,-z
1/2-x,1/2+y,-z
loop_
_atom_site_type_symbol
_atom_site_label
_atom_site_fract_x
_atom_site_fract_y
_atom_site_fract_z
Si Si1 0.183722 0.366973 0.002545
Si Si2 0.877465 0.024097 0.371902
Si Si3 0.110415 0.269499 0.740611
Si Si4 0.117728 0.477698 0.268502
Si Si5 0.123331 0.773008 0.644365
O O1 0.113299 0.341857 0.882514
O O2 0.248616 0.618671 0.989911
O O3 0.123315 0.389442 0.129188
O O4 0.843555 0.243028 0.281523
O O5 0.863158 0.130173 0.507605
O O6 0.838660 0.746227 0.350384
O O7 0.000000 0.000000 0.354255
O O8 0.159549 0.495547 0.666150
O O9 0.997272 0.247314 0.682395
O O10 0.159080 0.998417 0.729535
O O11 0.000000 0.500000 0.308610
#
# Coordination Sequence:
#
# PCOD9311728 Si02
#       5
#     4   4   4   4   4
#     4  12  26  46  64  88 136 180 214 263 322 385
#     4  10  18  35  61  99 128 153 192 273 326 371
#     4  10  21  35  62  91 125 161 213 253 322 375
#     4  10  23  38  65  97 124 165 217 262 319 376
#     4  10  19  35  64  99 123 149 208 273 318 365
#
# _framework density 25.715132000000001
#
# number of rings (size 3 to 8) (size 9 to 14) (size 15 to 20)
#    0.000    1.600    2.000    3.600    8.400    0.000 
#    7.200    0.000    0.000   24.000    0.000    0.000 
#    0.000    0.000    0.000    0.000    0.000    0.000 
#
# Total GULP energy -111962.109968 kJ/mol
# GULP energy per Si atom -5598.105498 kJ/mol
# Density = 2.565660 g / cm^3
# Si number density = 25.715132 Si / 1000 Ang^3
#
#
#
# Elastic Constant Matrix: (Units=GPa)
#
#
# Indices 1 2 3 4 5 6 
#
# 1 53.4878 40.2903 -11.9126 0.0000 0.0000 0.0000
# 2 40.2903 261.6805 63.0383 0.0000 0.0000 0.0000
# 3 -11.9126 63.0383 156.3705 0.0000 0.0000 0.0000
# 4 0.0000 0.0000 0.0000 55.8617 0.0000 0.0000
# 5 0.0000 0.0000 0.0000 0.0000 25.9437 0.0000
# 6 0.0000 0.0000 0.0000 0.0000 0.0000 43.5999
#
#
#
# Elastic Compliance Matrix: (Units=1/GPa)
#
#
# Indices 1 2 3 4 5 6 
#
# 1 0.022741 -0.004340 0.003482 0.000000 0.000000 0.000000
# 2 -0.004340 0.005061 -0.002371 0.000000 0.000000 0.000000
# 3 0.003482 -0.002371 0.007616 0.000000 0.000000 0.000000
# 4 0.000000 0.000000 0.000000 0.017901 0.000000 0.000000
# 5 0.000000 0.000000 0.000000 0.000000 0.038545 0.000000
# 6 0.000000 0.000000 0.000000 0.000000 0.000000 0.022936
#
#
# Mechanical properties :
#
#
# Convention : Reuss Voigt Hill
#
# Bulk Modulus (GPa) = 34.53068 72.70787 53.61927
# Shear Modulus (GPa) = 38.19394 50.42257 44.30825
#
# Velocity S-wave (km/s) = 3.85810 4.43291 4.15546
# Velocity P-wave (km/s) = 5.77095 7.38489 6.62724
#
# Compressibility (1/GPa) = 0.02895975
#
# Stress axis : x y z
#
# Youngs Moduli (GPa) = 43.97418 197.59626 131.30074
#
# Poissons Ratio (x) = 0.85760 -0.45720
# Poissons Ratio (y) = 0.19085 0.31129
# Poissons Ratio (z) = -0.15312 0.46847
#
# Static dielectric constant tensor:
#      x y z
#    x 2.762660 0.000000 0.000000 
#    y 0.000000 2.103170 0.000000 
#    z 0.000000 0.000000 1.924230 
# 
# From -- ./inp_files/4420.got.cif
#   From: 2010.05.17/outbox.cif.g08.bks.cpg/sg18_3_cif.got.tgz:4420.got - 2010.06.03 22:40:56.
