data_PCOD9311975
_publ_section_title
;
Structure prediction by ZEFSAII (Michael W. Deem and Ramdas Pophale) SiO2 
 PCOD9311975
Probable space group: P 21 21 2
;
_chemical_formula_sum "Si O2"
_cell_formula_units_Z 26
_cell_length_a 9.443297
_cell_length_b 13.497007
_cell_length_c 10.895905
_cell_angle_alpha 90.000000
_cell_angle_beta 90.000000
_cell_angle_gamma 90.000000
_cell_volume 1388.751145
_symmetry_space_group_name_H-M "P 21 21 2"
_symmetry_group_IT_number 18
_symmetry_cell_setting 'orthorhombic'
loop_
_space_group_symop_operation_xyz
x,y,z
-x,-y,z
1/2+x,1/2-y,-z
1/2-x,1/2+y,-z
loop_
_atom_site_type_symbol
_atom_site_label
_atom_site_fract_x
_atom_site_fract_y
_atom_site_fract_z
Si Si1 0.705862 0.483133 0.753474
Si Si2 0.159313 0.087856 0.661208
Si Si3 0.791007 0.758767 0.343235
Si Si4 0.577612 0.822665 0.538987
Si Si5 0.000000 0.000000 0.024617
Si Si6 0.897902 0.119464 0.799174
Si Si7 0.500000 0.000000 0.352841
Si Si8 0.500000 0.500000 0.563508
O O1 0.698029 0.371052 0.702920
O O2 0.632480 0.482219 0.885136
O O3 0.865430 0.516506 0.734241
O O4 0.611298 0.547555 0.658039
O O5 0.313406 0.130703 0.638084
O O6 0.044024 0.153148 0.732867
O O7 0.154182 0.982679 0.732400
O O8 0.090398 0.067164 0.528386
O O9 0.676255 0.752052 0.454475
O O10 0.724992 0.696222 0.230747
O O11 0.940651 0.721188 0.394602
O O12 0.527678 0.908045 0.444055
O O13 0.052920 0.912235 0.934532
#
# Coordination Sequence:
#
# PCOD9311975 Si02
#       8
#     4   4   4   4   2   4   2   2
#     4  10  21  36  57  80 111 149 196 231 282 332
#     4   9  17  33  56  81 111 152 180 212 277 363
#     4  11  22  32  53  89 119 142 180 236 293 332
#     4  11  21  33  53  88 127 145 170 227 294 357
#     4   9  21  44  60  68 101 165 202 222 280 335
#     4   9  20  37  60  77 107 147 198 233 271 334
#     4  10  20  34  52  86 112 148 186 226 274 358
#     4   9  15  32  54  76 109 149 182 208 278 343
#
# _framework density 18.721857
#
# number of rings (size 3 to 8) (size 9 to 14) (size 15 to 20)
#    0.000    2.462    3.077    1.846    4.308    1.231 
#    0.000    9.231    0.000    0.000    0.000    0.000 
#    0.000    0.000    0.000    0.000    0.000    0.000 
#
# Total GULP energy -144838.628300 kJ/mol
# GULP energy per Si atom -5570.716473 kJ/mol
# Density = 1.867925 g / cm^3
# Si number density = 18.721857 Si / 1000 Ang^3
#
#
#
# Elastic Constant Matrix: (Units=GPa)
#
#
# Indices 1 2 3 4 5 6 
#
# 1 167.0233 29.3648 58.3081 0.0000 0.0000 0.0000
# 2 29.3648 30.5338 13.1338 0.0000 0.0000 0.0000
# 3 58.3081 13.1338 116.2144 0.0000 0.0000 0.0000
# 4 0.0000 0.0000 0.0000 7.5600 0.0000 0.0000
# 5 0.0000 0.0000 0.0000 0.0000 32.2602 0.0000
# 6 0.0000 0.0000 0.0000 0.0000 0.0000 33.8206
#
#
#
# Elastic Compliance Matrix: (Units=1/GPa)
#
#
# Indices 1 2 3 4 5 6 
#
# 1 0.008339 -0.006538 -0.003445 0.000000 0.000000 0.000000
# 2 -0.006538 0.039550 -0.001189 0.000000 0.000000 0.000000
# 3 -0.003445 -0.001189 0.010468 0.000000 0.000000 0.000000
# 4 0.000000 0.000000 0.000000 0.132276 0.000000 0.000000
# 5 0.000000 0.000000 0.000000 0.000000 0.030998 0.000000
# 6 0.000000 0.000000 0.000000 0.000000 0.000000 0.029568
#
#
# Mechanical properties :
#
#
# Convention : Reuss Voigt Hill
#
# Bulk Modulus (GPa) = 27.76870 57.26499 42.51685
# Shear Modulus (GPa) = 17.51018 28.92580 23.21799
#
# Velocity S-wave (km/s) = 3.06155 3.93495 3.52540
# Velocity P-wave (km/s) = 5.23086 7.16231 6.27139
#
# Compressibility (1/GPa) = 0.03601177
#
# Stress axis : x y z
#
# Youngs Moduli (GPa) = 119.91241 25.28446 95.53146
#
# Poissons Ratio (x) = 0.16531 0.32913
# Poissons Ratio (y) = 0.78401 0.11361
# Poissons Ratio (z) = 0.41313 0.03007
#
# Static dielectric constant tensor:
#      x y z
#    x 1.698180 0.000000 0.000000 
#    y 0.000000 1.709230 0.000000 
#    z 0.000000 0.000000 1.647580 
# 
# From -- ./inp_files/5616.got.cif
#   From: 2010.05.17/outbox.cif.g08.bks.cpg/sg18_3_cif.got.tgz:5616.got - 2010.06.03 22:40:56.
