data_PCOD9311817
_publ_section_title
;
Structure prediction by ZEFSAII (Michael W. Deem and Ramdas Pophale) SiO2 
 PCOD9311817
Probable space group: P 21 21 2
;
_chemical_formula_sum "Si O2"
_cell_formula_units_Z 24
_cell_length_a 12.582281
_cell_length_b 7.998633
_cell_length_c 8.957610
_cell_angle_alpha 90.000000
_cell_angle_beta 90.000000
_cell_angle_gamma 90.000000
_cell_volume 901.503258
_symmetry_space_group_name_H-M "P 21 21 2"
_symmetry_group_IT_number 18
_symmetry_cell_setting 'orthorhombic'
loop_
_space_group_symop_operation_xyz
x,y,z
-x,-y,z
1/2+x,1/2-y,-z
1/2-x,1/2+y,-z
loop_
_atom_site_type_symbol
_atom_site_label
_atom_site_fract_x
_atom_site_fract_y
_atom_site_fract_z
Si Si1 0.635694 0.099966 0.759072
Si Si2 0.815816 0.301606 0.058843
Si Si3 0.590841 0.275915 0.230379
Si Si4 0.347361 0.024815 0.424325
Si Si5 0.680467 0.452203 0.810160
Si Si6 0.378356 0.371134 0.293361
O O1 0.628853 0.044886 0.587620
O O2 0.604105 0.290096 0.796154
O O3 0.763671 0.114108 0.780814
O O4 0.610733 0.938144 0.857037
O O5 0.692535 0.284146 0.124000
O O6 0.857558 0.118065 0.105838
O O7 0.785301 0.395320 0.905378
O O8 0.592954 0.103861 0.316691
O O9 0.470953 0.313319 0.177875
O O10 0.603377 0.436825 0.340317
O O11 0.227527 0.011249 0.355780
O O12 0.373817 0.221291 0.411802
#
# Coordination Sequence:
#
# PCOD9311817 Si02
#       6
#     4   4   4   4   4   4
#     4  10  21  33  53  88 114 145 190 239 286 335
#     4  10  19  34  53  80 113 146 188 237 286 337
#     4   9  19  34  54  81 108 150 193 228 283 340
#     4  10  21  32  56  86 114 144 191 240 285 339
#     4  10  20  32  52  82 113 144 181 236 288 329
#     4   9  19  33  52  81 110 148 186 238 274 338
#
# _framework density 26.622202000000001
#
# number of rings (size 3 to 8) (size 9 to 14) (size 15 to 20)
#    0.000    2.333    1.667    0.500   14.000    0.000 
#    0.000    0.000    0.000    0.000   34.667    0.000 
#    0.000    0.000    0.000    0.000    0.000    0.000 
#
# Total GULP energy -133690.773989 kJ/mol
# GULP energy per Si atom -5570.448916 kJ/mol
# Density = 2.656161 g / cm^3
# Si number density = 26.622202 Si / 1000 Ang^3
#
#
#
# Elastic Constant Matrix: (Units=GPa)
#
#
# Indices 1 2 3 4 5 6 
#
# 1 61.1897 20.2310 -14.2341 0.0000 0.0000 0.0000
# 2 20.2310 264.5887 43.4953 0.0000 0.0000 0.0000
# 3 -14.2341 43.4953 97.7079 0.0000 0.0000 0.0000
# 4 0.0000 0.0000 0.0000 31.9273 0.0000 0.0000
# 5 0.0000 0.0000 0.0000 0.0000 -5.8508 0.0000
# 6 0.0000 0.0000 0.0000 0.0000 0.0000 29.2515
#
#
#
# Elastic Compliance Matrix: (Units=1/GPa)
#
#
# Indices 1 2 3 4 5 6 
#
# 1 0.017782 -0.001926 0.003448 0.000000 0.000000 0.000000
# 2 -0.001926 0.004287 -0.002189 0.000000 0.000000 0.000000
# 3 0.003448 -0.002189 0.011711 0.000000 0.000000 0.000000
# 4 0.000000 0.000000 0.000000 0.031321 0.000000 0.000000
# 5 0.000000 0.000000 0.000000 0.000000 -0.170916 0.000000
# 6 0.000000 0.000000 0.000000 0.000000 0.000000 0.034186
#
#
# Mechanical properties :
#
#
# Convention : Reuss Voigt Hill
#
# Bulk Modulus (GPa) = 30.82143 58.05229 44.43686
# Shear Modulus (GPa) = -84.06206 35.99852 -24.03177
#
# Velocity S-wave (km/s) = -5.62534 3.68122 -3.00775
# Velocity P-wave (km/s) = 5.53084 6.31837 2.16005
#
# Compressibility (1/GPa) = 0.03244496
#
# Stress axis : x y z
#
# Youngs Moduli (GPa) = 56.23774 233.28674 85.38781
#
# Poissons Ratio (x) = 0.44941 -0.29442
# Poissons Ratio (y) = 0.10834 0.18690
# Poissons Ratio (z) = -0.19391 0.51063
#
# Static dielectric constant tensor:
#      x y z
#    x 2.205730 0.000000 0.000000 
#    y 0.000000 2.231180 0.000000 
#    z 0.000000 0.000000 2.190820 
# 
# From -- ./inp_files/3286.got.cif
#   From: 2010.05.17/outbox.cif.g08.bks.cpg/sg18_2_cif.got.tgz:3286.got - 2010.06.03 22:40:56.
