data_PCOD9311581
_publ_section_title
;
Structure prediction by ZEFSAII (Michael W. Deem and Ramdas Pophale) SiO2 
 PCOD9311581
Probable space group: P 2 2 21
;
_chemical_formula_sum "Si O2"
_cell_formula_units_Z 20
_cell_length_a 12.233617
_cell_length_b 9.504639
_cell_length_c 7.990330
_cell_angle_alpha 90.000000
_cell_angle_beta 90.000000
_cell_angle_gamma 90.000000
_cell_volume 929.084516
_symmetry_space_group_name_H-M "P 2 2 21"
_symmetry_group_IT_number 17
_symmetry_cell_setting 'orthorhombic'
loop_
_space_group_symop_operation_xyz
x,y,z
-x,-y,1/2+z
x,-y,-z
-x,y,1/2-z
loop_
_atom_site_type_symbol
_atom_site_label
_atom_site_fract_x
_atom_site_fract_y
_atom_site_fract_z
Si Si1 0.162576 0.864162 0.590760
Si Si2 0.666381 0.660234 0.052706
Si Si3 0.729972 0.345466 0.563597
Si Si4 0.060411 0.766736 0.902592
Si Si5 0.534700 0.160941 0.443220
O O1 0.245039 0.735683 0.566989
O O2 0.128346 0.877366 0.785845
O O3 0.044238 0.832179 0.506282
O O4 0.210928 0.000000 0.500000
O O5 0.713248 0.664221 0.239042
O O6 0.646644 0.500000 0.000000
O O7 0.555648 0.749392 0.043022
O O8 0.698546 0.500000 0.500000
O O9 0.854468 0.314926 0.512453
O O10 0.650768 0.232976 0.476196
O O11 0.000000 0.680647 0.750000
O O12 0.500000 0.169111 0.250000
O O13 0.535393 0.000000 0.500000
#
# Coordination Sequence:
#
# PCOD9311581 Si02
#       5
#     4   4   4   4   4
#     4   9  20  40  64  91 130 171 223 278 333 395
#     4  12  25  42  68  99 137 178 228 275 343 399
#     4  12  25  44  68  97 135 181 224 282 337 404
#     4   8  22  41  62  94 136 168 231 270 343 387
#     4  12  26  46  71 101 138 175 226 278 338 408
#
# _framework density 21.526565999999999
#
# number of rings (size 3 to 8) (size 9 to 14) (size 15 to 20)
#    1.200    0.000    0.000    6.600    0.000    7.200 
#    0.000    0.000    0.000    0.000    0.000    0.000 
#    0.000    0.000    0.000    0.000    0.000    0.000 
#
# Total GULP energy -111672.477613 kJ/mol
# GULP energy per Si atom -5583.623881 kJ/mol
# Density = 2.147757 g / cm^3
# Si number density = 21.526566 Si / 1000 Ang^3
#
#
#
# Elastic Constant Matrix: (Units=GPa)
#
#
# Indices 1 2 3 4 5 6 
#
# 1 104.7450 43.2687 7.6562 0.0000 0.0000 0.0000
# 2 43.2687 137.3075 0.4183 0.0000 0.0000 0.0000
# 3 7.6562 0.4183 63.0774 0.0000 0.0000 0.0000
# 4 0.0000 0.0000 0.0000 21.4524 0.0000 0.0000
# 5 0.0000 0.0000 0.0000 0.0000 32.9141 0.0000
# 6 0.0000 0.0000 0.0000 0.0000 0.0000 46.3499
#
#
#
# Elastic Compliance Matrix: (Units=1/GPa)
#
#
# Indices 1 2 3 4 5 6 
#
# 1 0.011085 -0.003489 -0.001322 0.000000 0.000000 0.000000
# 2 -0.003489 0.008381 0.000368 0.000000 0.000000 0.000000
# 3 -0.001322 0.000368 0.016012 0.000000 0.000000 0.000000
# 4 0.000000 0.000000 0.000000 0.046615 0.000000 0.000000
# 5 0.000000 0.000000 0.000000 0.000000 0.030382 0.000000
# 6 0.000000 0.000000 0.000000 0.000000 0.000000 0.021575
#
#
# Mechanical properties :
#
#
# Convention : Reuss Voigt Hill
#
# Bulk Modulus (GPa) = 37.60695 45.31293 41.45994
# Shear Modulus (GPa) = 32.93801 37.06241 35.00021
#
# Velocity S-wave (km/s) = 3.91591 4.15385 4.03663
# Velocity P-wave (km/s) = 6.16066 6.64089 6.40527
#
# Compressibility (1/GPa) = 0.02659083
#
# Stress axis : x y z
#
# Youngs Moduli (GPa) = 90.21245 119.31332 62.45477
#
# Poissons Ratio (x) = 0.41629 0.08259
# Poissons Ratio (y) = 0.31476 -0.02298
# Poissons Ratio (z) = 0.11929 -0.04390
#
# Static dielectric constant tensor:
#      x y z
#    x 1.790320 0.000000 0.000000 
#    y 0.000000 1.765220 0.000000 
#    z 0.000000 0.000000 1.794000 
# 
# From -- ./inp_files/4622.got.cif
#   From: 2010.05.17/outbox.cif.g08.bks.cpg/sg17_3_cif.got.tgz:4622.got - 2010.06.03 22:34:06.
