data_PCOD9311852
_publ_section_title
;
Structure prediction by ZEFSAII (Michael W. Deem and Ramdas Pophale) SiO2 
 PCOD9311852
Probable space group: P 21 21 2
;
_chemical_formula_sum "Si O2"
_cell_formula_units_Z 30
_cell_length_a 11.281089
_cell_length_b 8.344767
_cell_length_c 16.788561
_cell_angle_alpha 90.000000
_cell_angle_beta 90.000000
_cell_angle_gamma 90.000000
_cell_volume 1580.442549
_symmetry_space_group_name_H-M "P 21 21 2"
_symmetry_group_IT_number 18
_symmetry_cell_setting 'orthorhombic'
loop_
_space_group_symop_operation_xyz
x,y,z
-x,-y,z
1/2+x,1/2-y,-z
1/2-x,1/2+y,-z
loop_
_atom_site_type_symbol
_atom_site_label
_atom_site_fract_x
_atom_site_fract_y
_atom_site_fract_z
Si Si1 0.276233 0.823710 0.221898
Si Si2 0.366109 0.464010 0.221441
Si Si3 0.500000 0.000000 0.148618
Si Si4 0.320603 0.243705 0.078721
Si Si5 0.780696 0.696441 0.607998
Si Si6 0.540436 0.667216 0.387763
Si Si7 0.869441 0.430255 0.492107
Si Si8 0.137165 0.962969 0.074217
O O1 0.299119 0.632883 0.224763
O O2 0.231668 0.873577 0.309528
O O3 0.188694 0.871998 0.151276
O O4 0.399409 0.914271 0.201251
O O5 0.500000 0.500000 0.191041
O O6 0.305600 0.345906 0.159296
O O7 0.389390 0.382276 0.307722
O O8 0.434451 0.131433 0.095012
O O9 0.210619 0.126768 0.065506
O O10 0.340369 0.357372 0.004017
O O11 0.796398 0.568874 0.537122
O O12 0.704383 0.847463 0.578204
O O13 0.915001 0.748258 0.630463
O O14 0.500000 0.500000 0.428039
O O15 0.608441 0.789068 0.443787
O O16 0.000000 0.500000 0.470009
O O17 0.000000 0.000000 0.083011
#
# Coordination Sequence:
#
# PCOD9311852 Si02
#       8
#     4   4   2   4   4   4   4   4
#     4  11  23  40  66  96 129 171 210 269 323 378
#     4  11  19  36  65 100 124 151 212 271 320 361
#     4  10  22  36  68 102 120 162 220 270 326 364
#     4  11  23  40  68  90 128 167 207 264 315 374
#     4  11  21  38  62  89 130 164 213 259 324 380
#     4  10  19  35  63  96 122 154 207 273 314 370
#     4  10  24  38  60  93 130 167 213 264 323 390
#     4  11  27  44  61  95 134 169 215 254 320 387
#
# _framework density 18.982026000000001
#
# number of rings (size 3 to 8) (size 9 to 14) (size 15 to 20)
#    0.000    1.333    4.000    2.000   10.267    0.000 
#    0.000    4.667    0.000    0.000    0.000    0.000 
#    0.000    0.000    0.000    0.000    0.000    0.000 
#
# Total GULP energy -167545.927774 kJ/mol
# GULP energy per Si atom -5584.864259 kJ/mol
# Density = 1.893882 g / cm^3
# Si number density = 18.982026 Si / 1000 Ang^3
#
#
#
# Elastic Constant Matrix: (Units=GPa)
#
#
# Indices 1 2 3 4 5 6 
#
# 1 93.7936 50.1340 68.8863 0.0000 0.0000 0.0000
# 2 50.1340 90.2063 44.6083 0.0000 0.0000 0.0000
# 3 68.8863 44.6083 101.2238 0.0000 0.0000 0.0000
# 4 0.0000 0.0000 0.0000 38.7387 0.0000 0.0000
# 5 0.0000 0.0000 0.0000 0.0000 34.9923 0.0000
# 6 0.0000 0.0000 0.0000 0.0000 0.0000 29.9129
#
#
#
# Elastic Compliance Matrix: (Units=1/GPa)
#
#
# Indices 1 2 3 4 5 6 
#
# 1 0.024172 -0.006776 -0.013464 0.000000 0.000000 0.000000
# 2 -0.006776 0.016074 -0.002472 0.000000 0.000000 0.000000
# 3 -0.013464 -0.002472 0.020131 0.000000 0.000000 0.000000
# 4 0.000000 0.000000 0.000000 0.025814 0.000000 0.000000
# 5 0.000000 0.000000 0.000000 0.000000 0.028578 0.000000
# 6 0.000000 0.000000 0.000000 0.000000 0.000000 0.033430
#
#
# Mechanical properties :
#
#
# Convention : Reuss Voigt Hill
#
# Bulk Modulus (GPa) = 66.87604 68.05342 67.46473
# Shear Modulus (GPa) = 25.17520 28.83513 27.00517
#
# Velocity S-wave (km/s) = 3.64574 3.90176 3.77592
# Velocity P-wave (km/s) = 7.28215 7.49851 7.39112
#
# Compressibility (1/GPa) = 0.01495304
#
# Stress axis : x y z
#
# Youngs Moduli (GPa) = 41.37030 62.21115 49.67422
#
# Poissons Ratio (x) = 0.42155 0.66880
# Poissons Ratio (y) = 0.28033 0.12282
# Poissons Ratio (z) = 0.55700 0.15381
#
# Static dielectric constant tensor:
#      x y z
#    x 1.649280 0.000000 0.000000 
#    y 0.000000 1.671560 0.000000 
#    z 0.000000 0.000000 1.679530 
# 
# From -- ./inp_files/6746.got.cif
#   From: 2010.05.17/outbox.cif.g08.bks.cpg/sg18_4_cif.got.tgz:6746.got - 2010.06.03 22:40:56.
