data_PCOD9311560
_publ_section_title
;
Structure prediction by ZEFSAII (Michael W. Deem and Ramdas Pophale) SiO2 
 PCOD9311560
Probable space group: P 2 2 21
;
_chemical_formula_sum "Si O2"
_cell_formula_units_Z 12
_cell_length_a 6.838275
_cell_length_b 8.766742
_cell_length_c 7.009364
_cell_angle_alpha 90.000000
_cell_angle_beta 90.000000
_cell_angle_gamma 90.000000
_cell_volume 420.207115
_symmetry_space_group_name_H-M "P 2 2 21"
_symmetry_group_IT_number 17
_symmetry_cell_setting 'orthorhombic'
loop_
_space_group_symop_operation_xyz
x,y,z
-x,-y,1/2+z
x,-y,-z
-x,y,1/2-z
loop_
_atom_site_type_symbol
_atom_site_label
_atom_site_fract_x
_atom_site_fract_y
_atom_site_fract_z
Si Si1 0.378613 0.665691 0.103348
Si Si2 0.689132 0.000000 0.500000
Si Si3 0.000000 0.113641 0.250000
Si Si4 0.121152 0.666369 0.404724
O O1 0.398303 0.831636 0.997860
O O2 0.372402 0.500000 0.000000
O O3 0.628892 0.666813 0.151682
O O4 0.127412 0.674960 0.155891
O O5 0.827738 0.004031 0.316986
O O6 0.906425 0.212463 0.079847
O O7 0.118107 0.500000 0.500000
#
# Coordination Sequence:
#
# PCOD9311560 Si02
#       4
#     4   2   2   4
#     4  12  28  50  73 109 154 203 253 312 376 452
#     4  12  26  46  76 110 154 198 250 310 382 442
#     4  12  24  44  74 114 158 186 252 320 368 446
#     4  12  22  43  75 111 150 198 252 308 373 441
#
# _framework density 28.557348000000001
#
# number of rings (size 3 to 8) (size 9 to 14) (size 15 to 20)
#    0.000    0.000    5.000    6.000    0.000    4.000 
#    0.000    0.000    0.000    0.000    0.000    0.000 
#    0.000    0.000    0.000    0.000    0.000    0.000 
#
# Total GULP energy -67041.002159 kJ/mol
# GULP energy per Si atom -5586.750180 kJ/mol
# Density = 2.849235 g / cm^3
# Si number density = 28.557348 Si / 1000 Ang^3
#
#
#
# Elastic Constant Matrix: (Units=GPa)
#
#
# Indices 1 2 3 4 5 6 
#
# 1 257.0184 68.5267 78.3703 0.0000 0.0000 0.0000
# 2 68.5267 285.1814 93.9595 0.0000 0.0000 0.0000
# 3 78.3703 93.9595 146.2076 0.0000 0.0000 0.0000
# 4 0.0000 0.0000 0.0000 56.2367 0.0000 0.0000
# 5 0.0000 0.0000 0.0000 0.0000 98.8296 0.0000
# 6 0.0000 0.0000 0.0000 0.0000 0.0000 -82.5049
#
#
#
# Elastic Compliance Matrix: (Units=1/GPa)
#
#
# Indices 1 2 3 4 5 6 
#
# 1 0.004683 -0.000378 -0.002267 0.000000 0.000000 0.000000
# 2 -0.000378 0.004479 -0.002676 0.000000 0.000000 0.000000
# 3 -0.002267 -0.002676 0.009774 0.000000 0.000000 0.000000
# 4 0.000000 0.000000 0.000000 0.017782 0.000000 0.000000
# 5 0.000000 0.000000 0.000000 0.000000 0.010118 0.000000
# 6 0.000000 0.000000 0.000000 0.000000 0.000000 -0.012120
#
#
# Mechanical properties :
#
#
# Convention : Reuss Voigt Hill
#
# Bulk Modulus (GPa) = 120.56584 130.01339 125.28961
# Shear Modulus (GPa) = 103.90126 44.34899 74.12513
#
# Velocity S-wave (km/s) = 6.03841 3.94506 5.10029
# Velocity P-wave (km/s) = 9.53556 8.14723 8.86860
#
# Compressibility (1/GPa) = 0.00829422
#
# Stress axis : x y z
#
# Youngs Moduli (GPa) = 213.54282 223.26463 102.31021
#
# Poissons Ratio (x) = 0.08447 0.23194
# Poissons Ratio (y) = 0.08079 0.27374
# Poissons Ratio (z) = 0.48410 0.59737
#
# Static dielectric constant tensor:
#      x y z
#    x 2.543060 0.000000 0.000000 
#    y 0.000000 1.967030 0.000000 
#    z 0.000000 0.000000 2.195540 
# 
# From -- ./inp_files/5637.got.cif
#   From: 2010.05.17/outbox.cif.g08.bks.cpg/sg17_3_cif.got.tgz:5637.got - 2010.06.03 22:34:06.
