data_PCOD9311179
_publ_section_title
;
Structure prediction by ZEFSAII (Michael W. Deem and Ramdas Pophale) SiO2 
 PCOD9311179
Probable space group: P 2 2 21
;
_chemical_formula_sum "Si O2"
_cell_formula_units_Z 26
_cell_length_a 5.109534
_cell_length_b 8.698181
_cell_length_c 25.437458
_cell_angle_alpha 90.000000
_cell_angle_beta 90.000000
_cell_angle_gamma 90.000000
_cell_volume 1130.533520
_symmetry_space_group_name_H-M "P 2 2 21"
_symmetry_group_IT_number 17
_symmetry_cell_setting 'orthorhombic'
loop_
_space_group_symop_operation_xyz
x,y,z
-x,-y,1/2+z
x,-y,-z
-x,y,1/2-z
loop_
_atom_site_type_symbol
_atom_site_label
_atom_site_fract_x
_atom_site_fract_y
_atom_site_fract_z
Si Si1 0.720365 0.971700 0.892791
Si Si2 0.000000 0.306726 0.250000
Si Si3 0.000000 0.822716 0.250000
Si Si4 0.259128 0.668506 0.404535
Si Si5 0.686042 0.549050 0.201772
Si Si6 0.777558 0.924216 0.673989
Si Si7 0.752996 0.658584 0.468633
Si Si8 0.409815 0.000000 0.000000
O O1 0.722929 0.155072 0.887946
O O2 0.502818 0.914629 0.852131
O O3 0.001242 0.911277 0.872198
O O4 0.599653 0.951208 0.951257
O O5 0.099801 0.417434 0.295400
O O6 0.201026 0.199293 0.220113
O O7 0.806515 0.710976 0.219229
O O8 0.845730 0.921395 0.293391
O O9 0.386059 0.567467 0.358319
O O10 0.448695 0.645778 0.453618
O O11 0.957995 0.646755 0.420357
O O12 0.500000 0.508046 0.250000
O O13 0.813991 0.500000 0.500000
O O14 0.759465 0.841752 0.487963
#
# Coordination Sequence:
#
# PCOD9311179 Si02
#       8
#     4   2   2   4   4   4   4   2
#     4  11  23  42  70  98 133 180 228 293 345 417
#     4  10  28  40  62 102 142 176 230 284 354 424
#     4  10  22  38  64  96 120 176 224 278 330 408
#     4  11  24  44  74 102 136 183 243 284 354 427
#     4  11  24  41  67  94 139 182 226 286 343 415
#     4  11  24  42  66  97 134 175 228 280 346 412
#     4  11  26  47  72 107 143 187 236 301 356 423
#     4  10  26  44  74 104 144 180 246 290 358 420
#
# _framework density 22.997992
#
# number of rings (size 3 to 8) (size 9 to 14) (size 15 to 20)
#    0.000    1.231    1.538    3.231    6.462    9.231 
#    0.000    0.000    0.000    0.000    0.000    0.000 
#    0.000    0.000    0.000    0.000    0.000    0.000 
#
# Total GULP energy -144991.375816 kJ/mol
# GULP energy per Si atom -5576.591378 kJ/mol
# Density = 2.294565 g / cm^3
# Si number density = 22.997992 Si / 1000 Ang^3
#
#
#
# Elastic Constant Matrix: (Units=GPa)
#
#
# Indices 1 2 3 4 5 6 
#
# 1 61.9182 12.8259 -3.1880 0.0000 0.0000 0.0000
# 2 12.8259 93.3267 33.1813 0.0000 0.0000 0.0000
# 3 -3.1880 33.1813 76.7024 0.0000 0.0000 0.0000
# 4 0.0000 0.0000 0.0000 49.4691 0.0000 0.0000
# 5 0.0000 0.0000 0.0000 0.0000 40.5632 0.0000
# 6 0.0000 0.0000 0.0000 0.0000 0.0000 -71.5435
#
#
#
# Elastic Compliance Matrix: (Units=1/GPa)
#
#
# Indices 1 2 3 4 5 6 
#
# 1 0.016883 -0.003037 0.002015 0.000000 0.000000 0.000000
# 2 -0.003037 0.013209 -0.005840 0.000000 0.000000 0.000000
# 3 0.002015 -0.005840 0.015648 0.000000 0.000000 0.000000
# 4 0.000000 0.000000 0.000000 0.020215 0.000000 0.000000
# 5 0.000000 0.000000 0.000000 0.000000 0.024653 0.000000
# 6 0.000000 0.000000 0.000000 0.000000 0.000000 -0.013978
#
#
# Mechanical properties :
#
#
# Convention : Reuss Voigt Hill
#
# Bulk Modulus (GPa) = 31.23414 35.28731 33.26073
# Shear Modulus (GPa) = 49.49254 16.30630 32.89942
#
# Velocity S-wave (km/s) = 4.64404 2.66565 3.78634
# Velocity P-wave (km/s) = 6.50898 4.98510 5.79733
#
# Compressibility (1/GPa) = 0.03201625
#
# Stress axis : x y z
#
# Youngs Moduli (GPa) = 59.23063 75.70663 63.90718
#
# Poissons Ratio (x) = 0.22991 -0.12880
# Poissons Ratio (y) = 0.17987 0.37324
# Poissons Ratio (z) = -0.11938 0.44215
#
# Static dielectric constant tensor:
#      x y z
#    x 1.890430 0.000000 0.000000 
#    y 0.000000 1.851350 0.000000 
#    z 0.000000 0.000000 2.155960 
# 
# From -- ./inp_files/10467.got.cif
#   From: 2010.05.17/outbox.cif.g08.bks.cpg/sg17_6_cif.got.tgz:10467.got - 2010.06.03 22:34:06.
