data_PCOD9311806
_publ_section_title
;
Structure prediction by ZEFSAII (Michael W. Deem and Ramdas Pophale) SiO2 
 PCOD9311806
Probable space group: P 21 21 2
;
_chemical_formula_sum "Si O2"
_cell_formula_units_Z 32
_cell_length_a 16.168671
_cell_length_b 8.665768
_cell_length_c 12.346840
_cell_angle_alpha 90.000000
_cell_angle_beta 90.000000
_cell_angle_gamma 90.000000
_cell_volume 1729.964544
_symmetry_space_group_name_H-M "P 21 21 2"
_symmetry_group_IT_number 18
_symmetry_cell_setting 'orthorhombic'
loop_
_space_group_symop_operation_xyz
x,y,z
-x,-y,z
1/2+x,1/2-y,-z
1/2-x,1/2+y,-z
loop_
_atom_site_type_symbol
_atom_site_label
_atom_site_fract_x
_atom_site_fract_y
_atom_site_fract_z
Si Si1 0.334591 0.855351 0.196102
Si Si2 0.918032 0.101502 0.352185
Si Si3 0.577563 0.610400 0.402175
Si Si4 0.257023 0.063871 0.379411
Si Si5 0.241803 0.434831 0.385956
Si Si6 0.014594 0.683769 0.781281
Si Si7 0.830761 0.346144 0.209162
Si Si8 0.409843 0.068927 0.017439
O O1 0.419516 0.760738 0.216298
O O2 0.254801 0.747486 0.194761
O O3 0.313882 0.983731 0.288075
O O4 0.354526 0.947015 0.085139
O O5 0.922449 0.168554 0.474141
O O6 0.897557 0.235731 0.267932
O O7 0.836077 0.995707 0.355967
O O8 0.000000 0.000000 0.331018
O O9 0.500000 0.500000 0.392507
O O10 0.661661 0.518352 0.379335
O O11 0.564192 0.743998 0.316160
O O12 0.249127 0.248960 0.382781
O O13 0.285384 0.997742 0.496353
O O14 0.189936 0.511295 0.289525
O O15 0.000000 0.500000 0.769028
O O16 0.065122 0.699800 0.893673
O O17 0.864199 0.387279 0.091369
O O18 0.500000 0.000000 0.989087
#
# Coordination Sequence:
#
# PCOD9311806 Si02
#       8
#     4   4   4   4   4   4   4   4
#     4   9  19  37  58  79 107 143 187 233 274 320
#     4   9  21  39  55  80 116 147 177 223 278 334
#     4  10  19  33  55  83 112 138 173 222 270 322
#     4  10  20  35  56  83 113 144 180 226 276 330
#     4  11  21  34  55  84 116 145 180 222 274 336
#     4   9  18  35  56  76 105 141 178 225 272 314
#     4  11  22  37  58  81 108 147 187 225 277 333
#     4   9  21  38  54  76 108 141 181 230 273 321
#
# _framework density 18.497489000000002
#
# number of rings (size 3 to 8) (size 9 to 14) (size 15 to 20)
#    0.000    2.500    0.000    4.500    0.000    5.000 
#    0.000    5.000    0.000    0.000    0.000    0.000 
#    0.000    0.000    0.000    0.000    0.000    0.000 
#
# Total GULP energy -178321.780632 kJ/mol
# GULP energy per Si atom -5572.555645 kJ/mol
# Density = 1.845539 g / cm^3
# Si number density = 18.497489 Si / 1000 Ang^3
#
#
#
# Elastic Constant Matrix: (Units=GPa)
#
#
# Indices 1 2 3 4 5 6 
#
# 1 57.5433 9.0283 48.9698 0.0000 0.0000 0.0000
# 2 9.0283 59.6790 61.1300 0.0000 0.0000 0.0000
# 3 48.9698 61.1300 148.3519 0.0000 0.0000 0.0000
# 4 0.0000 0.0000 0.0000 21.2726 0.0000 0.0000
# 5 0.0000 0.0000 0.0000 0.0000 33.6825 0.0000
# 6 0.0000 0.0000 0.0000 0.0000 0.0000 18.8459
#
#
#
# Elastic Compliance Matrix: (Units=1/GPa)
#
#
# Indices 1 2 3 4 5 6 
#
# 1 0.026473 0.008558 -0.012265 0.000000 0.000000 0.000000
# 2 0.008558 0.031761 -0.015913 0.000000 0.000000 0.000000
# 3 -0.012265 -0.015913 0.017346 0.000000 0.000000 0.000000
# 4 0.000000 0.000000 0.000000 0.047009 0.000000 0.000000
# 5 0.000000 0.000000 0.000000 0.000000 0.029689 0.000000
# 6 0.000000 0.000000 0.000000 0.000000 0.000000 0.053062
#
#
# Mechanical properties :
#
#
# Convention : Reuss Voigt Hill
#
# Bulk Modulus (GPa) = 27.51639 55.98116 41.74878
# Shear Modulus (GPa) = 19.47854 24.52327 22.00091
#
# Velocity S-wave (km/s) = 3.24857 3.64505 3.45251
# Velocity P-wave (km/s) = 5.38322 6.93146 6.20581
#
# Compressibility (1/GPa) = 0.03634198
#
# Stress axis : x y z
#
# Youngs Moduli (GPa) = 37.77407 31.48518 57.64919
#
# Poissons Ratio (x) = -0.26947 0.70708
# Poissons Ratio (y) = -0.32329 0.91734
# Poissons Ratio (z) = 0.46331 0.50101
#
# Static dielectric constant tensor:
#      x y z
#    x 1.691550 0.000000 0.000000 
#    y 0.000000 1.657680 0.000000 
#    z 0.000000 0.000000 1.637040 
# 
# From -- ./inp_files/6148.got.cif
#   From: 2010.05.17/outbox.cif.g08.bks.cpg/sg18_4_cif.got.tgz:6148.got - 2010.06.03 22:40:56.
