data_PCOD9311816
_publ_section_title
;
Structure prediction by ZEFSAII (Michael W. Deem and Ramdas Pophale) SiO2 
 PCOD9311816
Probable space group: P 21 21 2
;
_chemical_formula_sum "Si O2"
_cell_formula_units_Z 32
_cell_length_a 8.843023
_cell_length_b 20.010447
_cell_length_c 7.648133
_cell_angle_alpha 90.000000
_cell_angle_beta 90.000000
_cell_angle_gamma 90.000000
_cell_volume 1353.358878
_symmetry_space_group_name_H-M "P 21 21 2"
_symmetry_group_IT_number 18
_symmetry_cell_setting 'orthorhombic'
loop_
_space_group_symop_operation_xyz
x,y,z
-x,-y,z
1/2+x,1/2-y,-z
1/2-x,1/2+y,-z
loop_
_atom_site_type_symbol
_atom_site_label
_atom_site_fract_x
_atom_site_fract_y
_atom_site_fract_z
Si Si1 0.586392 0.430966 0.088920
Si Si2 0.454339 0.795151 0.524331
Si Si3 0.435614 0.072599 0.963777
Si Si4 0.068267 0.071080 0.335146
Si Si5 0.150951 0.808167 0.341541
Si Si6 0.414026 0.068895 0.387895
Si Si7 0.846079 0.693018 0.008801
Si Si8 0.546699 0.706830 0.193620
O O1 0.500000 0.500000 0.135309
O O2 0.767412 0.424418 0.116807
O O3 0.574431 0.425119 0.877168
O O4 0.502602 0.369867 0.182189
O O5 0.275802 0.798215 0.492002
O O6 0.546556 0.757891 0.677304
O O7 0.513291 0.869174 0.487726
O O8 0.502913 0.746374 0.365598
O O9 0.427956 0.077011 0.176716
O O10 0.554415 0.131154 0.923129
O O11 0.500000 0.000000 0.918734
O O12 0.234738 0.072309 0.416112
O O13 0.959539 0.131173 0.386249
O O14 0.000000 0.000000 0.382380
O O15 0.246857 0.825330 0.165941
O O16 0.500000 0.000000 0.432712
O O17 0.949428 0.754295 0.952347
O O18 0.720706 0.714329 0.145506
#
# Coordination Sequence:
#
# PCOD9311816 Si02
#       8
#     4   4   4   4   4   4   4   4
#     4  10  20  35  59  92 125 161 200 254 311 367
#     4  11  24  39  60  88 123 164 201 258 315 368
#     4  10  19  33  59  92 123 153 202 259 305 354
#     4  10  20  33  60  90 116 153 202 251 301 354
#     4  11  22  40  57  87 124 161 210 253 311 371
#     4  10  19  35  58  87 119 152 200 255 300 355
#     4  11  22  37  59  91 123 161 202 258 312 367
#     4  11  22  36  58  87 123 155 203 248 311 368
#
# _framework density 23.644874999999999
#
# number of rings (size 3 to 8) (size 9 to 14) (size 15 to 20)
#    0.000    1.500    3.750    3.000    5.250    1.000 
#    0.000    0.625    0.000    1.500    0.000    6.125 
#    0.000    0.000    0.000    0.000    0.000    0.000 
#
# Total GULP energy -179102.844893 kJ/mol
# GULP energy per Si atom -5596.963903 kJ/mol
# Density = 2.359106 g / cm^3
# Si number density = 23.644875 Si / 1000 Ang^3
#
#
#
# Elastic Constant Matrix: (Units=GPa)
#
#
# Indices 1 2 3 4 5 6 
#
# 1 176.1764 73.6193 21.8234 0.0000 0.0000 0.0000
# 2 73.6193 186.6201 18.3752 0.0000 0.0000 0.0000
# 3 21.8234 18.3752 75.0603 0.0000 0.0000 0.0000
# 4 0.0000 0.0000 0.0000 13.6567 0.0000 0.0000
# 5 0.0000 0.0000 0.0000 0.0000 43.1573 0.0000
# 6 0.0000 0.0000 0.0000 0.0000 0.0000 54.5687
#
#
#
# Elastic Compliance Matrix: (Units=1/GPa)
#
#
# Indices 1 2 3 4 5 6 
#
# 1 0.006933 -0.002599 -0.001379 0.000000 0.000000 0.000000
# 2 -0.002599 0.006465 -0.000827 0.000000 0.000000 0.000000
# 3 -0.001379 -0.000827 0.013926 0.000000 0.000000 0.000000
# 4 0.000000 0.000000 0.000000 0.073224 0.000000 0.000000
# 5 0.000000 0.000000 0.000000 0.000000 0.023171 0.000000
# 6 0.000000 0.000000 0.000000 0.000000 0.000000 0.018326
#
#
# Mechanical properties :
#
#
# Convention : Reuss Voigt Hill
#
# Bulk Modulus (GPa) = 56.45523 73.94360 65.19941
# Shear Modulus (GPa) = 31.73377 43.87914 37.80646
#
# Velocity S-wave (km/s) = 3.66744 4.31252 4.00300
# Velocity P-wave (km/s) = 6.47006 7.49250 6.99997
#
# Compressibility (1/GPa) = 0.01771315
#
# Stress axis : x y z
#
# Youngs Moduli (GPa) = 144.23461 154.67270 71.80729
#
# Poissons Ratio (x) = 0.40203 0.09906
# Poissons Ratio (y) = 0.37490 0.05939
# Poissons Ratio (z) = 0.19897 0.12792
#
# Static dielectric constant tensor:
#      x y z
#    x 1.921650 0.000000 0.000000 
#    y 0.000000 1.812890 0.000000 
#    z 0.000000 0.000000 2.041100 
# 
# From -- ./inp_files/5745.got.cif
#   From: 2010.05.17/outbox.cif.g08.bks.cpg/sg18_3_cif.got.tgz:5745.got - 2010.06.03 22:40:56.
