data_PCOD9311400
_publ_section_title
;
Structure prediction by ZEFSAII (Michael W. Deem and Ramdas Pophale) SiO2 
 PCOD9311400
Probable space group: P 2 2 21
;
_chemical_formula_sum "Si O2"
_cell_formula_units_Z 18
_cell_length_a 7.493763
_cell_length_b 12.685334
_cell_length_c 8.468022
_cell_angle_alpha 90.000000
_cell_angle_beta 90.000000
_cell_angle_gamma 90.000000
_cell_volume 804.977679
_symmetry_space_group_name_H-M "P 2 2 21"
_symmetry_group_IT_number 17
_symmetry_cell_setting 'orthorhombic'
loop_
_space_group_symop_operation_xyz
x,y,z
-x,-y,1/2+z
x,-y,-z
-x,y,1/2-z
loop_
_atom_site_type_symbol
_atom_site_label
_atom_site_fract_x
_atom_site_fract_y
_atom_site_fract_z
Si Si1 0.302303 0.865832 0.764780
Si Si2 0.814755 0.219975 0.925815
Si Si3 0.345736 0.500000 0.000000
Si Si4 0.500000 0.338227 0.750000
Si Si5 0.000000 0.032539 0.750000
Si Si6 0.120489 0.683448 0.903806
O O1 0.500000 0.910156 0.750000
O O2 0.270048 0.809622 0.595196
O O3 0.269384 0.775197 0.895242
O O4 0.157175 0.954412 0.802401
O O5 0.667189 0.267399 0.808014
O O6 0.905868 0.111525 0.871075
O O7 0.980931 0.299731 0.954429
O O8 0.452940 0.417237 0.893915
O O9 0.217502 0.572815 0.895646
O O10 0.000000 0.698543 0.750000
#
# Coordination Sequence:
#
# PCOD9311400 Si02
#       6
#     4   4   2   2   2   4
#     4  11  24  46  74 107 146 196 245 310 370 457
#     4  11  25  49  69 107 150 192 249 311 375 457
#     4  12  28  44  74 110 140 208 238 322 380 448
#     4  12  30  46  76 112 150 194 260 322 370 470
#     4  12  24  46  70 108 144 202 236 298 380 440
#     4  10  24  45  73 101 149 192 247 308 376 453
#
# _framework density 22.360866999999999
#
# number of rings (size 3 to 8) (size 9 to 14) (size 15 to 20)
#    0.000    0.889    3.333    3.333   12.444    0.000 
#    4.000    0.000    0.000    0.000    0.000    0.000 
#    0.000    0.000    0.000    0.000    0.000    0.000 
#
# Total GULP energy -100584.431359 kJ/mol
# GULP energy per Si atom -5588.023964 kJ/mol
# Density = 2.230997 g / cm^3
# Si number density = 22.360867 Si / 1000 Ang^3
#
#
#
# Elastic Constant Matrix: (Units=GPa)
#
#
# Indices 1 2 3 4 5 6 
#
# 1 159.0269 61.4967 33.2107 0.0000 0.0000 0.0000
# 2 61.4967 103.3035 13.5032 0.0000 0.0000 0.0000
# 3 33.2107 13.5032 67.3543 0.0000 0.0000 0.0000
# 4 0.0000 0.0000 0.0000 35.8894 0.0000 0.0000
# 5 0.0000 0.0000 0.0000 0.0000 25.3789 0.0000
# 6 0.0000 0.0000 0.0000 0.0000 0.0000 64.4354
#
#
#
# Elastic Compliance Matrix: (Units=1/GPa)
#
#
# Indices 1 2 3 4 5 6 
#
# 1 0.008869 -0.004835 -0.003404 0.000000 0.000000 0.000000
# 2 -0.004835 0.012576 -0.000137 0.000000 0.000000 0.000000
# 3 -0.003404 -0.000137 0.016553 0.000000 0.000000 0.000000
# 4 0.000000 0.000000 0.000000 0.027863 0.000000 0.000000
# 5 0.000000 0.000000 0.000000 0.000000 0.039403 0.000000
# 6 0.000000 0.000000 0.000000 0.000000 0.000000 0.015519
#
#
# Mechanical properties :
#
#
# Convention : Reuss Voigt Hill
#
# Bulk Modulus (GPa) = 47.06750 60.67845 53.87297
# Shear Modulus (GPa) = 34.57416 39.90568 37.23992
#
# Velocity S-wave (km/s) = 3.93643 4.22906 4.08537
# Velocity P-wave (km/s) = 6.46184 7.14433 6.81164
#
# Compressibility (1/GPa) = 0.02124608
#
# Stress axis : x y z
#
# Youngs Moduli (GPa) = 112.75713 79.51510 60.41322
#
# Poissons Ratio (x) = 0.38442 0.20562
# Poissons Ratio (y) = 0.54514 0.00831
# Poissons Ratio (z) = 0.38378 0.01093
#
# Static dielectric constant tensor:
#      x y z
#    x 1.846550 0.000000 0.000000 
#    y 0.000000 1.772970 0.000000 
#    z 0.000000 0.000000 1.752650 
# 
# From -- ./inp_files/3961.got.cif
#   From: 2010.05.17/outbox.cif.g08.bks.cpg/sg17_2_cif.got.tgz:3961.got - 2010.06.03 22:34:06.
