data_PCOD9311197
_publ_section_title
;
Structure prediction by ZEFSAII (Michael W. Deem and Ramdas Pophale) SiO2 
 PCOD9311197
Probable space group: P 2 2 21
;
_chemical_formula_sum "Si O2"
_cell_formula_units_Z 18
_cell_length_a 17.414212
_cell_length_b 12.138299
_cell_length_c 5.040026
_cell_angle_alpha 90.000000
_cell_angle_beta 90.000000
_cell_angle_gamma 90.000000
_cell_volume 1065.355213
_symmetry_space_group_name_H-M "P 2 2 21"
_symmetry_group_IT_number 17
_symmetry_cell_setting 'orthorhombic'
loop_
_space_group_symop_operation_xyz
x,y,z
-x,-y,1/2+z
x,-y,-z
-x,y,1/2-z
loop_
_atom_site_type_symbol
_atom_site_label
_atom_site_fract_x
_atom_site_fract_y
_atom_site_fract_z
Si Si1 0.831053 0.303105 0.571513
Si Si2 0.417174 0.580890 0.748199
Si Si3 0.908403 0.076200 0.746289
Si Si4 0.743571 0.368606 0.055450
Si Si5 0.947661 0.500000 0.500000
O O1 0.868150 0.191306 0.680194
O O2 0.803105 0.317029 0.267332
O O3 0.893407 0.400930 0.599966
O O4 0.758698 0.321154 0.765147
O O5 0.425700 0.500000 0.500000
O O6 0.500000 0.640845 0.750000
O O7 0.340504 0.647674 0.681744
O O8 0.404852 0.500000 0.000000
O O9 0.000000 0.096869 0.750000
O O10 0.890072 0.000000 0.500000
O O11 0.888748 0.000000 0.000000
O O12 0.754237 0.500000 0.000000
O O13 0.000000 0.464802 0.250000
#
# Coordination Sequence:
#
# PCOD9311197 Si02
#       5
#     4   4   4   4   2
#     4  12  22  36  54  78 107 140 176 221 274 325
#     4   9  17  29  47  71 104 147 182 205 239 308
#     4  10  22  40  58  74  96 134 184 236 279 312
#     4  11  19  33  50  77 113 143 171 208 268 323
#     4  12  24  36  50  76 110 144 178 212 270 344
#
# _framework density 16.895772999999998
#
# number of rings (size 3 to 8) (size 9 to 14) (size 15 to 20)
#    0.000    1.333    2.222    6.000    0.000    2.667 
#    0.000    0.000    0.000    0.000    0.000    0.000 
#    0.000   17.778    0.000    0.000    0.000    0.000 
#
# Total GULP energy -100242.353945 kJ/mol
# GULP energy per Si atom -5569.019664 kJ/mol
# Density = 1.685732 g / cm^3
# Si number density = 16.895773 Si / 1000 Ang^3
#
#
#
# Elastic Constant Matrix: (Units=GPa)
#
#
# Indices 1 2 3 4 5 6 
#
# 1 77.5409 36.2797 21.7848 0.0000 0.0000 0.0000
# 2 36.2797 94.6355 20.8725 0.0000 0.0000 0.0000
# 3 21.7848 20.8725 117.6545 0.0000 0.0000 0.0000
# 4 0.0000 0.0000 0.0000 29.9786 0.0000 0.0000
# 5 0.0000 0.0000 0.0000 0.0000 33.9511 0.0000
# 6 0.0000 0.0000 0.0000 0.0000 0.0000 12.0703
#
#
#
# Elastic Compliance Matrix: (Units=1/GPa)
#
#
# Indices 1 2 3 4 5 6 
#
# 1 0.016141 -0.005754 -0.001968 0.000000 0.000000 0.000000
# 2 -0.005754 0.013048 -0.001249 0.000000 0.000000 0.000000
# 3 -0.001968 -0.001249 0.009086 0.000000 0.000000 0.000000
# 4 0.000000 0.000000 0.000000 0.033357 0.000000 0.000000
# 5 0.000000 0.000000 0.000000 0.000000 0.029454 0.000000
# 6 0.000000 0.000000 0.000000 0.000000 0.000000 0.082848
#
#
# Mechanical properties :
#
#
# Convention : Reuss Voigt Hill
#
# Bulk Modulus (GPa) = 49.18230 49.74500 49.46365
# Shear Modulus (GPa) = 23.96305 29.25959 26.61132
#
# Velocity S-wave (km/s) = 3.77010 4.16597 3.97297
# Velocity P-wave (km/s) = 6.93714 7.25580 7.09826
#
# Compressibility (1/GPa) = 0.02033252
#
# Stress axis : x y z
#
# Youngs Moduli (GPa) = 61.95224 76.63842 110.06540
#
# Poissons Ratio (x) = 0.44098 0.21660
# Poissons Ratio (y) = 0.35647 0.13752
# Poissons Ratio (z) = 0.12192 0.09575
#
# Static dielectric constant tensor:
#      x y z
#    x 1.637760 0.000000 0.000000 
#    y 0.000000 1.503500 0.000000 
#    z 0.000000 0.000000 1.585970 
# 
# From -- ./inp_files/1999.got.cif
#   From: 2010.05.17/outbox.cif.g08.bks.cpg/sg17_1_cif.got.tgz:1999.got - 2010.06.03 22:34:06.
