data_PCOD9311659
_publ_section_title
;
Structure prediction by ZEFSAII (Michael W. Deem and Ramdas Pophale) SiO2 
 PCOD9311659
Probable space group: P 21 21 2
;
_chemical_formula_sum "Si O2"
_cell_formula_units_Z 32
_cell_length_a 8.373077
_cell_length_b 22.429411
_cell_length_c 8.604079
_cell_angle_alpha 90.000000
_cell_angle_beta 90.000000
_cell_angle_gamma 90.000000
_cell_volume 1615.873443
_symmetry_space_group_name_H-M "P 21 21 2"
_symmetry_group_IT_number 18
_symmetry_cell_setting 'orthorhombic'
loop_
_space_group_symop_operation_xyz
x,y,z
-x,-y,z
1/2+x,1/2-y,-z
1/2-x,1/2+y,-z
loop_
_atom_site_type_symbol
_atom_site_label
_atom_site_fract_x
_atom_site_fract_y
_atom_site_fract_z
Si Si1 0.274107 0.725190 0.019272
Si Si2 0.976922 0.684765 0.834534
Si Si3 0.091970 0.275936 0.270468
Si Si4 0.062231 0.399606 0.079036
Si Si5 0.368298 0.640966 0.300029
Si Si6 0.576993 0.744578 0.443196
Si Si7 0.144381 0.537624 0.333898
Si Si8 0.380717 0.453134 0.169310
O O1 0.382881 0.726958 0.863991
O O2 0.103703 0.722805 0.936751
O O3 0.310385 0.785543 0.114325
O O4 0.301837 0.672597 0.142555
O O5 0.019883 0.698690 0.659260
O O6 0.991824 0.620055 0.908143
O O7 0.080257 0.339844 0.185894
O O8 0.249384 0.274203 0.380396
O O9 0.941211 0.262013 0.378225
O O10 0.237517 0.427390 0.068341
O O11 0.939403 0.440732 0.172373
O O12 0.451435 0.691791 0.403570
O O13 0.235278 0.598846 0.382838
O O14 0.511323 0.598236 0.242362
O O15 0.285047 0.490688 0.300304
O O16 0.000000 0.500000 0.415029
O O17 0.500000 0.500000 0.089605
#
# Coordination Sequence:
#
# PCOD9311659 Si02
#       8
#     4   4   4   4   4   4   4   4
#     4   9  18  30  48  73 100 131 159 193 243 300
#     4   9  18  30  48  73 101 129 159 193 244 299
#     4  10  21  33  47  74 107 136 170 199 240 309
#     4  10  17  33  52  76 104 127 162 211 253 297
#     4  10  17  33  52  74 106 129 158 210 258 290
#     4  10  21  33  47  74 106 138 168 198 243 305
#     4   9  18  29  51  79  97 122 168 212 257 294
#     4   9  18  31  49  77 101 122 166 216 254 290
#
# _framework density 19.803533000000002
#
# number of rings (size 3 to 8) (size 9 to 14) (size 15 to 20)
#    0.000    2.500    2.500    0.000    3.500    1.000 
#    0.000    0.000    0.000    0.000    0.000   35.000 
#    0.000    0.000    0.000    0.000    0.000    0.000 
#
# Total GULP energy -178136.678626 kJ/mol
# GULP energy per Si atom -5566.771207 kJ/mol
# Density = 1.975846 g / cm^3
# Si number density = 19.803533 Si / 1000 Ang^3
#
#
#
# Elastic Constant Matrix: (Units=GPa)
#
#
# Indices 1 2 3 4 5 6 
#
# 1 71.6055 12.5016 24.2879 0.0000 0.0000 0.0000
# 2 12.5016 68.2138 20.7240 0.0000 0.0000 0.0000
# 3 24.2879 20.7240 52.3009 0.0000 0.0000 0.0000
# 4 0.0000 0.0000 0.0000 8.1624 0.0000 0.0000
# 5 0.0000 0.0000 0.0000 0.0000 27.1022 0.0000
# 6 0.0000 0.0000 0.0000 0.0000 0.0000 43.2166
#
#
#
# Elastic Compliance Matrix: (Units=1/GPa)
#
#
# Indices 1 2 3 4 5 6 
#
# 1 0.016614 -0.000797 -0.007400 0.000000 0.000000 0.000000
# 2 -0.000797 0.016704 -0.006249 0.000000 0.000000 0.000000
# 3 -0.007400 -0.006249 0.025033 0.000000 0.000000 0.000000
# 4 0.000000 0.000000 0.000000 0.122513 0.000000 0.000000
# 5 0.000000 0.000000 0.000000 0.000000 0.036897 0.000000
# 6 0.000000 0.000000 0.000000 0.000000 0.000000 0.023139
#
#
# Mechanical properties :
#
#
# Convention : Reuss Voigt Hill
#
# Bulk Modulus (GPa) = 33.94409 34.12746 34.03577
# Shear Modulus (GPa) = 17.88188 24.67002 21.27595
#
# Velocity S-wave (km/s) = 3.00820 3.53333 3.28129
# Velocity P-wave (km/s) = 5.40771 5.82377 5.61959
#
# Compressibility (1/GPa) = 0.02946021
#
# Stress axis : x y z
#
# Youngs Moduli (GPa) = 60.18851 59.86474 39.94786
#
# Poissons Ratio (x) = 0.04770 0.29561
# Poissons Ratio (y) = 0.04796 0.24963
# Poissons Ratio (z) = 0.44538 0.37409
#
# Static dielectric constant tensor:
#      x y z
#    x 1.795750 0.000000 0.000000 
#    y 0.000000 1.750330 0.000000 
#    z 0.000000 0.000000 1.681860 
# 
# From -- ./inp_files/3533.got.cif
#   From: 2010.05.17/outbox.cif.g08.bks.cpg/sg18_2_cif.got.tgz:3533.got - 2010.06.03 22:40:56.
