data_PCOD9311410
_publ_section_title
;
Structure prediction by ZEFSAII (Michael W. Deem and Ramdas Pophale) SiO2 
 PCOD9311410
Probable space group: P 2 2 21
;
_chemical_formula_sum "Si O2"
_cell_formula_units_Z 20
_cell_length_a 5.496341
_cell_length_b 10.780179
_cell_length_c 15.060601
_cell_angle_alpha 90.000000
_cell_angle_beta 90.000000
_cell_angle_gamma 90.000000
_cell_volume 892.363800
_symmetry_space_group_name_H-M "P 2 2 21"
_symmetry_group_IT_number 17
_symmetry_cell_setting 'orthorhombic'
loop_
_space_group_symop_operation_xyz
x,y,z
-x,-y,1/2+z
x,-y,-z
-x,y,1/2-z
loop_
_atom_site_type_symbol
_atom_site_label
_atom_site_fract_x
_atom_site_fract_y
_atom_site_fract_z
Si Si1 0.604972 0.224896 0.849432
Si Si2 0.333538 0.372772 0.985700
Si Si3 0.587857 0.705441 0.851600
Si Si4 0.076992 0.528530 0.352647
Si Si5 0.751595 0.035400 0.191898
O O1 0.500000 0.224485 0.750000
O O2 0.409441 0.255641 0.924685
O O3 0.760813 0.348829 0.855641
O O4 0.744696 0.095183 0.860003
O O5 0.128901 0.437587 0.923941
O O6 0.492512 0.500000 0.000000
O O7 0.356524 0.314260 0.083947
O O8 0.500000 0.691940 0.750000
O O9 0.786040 0.599778 0.870516
O O10 0.715054 0.838840 0.863321
O O11 0.000000 0.519048 0.250000
O O12 0.500000 0.033709 0.250000
O O13 0.000000 0.041556 0.250000
#
# Coordination Sequence:
#
# PCOD9311410 Si02
#       5
#     4   4   4   4   4
#     4  11  23  45  72 109 148 196 256 322 388 464
#     4  12  26  42  69 111 148 195 257 321 384 464
#     4  11  25  50  73 108 157 203 260 325 400 471
#     4  12  23  42  76 104 147 199 255 319 396 458
#     4  10  24  47  78 109 151 205 260 317 393 473
#
# _framework density 22.412382999999998
#
# number of rings (size 3 to 8) (size 9 to 14) (size 15 to 20)
#    0.000    0.800    4.000    3.000    5.600    2.400 
#    0.000    0.000    4.400    0.000    0.000    0.000 
#    0.000    0.000    0.000    0.000    0.000    0.000 
#
# Total GULP energy -111387.067022 kJ/mol
# GULP energy per Si atom -5569.353351 kJ/mol
# Density = 2.236137 g / cm^3
# Si number density = 22.412383 Si / 1000 Ang^3
#
#
#
# Elastic Constant Matrix: (Units=GPa)
#
#
# Indices 1 2 3 4 5 6 
#
# 1 78.4430 50.2782 37.7483 0.0000 0.0000 0.0000
# 2 50.2782 221.9766 28.0657 0.0000 0.0000 0.0000
# 3 37.7483 28.0657 155.3561 0.0000 0.0000 0.0000
# 4 0.0000 0.0000 0.0000 40.5430 0.0000 0.0000
# 5 0.0000 0.0000 0.0000 0.0000 31.6532 0.0000
# 6 0.0000 0.0000 0.0000 0.0000 0.0000 17.4691
#
#
#
# Elastic Compliance Matrix: (Units=1/GPa)
#
#
# Indices 1 2 3 4 5 6 
#
# 1 0.016512 -0.003308 -0.003414 0.000000 0.000000 0.000000
# 2 -0.003308 0.005273 -0.000149 0.000000 0.000000 0.000000
# 3 -0.003414 -0.000149 0.007293 0.000000 0.000000 0.000000
# 4 0.000000 0.000000 0.000000 0.024665 0.000000 0.000000
# 5 0.000000 0.000000 0.000000 0.000000 0.031592 0.000000
# 6 0.000000 0.000000 0.000000 0.000000 0.000000 0.057244
#
#
# Mechanical properties :
#
#
# Convention : Reuss Voigt Hill
#
# Bulk Modulus (GPa) = 65.20883 76.44001 70.82442
# Shear Modulus (GPa) = 30.97245 40.57865 35.77555
#
# Velocity S-wave (km/s) = 3.72147 4.25967 3.99963
# Velocity P-wave (km/s) = 6.90101 7.64024 7.28001
#
# Compressibility (1/GPa) = 0.01533535
#
# Stress axis : x y z
#
# Youngs Moduli (GPa) = 60.56361 189.64149 137.11194
#
# Poissons Ratio (x) = 0.62737 0.46814
# Poissons Ratio (y) = 0.20036 0.02040
# Poissons Ratio (z) = 0.20678 0.02822
#
# Static dielectric constant tensor:
#      x y z
#    x 2.287040 0.000000 0.000000 
#    y 0.000000 1.872590 0.000000 
#    z 0.000000 0.000000 0.434610 
# 
# From -- ./inp_files/7598.got.cif
#   From: 2010.05.17/outbox.cif.g08.bks.cpg/sg17_4_cif.got.tgz:7598.got - 2010.06.03 22:34:06.
