data_PCOD9311476
_publ_section_title
;
Structure prediction by ZEFSAII (Michael W. Deem and Ramdas Pophale) SiO2 
 PCOD9311476
Probable space group: P 2 2 21
;
_chemical_formula_sum "Si O2"
_cell_formula_units_Z 32
_cell_length_a 5.291332
_cell_length_b 15.805491
_cell_length_c 19.024582
_cell_angle_alpha 90.000000
_cell_angle_beta 90.000000
_cell_angle_gamma 90.000000
_cell_volume 1591.065750
_symmetry_space_group_name_H-M "P 2 2 21"
_symmetry_group_IT_number 17
_symmetry_cell_setting 'orthorhombic'
loop_
_space_group_symop_operation_xyz
x,y,z
-x,-y,1/2+z
x,-y,-z
-x,y,1/2-z
loop_
_atom_site_type_symbol
_atom_site_label
_atom_site_fract_x
_atom_site_fract_y
_atom_site_fract_z
Si Si1 0.496724 0.492708 0.074167
Si Si2 0.599024 0.915118 0.672543
Si Si3 0.682897 0.937121 0.434768
Si Si4 0.891591 0.368530 0.101361
Si Si5 0.899043 0.642479 0.055136
Si Si6 0.114294 0.536754 0.173412
Si Si7 0.833007 0.165497 0.960244
Si Si8 0.098645 0.820576 0.625637
O O1 0.605973 0.398571 0.084280
O O2 0.702439 0.564817 0.057051
O O3 0.402312 0.518102 0.152159
O O4 0.339924 0.500000 0.000000
O O5 0.500000 0.933148 0.750000
O O6 0.375282 0.856401 0.642375
O O7 0.868972 0.867906 0.664541
O O8 0.622633 0.001523 0.629659
O O9 0.432134 0.883041 0.452293
O O10 0.932613 0.880841 0.422194
O O11 0.736488 0.000000 0.500000
O O12 0.910791 0.279768 0.139775
O O13 0.998705 0.448743 0.142806
O O14 0.012441 0.358366 0.023746
O O15 0.797662 0.737327 0.063248
O O16 0.066012 0.615981 0.121516
O O17 0.000000 0.550480 0.250000
O O18 0.922024 0.166669 0.041654
#
# Coordination Sequence:
#
# PCOD9311476 Si02
#       8
#     4   4   4   4   4   4   4   4
#     4   9  18  37  62  85 122 165 211 266 311 379
#     4  12  26  42  63  93 135 173 202 256 330 393
#     4  12  22  42  69  96 128 162 214 267 317 389
#     4   9  21  37  60  89 120 163 216 262 313 370
#     4   9  21  38  58  93 120 158 218 269 312 371
#     4  11  22  36  58  87 127 173 207 260 321 378
#     4  11  22  39  71 100 122 161 220 277 318 368
#     4  11  22  41  64  97 128 166 214 266 318 384
#
# _framework density 20.112304000000002
#
# number of rings (size 3 to 8) (size 9 to 14) (size 15 to 20)
#    0.000    1.500    2.500    3.375    3.500    3.000 
#    0.000    1.250    0.000    0.000    0.000    0.000 
#    0.000    0.000    0.000    0.000    0.000    0.000 
#
# Total GULP energy -178213.029041 kJ/mol
# GULP energy per Si atom -5569.157158 kJ/mol
# Density = 2.006653 g / cm^3
# Si number density = 20.112304 Si / 1000 Ang^3
#
#
#
# Elastic Constant Matrix: (Units=GPa)
#
#
# Indices 1 2 3 4 5 6 
#
# 1 60.3701 14.4243 -9.6031 0.0000 0.0000 0.0000
# 2 14.4243 104.8993 13.0471 0.0000 0.0000 0.0000
# 3 -9.6031 13.0471 75.5243 0.0000 0.0000 0.0000
# 4 0.0000 0.0000 0.0000 14.2081 0.0000 0.0000
# 5 0.0000 0.0000 0.0000 0.0000 30.1643 0.0000
# 6 0.0000 0.0000 0.0000 0.0000 0.0000 -6.6211
#
#
#
# Elastic Compliance Matrix: (Units=1/GPa)
#
#
# Indices 1 2 3 4 5 6 
#
# 1 0.017659 -0.002767 0.002723 0.000000 0.000000 0.000000
# 2 -0.002767 0.010176 -0.002110 0.000000 0.000000 0.000000
# 3 0.002723 -0.002110 0.013952 0.000000 0.000000 0.000000
# 4 0.000000 0.000000 0.000000 0.070382 0.000000 0.000000
# 5 0.000000 0.000000 0.000000 0.000000 0.033152 0.000000
# 6 0.000000 0.000000 0.000000 0.000000 0.000000 -0.151033
#
#
# Mechanical properties :
#
#
# Convention : Reuss Voigt Hill
#
# Bulk Modulus (GPa) = 26.68122 30.72559 28.70341
# Shear Modulus (GPa) = 450.97563 22.41197 236.69380
#
# Velocity S-wave (km/s) = 14.99051 3.34180 10.86009
# Velocity P-wave (km/s) = 17.68942 5.49548 13.09801
#
# Compressibility (1/GPa) = 0.03747954
#
# Stress axis : x y z
#
# Youngs Moduli (GPa) = 56.62902 98.27219 71.67684
#
# Poissons Ratio (x) = 0.27191 -0.19520
# Poissons Ratio (y) = 0.15669 0.15122
# Poissons Ratio (z) = -0.15422 0.20733
#
# Static dielectric constant tensor:
#      x y z
#    x 1.859840 0.000000 0.000000 
#    y 0.000000 1.659720 0.000000 
#    z 0.000000 0.000000 1.774310 
# 
# From -- ./inp_files/9136.got.cif
#   From: 2010.05.17/outbox.cif.g08.bks.cpg/sg17_5_cif.got.tgz:9136.got - 2010.06.03 22:34:06.
