data_PCOD9311884
_publ_section_title
;
Structure prediction by ZEFSAII (Michael W. Deem and Ramdas Pophale) SiO2 
 PCOD9311884
Probable space group: P 21 21 2
;
_chemical_formula_sum "Si O2"
_cell_formula_units_Z 18
_cell_length_a 9.577825
_cell_length_b 13.589823
_cell_length_c 5.908929
_cell_angle_alpha 90.000000
_cell_angle_beta 90.000000
_cell_angle_gamma 90.000000
_cell_volume 769.111791
_symmetry_space_group_name_H-M "P 21 21 2"
_symmetry_group_IT_number 18
_symmetry_cell_setting 'orthorhombic'
loop_
_space_group_symop_operation_xyz
x,y,z
-x,-y,z
1/2+x,1/2-y,-z
1/2-x,1/2+y,-z
loop_
_atom_site_type_symbol
_atom_site_label
_atom_site_fract_x
_atom_site_fract_y
_atom_site_fract_z
Si Si1 0.986832 0.326271 0.704065
Si Si2 0.279536 0.284102 0.600680
Si Si3 0.490446 0.673688 0.943202
Si Si4 0.500000 0.500000 0.301044
Si Si5 0.223301 0.089484 0.425768
O O1 0.892181 0.237387 0.596146
O O2 0.027096 0.282357 0.948033
O O3 0.878047 0.416111 0.680519
O O4 0.131392 0.336850 0.568746
O O5 0.238618 0.168460 0.630950
O O6 0.363472 0.325117 0.810586
O O7 0.496034 0.590808 0.132293
O O8 0.371651 0.642897 0.763839
O O9 0.634622 0.498438 0.467808
#
# Coordination Sequence:
#
# PCOD9311884 Si02
#       5
#     4   4   4   2   4
#     4  10  20  36  65  96 125 170 218 268 313 384
#     4  10  19  37  61  99 125 161 220 274 303 385
#     4  12  20  38  68  94 127 172 221 256 333 392
#     4  12  24  40  66 102 132 174 204 278 340 390
#     4  10  22  41  61  97 137 162 220 276 317 381
#
# _framework density 23.40362
#
# number of rings (size 3 to 8) (size 9 to 14) (size 15 to 20)
#    1.333    0.000    4.444    2.000    0.000    0.000 
#    0.000    0.000    0.000   20.000    0.000    0.000 
#    0.000    0.000    0.000    0.000    0.000    0.000 
#
# Total GULP energy -100236.270213 kJ/mol
# GULP energy per Si atom -5568.681679 kJ/mol
# Density = 2.335035 g / cm^3
# Si number density = 23.403620 Si / 1000 Ang^3
#
#
#
# Elastic Constant Matrix: (Units=GPa)
#
#
# Indices 1 2 3 4 5 6 
#
# 1 186.3501 13.0381 39.8543 0.0000 0.0000 0.0000
# 2 13.0381 30.9415 21.3959 0.0000 0.0000 0.0000
# 3 39.8543 21.3959 74.0453 0.0000 0.0000 0.0000
# 4 0.0000 0.0000 0.0000 26.8017 0.0000 0.0000
# 5 0.0000 0.0000 0.0000 0.0000 29.7131 0.0000
# 6 0.0000 0.0000 0.0000 0.0000 0.0000 36.0096
#
#
#
# Elastic Compliance Matrix: (Units=1/GPa)
#
#
# Indices 1 2 3 4 5 6 
#
# 1 0.006068 -0.000373 -0.003158 0.000000 0.000000 0.000000
# 2 -0.000373 0.040412 -0.011477 0.000000 0.000000 0.000000
# 3 -0.003158 -0.011477 0.018521 0.000000 0.000000 0.000000
# 4 0.000000 0.000000 0.000000 0.037311 0.000000 0.000000
# 5 0.000000 0.000000 0.000000 0.000000 0.033655 0.000000
# 6 0.000000 0.000000 0.000000 0.000000 0.000000 0.027770
#
#
# Mechanical properties :
#
#
# Convention : Reuss Voigt Hill
#
# Bulk Modulus (GPa) = 28.58301 48.87927 38.73114
# Shear Modulus (GPa) = 24.34090 32.97477 28.65784
#
# Velocity S-wave (km/s) = 3.22848 3.75768 3.50309
# Velocity P-wave (km/s) = 5.11244 6.30536 5.73997
#
# Compressibility (1/GPa) = 0.03498582
#
# Stress axis : x y z
#
# Youngs Moduli (GPa) = 164.80528 24.74497 53.99171
#
# Poissons Ratio (x) = 0.00923 0.17051
# Poissons Ratio (y) = 0.06147 0.61964
# Poissons Ratio (z) = 0.52048 0.28399
#
# Static dielectric constant tensor:
#      x y z
#    x 1.941190 0.000000 0.000000 
#    y 0.000000 1.995050 0.000000 
#    z 0.000000 0.000000 1.915200 
# 
# From -- ./inp_files/468.got.cif
#   From: 2010.05.17/outbox.cif.g08.bks.cpg/sg18_1_cif.got.tgz:468.got - 2010.06.03 22:40:56.
