data_PCOD9311563
_publ_section_title
;
Structure prediction by ZEFSAII (Michael W. Deem and Ramdas Pophale) SiO2 
 PCOD9311563
Probable space group: P 2 2 21
;
_chemical_formula_sum "Si O2"
_cell_formula_units_Z 22
_cell_length_a 6.427574
_cell_length_b 5.069394
_cell_length_c 26.264427
_cell_angle_alpha 90.000000
_cell_angle_beta 90.000000
_cell_angle_gamma 90.000000
_cell_volume 855.797596
_symmetry_space_group_name_H-M "P 2 2 21"
_symmetry_group_IT_number 17
_symmetry_cell_setting 'orthorhombic'
loop_
_space_group_symop_operation_xyz
x,y,z
-x,-y,1/2+z
x,-y,-z
-x,y,1/2-z
loop_
_atom_site_type_symbol
_atom_site_label
_atom_site_fract_x
_atom_site_fract_y
_atom_site_fract_z
Si Si1 0.213440 0.940462 0.328923
Si Si2 0.788172 0.820306 0.669570
Si Si3 0.500000 0.064440 0.250000
Si Si4 0.370725 0.321310 0.060803
Si Si5 0.977220 0.000000 0.500000
Si Si6 0.000000 0.558716 0.250000
Si Si7 0.355776 0.824110 0.437451
O O1 0.145419 0.729811 0.287023
O O2 0.328424 0.815086 0.376484
O O3 0.336454 0.155862 0.294327
O O4 0.000949 0.056922 0.350400
O O5 0.659909 0.027882 0.704849
O O6 0.675070 0.699618 0.621229
O O7 0.858946 0.607949 0.711142
O O8 0.468685 0.607479 0.049522
O O9 0.554183 0.112832 0.051156
O O10 0.170100 0.200381 0.031932
O O11 0.131002 0.176845 0.535510
#
# Coordination Sequence:
#
# PCOD9311563 Si02
#       7
#     4   4   2   4   2   2   4
#     4  12  26  47  72 117 167 219 274 346 422 499
#     4  12  26  47  72 117 167 219 274 346 422 499
#     4  12  22  46  72 104 162 212 268 324 402 516
#     4  12  31  54  87 127 165 223 294 357 442 523
#     4  12  30  62  92 118 180 226 286 394 432 510
#     4  12  26  42  72 116 166 224 266 326 426 498
#     4  12  31  54  87 127 165 223 294 357 442 523
#
# _framework density 25.707013
#
# number of rings (size 3 to 8) (size 9 to 14) (size 15 to 20)
#    0.000    0.000    7.273    0.545   10.182    5.818 
#    0.000    0.000    0.000    0.000    0.000    0.000 
#    0.000    0.000    0.000    0.000    0.000    0.000 
#
# Total GULP energy -122746.737261 kJ/mol
# GULP energy per Si atom -5579.397148 kJ/mol
# Density = 2.564850 g / cm^3
# Si number density = 25.707013 Si / 1000 Ang^3
#
#
#
# Elastic Constant Matrix: (Units=GPa)
#
#
# Indices 1 2 3 4 5 6 
#
# 1 119.5829 27.0336 60.4663 0.0000 0.0000 0.0000
# 2 27.0336 96.3057 34.8028 0.0000 0.0000 0.0000
# 3 60.4663 34.8028 187.5274 0.0000 0.0000 0.0000
# 4 0.0000 0.0000 0.0000 -8.3250 0.0000 0.0000
# 5 0.0000 0.0000 0.0000 0.0000 66.5628 0.0000
# 6 0.0000 0.0000 0.0000 0.0000 0.0000 32.1610
#
#
#
# Elastic Compliance Matrix: (Units=1/GPa)
#
#
# Indices 1 2 3 4 5 6 
#
# 1 0.010277 -0.001809 -0.002978 0.000000 0.000000 0.000000
# 2 -0.001809 0.011448 -0.001542 0.000000 0.000000 0.000000
# 3 -0.002978 -0.001542 0.006579 0.000000 0.000000 0.000000
# 4 0.000000 0.000000 0.000000 -0.120120 0.000000 0.000000
# 5 0.000000 0.000000 0.000000 0.000000 0.015023 0.000000
# 6 0.000000 0.000000 0.000000 0.000000 0.000000 0.031094
#
#
# Mechanical properties :
#
#
# Convention : Reuss Voigt Hill
#
# Bulk Modulus (GPa) = 63.90623 72.00236 67.95430
# Shear Modulus (GPa) = -179.68335 36.82066 -71.43135
#
# Velocity S-wave (km/s) = -8.36949 3.78871 -5.27703
# Velocity P-wave (km/s) = 8.27553 6.87086 3.26157
#
# Compressibility (1/GPa) = 0.01564793
#
# Stress axis : x y z
#
# Youngs Moduli (GPa) = 97.30355 87.34875 152.00124
#
# Poissons Ratio (x) = 0.15798 0.45267
# Poissons Ratio (y) = 0.17599 0.23431
# Poissons Ratio (z) = 0.28978 0.13465
#
# Static dielectric constant tensor:
#      x y z
#    x 2.156080 0.000000 0.000000 
#    y 0.000000 2.017540 0.000000 
#    z 0.000000 0.000000 1.973870 
# 
# From -- ./inp_files/11107.got.cif
#   From: 2010.05.17/outbox.cif.g08.bks.cpg/sg17_6_cif.got.tgz:11107.got - 2010.06.03 22:34:06.
