data_PCOD9311048
_publ_section_title
;
Structure prediction by ZEFSAII (Michael W. Deem and Ramdas Pophale) SiO2 
 PCOD9311048
Probable space group: P 2 2 21
;
_chemical_formula_sum "Si O2"
_cell_formula_units_Z 32
_cell_length_a 5.008445
_cell_length_b 16.631408
_cell_length_c 16.861572
_cell_angle_alpha 90.000000
_cell_angle_beta 90.000000
_cell_angle_gamma 90.000000
_cell_volume 1404.526663
_symmetry_space_group_name_H-M "P 2 2 21"
_symmetry_group_IT_number 17
_symmetry_cell_setting 'orthorhombic'
loop_
_space_group_symop_operation_xyz
x,y,z
-x,-y,1/2+z
x,-y,-z
-x,y,1/2-z
loop_
_atom_site_type_symbol
_atom_site_label
_atom_site_fract_x
_atom_site_fract_y
_atom_site_fract_z
Si Si1 0.341225 0.286629 0.434042
Si Si2 0.577763 0.105313 0.579256
Si Si3 0.757694 0.624784 0.193580
Si Si4 0.484899 0.417578 0.964841
Si Si5 0.160662 0.155130 0.331047
Si Si6 0.336642 0.928426 0.897328
Si Si7 0.762802 0.813247 0.195166
Si Si8 0.835487 0.738688 0.469742
O O1 0.232413 0.247022 0.354945
O O2 0.134531 0.256569 0.500746
O O3 0.362922 0.379565 0.458072
O O4 0.637792 0.255357 0.453133
O O5 0.553843 0.086666 0.486122
O O6 0.305724 0.128717 0.622746
O O7 0.748937 0.187655 0.584752
O O8 0.690508 0.023694 0.616049
O O9 0.500000 0.622428 0.250000
O O10 0.678972 0.579695 0.111682
O O11 0.812230 0.719229 0.172863
O O12 0.000000 0.596029 0.250000
O O13 0.372685 0.500000 0.000000
O O14 0.264217 0.349464 0.940812
O O15 0.951126 0.112964 0.390522
O O16 0.000000 0.151589 0.250000
O O17 0.439715 0.108426 0.339476
O O18 0.500000 0.813162 0.250000
O O19 0.000000 0.842296 0.250000
#
# Coordination Sequence:
#
# PCOD9311048 Si02
#       8
#     4   4   4   4   4   4   4   4
#     4  10  21  40  65  96 123 168 224 256 320 391
#     4  11  22  42  64  91 130 168 222 274 314 395
#     4  10  22  39  60  93 130 166 199 252 329 383
#     4  10  23  42  72  98 128 171 220 269 315 390
#     4  12  24  45  65  92 135 175 218 277 335 381
#     4  11  26  39  64  96 124 175 224 274 328 375
#     4  10  22  36  59  88 122 166 205 251 320 383
#     4  10  21  38  66  92 126 158 219 267 313 380
#
# _framework density 22.783477000000001
#
# number of rings (size 3 to 8) (size 9 to 14) (size 15 to 20)
#    0.750    0.750    3.750    0.375    1.750    9.000 
#    0.000    0.625    0.000    0.000    0.000    0.000 
#    0.000    0.000    0.000    0.000    0.000    0.000 
#
# Total GULP energy -178611.163276 kJ/mol
# GULP energy per Si atom -5581.598852 kJ/mol
# Density = 2.273162 g / cm^3
# Si number density = 22.783477 Si / 1000 Ang^3
#
#
#
# Elastic Constant Matrix: (Units=GPa)
#
#
# Indices 1 2 3 4 5 6 
#
# 1 82.3811 13.5790 3.4257 0.0000 0.0000 0.0000
# 2 13.5790 114.1642 29.3467 0.0000 0.0000 0.0000
# 3 3.4257 29.3467 63.6960 0.0000 0.0000 0.0000
# 4 0.0000 0.0000 0.0000 17.4594 0.0000 0.0000
# 5 0.0000 0.0000 0.0000 0.0000 26.4768 0.0000
# 6 0.0000 0.0000 0.0000 0.0000 0.0000 16.2683
#
#
#
# Elastic Compliance Matrix: (Units=1/GPa)
#
#
# Indices 1 2 3 4 5 6 
#
# 1 0.012381 -0.001476 0.000014 0.000000 0.000000 0.000000
# 2 -0.001476 0.010112 -0.004580 0.000000 0.000000 0.000000
# 3 0.000014 -0.004580 0.017809 0.000000 0.000000 0.000000
# 4 0.000000 0.000000 0.000000 0.057276 0.000000 0.000000
# 5 0.000000 0.000000 0.000000 0.000000 0.037769 0.000000
# 6 0.000000 0.000000 0.000000 0.000000 0.000000 0.061469
#
#
# Mechanical properties :
#
#
# Convention : Reuss Voigt Hill
#
# Bulk Modulus (GPa) = 35.43698 39.21601 37.32649
# Shear Modulus (GPa) = 22.90363 26.30021 24.60192
#
# Velocity S-wave (km/s) = 3.17405 3.40127 3.28962
# Velocity P-wave (km/s) = 5.38705 5.71617 5.55405
#
# Compressibility (1/GPa) = 0.02821911
#
# Stress axis : x y z
#
# Youngs Moduli (GPa) = 80.76585 98.89116 56.15210
#
# Poissons Ratio (x) = 0.14600 -0.00080
# Poissons Ratio (y) = 0.11924 0.25715
# Poissons Ratio (z) = -0.00116 0.45288
#
# Static dielectric constant tensor:
#      x y z
#    x 1.863960 0.000000 0.000000 
#    y 0.000000 1.871620 0.000000 
#    z 0.000000 0.000000 1.918200 
# 
# From -- ./inp_files/9159.got.cif
#   From: 2010.05.17/outbox.cif.g08.bks.cpg/sg17_5_cif.got.tgz:9159.got - 2010.06.03 22:34:06.
