data_PCOD9311528
_publ_section_title
;
Structure prediction by ZEFSAII (Michael W. Deem and Ramdas Pophale) SiO2 
 PCOD9311528
Probable space group: P 2 2 21
;
_chemical_formula_sum "Si O2"
_cell_formula_units_Z 16
_cell_length_a 8.674828
_cell_length_b 7.984879
_cell_length_c 10.497151
_cell_angle_alpha 90.000000
_cell_angle_beta 90.000000
_cell_angle_gamma 90.000000
_cell_volume 727.110902
_symmetry_space_group_name_H-M "P 2 2 21"
_symmetry_group_IT_number 17
_symmetry_cell_setting 'orthorhombic'
loop_
_space_group_symop_operation_xyz
x,y,z
-x,-y,1/2+z
x,-y,-z
-x,y,1/2-z
loop_
_atom_site_type_symbol
_atom_site_label
_atom_site_fract_x
_atom_site_fract_y
_atom_site_fract_z
Si Si1 0.044208 0.190886 0.001202
Si Si2 0.254673 0.366425 0.791093
Si Si3 0.000000 0.606614 0.750000
Si Si4 0.483911 0.500000 0.000000
Si Si5 0.678756 0.817237 0.047221
O O1 0.063643 0.281848 0.135494
O O2 0.136514 0.285242 0.891627
O O3 0.860879 0.189664 0.980555
O O4 0.098636 0.000000 0.000000
O O5 0.145709 0.492003 0.710772
O O6 0.379031 0.462820 0.876602
O O7 0.326958 0.228301 0.697674
O O8 0.586214 0.333928 0.018200
O O9 0.623890 0.000000 0.000000
#
# Coordination Sequence:
#
# PCOD9311528 Si02
#       5
#     4   4   2   2   4
#     4  11  25  42  71 109 142 187 251 312 373 431
#     4  12  24  48  74 108 146 193 255 307 370 453
#     4  12  22  42  74 102 142 190 242 316 370 434
#     4  12  26  48  72 114 148 202 244 302 388 454
#     4  11  26  47  74 104 155 199 244 305 377 450
#
# _framework density 22.004898000000001
#
# number of rings (size 3 to 8) (size 9 to 14) (size 15 to 20)
#    0.000    0.500    5.000    2.250    7.000    1.000 
#    0.000    7.500    0.000    0.000    0.000    0.000 
#    0.000    0.000    0.000    0.000    0.000    0.000 
#
# Total GULP energy -89483.654818 kJ/mol
# GULP energy per Si atom -5592.728426 kJ/mol
# Density = 2.195481 g / cm^3
# Si number density = 22.004898 Si / 1000 Ang^3
#
#
#
# Elastic Constant Matrix: (Units=GPa)
#
#
# Indices 1 2 3 4 5 6 
#
# 1 87.4389 61.5359 22.2761 0.0000 0.0000 0.0000
# 2 61.5359 191.5813 72.7199 0.0000 0.0000 0.0000
# 3 22.2761 72.7199 99.8523 0.0000 0.0000 0.0000
# 4 0.0000 0.0000 0.0000 38.5413 0.0000 0.0000
# 5 0.0000 0.0000 0.0000 0.0000 43.8073 0.0000
# 6 0.0000 0.0000 0.0000 0.0000 0.0000 35.4876
#
#
#
# Elastic Compliance Matrix: (Units=1/GPa)
#
#
# Indices 1 2 3 4 5 6 
#
# 1 0.014780 -0.004831 0.000221 0.000000 0.000000 0.000000
# 2 -0.004831 0.008793 -0.005326 0.000000 0.000000 0.000000
# 3 0.000221 -0.005326 0.013844 0.000000 0.000000 0.000000
# 4 0.000000 0.000000 0.000000 0.025946 0.000000 0.000000
# 5 0.000000 0.000000 0.000000 0.000000 0.022827 0.000000
# 6 0.000000 0.000000 0.000000 0.000000 0.000000 0.028179
#
#
# Mechanical properties :
#
#
# Convention : Reuss Voigt Hill
#
# Bulk Modulus (GPa) = 56.99499 76.88182 66.93840
# Shear Modulus (GPa) = 35.69109 38.38996 37.04052
#
# Velocity S-wave (km/s) = 4.03173 4.18138 4.10724
# Velocity P-wave (km/s) = 6.90148 7.63717 7.27862
#
# Compressibility (1/GPa) = 0.01754540
#
# Stress axis : x y z
#
# Youngs Moduli (GPa) = 67.65737 113.72399 72.23219
#
# Poissons Ratio (x) = 0.54945 -0.01598
# Poissons Ratio (y) = 0.32688 0.38471
# Poissons Ratio (z) = -0.01497 0.60570
#
# Static dielectric constant tensor:
#      x y z
#    x 1.819340 0.000000 0.000000 
#    y 0.000000 1.807220 0.000000 
#    z 0.000000 0.000000 1.746110 
# 
# From -- ./inp_files/3778.got.cif
#   From: 2010.05.17/outbox.cif.g08.bks.cpg/sg17_2_cif.got.tgz:3778.got - 2010.06.03 22:34:06.
