data_PCOD9311741
_publ_section_title
;
Structure prediction by ZEFSAII (Michael W. Deem and Ramdas Pophale) SiO2 
 PCOD9311741
Probable space group: P 21 21 2
;
_chemical_formula_sum "Si O2"
_cell_formula_units_Z 18
_cell_length_a 4.889022
_cell_length_b 12.449831
_cell_length_c 12.380110
_cell_angle_alpha 90.000000
_cell_angle_beta 90.000000
_cell_angle_gamma 90.000000
_cell_volume 753.546316
_symmetry_space_group_name_H-M "P 21 21 2"
_symmetry_group_IT_number 18
_symmetry_cell_setting 'orthorhombic'
loop_
_space_group_symop_operation_xyz
x,y,z
-x,-y,z
1/2+x,1/2-y,-z
1/2-x,1/2+y,-z
loop_
_atom_site_type_symbol
_atom_site_label
_atom_site_fract_x
_atom_site_fract_y
_atom_site_fract_z
Si Si1 0.196293 0.359653 0.716611
Si Si2 0.673284 0.675263 0.488688
Si Si3 0.000000 0.000000 0.121066
Si Si4 0.916129 0.185547 0.969261
Si Si5 0.797888 0.706857 0.260948
O O1 0.257716 0.394655 0.593178
O O2 0.274925 0.451436 0.799586
O O3 0.399833 0.257267 0.738803
O O4 0.895415 0.311742 0.725637
O O5 0.365224 0.718691 0.494734
O O6 0.744897 0.636921 0.368327
O O7 0.068657 0.095331 0.038830
O O8 0.799575 0.155797 0.851524
O O9 0.647305 0.223045 0.034572
#
# Coordination Sequence:
#
# PCOD9311741 Si02
#       5
#     4   4   2   4   4
#     4  10  20  34  57  86 111 149 196 244 295 352
#     4   8  16  30  55  79 105 142 182 234 292 344
#     4  12  24  38  62  88 124 158 212 248 300 360
#     4  12  24  40  58  87 123 161 203 250 303 357
#     4  10  18  38  56  80 117 152 193 238 298 353
#
# _framework density 23.887051
#
# number of rings (size 3 to 8) (size 9 to 14) (size 15 to 20)
#    0.000    1.778    4.444    0.000    0.000    3.556 
#    0.000    1.111    0.000    0.000    0.000   15.556 
#    0.000    0.000    0.000    0.000    0.000    0.000 
#
# Total GULP energy -100539.873495 kJ/mol
# GULP energy per Si atom -5585.548527 kJ/mol
# Density = 2.383268 g / cm^3
# Si number density = 23.887051 Si / 1000 Ang^3
#
#
#
# Elastic Constant Matrix: (Units=GPa)
#
#
# Indices 1 2 3 4 5 6 
#
# 1 81.2097 4.7943 -2.0741 0.0000 0.0000 0.0000
# 2 4.7943 35.9584 26.2677 0.0000 0.0000 0.0000
# 3 -2.0741 26.2677 218.7393 0.0000 0.0000 0.0000
# 4 0.0000 0.0000 0.0000 26.3838 0.0000 0.0000
# 5 0.0000 0.0000 0.0000 0.0000 22.6845 0.0000
# 6 0.0000 0.0000 0.0000 0.0000 0.0000 15.5866
#
#
#
# Elastic Compliance Matrix: (Units=1/GPa)
#
#
# Indices 1 2 3 4 5 6 
#
# 1 0.012436 -0.001912 0.000348 0.000000 0.000000 0.000000
# 2 -0.001912 0.030778 -0.003714 0.000000 0.000000 0.000000
# 3 0.000348 -0.003714 0.005021 0.000000 0.000000 0.000000
# 4 0.000000 0.000000 0.000000 0.037902 0.000000 0.000000
# 5 0.000000 0.000000 0.000000 0.000000 0.044083 0.000000
# 6 0.000000 0.000000 0.000000 0.000000 0.000000 0.064158
#
#
# Mechanical properties :
#
#
# Convention : Reuss Voigt Hill
#
# Bulk Modulus (GPa) = 26.54106 43.76480 35.15293
# Shear Modulus (GPa) = 22.98918 33.39226 28.19072
#
# Velocity S-wave (km/s) = 3.10564 3.74294 3.43908
# Velocity P-wave (km/s) = 4.89849 6.08611 5.52431
#
# Compressibility (1/GPa) = 0.03767747
#
# Stress axis : x y z
#
# Youngs Moduli (GPa) = 80.41462 32.49072 199.16470
#
# Poissons Ratio (x) = 0.06212 -0.06921
# Poissons Ratio (y) = 0.15374 0.73973
# Poissons Ratio (z) = -0.02794 0.12068
#
# Static dielectric constant tensor:
#      x y z
#    x 1.852520 0.000000 0.000000 
#    y 0.000000 2.009490 0.000000 
#    z 0.000000 0.000000 2.017420 
# 
# From -- ./inp_files/5039.got.cif
#   From: 2010.05.17/outbox.cif.g08.bks.cpg/sg18_3_cif.got.tgz:5039.got - 2010.06.03 22:40:56.
