data_PCOD9311340
_publ_section_title
;
Structure prediction by ZEFSAII (Michael W. Deem and Ramdas Pophale) SiO2 
 PCOD9311340
Probable space group: P 2 2 21
;
_chemical_formula_sum "Si O2"
_cell_formula_units_Z 24
_cell_length_a 8.554281
_cell_length_b 15.807394
_cell_length_c 8.415967
_cell_angle_alpha 90.000000
_cell_angle_beta 90.000000
_cell_angle_gamma 90.000000
_cell_volume 1138.014549
_symmetry_space_group_name_H-M "P 2 2 21"
_symmetry_group_IT_number 17
_symmetry_cell_setting 'orthorhombic'
loop_
_space_group_symop_operation_xyz
x,y,z
-x,-y,1/2+z
x,-y,-z
-x,y,1/2-z
loop_
_atom_site_type_symbol
_atom_site_label
_atom_site_fract_x
_atom_site_fract_y
_atom_site_fract_z
Si Si1 0.084165 0.917201 0.587385
Si Si2 0.624381 0.000000 0.000000
Si Si3 0.323426 0.262004 0.952751
Si Si4 0.500000 0.324163 0.250000
Si Si5 0.738855 0.586943 0.976549
Si Si6 0.500000 0.603893 0.250000
Si Si7 0.969815 0.740353 0.063348
Si Si8 0.500000 0.871166 0.250000
O O1 0.259222 0.949558 0.617495
O O2 0.000000 0.897688 0.750000
O O3 0.089744 0.834024 0.480093
O O4 0.010071 0.000000 0.500000
O O5 0.539693 0.931429 0.104009
O O6 0.374085 0.342982 0.851079
O O7 0.144903 0.265126 0.007761
O O8 0.364946 0.187971 0.826414
O O9 0.434691 0.266476 0.106727
O O10 0.361244 0.382965 0.322305
O O11 0.836750 0.500000 0.000000
O O12 0.608712 0.567186 0.112872
O O13 0.849949 0.667460 0.011705
O O14 0.000000 0.733082 0.250000
#
# Coordination Sequence:
#
# PCOD9311340 Si02
#       8
#     4   2   4   2   4   2   4   2
#     4  10  25  42  67  97 134 176 224 280 338 405
#     4  10  26  42  64 104 128 182 232 282 342 400
#     4  10  23  41  70  97 132 182 225 279 342 406
#     4  10  25  43  71 101 134 178 231 284 332 420
#     4  11  24  45  70 103 137 180 226 282 341 409
#     4   9  19  42  68  94 130 178 225 267 336 399
#     4  12  24  44  69 101 137 182 221 281 339 411
#     4  11  24  43  67  93 144 182 232 287 336 411
#
# _framework density 21.089362000000001
#
# number of rings (size 3 to 8) (size 9 to 14) (size 15 to 20)
#    0.500    1.000    1.667    2.000    9.333    2.000 
#    3.000    0.833    0.000    0.000    0.000    0.000 
#    0.000    0.000    0.000    0.000    0.000    0.000 
#
# Total GULP energy -133680.473569 kJ/mol
# GULP energy per Si atom -5570.019732 kJ/mol
# Density = 2.104136 g / cm^3
# Si number density = 21.089362 Si / 1000 Ang^3
#
#
#
# Elastic Constant Matrix: (Units=GPa)
#
#
# Indices 1 2 3 4 5 6 
#
# 1 63.8018 37.4239 5.4212 0.0000 0.0000 0.0000
# 2 37.4239 130.0566 26.8831 0.0000 0.0000 0.0000
# 3 5.4212 26.8831 90.0107 0.0000 0.0000 0.0000
# 4 0.0000 0.0000 0.0000 23.9765 0.0000 0.0000
# 5 0.0000 0.0000 0.0000 0.0000 25.7636 0.0000
# 6 0.0000 0.0000 0.0000 0.0000 0.0000 -6.5985
#
#
#
# Elastic Compliance Matrix: (Units=1/GPa)
#
#
# Indices 1 2 3 4 5 6 
#
# 1 0.018879 -0.005539 0.000517 0.000000 0.000000 0.000000
# 2 -0.005539 0.009820 -0.002599 0.000000 0.000000 0.000000
# 3 0.000517 -0.002599 0.011855 0.000000 0.000000 0.000000
# 4 0.000000 0.000000 0.000000 0.041707 0.000000 0.000000
# 5 0.000000 0.000000 0.000000 0.000000 0.038814 0.000000
# 6 0.000000 0.000000 0.000000 0.000000 0.000000 -0.151551
#
#
# Mechanical properties :
#
#
# Convention : Reuss Voigt Hill
#
# Bulk Modulus (GPa) = 39.50796 47.03613 43.27205
# Shear Modulus (GPa) = -735.80486 22.90441 -356.45023
#
# Velocity S-wave (km/s) = -18.69909 3.29912 -13.01483
# Velocity P-wave (km/s) = 21.15263 6.07157 14.32777
#
# Compressibility (1/GPa) = 0.02531136
#
# Stress axis : x y z
#
# Youngs Moduli (GPa) = 52.96960 101.83099 84.35291
#
# Poissons Ratio (x) = 0.56407 -0.04364
# Poissons Ratio (y) = 0.29342 0.21926
# Poissons Ratio (z) = -0.02740 0.26469
#
# Static dielectric constant tensor:
#      x y z
#    x 1.829940 0.000000 0.000000 
#    y 0.000000 1.841370 0.000000 
#    z 0.000000 0.000000 1.776090 
# 
# From -- ./inp_files/4315.got.cif
#   From: 2010.05.17/outbox.cif.g08.bks.cpg/sg17_3_cif.got.tgz:4315.got - 2010.06.03 22:34:06.
