data_PCOD9311901
_publ_section_title
;
Structure prediction by ZEFSAII (Michael W. Deem and Ramdas Pophale) SiO2 
 PCOD9311901
Probable space group: P 21 21 2
;
_chemical_formula_sum "Si O2"
_cell_formula_units_Z 28
_cell_length_a 9.372336
_cell_length_b 11.740376
_cell_length_c 11.841046
_cell_angle_alpha 90.000000
_cell_angle_beta 90.000000
_cell_angle_gamma 90.000000
_cell_volume 1302.926520
_symmetry_space_group_name_H-M "P 21 21 2"
_symmetry_group_IT_number 18
_symmetry_cell_setting 'orthorhombic'
loop_
_space_group_symop_operation_xyz
x,y,z
-x,-y,z
1/2+x,1/2-y,-z
1/2-x,1/2+y,-z
loop_
_atom_site_type_symbol
_atom_site_label
_atom_site_fract_x
_atom_site_fract_y
_atom_site_fract_z
Si Si1 0.634815 0.813965 0.260054
Si Si2 0.443352 0.874203 0.602824
Si Si3 0.077383 0.110426 0.672426
Si Si4 0.575313 0.883369 0.022774
Si Si5 0.870972 0.682899 0.147998
Si Si6 0.708415 0.782860 0.494471
Si Si7 0.662773 0.482703 0.086589
O O1 0.539959 0.703383 0.291131
O O2 0.553774 0.872091 0.156355
O O3 0.785309 0.786246 0.202300
O O4 0.673925 0.859714 0.383461
O O5 0.435385 0.874190 0.738933
O O6 0.557136 0.779995 0.558815
O O7 0.291533 0.830087 0.551761
O O8 0.500000 0.000000 0.569116
O O9 0.187158 0.160736 0.584437
O O10 0.153010 0.067840 0.786946
O O11 0.000000 0.000000 0.623459
O O12 0.500000 0.000000 0.985023
O O13 0.490630 0.793380 0.945784
O O14 0.738432 0.899286 0.986243
O O15 0.746008 0.602909 0.095786
O O16 0.500000 0.500000 0.048195
#
# Coordination Sequence:
#
# PCOD9311901 Si02
#       7
#     4   4   4   4   4   4   4
#     4  11  23  39  58  96 130 161 215 259 321 395
#     4  11  23  40  65  95 130 170 222 281 321 388
#     4  11  21  40  66  91 122 164 218 275 311 375
#     4  10  23  40  61  91 132 169 207 258 327 390
#     4  10  20  39  62  94 124 165 221 266 306 387
#     4  11  24  41  62  95 127 167 224 263 335 394
#     4  10  19  37  67  93 121 162 220 263 317 371
#
# _framework density 21.490084
#
# number of rings (size 3 to 8) (size 9 to 14) (size 15 to 20)
#    0.000    1.429    4.286    3.000    4.000    0.571 
#    0.000    0.714    3.143    0.000    0.000    0.000 
#    0.000    0.000    0.000    0.000    0.000    0.000 
#
# Total GULP energy -156082.838947 kJ/mol
# GULP energy per Si atom -5574.387105 kJ/mol
# Density = 2.144117 g / cm^3
# Si number density = 21.490084 Si / 1000 Ang^3
#
#
#
# Elastic Constant Matrix: (Units=GPa)
#
#
# Indices 1 2 3 4 5 6 
#
# 1 125.8832 17.7627 49.8203 0.0000 0.0000 0.0000
# 2 17.7627 19.6110 8.4474 0.0000 0.0000 0.0000
# 3 49.8203 8.4474 78.4249 0.0000 0.0000 0.0000
# 4 0.0000 0.0000 0.0000 4.1325 0.0000 0.0000
# 5 0.0000 0.0000 0.0000 0.0000 20.2097 0.0000
# 6 0.0000 0.0000 0.0000 0.0000 0.0000 24.7580
#
#
#
# Elastic Compliance Matrix: (Units=1/GPa)
#
#
# Indices 1 2 3 4 5 6 
#
# 1 0.011626 -0.007706 -0.006555 0.000000 0.000000 0.000000
# 2 -0.007706 0.058581 -0.001415 0.000000 0.000000 0.000000
# 3 -0.006555 -0.001415 0.017068 0.000000 0.000000 0.000000
# 4 0.000000 0.000000 0.000000 0.241985 0.000000 0.000000
# 5 0.000000 0.000000 0.000000 0.000000 0.049481 0.000000
# 6 0.000000 0.000000 0.000000 0.000000 0.000000 0.040391
#
#
# Mechanical properties :
#
#
# Convention : Reuss Voigt Hill
#
# Bulk Modulus (GPa) = 17.88195 41.77555 29.82875
# Shear Modulus (GPa) = 10.65817 19.67928 15.16872
#
# Velocity S-wave (km/s) = 2.22943 3.02940 2.65966
# Velocity P-wave (km/s) = 3.86862 5.63187 4.83137
#
# Compressibility (1/GPa) = 0.05592231
#
# Stress axis : x y z
#
# Youngs Moduli (GPa) = 86.01718 17.07040 58.59019
#
# Poissons Ratio (x) = 0.13155 0.38407
# Poissons Ratio (y) = 0.66287 0.08288
# Poissons Ratio (z) = 0.56386 0.02415
#
# Static dielectric constant tensor:
#      x y z
#    x 1.839850 0.000000 0.000000 
#    y 0.000000 1.838290 0.000000 
#    z 0.000000 0.000000 1.806510 
# 
# From -- ./inp_files/5609.got.cif
#   From: 2010.05.17/outbox.cif.g08.bks.cpg/sg18_3_cif.got.tgz:5609.got - 2010.06.03 22:40:56.
