data_PCOD9311571
_publ_section_title
;
Structure prediction by ZEFSAII (Michael W. Deem and Ramdas Pophale) SiO2 
 PCOD9311571
Probable space group: P 2 2 21
;
_chemical_formula_sum "Si O2"
_cell_formula_units_Z 32
_cell_length_a 4.927977
_cell_length_b 11.507795
_cell_length_c 24.205226
_cell_angle_alpha 90.000000
_cell_angle_beta 90.000000
_cell_angle_gamma 90.000000
_cell_volume 1372.681975
_symmetry_space_group_name_H-M "P 2 2 21"
_symmetry_group_IT_number 17
_symmetry_cell_setting 'orthorhombic'
loop_
_space_group_symop_operation_xyz
x,y,z
-x,-y,1/2+z
x,-y,-z
-x,y,1/2-z
loop_
_atom_site_type_symbol
_atom_site_label
_atom_site_fract_x
_atom_site_fract_y
_atom_site_fract_z
Si Si1 0.991271 0.879192 0.844439
Si Si2 0.525008 0.741013 0.811085
Si Si3 0.285484 0.120289 0.466040
Si Si4 0.746796 0.460528 0.558132
Si Si5 0.190479 0.796296 0.024540
Si Si6 0.262219 0.477482 0.376679
Si Si7 0.090743 0.862976 0.144127
Si Si8 0.582066 0.287371 0.813871
O O1 0.747236 0.842784 0.804332
O O2 0.827771 0.885345 0.903654
O O3 0.245225 0.790309 0.837368
O O4 0.101476 0.007427 0.832826
O O5 0.500000 0.688999 0.750000
O O6 0.670955 0.644443 0.848590
O O7 0.595223 0.154163 0.480180
O O8 0.096043 0.216728 0.494508
O O9 0.242921 0.000000 0.500000
O O10 0.861804 0.500000 0.500000
O O11 0.712895 0.323491 0.550759
O O12 0.457397 0.516106 0.570344
O O13 0.954037 0.499216 0.605764
O O14 0.128164 0.875607 0.077841
O O15 0.355683 0.585912 0.338791
O O16 0.826321 0.797224 0.167045
O O17 0.327471 0.778140 0.161245
O O18 0.500000 0.298576 0.750000
#
# Coordination Sequence:
#
# PCOD9311571 Si02
#       8
#     4   4   4   4   4   4   4   4
#     4  12  28  47  73 107 148 192 249 298 358 439
#     4  12  29  51  75 102 145 200 253 309 360 425
#     4  12  26  42  71 107 142 194 236 284 354 443
#     4  12  27  44  71 107 144 183 226 296 370 436
#     4  12  24  44  69 102 150 184 234 289 366 437
#     4  12  25  50  71 104 142 184 240 292 364 435
#     4  12  25  46  70 107 145 185 232 300 369 432
#     4  12  25  45  75 104 133 181 241 304 366 424
#
# _framework density 23.312028999999999
#
# number of rings (size 3 to 8) (size 9 to 14) (size 15 to 20)
#    0.000    0.000    3.750    5.625    7.000    3.000 
#    0.000    3.750    0.000    0.000    0.000    0.000 
#    0.000    0.000    0.000    0.000    0.000    0.000 
#
# Total GULP energy -178951.907868 kJ/mol
# GULP energy per Si atom -5592.247121 kJ/mol
# Density = 2.325897 g / cm^3
# Si number density = 23.312029 Si / 1000 Ang^3
#
#
#
# Elastic Constant Matrix: (Units=GPa)
#
#
# Indices 1 2 3 4 5 6 
#
# 1 86.2361 17.3332 4.4999 0.0000 0.0000 0.0000
# 2 17.3332 98.1468 11.6149 0.0000 0.0000 0.0000
# 3 4.4999 11.6149 72.9337 0.0000 0.0000 0.0000
# 4 0.0000 0.0000 0.0000 18.8108 0.0000 0.0000
# 5 0.0000 0.0000 0.0000 0.0000 38.9605 0.0000
# 6 0.0000 0.0000 0.0000 0.0000 0.0000 34.8808
#
#
#
# Elastic Compliance Matrix: (Units=1/GPa)
#
#
# Indices 1 2 3 4 5 6 
#
# 1 0.012035 -0.002077 -0.000412 0.000000 0.000000 0.000000
# 2 -0.002077 0.010743 -0.001583 0.000000 0.000000 0.000000
# 3 -0.000412 -0.001583 0.013989 0.000000 0.000000 0.000000
# 4 0.000000 0.000000 0.000000 0.053161 0.000000 0.000000
# 5 0.000000 0.000000 0.000000 0.000000 0.025667 0.000000
# 6 0.000000 0.000000 0.000000 0.000000 0.000000 0.028669
#
#
# Mechanical properties :
#
#
# Convention : Reuss Voigt Hill
#
# Bulk Modulus (GPa) = 34.93578 36.02362 35.47970
# Shear Modulus (GPa) = 30.87427 33.45499 32.16463
#
# Velocity S-wave (km/s) = 3.64317 3.79238 3.71852
# Velocity P-wave (km/s) = 5.71975 5.88749 5.80423
#
# Compressibility (1/GPa) = 0.02862395
#
# Stress axis : x y z
#
# Youngs Moduli (GPa) = 83.09121 93.08490 71.48704
#
# Poissons Ratio (x) = 0.19331 0.02944
# Poissons Ratio (y) = 0.17256 0.11314
# Poissons Ratio (z) = 0.03422 0.14733
#
# Static dielectric constant tensor:
#      x y z
#    x 1.828700 0.000000 0.000000 
#    y 0.000000 1.842160 0.000000 
#    z 0.000000 0.000000 1.765490 
# 
# From -- ./inp_files/10506.got.cif
#   From: 2010.05.17/outbox.cif.g08.bks.cpg/sg17_6_cif.got.tgz:10506.got - 2010.06.03 22:34:06.
