data_PCOD9311530
_publ_section_title
;
Structure prediction by ZEFSAII (Michael W. Deem and Ramdas Pophale) SiO2 
 PCOD9311530
Probable space group: P 2 2 21
;
_chemical_formula_sum "Si O2"
_cell_formula_units_Z 12
_cell_length_a 17.046798
_cell_length_b 5.492830
_cell_length_c 5.273287
_cell_angle_alpha 90.000000
_cell_angle_beta 90.000000
_cell_angle_gamma 90.000000
_cell_volume 493.765090
_symmetry_space_group_name_H-M "P 2 2 21"
_symmetry_group_IT_number 17
_symmetry_cell_setting 'orthorhombic'
loop_
_space_group_symop_operation_xyz
x,y,z
-x,-y,1/2+z
x,-y,-z
-x,y,1/2-z
loop_
_atom_site_type_symbol
_atom_site_label
_atom_site_fract_x
_atom_site_fract_y
_atom_site_fract_z
Si Si1 0.167637 0.852314 0.741037
Si Si2 0.665146 0.259264 0.345521
Si Si3 0.000000 0.640358 0.750000
Si Si4 0.551935 0.500000 0.000000
O O1 0.243121 0.687046 0.784490
O O2 0.080619 0.766533 0.670367
O O3 0.195671 0.000000 0.500000
O O4 0.156851 0.000000 0.000000
O O5 0.642155 0.500000 0.500000
O O6 0.660188 0.000000 0.500000
O O7 0.608970 0.282429 0.100055
O O8 0.974077 0.500000 0.500000
O O9 0.500000 0.434710 0.750000
#
# Coordination Sequence:
#
# PCOD9311530 Si02
#       4
#     4   4   2   2
#     4  11  25  44  73 106 153 206 262 319 386 464
#     4  11  28  53  83 118 161 211 268 329 407 485
#     4  12  24  40  68 108 154 204 260 320 380 456
#     4  12  28  56  84 122 162 214 270 344 416 498
#
# _framework density 24.303056000000002
#
# number of rings (size 3 to 8) (size 9 to 14) (size 15 to 20)
#    0.000    0.667    1.667    4.000   11.667    0.000 
#    6.000    0.000    0.000    0.000    0.000    0.000 
#    0.000    0.000    0.000    0.000    0.000    0.000 
#
# Total GULP energy -66908.003707 kJ/mol
# GULP energy per Si atom -5575.666976 kJ/mol
# Density = 2.424774 g / cm^3
# Si number density = 24.303056 Si / 1000 Ang^3
#
#
#
# Elastic Constant Matrix: (Units=GPa)
#
#
# Indices 1 2 3 4 5 6 
#
# 1 175.0369 31.1081 3.1102 0.0000 0.0000 0.0000
# 2 31.1081 89.3164 41.5658 0.0000 0.0000 0.0000
# 3 3.1102 41.5658 102.3317 0.0000 0.0000 0.0000
# 4 0.0000 0.0000 0.0000 49.4378 0.0000 0.0000
# 5 0.0000 0.0000 0.0000 0.0000 -2.1855 0.0000
# 6 0.0000 0.0000 0.0000 0.0000 0.0000 104.3966
#
#
#
# Elastic Compliance Matrix: (Units=1/GPa)
#
#
# Indices 1 2 3 4 5 6 
#
# 1 0.006148 -0.002533 0.000842 0.000000 0.000000 0.000000
# 2 -0.002533 0.014850 -0.005955 0.000000 0.000000 0.000000
# 3 0.000842 -0.005955 0.012165 0.000000 0.000000 0.000000
# 4 0.000000 0.000000 0.000000 0.020227 0.000000 0.000000
# 5 0.000000 0.000000 0.000000 0.000000 -0.457554 0.000000
# 6 0.000000 0.000000 0.000000 0.000000 0.000000 0.009579
#
#
# Mechanical properties :
#
#
# Convention : Reuss Voigt Hill
#
# Bulk Modulus (GPa) = 55.95516 57.58366 56.76941
# Shear Modulus (GPa) = -13.39278 49.72316 18.16519
#
# Velocity S-wave (km/s) = -2.35004 4.52814 2.73691
# Velocity P-wave (km/s) = 3.96362 7.14732 5.77903
#
# Compressibility (1/GPa) = 0.01787145
#
# Stress axis : x y z
#
# Youngs Moduli (GPa) = 162.64528 67.34146 82.20107
#
# Poissons Ratio (x) = 0.17060 -0.06922
# Poissons Ratio (y) = 0.41203 0.48949
# Poissons Ratio (z) = -0.13697 0.40100
#
# Static dielectric constant tensor:
#      x y z
#    x 1.931280 0.000000 0.000000 
#    y 0.000000 2.067760 0.000000 
#    z 0.000000 0.000000 1.960010 
# 
# From -- ./inp_files/2373.got.cif
#   From: 2010.05.17/outbox.cif.g08.bks.cpg/sg17_2_cif.got.tgz:2373.got - 2010.06.03 22:34:06.
