data_PCOD9311592
_publ_section_title
;
Structure prediction by ZEFSAII (Michael W. Deem and Ramdas Pophale) SiO2 
 PCOD9311592
Probable space group: P 2 2 21
;
_chemical_formula_sum "Si O2"
_cell_formula_units_Z 12
_cell_length_a 7.944331
_cell_length_b 5.649760
_cell_length_c 10.598588
_cell_angle_alpha 90.000000
_cell_angle_beta 90.000000
_cell_angle_gamma 90.000000
_cell_volume 475.702398
_symmetry_space_group_name_H-M "P 2 2 21"
_symmetry_group_IT_number 17
_symmetry_cell_setting 'orthorhombic'
loop_
_space_group_symop_operation_xyz
x,y,z
-x,-y,1/2+z
x,-y,-z
-x,y,1/2-z
loop_
_atom_site_type_symbol
_atom_site_label
_atom_site_fract_x
_atom_site_fract_y
_atom_site_fract_z
Si Si1 0.760094 0.318556 0.882107
Si Si2 0.681962 0.298532 0.312900
Si Si3 0.481734 0.000000 0.000000
Si Si4 0.000000 0.974147 0.250000
O O1 0.727993 0.451277 0.749536
O O2 0.937427 0.187578 0.865847
O O3 0.760524 0.500000 0.000000
O O4 0.611730 0.132834 0.907013
O O5 0.500000 0.249314 0.250000
O O6 0.635399 0.215297 0.452904
O O7 0.839231 0.134943 0.277492
#
# Coordination Sequence:
#
# PCOD9311592 Si02
#       4
#     4   4   2   2
#     4  12  26  49  83 117 161 215 277 335 402 485
#     4  12  27  50  81 116 159 215 269 330 408 484
#     4  12  28  50  88 114 166 216 268 344 400 484
#     4  12  28  48  78 116 166 202 276 336 400 484
#
# _framework density 25.225857000000001
#
# number of rings (size 3 to 8) (size 9 to 14) (size 15 to 20)
#    0.000    0.000    6.667    1.000    4.667    6.667 
#    0.000    0.000    7.333    0.000    0.000    0.000 
#    0.000    0.000    0.000    0.000    0.000    0.000 
#
# Total GULP energy -67033.135616 kJ/mol
# GULP energy per Si atom -5586.094635 kJ/mol
# Density = 2.516844 g / cm^3
# Si number density = 25.225857 Si / 1000 Ang^3
#
#
#
# Elastic Constant Matrix: (Units=GPa)
#
#
# Indices 1 2 3 4 5 6 
#
# 1 171.1392 45.8442 22.6295 0.0000 0.0000 0.0000
# 2 45.8442 125.5318 41.1077 0.0000 0.0000 0.0000
# 3 22.6295 41.1077 56.5995 0.0000 0.0000 0.0000
# 4 0.0000 0.0000 0.0000 41.1992 0.0000 0.0000
# 5 0.0000 0.0000 0.0000 0.0000 47.9189 0.0000
# 6 0.0000 0.0000 0.0000 0.0000 0.0000 28.1179
#
#
#
# Elastic Compliance Matrix: (Units=1/GPa)
#
#
# Indices 1 2 3 4 5 6 
#
# 1 0.006534 -0.002008 -0.001154 0.000000 0.000000 0.000000
# 2 -0.002008 0.011069 -0.007237 0.000000 0.000000 0.000000
# 3 -0.001154 -0.007237 0.023385 0.000000 0.000000 0.000000
# 4 0.000000 0.000000 0.000000 0.024272 0.000000 0.000000
# 5 0.000000 0.000000 0.000000 0.000000 0.020869 0.000000
# 6 0.000000 0.000000 0.000000 0.000000 0.000000 0.035565
#
#
# Mechanical properties :
#
#
# Convention : Reuss Voigt Hill
#
# Bulk Modulus (GPa) = 49.52700 63.60370 56.56535
# Shear Modulus (GPa) = 33.50735 39.69315 36.60025
#
# Velocity S-wave (km/s) = 3.64853 3.97105 3.81320
# Velocity P-wave (km/s) = 6.11760 6.80398 6.46990
#
# Compressibility (1/GPa) = 0.02019101
#
# Stress axis : x y z
#
# Youngs Moduli (GPa) = 153.05196 90.34001 42.76226
#
# Poissons Ratio (x) = 0.18143 0.04933
# Poissons Ratio (y) = 0.30738 0.30945
# Poissons Ratio (z) = 0.17657 0.65375
#
# Static dielectric constant tensor:
#      x y z
#    x 1.880990 0.000000 0.000000 
#    y 0.000000 2.020100 0.000000 
#    z 0.000000 0.000000 2.156610 
# 
# From -- ./inp_files/6140.got.cif
#   From: 2010.05.17/outbox.cif.g08.bks.cpg/sg17_4_cif.got.tgz:6140.got - 2010.06.03 22:34:06.
