data_PCOD9311371
_publ_section_title
;
Structure prediction by ZEFSAII (Michael W. Deem and Ramdas Pophale) SiO2 
 PCOD9311371
Probable space group: P 2 2 21
;
_chemical_formula_sum "Si O2"
_cell_formula_units_Z 26
_cell_length_a 12.755248
_cell_length_b 12.185523
_cell_length_c 8.727089
_cell_angle_alpha 90.000000
_cell_angle_beta 90.000000
_cell_angle_gamma 90.000000
_cell_volume 1356.445927
_symmetry_space_group_name_H-M "P 2 2 21"
_symmetry_group_IT_number 17
_symmetry_cell_setting 'orthorhombic'
loop_
_space_group_symop_operation_xyz
x,y,z
-x,-y,1/2+z
x,-y,-z
-x,y,1/2-z
loop_
_atom_site_type_symbol
_atom_site_label
_atom_site_fract_x
_atom_site_fract_y
_atom_site_fract_z
Si Si1 0.352523 0.000000 0.000000
Si Si2 0.001600 0.122452 0.431655
Si Si3 0.658664 0.000000 0.000000
Si Si4 0.609022 0.622330 0.061777
Si Si5 0.500000 0.982506 0.750000
Si Si6 0.789521 0.805820 0.399469
Si Si7 0.211663 0.789205 0.467064
Si Si8 0.625289 0.377906 0.569037
O O1 0.281115 0.913857 0.085047
O O2 0.423961 0.067118 0.121688
O O3 0.095754 0.206449 0.466572
O O4 0.000000 0.108840 0.250000
O O5 0.895627 0.169705 0.507871
O O6 0.020774 0.000000 0.500000
O O7 0.583253 0.040454 0.862095
O O8 0.731938 0.102240 0.034073
O O9 0.705261 0.693627 0.999832
O O10 0.491339 0.663496 0.020603
O O11 0.618923 0.618074 0.245939
O O12 0.615815 0.500000 0.000000
O O13 0.804473 0.791685 0.217232
O O14 0.720630 0.704660 0.464745
O O15 0.639860 0.500000 0.500000
#
# Coordination Sequence:
#
# PCOD9311371 Si02
#       8
#     2   4   2   4   2   4   4   4
#     4  11  22  37  54  88 122 159 197 234 306 360
#     4  12  26  42  61  88 121 158 209 251 305 363
#     4  11  22  37  54  88 122 159 197 234 306 360
#     4   9  20  39  62  91 123 159 198 244 300 359
#     4  10  24  34  52  84 130 154 194 244 290 368
#     4  11  23  40  63  86 121 162 201 251 302 360
#     4  11  23  40  63  86 121 162 201 251 302 360
#     4   9  20  39  62  91 123 159 198 244 300 359
#
# _framework density 19.167736999999999
#
# number of rings (size 3 to 8) (size 9 to 14) (size 15 to 20)
#    0.000    1.538    3.077    1.385    6.462    1.231 
#    0.000    0.769    0.000    0.000    0.000    0.000 
#    0.000    0.000    0.000    0.000    0.000    0.000 
#
# Total GULP energy -144867.562191 kJ/mol
# GULP energy per Si atom -5571.829315 kJ/mol
# Density = 1.912411 g / cm^3
# Si number density = 19.167737 Si / 1000 Ang^3
#
#
#
# Elastic Constant Matrix: (Units=GPa)
#
#
# Indices 1 2 3 4 5 6 
#
# 1 139.2851 45.9563 37.4600 0.0000 0.0000 0.0000
# 2 45.9563 69.8439 8.1348 0.0000 0.0000 0.0000
# 3 37.4600 8.1348 61.4954 0.0000 0.0000 0.0000
# 4 0.0000 0.0000 0.0000 23.2360 0.0000 0.0000
# 5 0.0000 0.0000 0.0000 0.0000 5.2178 0.0000
# 6 0.0000 0.0000 0.0000 0.0000 0.0000 32.5273
#
#
#
# Elastic Compliance Matrix: (Units=1/GPa)
#
#
# Indices 1 2 3 4 5 6 
#
# 1 0.010867 -0.006479 -0.005763 0.000000 0.000000 0.000000
# 2 -0.006479 0.018405 0.001512 0.000000 0.000000 0.000000
# 3 -0.005763 0.001512 0.019572 0.000000 0.000000 0.000000
# 4 0.000000 0.000000 0.000000 0.043037 0.000000 0.000000
# 5 0.000000 0.000000 0.000000 0.000000 0.191653 0.000000
# 6 0.000000 0.000000 0.000000 0.000000 0.000000 0.030743
#
#
# Mechanical properties :
#
#
# Convention : Reuss Voigt Hill
#
# Bulk Modulus (GPa) = 36.51738 50.41404 43.46571
# Shear Modulus (GPa) = 14.49847 24.13443 19.31645
#
# Velocity S-wave (km/s) = 2.75326 3.55225 3.17796
# Velocity P-wave (km/s) = 5.40371 6.57140 6.01595
#
# Compressibility (1/GPa) = 0.02738422
#
# Stress axis : x y z
#
# Youngs Moduli (GPa) = 92.02056 54.33374 51.09427
#
# Poissons Ratio (x) = 0.35204 0.29444
# Poissons Ratio (y) = 0.59622 -0.07726
# Poissons Ratio (z) = 0.53028 -0.08216
#
# Static dielectric constant tensor:
#      x y z
#    x 1.694830 0.000000 0.000000 
#    y 0.000000 1.646940 0.000000 
#    z 0.000000 0.000000 1.705160 
# 
# From -- ./inp_files/4848.got.cif
#   From: 2010.05.17/outbox.cif.g08.bks.cpg/sg17_3_cif.got.tgz:4848.got - 2010.06.03 22:34:06.
