data_PCOD9311646
_publ_section_title
;
Structure prediction by ZEFSAII (Michael W. Deem and Ramdas Pophale) SiO2 
 PCOD9311646
Probable space group: P 21 21 2
;
_chemical_formula_sum "Si O2"
_cell_formula_units_Z 30
_cell_length_a 5.653014
_cell_length_b 17.287763
_cell_length_c 15.074297
_cell_angle_alpha 90.000000
_cell_angle_beta 90.000000
_cell_angle_gamma 90.000000
_cell_volume 1473.180389
_symmetry_space_group_name_H-M "P 21 21 2"
_symmetry_group_IT_number 18
_symmetry_cell_setting 'orthorhombic'
loop_
_space_group_symop_operation_xyz
x,y,z
-x,-y,z
1/2+x,1/2-y,-z
1/2-x,1/2+y,-z
loop_
_atom_site_type_symbol
_atom_site_label
_atom_site_fract_x
_atom_site_fract_y
_atom_site_fract_z
Si Si1 0.642733 0.393085 0.376320
Si Si2 0.835498 0.774397 0.308161
Si Si3 0.000000 0.500000 0.064129
Si Si4 0.160638 0.291460 0.607441
Si Si5 0.201387 0.866644 0.983017
Si Si6 0.509842 0.259201 0.882578
Si Si7 0.853888 0.620335 0.421092
Si Si8 0.318284 0.622563 0.167531
O O1 0.651668 0.301703 0.404820
O O2 0.392755 0.424040 0.410842
O O3 0.637054 0.395265 0.269659
O O4 0.895954 0.421791 0.410346
O O5 0.589836 0.809481 0.344545
O O6 0.845571 0.685437 0.342762
O O7 0.088288 0.808255 0.343143
O O8 0.828672 0.774745 0.202138
O O9 0.163906 0.446327 0.004152
O O10 0.140821 0.559336 0.126713
O O11 0.155897 0.333649 0.513402
O O12 0.373464 0.796067 0.956403
O O13 0.044463 0.879662 0.895466
O O14 0.060162 0.836973 0.067483
O O15 0.295113 0.207787 0.843292
#
# Coordination Sequence:
#
# PCOD9311646 Si02
#       8
#     4   4   2   4   4   4   4   4
#     4  10  18  28  49  72 108 151 197 224 286 354
#     4  10  18  28  44  75 108 155 184 237 284 358
#     4  10  26  40  58  80 118 168 206 252 322 378
#     4  10  17  28  45  71 117 157 184 225 296 360
#     4  11  22  39  58  85 113 161 203 259 316 378
#     4  11  21  33  58  84 114 153 210 252 311 367
#     4  10  17  28  44  75 111 159 184 227 289 363
#     4  11  21  39  55  82 115 160 201 257 303 378
#
# _framework density 20.364104000000001
#
# number of rings (size 3 to 8) (size 9 to 14) (size 15 to 20)
#    0.000    1.600    4.000    6.000    1.867    0.000 
#    0.000    0.000    0.000    0.000    0.000    0.000 
#    0.000    1.067    2.667    0.000    0.000    0.000 
#
# Total GULP energy -167525.556032 kJ/mol
# GULP energy per Si atom -5584.185201 kJ/mol
# Density = 2.031775 g / cm^3
# Si number density = 20.364104 Si / 1000 Ang^3
#
#
#
# Elastic Constant Matrix: (Units=GPa)
#
#
# Indices 1 2 3 4 5 6 
#
# 1 144.3681 36.5355 22.9524 0.0000 0.0000 0.0000
# 2 36.5355 66.0240 39.2179 0.0000 0.0000 0.0000
# 3 22.9524 39.2179 80.4669 0.0000 0.0000 0.0000
# 4 0.0000 0.0000 0.0000 -3.4580 0.0000 0.0000
# 5 0.0000 0.0000 0.0000 0.0000 25.9401 0.0000
# 6 0.0000 0.0000 0.0000 0.0000 0.0000 28.0772
#
#
#
# Elastic Compliance Matrix: (Units=1/GPa)
#
#
# Indices 1 2 3 4 5 6 
#
# 1 0.008057 -0.004354 -0.000176 0.000000 0.000000 0.000000
# 2 -0.004354 0.023670 -0.010294 0.000000 0.000000 0.000000
# 3 -0.000176 -0.010294 0.017495 0.000000 0.000000 0.000000
# 4 0.000000 0.000000 0.000000 -0.289182 0.000000 0.000000
# 5 0.000000 0.000000 0.000000 0.000000 0.038550 0.000000
# 6 0.000000 0.000000 0.000000 0.000000 0.000000 0.035616
#
#
# Mechanical properties :
#
#
# Convention : Reuss Voigt Hill
#
# Bulk Modulus (GPa) = 51.09054 54.25232 52.67143
# Shear Modulus (GPa) = -38.57402 22.92207 -7.82598
#
# Velocity S-wave (km/s) = -4.35698 3.35865 -1.96249
# Velocity P-wave (km/s) = 0.40995 6.46063 4.55915
#
# Compressibility (1/GPa) = 0.01957310
#
# Stress axis : x y z
#
# Youngs Moduli (GPa) = 124.12323 42.24767 57.15908
#
# Poissons Ratio (x) = 0.18393 0.01007
# Poissons Ratio (y) = 0.54037 0.58842
# Poissons Ratio (z) = 0.02187 0.43492
#
# Static dielectric constant tensor:
#      x y z
#    x 1.841040 0.000000 0.000000 
#    y 0.000000 1.691930 0.000000 
#    z 0.000000 0.000000 1.706790 
# 
# From -- ./inp_files/6536.got.cif
#   From: 2010.05.17/outbox.cif.g08.bks.cpg/sg18_4_cif.got.tgz:6536.got - 2010.06.03 22:40:56.
