data_PCOD9311376
_publ_section_title
;
Structure prediction by ZEFSAII (Michael W. Deem and Ramdas Pophale) SiO2 
 PCOD9311376
Probable space group: P 2 2 21
;
_chemical_formula_sum "Si O2"
_cell_formula_units_Z 8
_cell_length_a 8.211041
_cell_length_b 8.966344
_cell_length_c 5.153783
_cell_angle_alpha 90.000000
_cell_angle_beta 90.000000
_cell_angle_gamma 90.000000
_cell_volume 379.437060
_symmetry_space_group_name_H-M "P 2 2 21"
_symmetry_group_IT_number 17
_symmetry_cell_setting 'orthorhombic'
loop_
_space_group_symop_operation_xyz
x,y,z
-x,-y,1/2+z
x,-y,-z
-x,y,1/2-z
loop_
_atom_site_type_symbol
_atom_site_label
_atom_site_fract_x
_atom_site_fract_y
_atom_site_fract_z
Si Si1 0.000000 0.106317 0.750000
Si Si2 0.338639 0.825977 0.421577
Si Si3 0.500000 0.398530 0.250000
O O1 0.166376 0.197415 0.716539
O O2 0.980252 0.000000 0.500000
O O3 0.500000 0.802712 0.250000
O O4 0.357181 0.713982 0.661905
O O5 0.341735 0.000000 0.500000
O O6 0.537385 0.500000 0.500000
#
# Coordination Sequence:
#
# PCOD9311376 Si02
#       3
#     2   4   2
#     4  10  24  38  68 112 136 164 232 296 336 396
#     4  11  22  42  75 101 136 179 232 283 341 399
#     4  12  26  42  70 102 142 184 226 278 346 410
#
# _framework density 21.083863000000001
#
# number of rings (size 3 to 8) (size 9 to 14) (size 15 to 20)
#    0.000    1.000    5.000    1.500    7.000    0.000 
#    0.000    0.000   11.000    0.000    0.000    0.000 
#    0.000    0.000    0.000    0.000    0.000    0.000 
#
# Total GULP energy -44680.908590 kJ/mol
# GULP energy per Si atom -5585.113574 kJ/mol
# Density = 2.103588 g / cm^3
# Si number density = 21.083863 Si / 1000 Ang^3
#
#
#
# Elastic Constant Matrix: (Units=GPa)
#
#
# Indices 1 2 3 4 5 6 
#
# 1 200.0754 37.7488 62.7587 0.0000 0.0000 0.0000
# 2 37.7488 127.9784 58.5360 0.0000 0.0000 0.0000
# 3 62.7587 58.5360 147.3092 0.0000 0.0000 0.0000
# 4 0.0000 0.0000 0.0000 35.8693 0.0000 0.0000
# 5 0.0000 0.0000 0.0000 0.0000 41.0585 0.0000
# 6 0.0000 0.0000 0.0000 0.0000 0.0000 -8.5653
#
#
#
# Elastic Compliance Matrix: (Units=1/GPa)
#
#
# Indices 1 2 3 4 5 6 
#
# 1 0.005822 -0.000712 -0.002197 0.000000 0.000000 0.000000
# 2 -0.000712 0.009637 -0.003526 0.000000 0.000000 0.000000
# 3 -0.002197 -0.003526 0.009126 0.000000 0.000000 0.000000
# 4 0.000000 0.000000 0.000000 0.027879 0.000000 0.000000
# 5 0.000000 0.000000 0.000000 0.000000 0.024356 0.000000
# 6 0.000000 0.000000 0.000000 0.000000 0.000000 -0.116750
#
#
# Mechanical properties :
#
#
# Convention : Reuss Voigt Hill
#
# Bulk Modulus (GPa) = 85.37290 88.16112 86.76701
# Shear Modulus (GPa) = -215.91848 34.76045 -90.57902
#
# Velocity S-wave (km/s) = -10.13073 4.06479 -6.56160
# Velocity P-wave (km/s) = 9.81133 7.99596 4.02038
#
# Compressibility (1/GPa) = 0.01171332
#
# Stress axis : x y z
#
# Youngs Moduli (GPa) = 171.77089 103.77123 109.58173
#
# Poissons Ratio (x) = 0.07390 0.24078
# Poissons Ratio (y) = 0.12233 0.38637
# Poissons Ratio (z) = 0.37742 0.36588
#
# Static dielectric constant tensor:
#      x y z
#    x 1.774160 0.000000 0.000000 
#    y 0.000000 1.785660 0.000000 
#    z 0.000000 0.000000 1.833180 
# 
# From -- ./inp_files/426.got.cif
#   From: 2010.05.17/outbox.cif.g08.bks.cpg/sg17_1_cif.got.tgz:426.got - 2010.06.03 22:34:06.
