data_PCOD9311508
_publ_section_title
;
Structure prediction by ZEFSAII (Michael W. Deem and Ramdas Pophale) SiO2 
 PCOD9311508
Probable space group: P 2 2 21
;
_chemical_formula_sum "Si O2"
_cell_formula_units_Z 20
_cell_length_a 9.730361
_cell_length_b 12.526672
_cell_length_c 7.476653
_cell_angle_alpha 90.000000
_cell_angle_beta 90.000000
_cell_angle_gamma 90.000000
_cell_volume 911.322062
_symmetry_space_group_name_H-M "P 2 2 21"
_symmetry_group_IT_number 17
_symmetry_cell_setting 'orthorhombic'
loop_
_space_group_symop_operation_xyz
x,y,z
-x,-y,1/2+z
x,-y,-z
-x,y,1/2-z
loop_
_atom_site_type_symbol
_atom_site_label
_atom_site_fract_x
_atom_site_fract_y
_atom_site_fract_z
Si Si1 0.364494 0.332382 0.984056
Si Si2 0.160687 0.277158 0.271741
Si Si3 0.155564 0.977874 0.707188
Si Si4 0.678251 0.615403 0.067553
Si Si5 0.601357 0.901399 0.401476
O O1 0.321167 0.364655 0.781678
O O2 0.519819 0.374650 0.001929
O O3 0.376060 0.204885 0.009034
O O4 0.249681 0.351552 0.134765
O O5 0.225932 0.300170 0.465961
O O6 0.000000 0.304201 0.250000
O O7 0.168137 0.148040 0.249369
O O8 0.261296 0.048066 0.820806
O O9 0.000000 0.010829 0.750000
O O10 0.182443 0.000000 0.500000
O O11 0.726445 0.500000 0.000000
O O12 0.500000 0.862790 0.250000
O O13 0.530315 0.000000 0.500000
#
# Coordination Sequence:
#
# PCOD9311508 Si02
#       5
#     4   4   4   4   4
#     4  11  25  45  72 102 138 176 234 290 342 418
#     4  11  26  46  69 103 141 183 230 286 343 414
#     4  11  24  40  65  95 140 187 224 269 334 415
#     4  11  26  48  73 102 131 181 232 292 360 409
#     4  12  23  39  63  99 134 177 224 279 335 398
#
# _framework density 21.946135999999999
#
# number of rings (size 3 to 8) (size 9 to 14) (size 15 to 20)
#    0.000    0.800    4.000    3.000   11.200    0.800 
#    3.600    0.000    0.000    0.000    0.000    0.000 
#    0.000    0.000    0.000    0.000    0.000    0.000 
#
# Total GULP energy -111715.889519 kJ/mol
# GULP energy per Si atom -5585.794476 kJ/mol
# Density = 2.189619 g / cm^3
# Si number density = 21.946136 Si / 1000 Ang^3
#
#
#
# Elastic Constant Matrix: (Units=GPa)
#
#
# Indices 1 2 3 4 5 6 
#
# 1 103.9704 -1.6815 19.6462 0.0000 0.0000 0.0000
# 2 -1.6815 61.9881 -23.2996 0.0000 0.0000 0.0000
# 3 19.6462 -23.2996 50.6226 0.0000 0.0000 0.0000
# 4 0.0000 0.0000 0.0000 26.3640 0.0000 0.0000
# 5 0.0000 0.0000 0.0000 0.0000 157.6935 0.0000
# 6 0.0000 0.0000 0.0000 0.0000 0.0000 58.2705
#
#
#
# Elastic Compliance Matrix: (Units=1/GPa)
#
#
# Indices 1 2 3 4 5 6 
#
# 1 0.010494 -0.001507 -0.004766 0.000000 0.000000 0.000000
# 2 -0.001507 0.019723 0.009663 0.000000 0.000000 0.000000
# 3 -0.004766 0.009663 0.026051 0.000000 0.000000 0.000000
# 4 0.000000 0.000000 0.000000 0.037931 0.000000 0.000000
# 5 0.000000 0.000000 0.000000 0.000000 0.006341 0.000000
# 6 0.000000 0.000000 0.000000 0.000000 0.000000 0.017161
#
#
# Mechanical properties :
#
#
# Convention : Reuss Voigt Hill
#
# Bulk Modulus (GPa) = 15.86107 22.87904 19.37005
# Shear Modulus (GPa) = 37.89630 63.25999 50.57814
#
# Velocity S-wave (km/s) = 4.15997 5.37473 4.80588
# Velocity P-wave (km/s) = 5.50607 6.99747 6.29609
#
# Compressibility (1/GPa) = 0.06304746
#
# Stress axis : x y z
#
# Youngs Moduli (GPa) = 95.28891 50.70181 38.38607
#
# Poissons Ratio (x) = 0.07640 0.18296
# Poissons Ratio (y) = 0.14359 -0.37091
# Poissons Ratio (z) = 0.45418 -0.48991
#
# Static dielectric constant tensor:
#      x y z
#    x 1.795610 0.000000 0.000000 
#    y 0.000000 1.374090 0.000000 
#    z 0.000000 0.000000 1.897790 
# 
# From -- ./inp_files/4011.got.cif
#   From: 2010.05.17/outbox.cif.g08.bks.cpg/sg17_3_cif.got.tgz:4011.got - 2010.06.03 22:34:06.
