data_PCOD9311973
_publ_section_title
;
Structure prediction by ZEFSAII (Michael W. Deem and Ramdas Pophale) SiO2 
 PCOD9311973
Probable space group: P 21 21 2
;
_chemical_formula_sum "Si O2"
_cell_formula_units_Z 32
_cell_length_a 7.038457
_cell_length_b 33.816066
_cell_length_c 5.480616
_cell_angle_alpha 90.000000
_cell_angle_beta 90.000000
_cell_angle_gamma 90.000000
_cell_volume 1304.457453
_symmetry_space_group_name_H-M "P 21 21 2"
_symmetry_group_IT_number 18
_symmetry_cell_setting 'orthorhombic'
loop_
_space_group_symop_operation_xyz
x,y,z
-x,-y,z
1/2+x,1/2-y,-z
1/2-x,1/2+y,-z
loop_
_atom_site_type_symbol
_atom_site_label
_atom_site_fract_x
_atom_site_fract_y
_atom_site_fract_z
Si Si1 0.129808 0.597019 0.038842
Si Si2 0.825140 0.076772 0.966918
Si Si3 0.673745 0.945246 0.461080
Si Si4 0.018258 0.678547 0.879911
Si Si5 0.206912 0.294513 0.491579
Si Si6 0.902739 0.163747 0.894217
Si Si7 0.221602 0.965996 0.469210
Si Si8 0.020761 0.758181 0.129880
O O1 0.204617 0.581701 0.299217
O O2 0.901651 0.587239 0.038201
O O3 0.208868 0.574887 0.800065
O O4 0.144646 0.643625 0.983961
O O5 0.939197 0.118150 0.947921
O O6 0.857982 0.051963 0.720556
O O7 0.856167 0.053447 0.219636
O O8 0.447854 0.955435 0.466918
O O9 0.784517 0.986628 0.473104
O O10 0.968886 0.679435 0.592457
O O11 0.810332 0.670040 0.996622
O O12 0.071825 0.722953 0.947102
O O13 0.365916 0.324293 0.386886
O O14 0.300704 0.268368 0.700541
O O15 0.131506 0.262963 0.300461
O O16 0.022054 0.199722 0.006961
#
# Coordination Sequence:
#
# PCOD9311973 Si02
#       8
#     4   4   4   4   4   4   4   4
#     4   9  17  25  41  59  86 122 165 211 247 300
#     4   9  17  25  41  59  86 122 165 211 247 300
#     4   9  16  25  37  57  85 120 162 206 252 297
#     4   9  19  30  46  68  94 129 178 213 260 308
#     4  10  20  34  54  70 103 140 177 224 268 314
#     4   9  19  30  46  68  94 129 178 213 260 308
#     4   9  16  25  37  57  85 120 162 206 252 297
#     4  10  20  34  50  76 100 134 184 218 266 316
#
# _framework density 24.531272999999999
#
# number of rings (size 3 to 8) (size 9 to 14) (size 15 to 20)
#    0.000    2.750    0.000    1.500   12.250    3.000 
#    0.000    0.000    0.000    0.000    0.000    0.000 
#    0.000    0.000    0.000    1.125   16.000    6.000 
#
# Total GULP energy -178806.343168 kJ/mol
# GULP energy per Si atom -5587.698224 kJ/mol
# Density = 2.447544 g / cm^3
# Si number density = 24.531273 Si / 1000 Ang^3
#
#
#
# Elastic Constant Matrix: (Units=GPa)
#
#
# Indices 1 2 3 4 5 6 
#
# 1 68.5376 26.1866 13.9487 0.0000 0.0000 0.0000
# 2 26.1866 183.3422 88.7255 0.0000 0.0000 0.0000
# 3 13.9487 88.7255 161.6354 0.0000 0.0000 0.0000
# 4 0.0000 0.0000 0.0000 33.1377 0.0000 0.0000
# 5 0.0000 0.0000 0.0000 0.0000 12.3004 0.0000
# 6 0.0000 0.0000 0.0000 0.0000 0.0000 36.1383
#
#
#
# Elastic Compliance Matrix: (Units=1/GPa)
#
#
# Indices 1 2 3 4 5 6 
#
# 1 0.015436 -0.002124 -0.000166 0.000000 0.000000 0.000000
# 2 -0.002124 0.007720 -0.004054 0.000000 0.000000 0.000000
# 3 -0.000166 -0.004054 0.008427 0.000000 0.000000 0.000000
# 4 0.000000 0.000000 0.000000 0.030177 0.000000 0.000000
# 5 0.000000 0.000000 0.000000 0.000000 0.081298 0.000000
# 6 0.000000 0.000000 0.000000 0.000000 0.000000 0.027671
#
#
# Mechanical properties :
#
#
# Convention : Reuss Voigt Hill
#
# Bulk Modulus (GPa) = 52.92931 74.58187 63.75559
# Shear Modulus (GPa) = 26.35523 35.29224 30.82374
#
# Velocity S-wave (km/s) = 3.28129 3.79709 3.54857
# Velocity P-wave (km/s) = 5.99824 7.04930 6.54490
#
# Compressibility (1/GPa) = 0.01889312
#
# Stress axis : x y z
#
# Youngs Moduli (GPa) = 64.78365 129.53936 118.67297
#
# Poissons Ratio (x) = 0.27519 0.01969
# Poissons Ratio (y) = 0.13763 0.48112
# Poissons Ratio (z) = 0.01075 0.52518
#
# Static dielectric constant tensor:
#      x y z
#    x 2.073030 0.000000 0.000000 
#    y 0.000000 1.911280 0.000000 
#    z 0.000000 0.000000 2.052280 
# 
# From -- ./inp_files/1313.got.cif
#   From: 2010.05.17/outbox.cif.g08.bks.cpg/sg18_1_cif.got.tgz:1313.got - 2010.06.03 22:40:56.
