data_PCOD9311489
_publ_section_title
;
Structure prediction by ZEFSAII (Michael W. Deem and Ramdas Pophale) SiO2 
 PCOD9311489
Probable space group: P 2 2 21
;
_chemical_formula_sum "Si O2"
_cell_formula_units_Z 16
_cell_length_a 7.358476
_cell_length_b 18.577632
_cell_length_c 5.431728
_cell_angle_alpha 90.000000
_cell_angle_beta 90.000000
_cell_angle_gamma 90.000000
_cell_volume 742.533834
_symmetry_space_group_name_H-M "P 2 2 21"
_symmetry_group_IT_number 17
_symmetry_cell_setting 'orthorhombic'
loop_
_space_group_symop_operation_xyz
x,y,z
-x,-y,1/2+z
x,-y,-z
-x,y,1/2-z
loop_
_atom_site_type_symbol
_atom_site_label
_atom_site_fract_x
_atom_site_fract_y
_atom_site_fract_z
Si Si1 0.000000 0.454841 0.250000
Si Si2 0.000000 0.212791 0.250000
Si Si3 0.660342 0.866942 0.915633
Si Si4 0.883032 0.000000 0.000000
Si Si5 0.500000 0.740135 0.250000
Si Si6 0.856504 0.338004 0.556795
O O1 0.043496 0.500000 0.500000
O O2 0.844200 0.397924 0.340942
O O3 0.176764 0.164737 0.255665
O O4 0.966982 0.267350 0.471230
O O5 0.500000 0.897612 0.750000
O O6 0.755444 0.931291 0.062207
O O7 0.583385 0.796847 0.054812
O O8 0.000000 0.012461 0.250000
O O9 0.337514 0.689991 0.149118
O O10 0.000000 0.369798 0.750000
#
# Coordination Sequence:
#
# PCOD9311489 Si02
#       6
#     2   2   4   2   2   4
#     4  11  24  48  82 108 149 208 240 288 373 448
#     4  11  22  44  66 104 143 192 238 314 361 440
#     4  12  27  45  71 103 150 194 257 311 386 438
#     4  12  32  50  74 102 150 206 258 312 386 460
#     4  12  26  42  76 114 146 192 252 316 374 432
#     4  11  23  42  76 110 151 188 245 300 368 439
#
# _framework density 21.547839
#
# number of rings (size 3 to 8) (size 9 to 14) (size 15 to 20)
#    0.000    0.500    7.500    0.000    8.750    0.000 
#    0.000    0.000    5.500    0.000    0.000    0.000 
#    0.000    0.000    0.000    0.000    0.000    0.000 
#
# Total GULP energy -89166.076142 kJ/mol
# GULP energy per Si atom -5572.879759 kJ/mol
# Density = 2.149880 g / cm^3
# Si number density = 21.547839 Si / 1000 Ang^3
#
#
#
# Elastic Constant Matrix: (Units=GPa)
#
#
# Indices 1 2 3 4 5 6 
#
# 1 130.8778 48.7150 51.5288 0.0000 0.0000 0.0000
# 2 48.7150 124.2281 45.8000 0.0000 0.0000 0.0000
# 3 51.5288 45.8000 93.1125 0.0000 0.0000 0.0000
# 4 0.0000 0.0000 0.0000 34.9454 0.0000 0.0000
# 5 0.0000 0.0000 0.0000 0.0000 32.2360 0.0000
# 6 0.0000 0.0000 0.0000 0.0000 0.0000 183.7867
#
#
#
# Elastic Compliance Matrix: (Units=1/GPa)
#
#
# Indices 1 2 3 4 5 6 
#
# 1 0.010310 -0.002369 -0.004540 0.000000 0.000000 0.000000
# 2 -0.002369 0.010377 -0.003793 0.000000 0.000000 0.000000
# 3 -0.004540 -0.003793 0.015118 0.000000 0.000000 0.000000
# 4 0.000000 0.000000 0.000000 0.028616 0.000000 0.000000
# 5 0.000000 0.000000 0.000000 0.000000 0.031021 0.000000
# 6 0.000000 0.000000 0.000000 0.000000 0.000000 0.005441
#
#
# Mechanical properties :
#
#
# Convention : Reuss Voigt Hill
#
# Bulk Modulus (GPa) = 69.44404 71.14513 70.29459
# Shear Modulus (GPa) = 39.34238 63.67192 51.50715
#
# Velocity S-wave (km/s) = 4.27759 5.44181 4.89444
# Velocity P-wave (km/s) = 7.52960 8.51900 8.03953
#
# Compressibility (1/GPa) = 0.01440008
#
# Stress axis : x y z
#
# Youngs Moduli (GPa) = 96.99164 96.36487 66.14557
#
# Poissons Ratio (x) = 0.22830 0.30033
# Poissons Ratio (y) = 0.22978 0.25091
# Poissons Ratio (z) = 0.44038 0.36554
#
# Static dielectric constant tensor:
#      x y z
#    x 1.773730 0.000000 0.000000 
#    y 0.000000 1.824440 0.000000 
#    z 0.000000 0.000000 1.039810 
# 
# From -- ./inp_files/305.got.cif
#   From: 2010.05.17/outbox.cif.g08.bks.cpg/sg17_1_cif.got.tgz:305.got - 2010.06.03 22:34:06.
