data_PCOD9311786
_publ_section_title
;
Structure prediction by ZEFSAII (Michael W. Deem and Ramdas Pophale) SiO2 
 PCOD9311786
Probable space group: P 21 21 2
;
_chemical_formula_sum "Si O2"
_cell_formula_units_Z 26
_cell_length_a 5.061493
_cell_length_b 12.752234
_cell_length_c 18.837079
_cell_angle_alpha 90.000000
_cell_angle_beta 90.000000
_cell_angle_gamma 90.000000
_cell_volume 1215.845728
_symmetry_space_group_name_H-M "P 21 21 2"
_symmetry_group_IT_number 18
_symmetry_cell_setting 'orthorhombic'
loop_
_space_group_symop_operation_xyz
x,y,z
-x,-y,z
1/2+x,1/2-y,-z
1/2-x,1/2+y,-z
loop_
_atom_site_type_symbol
_atom_site_label
_atom_site_fract_x
_atom_site_fract_y
_atom_site_fract_z
Si Si1 0.439158 0.276695 0.979985
Si Si2 0.686425 0.580947 0.496187
Si Si3 0.451173 0.235213 0.675869
Si Si4 0.547655 0.783479 0.415846
Si Si5 0.898837 0.882974 0.880532
Si Si6 0.415569 0.769103 0.831789
Si Si7 0.500000 0.000000 0.632675
O O1 0.498626 0.304716 0.898128
O O2 0.657950 0.181459 0.990657
O O3 0.638298 0.337517 0.038987
O O4 0.500000 0.500000 0.536462
O O5 0.538400 0.686153 0.470829
O O6 0.941574 0.618108 0.539823
O O7 0.768856 0.525081 0.422969
O O8 0.165739 0.265402 0.646404
O O9 0.526773 0.273488 0.754020
O O10 0.667189 0.278721 0.620372
O O11 0.463544 0.107626 0.674977
O O12 0.117070 0.808413 0.843014
O O13 0.620320 0.865423 0.842799
O O14 0.000000 0.000000 0.880106
#
# Coordination Sequence:
#
# PCOD9311786 Si02
#       7
#     4   4   4   4   4   4   2
#     4   8  16  31  50  73 102 144 188 217 259 318
#     4  11  22  41  62  87 114 157 201 255 308 355
#     4  11  23  38  53  86 121 154 188 236 304 373
#     4  11  24  39  60  87 118 149 202 247 294 371
#     4  10  19  31  52  84 108 143 195 237 272 332
#     4  10  20  35  53  75 118 157 178 227 293 355
#     4  10  22  34  56  84 114 148 186 242 306 362
#
# _framework density 21.384295000000002
#
# number of rings (size 3 to 8) (size 9 to 14) (size 15 to 20)
#    0.000    1.846    1.538    3.231    4.308    0.000 
#    0.000    0.000    0.000    0.923    0.000    4.308 
#    0.000    0.000    0.000    0.000    0.000    0.000 
#
# Total GULP energy -144770.736697 kJ/mol
# GULP energy per Si atom -5568.105258 kJ/mol
# Density = 2.133562 g / cm^3
# Si number density = 21.384295 Si / 1000 Ang^3
#
#
#
# Elastic Constant Matrix: (Units=GPa)
#
#
# Indices 1 2 3 4 5 6 
#
# 1 125.2731 14.2085 16.9752 0.0000 0.0000 0.0000
# 2 14.2085 36.7535 8.2927 0.0000 0.0000 0.0000
# 3 16.9752 8.2927 132.8008 0.0000 0.0000 0.0000
# 4 0.0000 0.0000 0.0000 20.6767 0.0000 0.0000
# 5 0.0000 0.0000 0.0000 0.0000 10.0958 0.0000
# 6 0.0000 0.0000 0.0000 0.0000 0.0000 31.4151
#
#
#
# Elastic Compliance Matrix: (Units=1/GPa)
#
#
# Indices 1 2 3 4 5 6 
#
# 1 0.008451 -0.003066 -0.000889 0.000000 0.000000 0.000000
# 2 -0.003066 0.028710 -0.001401 0.000000 0.000000 0.000000
# 3 -0.000889 -0.001401 0.007731 0.000000 0.000000 0.000000
# 4 0.000000 0.000000 0.000000 0.048364 0.000000 0.000000
# 5 0.000000 0.000000 0.000000 0.000000 0.099051 0.000000
# 6 0.000000 0.000000 0.000000 0.000000 0.000000 0.031832
#
#
# Mechanical properties :
#
#
# Convention : Reuss Voigt Hill
#
# Bulk Modulus (GPa) = 29.25711 41.53115 35.39413
# Shear Modulus (GPa) = 20.30511 29.46092 24.88302
#
# Velocity S-wave (km/s) = 3.08479 3.71575 3.41488
# Velocity P-wave (km/s) = 5.13802 6.15407 5.66885
#
# Compressibility (1/GPa) = 0.03417973
#
# Stress axis : x y z
#
# Youngs Moduli (GPa) = 118.33211 34.83132 129.34690
#
# Poissons Ratio (x) = 0.10681 0.11496
# Poissons Ratio (y) = 0.36286 0.18119
# Poissons Ratio (z) = 0.10517 0.04879
#
# Static dielectric constant tensor:
#      x y z
#    x 1.600980 0.000000 0.000000 
#    y 0.000000 2.113280 0.000000 
#    z 0.000000 0.000000 1.835570 
# 
# From -- ./inp_files/7174.got.cif
#   From: 2010.05.17/outbox.cif.g08.bks.cpg/sg18_4_cif.got.tgz:7174.got - 2010.06.03 22:40:56.
