data_PCOD9311402
_publ_section_title
;
Structure prediction by ZEFSAII (Michael W. Deem and Ramdas Pophale) SiO2 
 PCOD9311402
Probable space group: P 2 2 21
;
_chemical_formula_sum "Si O2"
_cell_formula_units_Z 14
_cell_length_a 20.028972
_cell_length_b 5.166053
_cell_length_c 5.278559
_cell_angle_alpha 90.000000
_cell_angle_beta 90.000000
_cell_angle_gamma 90.000000
_cell_volume 546.176358
_symmetry_space_group_name_H-M "P 2 2 21"
_symmetry_group_IT_number 17
_symmetry_cell_setting 'orthorhombic'
loop_
_space_group_symop_operation_xyz
x,y,z
-x,-y,1/2+z
x,-y,-z
-x,y,1/2-z
loop_
_atom_site_type_symbol
_atom_site_label
_atom_site_fract_x
_atom_site_fract_y
_atom_site_fract_z
Si Si1 0.145471 0.320234 0.752083
Si Si2 0.352031 0.241893 0.168019
Si Si3 0.000000 0.677564 0.250000
Si Si4 0.747794 0.000000 0.000000
Si Si5 0.500000 0.672945 0.750000
O O1 0.147713 0.500000 0.500000
O O2 0.071949 0.186914 0.756461
O O3 0.203067 0.112519 0.712619
O O4 0.153622 0.500000 0.000000
O O5 0.301180 0.224241 0.399432
O O6 0.428788 0.187917 0.249159
O O7 0.349279 0.500000 0.000000
O O8 0.332265 0.000000 0.000000
O O9 0.000236 0.500000 0.500000
O O10 0.499321 0.500000 0.500000
#
# Coordination Sequence:
#
# PCOD9311402 Si02
#       5
#     4   4   2   2   2
#     4  10  24  45  74 106 153 202 264 325 400 469
#     4  11  30  50  80 115 160 208 268 326 401 474
#     4   8  16  40  70 102 140 198 258 326 384 468
#     4  12  30  44  78 114 160 208 260 330 400 490
#     4  10  26  52  82 114 152 206 266 330 388 468
#
# _framework density 25.632742
#
# number of rings (size 3 to 8) (size 9 to 14) (size 15 to 20)
#    0.000    1.714    0.000    0.000   18.000    1.143 
#    0.000    8.571    0.000    0.000    0.000    0.000 
#    0.000    0.000    0.000    0.000    0.000    0.000 
#
# Total GULP energy -78441.107248 kJ/mol
# GULP energy per Si atom -5602.936232 kJ/mol
# Density = 2.557440 g / cm^3
# Si number density = 25.632742 Si / 1000 Ang^3
#
#
#
# Elastic Constant Matrix: (Units=GPa)
#
#
# Indices 1 2 3 4 5 6 
#
# 1 277.1996 52.3331 51.1467 0.0000 0.0000 0.0000
# 2 52.3331 97.8842 43.2038 0.0000 0.0000 0.0000
# 3 51.1467 43.2038 170.0973 0.0000 0.0000 0.0000
# 4 0.0000 0.0000 0.0000 48.2912 0.0000 0.0000
# 5 0.0000 0.0000 0.0000 0.0000 42.5653 0.0000
# 6 0.0000 0.0000 0.0000 0.0000 0.0000 -70.3210
#
#
#
# Elastic Compliance Matrix: (Units=1/GPa)
#
#
# Indices 1 2 3 4 5 6 
#
# 1 0.004098 -0.001855 -0.000761 0.000000 0.000000 0.000000
# 2 -0.001855 0.012346 -0.002578 0.000000 0.000000 0.000000
# 3 -0.000761 -0.002578 0.006763 0.000000 0.000000 0.000000
# 4 0.000000 0.000000 0.000000 0.020708 0.000000 0.000000
# 5 0.000000 0.000000 0.000000 0.000000 0.023493 0.000000
# 6 0.000000 0.000000 0.000000 0.000000 0.000000 -0.014221
#
#
# Mechanical properties :
#
#
# Convention : Reuss Voigt Hill
#
# Bulk Modulus (GPa) = 78.01356 93.17203 85.59279
# Shear Modulus (GPa) = 73.69386 30.67361 52.18373
#
# Velocity S-wave (km/s) = 5.36771 3.46303 4.51690
# Velocity P-wave (km/s) = 8.30166 7.24001 7.78895
#
# Compressibility (1/GPa) = 0.01281828
#
# Stress axis : x y z
#
# Youngs Moduli (GPa) = 244.01114 80.99900 147.87160
#
# Poissons Ratio (x) = 0.15026 0.11254
# Poissons Ratio (y) = 0.45267 0.38121
# Poissons Ratio (z) = 0.18571 0.20881
#
# Static dielectric constant tensor:
#      x y z
#    x 2.042530 0.000000 0.000000 
#    y 0.000000 1.875950 0.000000 
#    z 0.000000 0.000000 2.165880 
# 
# From -- ./inp_files/2805.got.cif
#   From: 2010.05.17/outbox.cif.g08.bks.cpg/sg17_2_cif.got.tgz:2805.got - 2010.06.03 22:34:06.
