data_PCOD9311724
_publ_section_title
;
Structure prediction by ZEFSAII (Michael W. Deem and Ramdas Pophale) SiO2 
 PCOD9311724
Probable space group: P 21 21 2
;
_chemical_formula_sum "Si O2"
_cell_formula_units_Z 24
_cell_length_a 13.568495
_cell_length_b 5.101792
_cell_length_c 17.644505
_cell_angle_alpha 90.000000
_cell_angle_beta 90.000000
_cell_angle_gamma 90.000000
_cell_volume 1221.416849
_symmetry_space_group_name_H-M "P 21 21 2"
_symmetry_group_IT_number 18
_symmetry_cell_setting 'orthorhombic'
loop_
_space_group_symop_operation_xyz
x,y,z
-x,-y,z
1/2+x,1/2-y,-z
1/2-x,1/2+y,-z
loop_
_atom_site_type_symbol
_atom_site_label
_atom_site_fract_x
_atom_site_fract_y
_atom_site_fract_z
Si Si1 0.500000 0.500000 0.356461
Si Si2 0.000000 0.500000 0.534204
Si Si3 0.705017 0.895253 0.537056
Si Si4 0.000000 0.500000 0.825062
Si Si5 0.280374 0.572212 0.295884
Si Si6 0.287127 0.079391 0.209020
Si Si7 0.000000 0.000000 0.926955
Si Si8 0.793250 0.225622 0.963365
O O1 0.490282 0.249098 0.410881
O O2 0.398681 0.552835 0.310459
O O3 0.096895 0.499060 0.482456
O O4 0.777278 0.119988 0.504827
O O5 0.730164 0.858041 0.624921
O O6 0.905360 0.417922 0.778963
O O7 0.031116 0.249789 0.875881
O O8 0.244245 0.293051 0.265592
O O9 0.256969 0.789308 0.232410
O O10 0.275443 0.172512 0.122447
O O11 0.904058 0.109207 0.969477
O O12 0.775712 0.480855 0.014876
#
# Coordination Sequence:
#
# PCOD9311724 Si02
#       8
#     2   2   4   2   4   4   2   4
#     4  12  22  35  62  90 123 160 196 244 314 379
#     4  12  22  41  60  88 121 162 212 254 296 373
#     4  12  23  41  61  87 121 164 209 258 301 364
#     4  10  18  35  54  84 125 158 184 240 320 391
#     4  12  22  36  57  89 124 161 200 253 309 366
#     4  11  22  36  57  89 125 159 199 250 312 374
#     4  10  20  35  60  90 121 156 198 246 310 369
#     4  11  22  39  63  90 125 167 207 251 306 375
#
# _framework density 19.649312999999999
#
# number of rings (size 3 to 8) (size 9 to 14) (size 15 to 20)
#    0.000    0.667    3.333    8.000    0.000    0.667 
#    0.000    0.000    0.000    4.000    0.000    0.000 
#    0.000    0.000    0.000    0.000    0.000    0.000 
#
# Total GULP energy -134103.564370 kJ/mol
# GULP energy per Si atom -5587.648515 kJ/mol
# Density = 1.960459 g / cm^3
# Si number density = 19.649313 Si / 1000 Ang^3
#
#
#
# Elastic Constant Matrix: (Units=GPa)
#
#
# Indices 1 2 3 4 5 6 
#
# 1 43.8947 20.1492 26.0429 0.0000 0.0000 0.0000
# 2 20.1492 140.8802 42.0524 0.0000 0.0000 0.0000
# 3 26.0429 42.0524 74.8173 0.0000 0.0000 0.0000
# 4 0.0000 0.0000 0.0000 55.2497 0.0000 0.0000
# 5 0.0000 0.0000 0.0000 0.0000 25.5160 0.0000
# 6 0.0000 0.0000 0.0000 0.0000 0.0000 24.1210
#
#
#
# Elastic Compliance Matrix: (Units=1/GPa)
#
#
# Indices 1 2 3 4 5 6 
#
# 1 0.028926 -0.001360 -0.009305 0.000000 0.000000 0.000000
# 2 -0.001360 0.008593 -0.004357 0.000000 0.000000 0.000000
# 3 -0.009305 -0.004357 0.019053 0.000000 0.000000 0.000000
# 4 0.000000 0.000000 0.000000 0.018100 0.000000 0.000000
# 5 0.000000 0.000000 0.000000 0.000000 0.039191 0.000000
# 6 0.000000 0.000000 0.000000 0.000000 0.000000 0.041458
#
#
# Mechanical properties :
#
#
# Convention : Reuss Voigt Hill
#
# Bulk Modulus (GPa) = 37.69177 48.45347 43.07262
# Shear Modulus (GPa) = 25.74571 32.40050 29.07310
#
# Velocity S-wave (km/s) = 3.62368 4.06512 3.85073
# Velocity P-wave (km/s) = 6.06069 6.83712 6.46058
#
# Compressibility (1/GPa) = 0.02653099
#
# Stress axis : x y z
#
# Youngs Moduli (GPa) = 34.57051 116.37171 52.48403
#
# Poissons Ratio (x) = 0.15824 0.48834
# Poissons Ratio (y) = 0.04701 0.22865
# Poissons Ratio (z) = 0.32166 0.50699
#
# Static dielectric constant tensor:
#      x y z
#    x 1.681950 0.000000 0.000000 
#    y 0.000000 1.700930 0.000000 
#    z 0.000000 0.000000 1.677690 
# 
# From -- ./inp_files/6478.got.cif
#   From: 2010.05.17/outbox.cif.g08.bks.cpg/sg18_4_cif.got.tgz:6478.got - 2010.06.03 22:40:56.
