data_PCOD9311499
_publ_section_title
;
Structure prediction by ZEFSAII (Michael W. Deem and Ramdas Pophale) SiO2 
 PCOD9311499
Probable space group: P 2 2 21
;
_chemical_formula_sum "Si O2"
_cell_formula_units_Z 20
_cell_length_a 18.223598
_cell_length_b 5.625567
_cell_length_c 8.135601
_cell_angle_alpha 90.000000
_cell_angle_beta 90.000000
_cell_angle_gamma 90.000000
_cell_volume 834.046125
_symmetry_space_group_name_H-M "P 2 2 21"
_symmetry_group_IT_number 17
_symmetry_cell_setting 'orthorhombic'
loop_
_space_group_symop_operation_xyz
x,y,z
-x,-y,1/2+z
x,-y,-z
-x,y,1/2-z
loop_
_atom_site_type_symbol
_atom_site_label
_atom_site_fract_x
_atom_site_fract_y
_atom_site_fract_z
Si Si1 0.720280 0.708960 0.239581
Si Si2 0.500000 0.332434 0.250000
Si Si3 0.143650 0.353521 0.230875
Si Si4 0.000000 0.661567 0.250000
Si Si5 0.919323 0.000000 0.000000
Si Si6 0.791940 0.000000 0.500000
Si Si7 0.394137 0.500000 0.000000
Si Si8 0.623141 0.500000 0.000000
O O1 0.789541 0.531151 0.226040
O O2 0.661148 0.608943 0.368639
O O3 0.676431 0.706575 0.068664
O O4 0.746954 0.941728 0.334877
O O5 0.553199 0.297853 0.416116
O O6 0.568369 0.424017 0.142901
O O7 0.068896 0.496815 0.212289
O O8 0.128990 0.159250 0.375052
O O9 0.161255 0.221854 0.059940
O O10 0.028748 0.827843 0.395750
#
# Coordination Sequence:
#
# PCOD9311499 Si02
#       8
#     4   2   4   2   2   2   2   2
#     4  11  23  41  67 105 146 193 246 309 363 443
#     4   8  16  34  70 106 132 190 244 288 382 438
#     4  12  28  47  72 106 146 193 249 307 367 443
#     4  12  30  52  74 104 144 186 248 308 370 450
#     4  12  30  49  76 104 141 194 248 308 381 434
#     4  12  26  45  70 104 151 196 254 304 383 426
#     4   9  16  38  62 105 136 184 240 299 356 436
#     4   9  20  36  72 107 144 188 252 307 368 450
#
# _framework density 23.979489000000001
#
# number of rings (size 3 to 8) (size 9 to 14) (size 15 to 20)
#    0.000    1.200    2.000    2.400    5.600   12.000 
#    0.000    0.000    0.000    7.200    0.000    0.000 
#    0.000    0.000    0.000    0.000    0.000    0.000 
#
# Total GULP energy -111434.841040 kJ/mol
# GULP energy per Si atom -5571.742052 kJ/mol
# Density = 2.392491 g / cm^3
# Si number density = 23.979489 Si / 1000 Ang^3
#
#
#
# Elastic Constant Matrix: (Units=GPa)
#
#
# Indices 1 2 3 4 5 6 
#
# 1 178.0935 44.9396 46.9555 0.0000 0.0000 0.0000
# 2 44.9396 63.4126 19.0678 0.0000 0.0000 0.0000
# 3 46.9555 19.0678 96.2728 0.0000 0.0000 0.0000
# 4 0.0000 0.0000 0.0000 26.1408 0.0000 0.0000
# 5 0.0000 0.0000 0.0000 0.0000 86.4148 0.0000
# 6 0.0000 0.0000 0.0000 0.0000 0.0000 -100.3605
#
#
#
# Elastic Compliance Matrix: (Units=1/GPa)
#
#
# Indices 1 2 3 4 5 6 
#
# 1 0.007469 -0.004463 -0.002759 0.000000 0.000000 0.000000
# 2 -0.004463 0.019436 -0.001672 0.000000 0.000000 0.000000
# 3 -0.002759 -0.001672 0.012064 0.000000 0.000000 0.000000
# 4 0.000000 0.000000 0.000000 0.038254 0.000000 0.000000
# 5 0.000000 0.000000 0.000000 0.000000 0.011572 0.000000
# 6 0.000000 0.000000 0.000000 0.000000 0.000000 -0.009964
#
#
# Mechanical properties :
#
#
# Convention : Reuss Voigt Hill
#
# Bulk Modulus (GPa) = 47.21620 62.18941 54.70280
# Shear Modulus (GPa) = 48.22546 17.56011 32.89278
#
# Velocity S-wave (km/s) = 4.48941 2.70903 3.70767
# Velocity P-wave (km/s) = 6.82686 5.98129 6.41802
#
# Compressibility (1/GPa) = 0.02117917
#
# Stress axis : x y z
#
# Youngs Moduli (GPa) = 133.89276 51.45140 82.89189
#
# Poissons Ratio (x) = 0.22965 0.22867
# Poissons Ratio (y) = 0.59762 0.13864
# Poissons Ratio (z) = 0.36937 0.08605
#
# Static dielectric constant tensor:
#      x y z
#    x 1.886860 0.000000 0.000000 
#    y 0.000000 1.972440 0.000000 
#    z 0.000000 0.000000 1.997760 
# 
# From -- ./inp_files/3552.got.cif
#   From: 2010.05.17/outbox.cif.g08.bks.cpg/sg17_2_cif.got.tgz:3552.got - 2010.06.03 22:34:06.
