data_PCOD9311916
_publ_section_title
;
Structure prediction by ZEFSAII (Michael W. Deem and Ramdas Pophale) SiO2 
 PCOD9311916
Probable space group: P 21 21 2
;
_chemical_formula_sum "Si O2"
_cell_formula_units_Z 22
_cell_length_a 25.423169
_cell_length_b 5.787207
_cell_length_c 7.161864
_cell_angle_alpha 90.000000
_cell_angle_beta 90.000000
_cell_angle_gamma 90.000000
_cell_volume 1053.718903
_symmetry_space_group_name_H-M "P 21 21 2"
_symmetry_group_IT_number 18
_symmetry_cell_setting 'orthorhombic'
loop_
_space_group_symop_operation_xyz
x,y,z
-x,-y,z
1/2+x,1/2-y,-z
1/2-x,1/2+y,-z
loop_
_atom_site_type_symbol
_atom_site_label
_atom_site_fract_x
_atom_site_fract_y
_atom_site_fract_z
Si Si1 0.765224 0.578520 0.093602
Si Si2 0.170414 0.951357 0.694661
Si Si3 0.090326 0.713918 0.420917
Si Si4 0.587513 0.169492 0.295924
Si Si5 0.500000 0.500000 0.386620
Si Si6 0.373763 0.137828 0.980173
O O1 0.733158 0.562617 0.288703
O O2 0.827237 0.529685 0.094094
O O3 0.744191 0.340637 0.986862
O O4 0.142120 0.814596 0.527152
O O5 0.143541 0.200963 0.695355
O O6 0.151986 0.834263 0.889942
O O7 0.081780 0.460623 0.507404
O O8 0.097670 0.727115 0.201958
O O9 0.040166 0.855642 0.488703
O O10 0.539189 0.341073 0.269261
O O11 0.589337 0.993779 0.125497
#
# Coordination Sequence:
#
# PCOD9311916 Si02
#       6
#     4   4   4   4   2   4
#     4  10  19  38  65  96 136 179 214 263 326 397
#     4   9  20  39  60  88 129 168 206 258 317 387
#     4  10  22  41  61  92 124 164 217 273 319 391
#     4  10  20  41  63  86 125 167 210 270 321 388
#     4  10  22  42  62  84 128 168 210 274 340 378
#     4  10  21  39  64  92 129 165 216 262 325 389
#
# _framework density 20.878433000000001
#
# number of rings (size 3 to 8) (size 9 to 14) (size 15 to 20)
#    0.000    2.182    1.818    0.545    0.000    2.909 
#    3.273   21.818    0.000    0.000    0.000    0.000 
#    0.000    0.000    0.000    0.000    0.000    0.000 
#
# Total GULP energy -122648.616009 kJ/mol
# GULP energy per Si atom -5574.937091 kJ/mol
# Density = 2.083091 g / cm^3
# Si number density = 20.878433 Si / 1000 Ang^3
#
#
#
# Elastic Constant Matrix: (Units=GPa)
#
#
# Indices 1 2 3 4 5 6 
#
# 1 35.1535 -6.8196 -4.2775 0.0000 0.0000 0.0000
# 2 -6.8196 63.2374 7.0675 0.0000 0.0000 0.0000
# 3 -4.2775 7.0675 63.0083 0.0000 0.0000 0.0000
# 4 0.0000 0.0000 0.0000 -7.4457 0.0000 0.0000
# 5 0.0000 0.0000 0.0000 0.0000 8.7466 0.0000
# 6 0.0000 0.0000 0.0000 0.0000 0.0000 25.5974
#
#
#
# Elastic Compliance Matrix: (Units=1/GPa)
#
#
# Indices 1 2 3 4 5 6 
#
# 1 0.029223 0.002967 0.001651 0.000000 0.000000 0.000000
# 2 0.002967 0.016315 -0.001629 0.000000 0.000000 0.000000
# 3 0.001651 -0.001629 0.016166 0.000000 0.000000 0.000000
# 4 0.000000 0.000000 0.000000 -0.134306 0.000000 0.000000
# 5 0.000000 0.000000 0.000000 0.000000 0.114330 0.000000
# 6 0.000000 0.000000 0.000000 0.000000 0.000000 0.039067
#
#
# Mechanical properties :
#
#
# Convention : Reuss Voigt Hill
#
# Bulk Modulus (GPa) = 14.77477 17.03779 15.90628
# Shear Modulus (GPa) = 51.34681 16.40824 33.87753
#
# Velocity S-wave (km/s) = 4.96454 2.80642 4.03253
# Velocity P-wave (km/s) = 6.32093 4.32198 5.41450
#
# Compressibility (1/GPa) = 0.06768295
#
# Stress axis : x y z
#
# Youngs Moduli (GPa) = 34.21949 61.29172 61.85940
#
# Poissons Ratio (x) = -0.18185 -0.10213
# Poissons Ratio (y) = -0.10153 0.10075
# Poissons Ratio (z) = -0.05650 0.09982
#
# Static dielectric constant tensor:
#      x y z
#    x 1.812520 0.000000 0.000000 
#    y 0.000000 1.808260 0.000000 
#    z 0.000000 0.000000 1.713960 
# 
# From -- ./inp_files/316.got.cif
#   From: 2010.05.17/outbox.cif.g08.bks.cpg/sg18_1_cif.got.tgz:316.got - 2010.06.03 22:40:56.
