data_PCOD9311543
_publ_section_title
;
Structure prediction by ZEFSAII (Michael W. Deem and Ramdas Pophale) SiO2 
 PCOD9311543
Probable space group: P 2 2 21
;
_chemical_formula_sum "Si O2"
_cell_formula_units_Z 12
_cell_length_a 5.179713
_cell_length_b 8.380529
_cell_length_c 10.755986
_cell_angle_alpha 90.000000
_cell_angle_beta 90.000000
_cell_angle_gamma 90.000000
_cell_volume 466.903746
_symmetry_space_group_name_H-M "P 2 2 21"
_symmetry_group_IT_number 17
_symmetry_cell_setting 'orthorhombic'
loop_
_space_group_symop_operation_xyz
x,y,z
-x,-y,1/2+z
x,-y,-z
-x,y,1/2-z
loop_
_atom_site_type_symbol
_atom_site_label
_atom_site_fract_x
_atom_site_fract_y
_atom_site_fract_z
Si Si1 0.745206 0.500000 0.500000
Si Si2 0.500000 0.435068 0.750000
Si Si3 0.234799 0.115713 0.325364
Si Si4 0.137764 0.770239 0.418760
O O1 0.597169 0.529270 0.629714
O O2 0.908266 0.657402 0.464980
O O3 0.717046 0.323451 0.810427
O O4 0.500000 0.090468 0.250000
O O5 0.298597 0.202459 0.454850
O O6 0.000000 0.198964 0.250000
O O7 0.102186 0.948490 0.368489
#
# Coordination Sequence:
#
# PCOD9311543 Si02
#       4
#     2   2   4   4
#     4  12  28  50  76 116 160 224 262 344 402 488
#     4  12  26  50  78 110 162 216 266 334 406 486
#     4  11  26  49  83 117 157 210 272 337 407 483
#     4  11  27  49  79 112 161 207 273 332 410 477
#
# _framework density 25.701228
#
# number of rings (size 3 to 8) (size 9 to 14) (size 15 to 20)
#    0.000    0.667    1.667    4.000    4.667    8.000 
#    3.000    0.000    0.000    0.000    0.000    0.000 
#    0.000    0.000    0.000    0.000    0.000    0.000 
#
# Total GULP energy -67123.814561 kJ/mol
# GULP energy per Si atom -5593.651213 kJ/mol
# Density = 2.564273 g / cm^3
# Si number density = 25.701228 Si / 1000 Ang^3
#
#
#
# Elastic Constant Matrix: (Units=GPa)
#
#
# Indices 1 2 3 4 5 6 
#
# 1 60.7198 17.9822 60.9459 0.0000 0.0000 0.0000
# 2 17.9822 88.6207 51.2855 0.0000 0.0000 0.0000
# 3 60.9459 51.2855 264.7582 0.0000 0.0000 0.0000
# 4 0.0000 0.0000 0.0000 55.1344 0.0000 0.0000
# 5 0.0000 0.0000 0.0000 0.0000 71.7169 0.0000
# 6 0.0000 0.0000 0.0000 0.0000 0.0000 -25.4163
#
#
#
# Elastic Compliance Matrix: (Units=1/GPa)
#
#
# Indices 1 2 3 4 5 6 
#
# 1 0.021642 -0.001699 -0.004653 0.000000 0.000000 0.000000
# 2 -0.001699 0.012842 -0.002097 0.000000 0.000000 0.000000
# 3 -0.004653 -0.002097 0.005254 0.000000 0.000000 0.000000
# 4 0.000000 0.000000 0.000000 0.018138 0.000000 0.000000
# 5 0.000000 0.000000 0.000000 0.000000 0.013944 0.000000
# 6 0.000000 0.000000 0.000000 0.000000 0.000000 -0.039345
#
#
# Mechanical properties :
#
#
# Convention : Reuss Voigt Hill
#
# Bulk Modulus (GPa) = 43.77870 74.94732 59.36301
# Shear Modulus (GPa) = 87.74159 39.21269 63.47714
#
# Velocity S-wave (km/s) = 5.84920 3.91027 4.97511
# Velocity P-wave (km/s) = 7.91759 7.04353 7.49331
#
# Compressibility (1/GPa) = 0.02284216
#
# Stress axis : x y z
#
# Youngs Moduli (GPa) = 46.20558 77.86930 190.32347
#
# Poissons Ratio (x) = 0.13229 0.88555
# Poissons Ratio (y) = 0.07850 0.39902
# Poissons Ratio (z) = 0.21499 0.16326
#
# Static dielectric constant tensor:
#      x y z
#    x 2.035500 0.000000 0.000000 
#    y 0.000000 2.141730 0.000000 
#    z 0.000000 0.000000 1.989020 
# 
# From -- ./inp_files/5674.got.cif
#   From: 2010.05.17/outbox.cif.g08.bks.cpg/sg17_3_cif.got.tgz:5674.got - 2010.06.03 22:34:06.
