data_PCOD9311890
_publ_section_title
;
Structure prediction by ZEFSAII (Michael W. Deem and Ramdas Pophale) SiO2 
 PCOD9311890
Probable space group: P 21 21 2
;
_chemical_formula_sum "Si O2"
_cell_formula_units_Z 26
_cell_length_a 25.108596
_cell_length_b 7.709302
_cell_length_c 5.411046
_cell_angle_alpha 90.000000
_cell_angle_beta 90.000000
_cell_angle_gamma 90.000000
_cell_volume 1047.414818
_symmetry_space_group_name_H-M "P 21 21 2"
_symmetry_group_IT_number 18
_symmetry_cell_setting 'orthorhombic'
loop_
_space_group_symop_operation_xyz
x,y,z
-x,-y,z
1/2+x,1/2-y,-z
1/2-x,1/2+y,-z
loop_
_atom_site_type_symbol
_atom_site_label
_atom_site_fract_x
_atom_site_fract_y
_atom_site_fract_z
Si Si1 0.832433 0.074933 0.030993
Si Si2 0.885069 0.002862 0.530322
Si Si3 0.558736 0.085850 0.525717
Si Si4 0.000000 0.000000 0.283497
Si Si5 0.333019 0.886827 0.458925
Si Si6 0.219781 0.308517 0.042963
Si Si7 0.970887 0.682312 0.980914
O O1 0.856496 0.102801 0.302430
O O2 0.806433 0.881859 0.037604
O O3 0.874536 0.075027 0.805303
O O4 0.783355 0.198751 0.968608
O O5 0.946646 0.005950 0.444736
O O6 0.856841 0.811489 0.530871
O O7 0.613605 0.993738 0.452553
O O8 0.571900 0.153818 0.801758
O O9 0.500000 0.000000 0.554567
O O10 0.549191 0.212292 0.292453
O O11 0.003459 0.835818 0.101280
O O12 0.298336 0.904270 0.705460
O O13 0.300512 0.900191 0.207518
O O14 0.000000 0.500000 0.954157
#
# Coordination Sequence:
#
# PCOD9311890 Si02
#       7
#     4   4   4   2   4   4   4
#     4  10  22  43  62  92 125 159 212 284 308 400
#     4  10  23  37  64  93 126 166 220 253 322 402
#     4  10  20  38  59  89 133 166 213 275 315 393
#     4  12  24  42  72  96 138 196 210 268 352 396
#     4  10  19  37  63  91 115 172 212 249 328 406
#     4  10  21  38  66  87 120 160 208 270 331 371
#     4  10  23  39  60  91 134 172 220 272 310 393
#
# _framework density 24.823022000000002
#
# number of rings (size 3 to 8) (size 9 to 14) (size 15 to 20)
#    0.000    1.846    1.538    1.846    4.308    2.462 
#    0.000    9.231    0.000    0.000    0.000    0.000 
#    0.000    0.000    0.000    0.000    0.000    0.000 
#
# Total GULP energy -145101.355434 kJ/mol
# GULP energy per Si atom -5580.821363 kJ/mol
# Density = 2.476652 g / cm^3
# Si number density = 24.823022 Si / 1000 Ang^3
#
#
#
# Elastic Constant Matrix: (Units=GPa)
#
#
# Indices 1 2 3 4 5 6 
#
# 1 105.0780 16.7661 29.9122 0.0000 0.0000 0.0000
# 2 16.7661 63.6431 22.8054 0.0000 0.0000 0.0000
# 3 29.9122 22.8054 155.4548 0.0000 0.0000 0.0000
# 4 0.0000 0.0000 0.0000 28.8375 0.0000 0.0000
# 5 0.0000 0.0000 0.0000 0.0000 49.8045 0.0000
# 6 0.0000 0.0000 0.0000 0.0000 0.0000 22.4096
#
#
#
# Elastic Compliance Matrix: (Units=1/GPa)
#
#
# Indices 1 2 3 4 5 6 
#
# 1 0.010333 -0.002121 -0.001677 0.000000 0.000000 0.000000
# 2 -0.002121 0.017020 -0.002089 0.000000 0.000000 0.000000
# 3 -0.001677 -0.002089 0.007062 0.000000 0.000000 0.000000
# 4 0.000000 0.000000 0.000000 0.034677 0.000000 0.000000
# 5 0.000000 0.000000 0.000000 0.000000 0.020079 0.000000
# 6 0.000000 0.000000 0.000000 0.000000 0.000000 0.044624
#
#
# Mechanical properties :
#
#
# Convention : Reuss Voigt Hill
#
# Bulk Modulus (GPa) = 44.16828 51.46037 47.81432
# Shear Modulus (GPa) = 32.65538 37.18978 34.92258
#
# Velocity S-wave (km/s) = 3.63096 3.87485 3.75489
# Velocity P-wave (km/s) = 5.95066 6.38711 6.17275
#
# Compressibility (1/GPa) = 0.02264068
#
# Stress axis : x y z
#
# Youngs Moduli (GPa) = 96.78143 58.75498 141.60618
#
# Poissons Ratio (x) = 0.12462 0.23747
# Poissons Ratio (y) = 0.20528 0.29577
# Poissons Ratio (z) = 0.16230 0.12272
#
# Static dielectric constant tensor:
#      x y z
#    x 1.954640 0.000000 0.000000 
#    y 0.000000 2.130220 0.000000 
#    z 0.000000 0.000000 1.948070 
# 
# From -- ./inp_files/2194.got.cif
#   From: 2010.05.17/outbox.cif.g08.bks.cpg/sg18_2_cif.got.tgz:2194.got - 2010.06.03 22:40:56.
