data_PCOD9311477
_publ_section_title
;
Structure prediction by ZEFSAII (Michael W. Deem and Ramdas Pophale) SiO2 
 PCOD9311477
Probable space group: P 2 2 21
;
_chemical_formula_sum "Si O2"
_cell_formula_units_Z 20
_cell_length_a 8.444629
_cell_length_b 7.803526
_cell_length_c 12.301839
_cell_angle_alpha 90.000000
_cell_angle_beta 90.000000
_cell_angle_gamma 90.000000
_cell_volume 810.665134
_symmetry_space_group_name_H-M "P 2 2 21"
_symmetry_group_IT_number 17
_symmetry_cell_setting 'orthorhombic'
loop_
_space_group_symop_operation_xyz
x,y,z
-x,-y,1/2+z
x,-y,-z
-x,y,1/2-z
loop_
_atom_site_type_symbol
_atom_site_label
_atom_site_fract_x
_atom_site_fract_y
_atom_site_fract_z
Si Si1 0.826711 0.298157 0.295160
Si Si2 0.679127 0.064183 0.731542
Si Si3 0.847018 0.198593 0.534553
Si Si4 0.797867 0.807989 0.051631
Si Si5 0.500000 0.478576 0.250000
Si Si6 0.408690 0.500000 0.500000
O O1 0.816777 0.304758 0.426187
O O2 0.674285 0.394376 0.251876
O O3 0.000000 0.347425 0.250000
O O4 0.796627 0.097207 0.267477
O O5 0.500000 0.002202 0.750000
O O6 0.713728 0.177418 0.625484
O O7 0.716935 0.180872 0.832520
O O8 0.021707 0.247620 0.572889
O O9 0.864519 0.000000 0.500000
O O10 0.702494 0.668033 0.984451
O O11 0.790034 0.000000 0.000000
O O12 0.495408 0.529898 0.382902
#
# Coordination Sequence:
#
# PCOD9311477 Si02
#       6
#     4   4   4   4   2   2
#     4  11  22  45  74 110 153 203 255 315 386 456
#     4  11  22  36  71 115 152 201 260 315 379 456
#     4   9  20  39  68 109 149 199 259 313 379 457
#     4  11  24  46  76 104 153 205 253 316 384 451
#     4  12  28  50  74 110 156 202 254 322 386 458
#     4  12  30  50  76 116 154 196 264 318 380 468
#
# _framework density 24.671099999999999
#
# number of rings (size 3 to 8) (size 9 to 14) (size 15 to 20)
#    0.000    1.200    1.000    6.600    4.200    0.800 
#    0.000   10.000    0.000    0.000    0.000    0.000 
#    0.000    0.000    0.000    0.000    0.000    0.000 
#
# Total GULP energy -111558.165876 kJ/mol
# GULP energy per Si atom -5577.908294 kJ/mol
# Density = 2.461495 g / cm^3
# Si number density = 24.671100 Si / 1000 Ang^3
#
#
#
# Elastic Constant Matrix: (Units=GPa)
#
#
# Indices 1 2 3 4 5 6 
#
# 1 158.3810 44.8526 44.6172 0.0000 0.0000 0.0000
# 2 44.8526 76.1212 18.6980 0.0000 0.0000 0.0000
# 3 44.6172 18.6980 128.8678 0.0000 0.0000 0.0000
# 4 0.0000 0.0000 0.0000 24.9869 0.0000 0.0000
# 5 0.0000 0.0000 0.0000 0.0000 24.8972 0.0000
# 6 0.0000 0.0000 0.0000 0.0000 0.0000 8.8881
#
#
#
# Elastic Compliance Matrix: (Units=1/GPa)
#
#
# Indices 1 2 3 4 5 6 
#
# 1 0.008139 -0.004255 -0.002200 0.000000 0.000000 0.000000
# 2 -0.004255 0.015847 -0.000826 0.000000 0.000000 0.000000
# 3 -0.002200 -0.000826 0.008642 0.000000 0.000000 0.000000
# 4 0.000000 0.000000 0.000000 0.040021 0.000000 0.000000
# 5 0.000000 0.000000 0.000000 0.000000 0.040165 0.000000
# 6 0.000000 0.000000 0.000000 0.000000 0.000000 0.112510
#
#
# Mechanical properties :
#
#
# Convention : Reuss Voigt Hill
#
# Bulk Modulus (GPa) = 55.35822 64.41175 59.88498
# Shear Modulus (GPa) = 20.33278 28.76792 24.55035
#
# Velocity S-wave (km/s) = 2.87392 3.41846 3.15795
# Velocity P-wave (km/s) = 5.78790 6.46112 6.13375
#
# Compressibility (1/GPa) = 0.01806417
#
# Stress axis : x y z
#
# Youngs Moduli (GPa) = 122.86840 63.10318 115.71915
#
# Poissons Ratio (x) = 0.26851 0.25464
# Poissons Ratio (y) = 0.52281 0.09560
# Poissons Ratio (z) = 0.27037 0.05213
#
# Static dielectric constant tensor:
#      x y z
#    x 2.014100 0.000000 0.000000 
#    y 0.000000 -0.952620 0.000000 
#    z 0.000000 0.000000 2.051900 
# 
# From -- ./inp_files/6418.got.cif
#   From: 2010.05.17/outbox.cif.g08.bks.cpg/sg17_4_cif.got.tgz:6418.got - 2010.06.03 22:34:06.
