data_PCOD9311167
_publ_section_title
;
Structure prediction by ZEFSAII (Michael W. Deem and Ramdas Pophale) SiO2 
 PCOD9311167
Probable space group: P 2 2 21
;
_chemical_formula_sum "Si O2"
_cell_formula_units_Z 20
_cell_length_a 11.487145
_cell_length_b 10.385106
_cell_length_c 6.909119
_cell_angle_alpha 90.000000
_cell_angle_beta 90.000000
_cell_angle_gamma 90.000000
_cell_volume 824.224860
_symmetry_space_group_name_H-M "P 2 2 21"
_symmetry_group_IT_number 17
_symmetry_cell_setting 'orthorhombic'
loop_
_space_group_symop_operation_xyz
x,y,z
-x,-y,1/2+z
x,-y,-z
-x,y,1/2-z
loop_
_atom_site_type_symbol
_atom_site_label
_atom_site_fract_x
_atom_site_fract_y
_atom_site_fract_z
Si Si1 0.339533 0.197331 0.278378
Si Si2 0.795750 0.639730 0.091001
Si Si3 0.610243 0.278420 0.626552
Si Si4 0.500000 0.022968 0.750000
Si Si5 0.000000 0.208896 0.750000
Si Si6 0.875848 0.966164 0.770957
O O1 0.287560 0.279896 0.449616
O O2 0.391895 0.283182 0.105610
O O3 0.230448 0.116148 0.198980
O O4 0.425170 0.087626 0.360653
O O5 0.726468 0.655126 0.293225
O O6 0.922800 0.702914 0.112144
O O7 0.805134 0.500000 0.000000
O O8 0.500000 0.332244 0.750000
O O9 0.595224 0.123566 0.667452
O O10 0.905393 0.103954 0.673186
O O11 0.000000 0.894971 0.750000
O O12 0.856335 0.000000 0.000000
#
# Coordination Sequence:
#
# PCOD9311167 Si02
#       6
#     4   4   4   2   2   4
#     4  12  23  43  76 110 150 196 245 314 401 454
#     4  12  28  51  71 104 156 210 262 311 375 481
#     4  10  26  45  72 114 149 192 250 322 392 458
#     4  10  24  40  74 120 152 180 242 332 394 444
#     4  10  24  46  70 102 152 188 256 332 378 456
#     4  10  22  37  70 111 144 179 244 315 399 450
#
# _framework density 24.265222000000001
#
# number of rings (size 3 to 8) (size 9 to 14) (size 15 to 20)
#    1.200    0.000    2.000    3.000    5.600    0.800 
#   10.800    0.000    0.000    0.000    0.000    0.000 
#    0.000    0.000    0.000    0.000    0.000    0.000 
#
# Total GULP energy -111549.412199 kJ/mol
# GULP energy per Si atom -5577.470610 kJ/mol
# Density = 2.420999 g / cm^3
# Si number density = 24.265222 Si / 1000 Ang^3
#
#
#
# Elastic Constant Matrix: (Units=GPa)
#
#
# Indices 1 2 3 4 5 6 
#
# 1 85.5251 34.3035 19.1179 0.0000 0.0000 0.0000
# 2 34.3035 94.7514 2.8776 0.0000 0.0000 0.0000
# 3 19.1179 2.8776 108.3892 0.0000 0.0000 0.0000
# 4 0.0000 0.0000 0.0000 26.5580 0.0000 0.0000
# 5 0.0000 0.0000 0.0000 0.0000 46.9868 0.0000
# 6 0.0000 0.0000 0.0000 0.0000 0.0000 20.1991
#
#
#
# Elastic Compliance Matrix: (Units=1/GPa)
#
#
# Indices 1 2 3 4 5 6 
#
# 1 0.014268 -0.005093 -0.002381 0.000000 0.000000 0.000000
# 2 -0.005093 0.012381 0.000570 0.000000 0.000000 0.000000
# 3 -0.002381 0.000570 0.009631 0.000000 0.000000 0.000000
# 4 0.000000 0.000000 0.000000 0.037653 0.000000 0.000000
# 5 0.000000 0.000000 0.000000 0.000000 0.021283 0.000000
# 6 0.000000 0.000000 0.000000 0.000000 0.000000 0.049507
#
#
# Mechanical properties :
#
#
# Convention : Reuss Voigt Hill
#
# Bulk Modulus (GPa) = 44.50480 44.58485 44.54483
# Shear Modulus (GPa) = 30.11656 34.23988 32.17822
#
# Velocity S-wave (km/s) = 3.52680 3.76049 3.64552
# Velocity P-wave (km/s) = 5.91314 6.10483 6.00975
#
# Compressibility (1/GPa) = 0.02246949
#
# Stress axis : x y z
#
# Youngs Moduli (GPa) = 70.08899 80.77209 103.83234
#
# Poissons Ratio (x) = 0.41138 0.24726
# Poissons Ratio (y) = 0.35697 -0.05915
# Poissons Ratio (z) = 0.16691 -0.04601
#
# Static dielectric constant tensor:
#      x y z
#    x 2.010240 0.000000 0.000000 
#    y 0.000000 1.879400 0.000000 
#    z 0.000000 0.000000 2.388780 
# 
# From -- ./inp_files/6907.got.cif
#   From: 2010.05.17/outbox.cif.g08.bks.cpg/sg17_4_cif.got.tgz:6907.got - 2010.06.03 22:34:06.
