data_PCOD9311986
_publ_section_title
;
Structure prediction by ZEFSAII (Michael W. Deem and Ramdas Pophale) SiO2 
 PCOD9311986
Probable space group: P 21 21 2
;
_chemical_formula_sum "Si O2"
_cell_formula_units_Z 16
_cell_length_a 7.330449
_cell_length_b 15.634044
_cell_length_c 5.801102
_cell_angle_alpha 90.000000
_cell_angle_beta 90.000000
_cell_angle_gamma 90.000000
_cell_volume 664.832755
_symmetry_space_group_name_H-M "P 21 21 2"
_symmetry_group_IT_number 18
_symmetry_cell_setting 'orthorhombic'
loop_
_space_group_symop_operation_xyz
x,y,z
-x,-y,z
1/2+x,1/2-y,-z
1/2-x,1/2+y,-z
loop_
_atom_site_type_symbol
_atom_site_label
_atom_site_fract_x
_atom_site_fract_y
_atom_site_fract_z
Si Si1 0.829497 0.900794 0.118428
Si Si2 0.683781 0.234789 0.148272
Si Si3 0.765206 0.071624 0.905939
Si Si4 0.450948 0.345070 0.487957
O O1 0.880686 0.895088 0.389164
O O2 0.764926 0.808977 0.030894
O O3 0.031224 0.913913 0.009067
O O4 0.716870 0.978709 0.006543
O O5 0.531094 0.277640 0.307355
O O6 0.846372 0.209262 0.319952
O O7 0.644749 0.147794 0.009897
O O8 0.807450 0.090943 0.637322
#
# Coordination Sequence:
#
# PCOD9311986 Si02
#       4
#     4   4   4   4
#     4   9  19  34  56  84 112 146 194 234 274 335
#     4  10  20  34  58  86 114 150 190 230 280 340
#     4   9  19  34  56  84 112 146 194 234 274 335
#     4  10  20  37  60  83 116 152 182 237 288 323
#
# _framework density 24.066201
#
# number of rings (size 3 to 8) (size 9 to 14) (size 15 to 20)
#    0.000    2.500    0.000    1.500    0.000   16.000 
#    0.000    0.000    0.000   61.500    0.000    0.000 
#    0.000    0.000    0.000    0.000    0.000    0.000 
#
# Total GULP energy -89238.367580 kJ/mol
# GULP energy per Si atom -5577.397974 kJ/mol
# Density = 2.401143 g / cm^3
# Si number density = 24.066201 Si / 1000 Ang^3
#
#
#
# Elastic Constant Matrix: (Units=GPa)
#
#
# Indices 1 2 3 4 5 6 
#
# 1 46.7778 24.6889 15.8073 0.0000 0.0000 0.0000
# 2 24.6889 201.7301 74.6228 0.0000 0.0000 0.0000
# 3 15.8073 74.6228 117.1653 0.0000 0.0000 0.0000
# 4 0.0000 0.0000 0.0000 24.8108 0.0000 0.0000
# 5 0.0000 0.0000 0.0000 0.0000 31.0088 0.0000
# 6 0.0000 0.0000 0.0000 0.0000 0.0000 31.9037
#
#
#
# Elastic Compliance Matrix: (Units=1/GPa)
#
#
# Indices 1 2 3 4 5 6 
#
# 1 0.023117 -0.002192 -0.001723 0.000000 0.000000 0.000000
# 2 -0.002192 0.006693 -0.003967 0.000000 0.000000 0.000000
# 3 -0.001723 -0.003967 0.011294 0.000000 0.000000 0.000000
# 4 0.000000 0.000000 0.000000 0.040305 0.000000 0.000000
# 5 0.000000 0.000000 0.000000 0.000000 0.032249 0.000000
# 6 0.000000 0.000000 0.000000 0.000000 0.000000 0.031344
#
#
# Mechanical properties :
#
#
# Convention : Reuss Voigt Hill
#
# Bulk Modulus (GPa) = 39.46295 66.21237 52.83766
# Shear Modulus (GPa) = 29.54881 34.24828 31.89854
#
# Velocity S-wave (km/s) = 3.50782 3.77647 3.64462
# Velocity P-wave (km/s) = 5.73059 6.82554 6.30189
#
# Compressibility (1/GPa) = 0.02534022
#
# Stress axis : x y z
#
# Youngs Moduli (GPa) = 43.25883 149.41425 88.54316
#
# Poissons Ratio (x) = 0.32750 0.15254
# Poissons Ratio (y) = 0.09482 0.35125
# Poissons Ratio (z) = 0.07452 0.59272
#
# Static dielectric constant tensor:
#      x y z
#    x 2.019570 0.000000 0.000000 
#    y 0.000000 1.999610 0.000000 
#    z 0.000000 0.000000 2.056610 
# 
# From -- ./inp_files/835.got.cif
#   From: 2010.05.17/outbox.cif.g08.bks.cpg/sg18_1_cif.got.tgz:835.got - 2010.06.03 22:40:56.
