data_PCOD9311643
_publ_section_title
;
Structure prediction by ZEFSAII (Michael W. Deem and Ramdas Pophale) SiO2 
 PCOD9311643
Probable space group: P 21 21 2
;
_chemical_formula_sum "Si O2"
_cell_formula_units_Z 28
_cell_length_a 13.158146
_cell_length_b 5.027539
_cell_length_c 25.650185
_cell_angle_alpha 90.000000
_cell_angle_beta 90.000000
_cell_angle_gamma 90.000000
_cell_volume 1696.839053
_symmetry_space_group_name_H-M "P 21 21 2"
_symmetry_group_IT_number 18
_symmetry_cell_setting 'orthorhombic'
loop_
_space_group_symop_operation_xyz
x,y,z
-x,-y,z
1/2+x,1/2-y,-z
1/2-x,1/2+y,-z
loop_
_atom_site_type_symbol
_atom_site_label
_atom_site_fract_x
_atom_site_fract_y
_atom_site_fract_z
Si Si1 0.431231 0.743920 0.656165
Si Si2 0.885132 0.519980 0.511679
Si Si3 0.114190 0.542940 0.000989
Si Si4 0.876668 0.997984 0.179475
Si Si5 0.123332 0.497757 0.243825
Si Si6 0.185027 0.039527 0.062291
Si Si7 0.829744 0.014527 0.444692
O O1 0.500000 0.500000 0.679880
O O2 0.356541 0.877230 0.698877
O O3 0.375494 0.592020 0.609193
O O4 0.500000 0.000000 0.638962
O O5 0.871985 0.810778 0.487537
O O6 0.792505 0.489056 0.552228
O O7 0.000000 0.500000 0.531358
O O8 0.864261 0.304527 0.465228
O O9 0.125067 0.830878 0.026569
O O10 0.000000 0.500000 0.982975
O O11 0.143935 0.329226 0.045818
O O12 0.198137 0.517817 0.955880
O O13 0.845272 0.216513 0.222516
O O14 0.832795 0.033450 0.122036
O O15 0.843756 0.714061 0.201130
O O16 0.000000 0.000000 0.175203
O O17 0.000000 0.500000 0.244313
#
# Coordination Sequence:
#
# PCOD9311643 Si02
#       7
#     4   4   4   4   4   4   4
#     4  11  19  30  46  66  94 123 151 186 228 275
#     4  10  19  32  46  67  96 122 154 192 222 267
#     4  10  19  32  46  67  96 122 153 191 222 267
#     4  10  17  28  43  62  89 117 146 181 221 268
#     4   9  18  28  41  62  88 116 145 181 224 267
#     4  10  20  30  47  69  91 125 157 181 228 275
#     4  10  20  30  47  69  91 125 157 182 229 275
#
# _framework density 16.501270000000002
#
# number of rings (size 3 to 8) (size 9 to 14) (size 15 to 20)
#    0.000    2.000    0.000    6.857    0.000    1.143 
#    0.000    0.000    0.000    0.000    0.000    1.000 
#    0.000    6.857    0.000    0.000    0.000    1.143 
#
# Total GULP energy -156019.851784 kJ/mol
# GULP energy per Si atom -5572.137564 kJ/mol
# Density = 1.646371 g / cm^3
# Si number density = 16.501270 Si / 1000 Ang^3
#
#
#
# Elastic Constant Matrix: (Units=GPa)
#
#
# Indices 1 2 3 4 5 6 
#
# 1 76.8388 3.3970 12.7191 0.0000 0.0000 0.0000
# 2 3.3970 61.2634 0.6639 0.0000 0.0000 0.0000
# 3 12.7191 0.6639 70.9094 0.0000 0.0000 0.0000
# 4 0.0000 0.0000 0.0000 21.6428 0.0000 0.0000
# 5 0.0000 0.0000 0.0000 0.0000 18.7899 0.0000
# 6 0.0000 0.0000 0.0000 0.0000 0.0000 15.3141
#
#
#
# Elastic Compliance Matrix: (Units=1/GPa)
#
#
# Indices 1 2 3 4 5 6 
#
# 1 0.013444 -0.000719 -0.002405 0.000000 0.000000 0.000000
# 2 -0.000719 0.016363 -0.000024 0.000000 0.000000 0.000000
# 3 -0.002405 -0.000024 0.014534 0.000000 0.000000 0.000000
# 4 0.000000 0.000000 0.000000 0.046205 0.000000 0.000000
# 5 0.000000 0.000000 0.000000 0.000000 0.053220 0.000000
# 6 0.000000 0.000000 0.000000 0.000000 0.000000 0.065299
#
#
# Mechanical properties :
#
#
# Convention : Reuss Voigt Hill
#
# Bulk Modulus (GPa) = 26.28491 26.95243 26.61867
# Shear Modulus (GPa) = 21.92563 23.96479 22.94521
#
# Velocity S-wave (km/s) = 3.64912 3.81504 3.73300
# Velocity P-wave (km/s) = 5.80675 5.98122 5.89463
#
# Compressibility (1/GPa) = 0.03804464
#
# Stress axis : x y z
#
# Youngs Moduli (GPa) = 74.38198 61.11303 68.80380
#
# Poissons Ratio (x) = 0.04397 0.16546
# Poissons Ratio (y) = 0.05351 0.00166
# Poissons Ratio (z) = 0.17887 0.00148
#
# Static dielectric constant tensor:
#      x y z
#    x 1.569210 0.000000 0.000000 
#    y 0.000000 1.581970 0.000000 
#    z 0.000000 0.000000 1.574150 
# 
# From -- ./inp_files/7642.got.cif
#   From: 2010.05.17/outbox.cif.g08.bks.cpg/sg18_4_cif.got.tgz:7642.got - 2010.06.03 22:40:56.
