data_PCOD9311146
_publ_section_title
;
Structure prediction by ZEFSAII (Michael W. Deem and Ramdas Pophale) SiO2 
 PCOD9311146
Probable space group: P 2 2 21
;
_chemical_formula_sum "Si O2"
_cell_formula_units_Z 20
_cell_length_a 11.483808
_cell_length_b 8.812736
_cell_length_c 8.199967
_cell_angle_alpha 90.000000
_cell_angle_beta 90.000000
_cell_angle_gamma 90.000000
_cell_volume 829.867559
_symmetry_space_group_name_H-M "P 2 2 21"
_symmetry_group_IT_number 17
_symmetry_cell_setting 'orthorhombic'
loop_
_space_group_symop_operation_xyz
x,y,z
-x,-y,1/2+z
x,-y,-z
-x,y,1/2-z
loop_
_atom_site_type_symbol
_atom_site_label
_atom_site_fract_x
_atom_site_fract_y
_atom_site_fract_z
Si Si1 0.576951 0.659493 0.587559
Si Si2 0.039834 0.351716 0.563457
Si Si3 0.163108 0.788421 0.892957
Si Si4 0.173703 0.100452 0.738217
Si Si5 0.416581 0.880314 0.375441
O O1 0.594547 0.500000 0.500000
O O2 0.500000 0.642467 0.750000
O O3 0.705179 0.726390 0.623796
O O4 0.498624 0.762010 0.465468
O O5 0.110529 0.500000 0.500000
O O6 0.104025 0.191220 0.599797
O O7 0.000000 0.383057 0.750000
O O8 0.940487 0.332246 0.422972
O O9 0.153466 0.918962 0.754189
O O10 0.150464 0.856370 0.075005
O O11 0.303399 0.169368 0.718128
O O12 0.500000 0.967504 0.250000
O O13 0.366304 0.000000 0.500000
#
# Coordination Sequence:
#
# PCOD9311146 Si02
#       5
#     4   4   4   4   4
#     4  12  26  44  72 106 148 199 247 307 386 455
#     4  10  23  48  72 103 145 196 245 308 383 450
#     4  10  21  46  73 103 145 195 243 314 378 439
#     4  10  22  43  73 106 142 190 253 309 368 454
#     4  12  23  42  68 103 143 189 243 305 369 447
#
# _framework density 24.100231999999998
#
# number of rings (size 3 to 8) (size 9 to 14) (size 15 to 20)
#    0.000    1.200    2.000    4.200    0.000    0.800 
#   21.600    0.000    0.000    0.000    0.000    0.000 
#    0.000    0.000    0.000    0.000    0.000    0.000 
#
# Total GULP energy -111465.725614 kJ/mol
# GULP energy per Si atom -5573.286281 kJ/mol
# Density = 2.404538 g / cm^3
# Si number density = 24.100232 Si / 1000 Ang^3
#
#
#
# Elastic Constant Matrix: (Units=GPa)
#
#
# Indices 1 2 3 4 5 6 
#
# 1 141.6858 40.7931 39.6340 0.0000 0.0000 0.0000
# 2 40.7931 128.9553 45.2998 0.0000 0.0000 0.0000
# 3 39.6340 45.2998 104.6727 0.0000 0.0000 0.0000
# 4 0.0000 0.0000 0.0000 53.7007 0.0000 0.0000
# 5 0.0000 0.0000 0.0000 0.0000 25.7334 0.0000
# 6 0.0000 0.0000 0.0000 0.0000 0.0000 27.4482
#
#
#
# Elastic Compliance Matrix: (Units=1/GPa)
#
#
# Indices 1 2 3 4 5 6 
#
# 1 0.008226 -0.001778 -0.002345 0.000000 0.000000 0.000000
# 2 -0.001778 0.009529 -0.003451 0.000000 0.000000 0.000000
# 3 -0.002345 -0.003451 0.011935 0.000000 0.000000 0.000000
# 4 0.000000 0.000000 0.000000 0.018622 0.000000 0.000000
# 5 0.000000 0.000000 0.000000 0.000000 0.038860 0.000000
# 6 0.000000 0.000000 0.000000 0.000000 0.000000 0.036432
#
#
# Mechanical properties :
#
#
# Convention : Reuss Voigt Hill
#
# Bulk Modulus (GPa) = 68.76683 69.64083 69.20383
# Shear Modulus (GPa) = 34.81903 38.01559 36.41731
#
# Velocity S-wave (km/s) = 3.80512 3.97595 3.89147
# Velocity P-wave (km/s) = 6.92105 7.07366 6.99777
#
# Compressibility (1/GPa) = 0.01454189
#
# Stress axis : x y z
#
# Youngs Moduli (GPa) = 121.56764 104.93897 83.78774
#
# Poissons Ratio (x) = 0.18662 0.19649
# Poissons Ratio (y) = 0.21619 0.28913
# Poissons Ratio (z) = 0.28509 0.36211
#
# Static dielectric constant tensor:
#      x y z
#    x 1.978460 0.000000 0.000000 
#    y 0.000000 2.034230 0.000000 
#    z 0.000000 0.000000 1.943870 
# 
# From -- ./inp_files/4616.got.cif
#   From: 2010.05.17/outbox.cif.g08.bks.cpg/sg17_3_cif.got.tgz:4616.got - 2010.06.03 22:34:06.
