data_PCOD9311824
_publ_section_title
;
Structure prediction by ZEFSAII (Michael W. Deem and Ramdas Pophale) SiO2 
 PCOD9311824
Probable space group: P 21 21 2
;
_chemical_formula_sum "Si O2"
_cell_formula_units_Z 26
_cell_length_a 16.170609
_cell_length_b 9.463148
_cell_length_c 9.330251
_cell_angle_alpha 90.000000
_cell_angle_beta 90.000000
_cell_angle_gamma 90.000000
_cell_volume 1427.760411
_symmetry_space_group_name_H-M "P 21 21 2"
_symmetry_group_IT_number 18
_symmetry_cell_setting 'orthorhombic'
loop_
_space_group_symop_operation_xyz
x,y,z
-x,-y,z
1/2+x,1/2-y,-z
1/2-x,1/2+y,-z
loop_
_atom_site_type_symbol
_atom_site_label
_atom_site_fract_x
_atom_site_fract_y
_atom_site_fract_z
Si Si1 0.500000 0.000000 0.684388
Si Si2 0.874659 0.959524 0.113725
Si Si3 0.741290 0.078282 0.930730
Si Si4 0.845221 0.352125 0.896357
Si Si5 0.021783 0.758173 0.100074
Si Si6 0.179198 0.420938 0.393948
Si Si7 0.747895 0.380511 0.630986
O O1 0.476203 0.133152 0.784833
O O2 0.418164 0.954343 0.598870
O O3 0.814126 0.942609 0.248914
O O4 0.929383 0.819885 0.091388
O O5 0.927493 0.100974 0.142587
O O6 0.823844 0.991485 0.969707
O O7 0.707889 0.058301 0.771113
O O8 0.774542 0.238749 0.950491
O O9 0.675060 0.006315 0.037538
O O10 0.830210 0.349776 0.726410
O O11 0.932518 0.299688 0.957925
O O12 0.228939 0.518857 0.502149
O O13 0.204228 0.260238 0.425365
#
# Coordination Sequence:
#
# PCOD9311824 Si02
#       7
#     2   4   4   4   4   4   4
#     4  12  22  36  56  88 114 148 192 244 288 348
#     4   9  19  37  60  85 110 146 196 241 290 355
#     4   9  18  33  57  82 108 144 191 230 279 339
#     4   9  18  34  56  83 110 144 186 239 284 333
#     4  10  19  34  61  85 114 143 186 247 301 332
#     4  11  23  38  57  83 121 158 195 237 286 354
#     4  10  22  38  57  84 118 158 200 230 287 356
#
# _framework density 18.210336999999999
#
# number of rings (size 3 to 8) (size 9 to 14) (size 15 to 20)
#    0.000    2.154    3.077    0.000    2.154    1.231 
#    0.000    2.308    0.000    3.692    0.000    0.000 
#    0.000    0.000    0.000    0.000    0.000    0.000 
#
# Total GULP energy -144797.846231 kJ/mol
# GULP energy per Si atom -5569.147932 kJ/mol
# Density = 1.816889 g / cm^3
# Si number density = 18.210337 Si / 1000 Ang^3
#
#
#
# Elastic Constant Matrix: (Units=GPa)
#
#
# Indices 1 2 3 4 5 6 
#
# 1 69.0980 5.1931 26.4003 0.0000 0.0000 0.0000
# 2 5.1931 66.8373 21.4921 0.0000 0.0000 0.0000
# 3 26.4003 21.4921 30.9304 0.0000 0.0000 0.0000
# 4 0.0000 0.0000 0.0000 26.5619 0.0000 0.0000
# 5 0.0000 0.0000 0.0000 0.0000 26.5749 0.0000
# 6 0.0000 0.0000 0.0000 0.0000 0.0000 23.0882
#
#
#
# Elastic Compliance Matrix: (Units=1/GPa)
#
#
# Indices 1 2 3 4 5 6 
#
# 1 0.023131 0.005861 -0.023816 0.000000 0.000000 0.000000
# 2 0.005861 0.020752 -0.019422 0.000000 0.000000 0.000000
# 3 -0.023816 -0.019422 0.066153 0.000000 0.000000 0.000000
# 4 0.000000 0.000000 0.000000 0.037648 0.000000 0.000000
# 5 0.000000 0.000000 0.000000 0.000000 0.037629 0.000000
# 6 0.000000 0.000000 0.000000 0.000000 0.000000 0.043312
#
#
# Mechanical properties :
#
#
# Convention : Reuss Voigt Hill
#
# Bulk Modulus (GPa) = 28.34229 30.33741 29.33985
# Shear Modulus (GPa) = 15.86599 22.83036 19.34817
#
# Velocity S-wave (km/s) = 2.95492 3.54461 3.26311
# Velocity P-wave (km/s) = 5.21917 5.78342 5.50852
#
# Compressibility (1/GPa) = 0.03528296
#
# Stress axis : x y z
#
# Youngs Moduli (GPa) = 43.23209 48.18913 15.11637
#
# Poissons Ratio (x) = -0.28243 0.36001
# Poissons Ratio (y) = -0.25338 0.29359
# Poissons Ratio (z) = 1.02960 0.93592
#
# Static dielectric constant tensor:
#      x y z
#    x 1.696750 0.000000 0.000000 
#    y 0.000000 1.653940 0.000000 
#    z 0.000000 0.000000 1.577870 
# 
# From -- ./inp_files/3344.got.cif
#   From: 2010.05.17/outbox.cif.g08.bks.cpg/sg18_2_cif.got.tgz:3344.got - 2010.06.03 22:40:56.
