data_PCOD9311573
_publ_section_title
;
Structure prediction by ZEFSAII (Michael W. Deem and Ramdas Pophale) SiO2 
 PCOD9311573
Probable space group: P 2 2 21
;
_chemical_formula_sum "Si O2"
_cell_formula_units_Z 8
_cell_length_a 10.625647
_cell_length_b 6.562817
_cell_length_c 4.826109
_cell_angle_alpha 90.000000
_cell_angle_beta 90.000000
_cell_angle_gamma 90.000000
_cell_volume 336.544738
_symmetry_space_group_name_H-M "P 2 2 21"
_symmetry_group_IT_number 17
_symmetry_cell_setting 'orthorhombic'
loop_
_space_group_symop_operation_xyz
x,y,z
-x,-y,1/2+z
x,-y,-z
-x,y,1/2-z
loop_
_atom_site_type_symbol
_atom_site_label
_atom_site_fract_x
_atom_site_fract_y
_atom_site_fract_z
Si Si1 0.249852 0.641640 0.239444
Si Si2 0.083572 0.000000 0.500000
Si Si3 0.500000 0.139447 0.750000
O O1 0.278312 0.500000 0.500000
O O2 0.164304 0.825604 0.348859
O O3 0.382680 0.732525 0.137607
O O4 0.192507 0.500000 0.000000
O O5 0.000000 0.909794 0.750000
O O6 0.451522 0.000000 0.500000
#
# Coordination Sequence:
#
# PCOD9311573 Si02
#       3
#     4   2   2
#     4  12  26  47  77 112 146 195 247 307 378 446
#     4  12  28  50  76 106 152 204 254 308 366 434
#     4  12  24  44  78 110 152 190 236 310 388 444
#
# _framework density 23.770983000000001
#
# number of rings (size 3 to 8) (size 9 to 14) (size 15 to 20)
#    0.000    0.000    2.500    7.500    3.500    4.000 
#    0.000    0.000    0.000    0.000    0.000    0.000 
#    0.000    0.000    0.000    0.000    0.000    0.000 
#
# Total GULP energy -44837.548083 kJ/mol
# GULP energy per Si atom -5604.693510 kJ/mol
# Density = 2.371688 g / cm^3
# Si number density = 23.770983 Si / 1000 Ang^3
#
#
#
# Elastic Constant Matrix: (Units=GPa)
#
#
# Indices 1 2 3 4 5 6 
#
# 1 104.4971 57.4917 25.0461 0.0000 0.0000 0.0000
# 2 57.4917 133.7644 48.0029 0.0000 0.0000 0.0000
# 3 25.0461 48.0029 122.2056 0.0000 0.0000 0.0000
# 4 0.0000 0.0000 0.0000 64.9555 0.0000 0.0000
# 5 0.0000 0.0000 0.0000 0.0000 34.4348 0.0000
# 6 0.0000 0.0000 0.0000 0.0000 0.0000 8.9423
#
#
#
# Elastic Compliance Matrix: (Units=1/GPa)
#
#
# Indices 1 2 3 4 5 6 
#
# 1 0.012563 -0.005210 -0.000528 0.000000 0.000000 0.000000
# 2 -0.005210 0.010863 -0.003199 0.000000 0.000000 0.000000
# 3 -0.000528 -0.003199 0.009548 0.000000 0.000000 0.000000
# 4 0.000000 0.000000 0.000000 0.015395 0.000000 0.000000
# 5 0.000000 0.000000 0.000000 0.000000 0.029040 0.000000
# 6 0.000000 0.000000 0.000000 0.000000 0.000000 0.111828
#
#
# Mechanical properties :
#
#
# Convention : Reuss Voigt Hill
#
# Bulk Modulus (GPa) = 66.23045 69.06094 67.64569
# Shear Modulus (GPa) = 23.56876 36.99493 30.28184
#
# Velocity S-wave (km/s) = 3.15221 3.94928 3.57304
# Velocity P-wave (km/s) = 6.41646 7.06481 6.74842
#
# Compressibility (1/GPa) = 0.01509880
#
# Stress axis : x y z
#
# Youngs Moduli (GPa) = 79.60162 92.05472 104.73495
#
# Poissons Ratio (x) = 0.47959 0.05533
# Poissons Ratio (y) = 0.41471 0.33508
# Poissons Ratio (z) = 0.04205 0.29451
#
# Static dielectric constant tensor:
#      x y z
#    x 1.885460 0.000000 0.000000 
#    y 0.000000 1.917120 0.000000 
#    z 0.000000 0.000000 1.892550 
# 
# From -- ./inp_files/7.got.cif
#   From: 2010.05.17/outbox.cif.g08.bks.cpg/sg17_1_cif.got.tgz:7.got - 2010.06.03 22:34:06.
