data_PCOD9311896
_publ_section_title
;
Structure prediction by ZEFSAII (Michael W. Deem and Ramdas Pophale) SiO2 
 PCOD9311896
Probable space group: P 21 21 2
;
_chemical_formula_sum "Si O2"
_cell_formula_units_Z 32
_cell_length_a 15.224074
_cell_length_b 12.908886
_cell_length_c 7.690539
_cell_angle_alpha 90.000000
_cell_angle_beta 90.000000
_cell_angle_gamma 90.000000
_cell_volume 1511.389604
_symmetry_space_group_name_H-M "P 21 21 2"
_symmetry_group_IT_number 18
_symmetry_cell_setting 'orthorhombic'
loop_
_space_group_symop_operation_xyz
x,y,z
-x,-y,z
1/2+x,1/2-y,-z
1/2-x,1/2+y,-z
loop_
_atom_site_type_symbol
_atom_site_label
_atom_site_fract_x
_atom_site_fract_y
_atom_site_fract_z
Si Si1 0.186626 0.305698 0.768742
Si Si2 0.481718 0.881339 0.618177
Si Si3 0.476631 0.703020 0.368816
Si Si4 0.756141 0.011850 0.474893
Si Si5 0.158442 0.282289 0.146523
Si Si6 0.574199 0.420773 0.713872
Si Si7 0.839670 0.315071 0.354727
Si Si8 0.339421 0.325601 0.303128
O O1 0.119774 0.215741 0.707636
O O2 0.201139 0.401905 0.636198
O O3 0.277430 0.242737 0.779655
O O4 0.154674 0.335628 0.959416
O O5 0.489002 0.820545 0.437650
O O6 0.391699 0.852825 0.712044
O O7 0.565339 0.837777 0.723926
O O8 0.500000 0.000000 0.593947
O O9 0.468920 0.631303 0.540095
O O10 0.558597 0.672121 0.248317
O O11 0.802427 0.063235 0.642604
O O12 0.836183 0.975414 0.351075
O O13 0.699649 0.916953 0.550976
O O14 0.107344 0.172765 0.162776
O O15 0.261106 0.272212 0.197087
O O16 0.500000 0.500000 0.782351
O O17 0.845684 0.233485 0.512518
#
# Coordination Sequence:
#
# PCOD9311896 Si02
#       8
#     4   4   4   4   4   4   4   4
#     4  11  24  39  59  92 130 167 196 264 330 379
#     4  10  20  38  63  87 115 160 209 260 302 370
#     4  10  20  38  62  89 118 155 220 268 304 360
#     4  11  19  39  67  89 115 161 224 257 304 374
#     4  11  24  42  55  93 142 163 198 262 334 383
#     4  11  20  40  68  91 120 163 216 267 307 375
#     4  10  19  37  65  88 112 160 217 260 297 360
#     4  10  20  36  62  87 118 165 208 264 306 366
#
# _framework density 21.172567000000001
#
# number of rings (size 3 to 8) (size 9 to 14) (size 15 to 20)
#    0.000    1.500    3.750    3.750    1.750    1.000 
#    4.500    3.750    0.000    0.000    0.000    0.000 
#    0.000    0.000    0.000    0.000    0.000    0.000 
#
# Total GULP energy -178337.417910 kJ/mol
# GULP energy per Si atom -5573.044310 kJ/mol
# Density = 2.112438 g / cm^3
# Si number density = 21.172567 Si / 1000 Ang^3
#
#
#
# Elastic Constant Matrix: (Units=GPa)
#
#
# Indices 1 2 3 4 5 6 
#
# 1 96.2135 17.2693 -0.8705 0.0000 0.0000 0.0000
# 2 17.2693 53.3829 1.9913 0.0000 0.0000 0.0000
# 3 -0.8705 1.9913 36.7645 0.0000 0.0000 0.0000
# 4 0.0000 0.0000 0.0000 8.1813 0.0000 0.0000
# 5 0.0000 0.0000 0.0000 0.0000 4.1735 0.0000
# 6 0.0000 0.0000 0.0000 0.0000 0.0000 23.3312
#
#
#
# Elastic Compliance Matrix: (Units=1/GPa)
#
#
# Indices 1 2 3 4 5 6 
#
# 1 0.011042 -0.003589 0.000456 0.000000 0.000000 0.000000
# 2 -0.003589 0.019937 -0.001165 0.000000 0.000000 0.000000
# 3 0.000456 -0.001165 0.027274 0.000000 0.000000 0.000000
# 4 0.000000 0.000000 0.000000 0.122230 0.000000 0.000000
# 5 0.000000 0.000000 0.000000 0.000000 0.239606 0.000000
# 6 0.000000 0.000000 0.000000 0.000000 0.000000 0.042861
#
#
# Mechanical properties :
#
#
# Convention : Reuss Voigt Hill
#
# Bulk Modulus (GPa) = 20.13818 24.79346 22.46582
# Shear Modulus (GPa) = 10.24384 18.33525 14.28955
#
# Velocity S-wave (km/s) = 2.20199 2.94597 2.60072
# Velocity P-wave (km/s) = 3.99964 4.82775 4.43308
#
# Compressibility (1/GPa) = 0.04965693
#
# Stress axis : x y z
#
# Youngs Moduli (GPa) = 90.56435 50.15771 36.66491
#
# Poissons Ratio (x) = 0.18002 -0.01671
# Poissons Ratio (y) = 0.32504 0.04271
# Poissons Ratio (z) = -0.04128 0.05843
#
# Static dielectric constant tensor:
#      x y z
#    x 1.910210 0.000000 0.000000 
#    y 0.000000 1.778110 0.000000 
#    z 0.000000 0.000000 1.745230 
# 
# From -- ./inp_files/4307.got.cif
#   From: 2010.05.17/outbox.cif.g08.bks.cpg/sg18_3_cif.got.tgz:4307.got - 2010.06.03 22:40:56.
