data_PCOD9311253
_publ_section_title
;
Structure prediction by ZEFSAII (Michael W. Deem and Ramdas Pophale) SiO2 
 PCOD9311253
Probable space group: P 2 2 21
;
_chemical_formula_sum "Si O2"
_cell_formula_units_Z 16
_cell_length_a 7.413853
_cell_length_b 5.220911
_cell_length_c 16.801336
_cell_angle_alpha 90.000000
_cell_angle_beta 90.000000
_cell_angle_gamma 90.000000
_cell_volume 650.330433
_symmetry_space_group_name_H-M "P 2 2 21"
_symmetry_group_IT_number 17
_symmetry_cell_setting 'orthorhombic'
loop_
_space_group_symop_operation_xyz
x,y,z
-x,-y,1/2+z
x,-y,-z
-x,y,1/2-z
loop_
_atom_site_type_symbol
_atom_site_label
_atom_site_fract_x
_atom_site_fract_y
_atom_site_fract_z
Si Si1 0.570202 0.939281 0.412660
Si Si2 0.774115 0.194414 0.805716
Si Si3 0.950216 0.253618 0.551809
Si Si4 0.300595 0.695111 0.785644
O O1 0.418677 0.830549 0.352902
O O2 0.738506 0.751968 0.426363
O O3 0.491500 0.000000 0.500000
O O4 0.664426 0.191773 0.373653
O O5 0.923580 0.242242 0.871695
O O6 0.776567 0.424155 0.742038
O O7 0.797340 0.925454 0.761077
O O8 0.995122 0.500000 0.500000
O O9 0.983059 0.000000 0.500000
O O10 0.500000 0.686321 0.750000
#
# Coordination Sequence:
#
# PCOD9311253 Si02
#       4
#     4   4   4   4
#     4  10  24  45  70  99 135 177 221 280 339 393
#     4  11  23  44  68  94 134 175 216 273 331 389
#     4  11  25  43  67 103 136 174 230 273 326 407
#     4  10  22  42  67  97 130 170 223 269 325 402
#
# _framework density 24.602878
#
# number of rings (size 3 to 8) (size 9 to 14) (size 15 to 20)
#    0.000    1.500    0.000    4.500    0.000   16.000 
#    0.000    7.500    0.000    0.000    0.000    0.000 
#    0.000    0.000    0.000    0.000    0.000    0.000 
#
# Total GULP energy -89643.075501 kJ/mol
# GULP energy per Si atom -5602.692219 kJ/mol
# Density = 2.454688 g / cm^3
# Si number density = 24.602878 Si / 1000 Ang^3
#
#
#
# Elastic Constant Matrix: (Units=GPa)
#
#
# Indices 1 2 3 4 5 6 
#
# 1 112.3056 39.3855 37.2834 0.0000 0.0000 0.0000
# 2 39.3855 197.1072 81.1741 0.0000 0.0000 0.0000
# 3 37.2834 81.1741 168.2049 0.0000 0.0000 0.0000
# 4 0.0000 0.0000 0.0000 37.2488 0.0000 0.0000
# 5 0.0000 0.0000 0.0000 0.0000 45.3956 0.0000
# 6 0.0000 0.0000 0.0000 0.0000 0.0000 37.0363
#
#
#
# Elastic Compliance Matrix: (Units=1/GPa)
#
#
# Indices 1 2 3 4 5 6 
#
# 1 0.009887 -0.001339 -0.001545 0.000000 0.000000 0.000000
# 2 -0.001339 0.006513 -0.002846 0.000000 0.000000 0.000000
# 3 -0.001545 -0.002846 0.007661 0.000000 0.000000 0.000000
# 4 0.000000 0.000000 0.000000 0.026847 0.000000 0.000000
# 5 0.000000 0.000000 0.000000 0.000000 0.022029 0.000000
# 6 0.000000 0.000000 0.000000 0.000000 0.000000 0.027001
#
#
# Mechanical properties :
#
#
# Convention : Reuss Voigt Hill
#
# Bulk Modulus (GPa) = 79.36623 88.14486 83.75555
# Shear Modulus (GPa) = 43.25317 45.25445 44.25381
#
# Velocity S-wave (km/s) = 4.19746 4.29347 4.24574
# Velocity P-wave (km/s) = 7.47132 7.77710 7.62574
#
# Compressibility (1/GPa) = 0.01259982
#
# Stress axis : x y z
#
# Youngs Moduli (GPa) = 101.14380 153.53457 130.52696
#
# Poissons Ratio (x) = 0.20562 0.20169
# Poissons Ratio (y) = 0.13545 0.37153
# Poissons Ratio (z) = 0.15629 0.43701
#
# Static dielectric constant tensor:
#      x y z
#    x 1.950340 0.000000 0.000000 
#    y 0.000000 1.952390 0.000000 
#    z 0.000000 0.000000 1.983630 
# 
# From -- ./inp_files/9978.got.cif
#   From: 2010.05.17/outbox.cif.g08.bks.cpg/sg17_5_cif.got.tgz:9978.got - 2010.06.03 22:34:06.
