data_PCOD9311877
_publ_section_title
;
Structure prediction by ZEFSAII (Michael W. Deem and Ramdas Pophale) SiO2 
 PCOD9311877
Probable space group: P 21 21 2
;
_chemical_formula_sum "Si O2"
_cell_formula_units_Z 30
_cell_length_a 13.699969
_cell_length_b 5.222039
_cell_length_c 17.205425
_cell_angle_alpha 90.000000
_cell_angle_beta 90.000000
_cell_angle_gamma 90.000000
_cell_volume 1230.906600
_symmetry_space_group_name_H-M "P 21 21 2"
_symmetry_group_IT_number 18
_symmetry_cell_setting 'orthorhombic'
loop_
_space_group_symop_operation_xyz
x,y,z
-x,-y,z
1/2+x,1/2-y,-z
1/2-x,1/2+y,-z
loop_
_atom_site_type_symbol
_atom_site_label
_atom_site_fract_x
_atom_site_fract_y
_atom_site_fract_z
Si Si1 0.690355 0.151128 0.020164
Si Si2 0.643746 0.881997 0.658242
Si Si3 0.101788 0.133940 0.831046
Si Si4 0.500000 0.000000 0.766224
Si Si5 0.598401 0.348076 0.871608
Si Si6 0.147112 0.387606 0.673665
Si Si7 0.182435 0.454131 0.505132
Si Si8 0.748908 0.747789 0.231227
O O1 0.635131 0.162295 0.103202
O O2 0.777829 0.365985 0.008908
O O3 0.616386 0.278856 0.959133
O O4 0.623541 0.949286 0.569659
O O5 0.679710 0.137570 0.702523
O O6 0.549931 0.799251 0.707342
O O7 0.740017 0.710102 0.666027
O O8 0.093641 0.230604 0.741243
O O9 0.195733 0.946853 0.826708
O O10 0.000000 0.000000 0.852662
O O11 0.417656 0.915580 0.826001
O O12 0.500000 0.500000 0.860749
O O13 0.692083 0.447753 0.823571
O O14 0.120192 0.407767 0.583526
O O15 0.159342 0.655072 0.716509
O O16 0.260099 0.690043 0.516157
#
# Coordination Sequence:
#
# PCOD9311877 Si02
#       8
#     4   4   4   2   4   4   4   4
#     4  12  27  49  74 101 138 180 232 296 359 422
#     4   9  19  35  60  94 133 171 224 279 343 407
#     4  11  25  44  64 100 134 186 235 293 348 431
#     4  10  22  38  62 100 138 172 222 284 356 414
#     4  11  23  39  68  98 135 176 229 283 358 425
#     4  10  20  37  67  89 131 179 233 282 338 413
#     4  10  19  36  66  98 129 181 237 283 342 411
#     4  10  19  40  62  91 130 175 227 282 348 413
#
# _framework density 24.372278000000001
#
# number of rings (size 3 to 8) (size 9 to 14) (size 15 to 20)
#    0.000    1.600    2.667    2.000    1.867    0.533 
#    0.000    1.333    0.000    0.000    0.000    0.000 
#    0.000    0.000    0.000    0.000    0.000    0.000 
#
# Total GULP energy -167108.327035 kJ/mol
# GULP energy per Si atom -5570.277568 kJ/mol
# Density = 2.431681 g / cm^3
# Si number density = 24.372278 Si / 1000 Ang^3
#
#
#
# Elastic Constant Matrix: (Units=GPa)
#
#
# Indices 1 2 3 4 5 6 
#
# 1 67.2711 -4.3294 33.9358 0.0000 0.0000 0.0000
# 2 -4.3294 48.3115 5.6089 0.0000 0.0000 0.0000
# 3 33.9358 5.6089 147.0774 0.0000 0.0000 0.0000
# 4 0.0000 0.0000 0.0000 25.1235 0.0000 0.0000
# 5 0.0000 0.0000 0.0000 0.0000 31.2319 0.0000
# 6 0.0000 0.0000 0.0000 0.0000 0.0000 23.0884
#
#
#
# Elastic Compliance Matrix: (Units=1/GPa)
#
#
# Indices 1 2 3 4 5 6 
#
# 1 0.017012 0.001989 -0.004001 0.000000 0.000000 0.000000
# 2 0.001989 0.021024 -0.001261 0.000000 0.000000 0.000000
# 3 -0.004001 -0.001261 0.007770 0.000000 0.000000 0.000000
# 4 0.000000 0.000000 0.000000 0.039803 0.000000 0.000000
# 5 0.000000 0.000000 0.000000 0.000000 0.032019 0.000000
# 6 0.000000 0.000000 0.000000 0.000000 0.000000 0.043312
#
#
# Mechanical properties :
#
#
# Convention : Reuss Voigt Hill
#
# Bulk Modulus (GPa) = 25.47109 37.01005 31.24057
# Shear Modulus (GPa) = 27.68988 31.05174 29.37081
#
# Velocity S-wave (km/s) = 3.37430 3.57327 3.47521
# Velocity P-wave (km/s) = 5.06505 5.67826 5.38040
#
# Compressibility (1/GPa) = 0.03926020
#
# Stress axis : x y z
#
# Youngs Moduli (GPa) = 58.78351 47.56555 128.69374
#
# Poissons Ratio (x) = -0.09461 0.51490
# Poissons Ratio (y) = -0.11692 0.16224
# Poissons Ratio (z) = 0.23519 0.05996
#
# Static dielectric constant tensor:
#      x y z
#    x 2.221460 0.000000 0.000000 
#    y 0.000000 2.076560 0.000000 
#    z 0.000000 0.000000 1.935550 
# 
# From -- ./inp_files/7400.got.cif
#   From: 2010.05.17/outbox.cif.g08.bks.cpg/sg18_4_cif.got.tgz:7400.got - 2010.06.03 22:40:56.
