data_PCOD9311566
_publ_section_title
;
Structure prediction by ZEFSAII (Michael W. Deem and Ramdas Pophale) SiO2 
 PCOD9311566
Probable space group: P 2 2 21
;
_chemical_formula_sum "Si O2"
_cell_formula_units_Z 20
_cell_length_a 8.243146
_cell_length_b 11.872243
_cell_length_c 8.619036
_cell_angle_alpha 90.000000
_cell_angle_beta 90.000000
_cell_angle_gamma 90.000000
_cell_volume 843.498790
_symmetry_space_group_name_H-M "P 2 2 21"
_symmetry_group_IT_number 17
_symmetry_cell_setting 'orthorhombic'
loop_
_space_group_symop_operation_xyz
x,y,z
-x,-y,1/2+z
x,-y,-z
-x,y,1/2-z
loop_
_atom_site_type_symbol
_atom_site_label
_atom_site_fract_x
_atom_site_fract_y
_atom_site_fract_z
Si Si1 0.145209 0.424606 0.356257
Si Si2 0.112146 0.063201 0.122661
Si Si3 0.659869 0.745482 0.656855
Si Si4 0.091177 0.775713 0.414031
Si Si5 0.547824 0.124339 0.922738
O O1 0.214968 0.500000 0.500000
O O2 0.269196 0.371264 0.228261
O O3 0.069215 0.325240 0.461918
O O4 0.000000 0.475630 0.250000
O O5 0.210250 0.161020 0.204355
O O6 0.000000 0.007368 0.250000
O O7 0.997862 0.122225 0.998156
O O8 0.227439 0.000000 0.000000
O O9 0.500000 0.768007 0.750000
O O10 0.590223 0.786345 0.489040
O O11 0.281155 0.807415 0.409983
O O12 0.000000 0.752451 0.250000
O O13 0.500000 0.094511 0.750000
O O14 0.575207 0.000000 0.000000
#
# Coordination Sequence:
#
# PCOD9311566 Si02
#       5
#     4   4   4   4   4
#     4  12  26  52  82 111 145 204 270 342 401 459
#     4  12  23  41  68 107 149 202 253 307 376 460
#     4  12  23  47  75 105 162 193 249 329 385 470
#     4  12  24  45  73 107 153 195 267 323 376 469
#     4  12  27  44  74 114 163 219 257 313 396 473
#
# _framework density 23.710761999999999
#
# number of rings (size 3 to 8) (size 9 to 14) (size 15 to 20)
#    0.000    0.000    6.000    4.200    0.000    4.800 
#    0.000    4.000    0.000    0.000    0.000    0.000 
#    0.000    0.000    0.000    0.000    0.000    0.000 
#
# Total GULP energy -111339.464429 kJ/mol
# GULP energy per Si atom -5566.973221 kJ/mol
# Density = 2.365680 g / cm^3
# Si number density = 23.710762 Si / 1000 Ang^3
#
#
#
# Elastic Constant Matrix: (Units=GPa)
#
#
# Indices 1 2 3 4 5 6 
#
# 1 100.8948 14.0984 49.6795 0.0000 0.0000 0.0000
# 2 14.0984 69.2186 44.5230 0.0000 0.0000 0.0000
# 3 49.6795 44.5230 132.5186 0.0000 0.0000 0.0000
# 4 0.0000 0.0000 0.0000 57.2334 0.0000 0.0000
# 5 0.0000 0.0000 0.0000 0.0000 36.0193 0.0000
# 6 0.0000 0.0000 0.0000 0.0000 0.0000 95.5616
#
#
#
# Elastic Compliance Matrix: (Units=1/GPa)
#
#
# Indices 1 2 3 4 5 6 
#
# 1 0.012173 0.000582 -0.004759 0.000000 0.000000 0.000000
# 2 0.000582 0.018458 -0.006419 0.000000 0.000000 0.000000
# 3 -0.004759 -0.006419 0.011487 0.000000 0.000000 0.000000
# 4 0.000000 0.000000 0.000000 0.017472 0.000000 0.000000
# 5 0.000000 0.000000 0.000000 0.000000 0.027763 0.000000
# 6 0.000000 0.000000 0.000000 0.000000 0.000000 0.010464
#
#
# Mechanical properties :
#
#
# Convention : Reuss Voigt Hill
#
# Bulk Modulus (GPa) = 47.79108 57.69266 52.74187
# Shear Modulus (GPa) = 39.68700 50.71828 45.20264
#
# Velocity S-wave (km/s) = 4.09564 4.62999 4.37099
# Velocity P-wave (km/s) = 6.52421 7.27785 6.91131
#
# Compressibility (1/GPa) = 0.02092441
#
# Stress axis : x y z
#
# Youngs Moduli (GPa) = 82.14673 54.17825 87.05513
#
# Poissons Ratio (x) = -0.03151 0.41430
# Poissons Ratio (y) = -0.04778 0.55884
# Poissons Ratio (z) = 0.39094 0.34779
#
# Static dielectric constant tensor:
#      x y z
#    x 2.324040 0.000000 0.000000 
#    y 0.000000 2.036190 0.000000 
#    z 0.000000 0.000000 1.763760 
# 
# From -- ./inp_files/4038.got.cif
#   From: 2010.05.17/outbox.cif.g08.bks.cpg/sg17_3_cif.got.tgz:4038.got - 2010.06.03 22:34:06.
