data_PCOD9311574
_publ_section_title
;
Structure prediction by ZEFSAII (Michael W. Deem and Ramdas Pophale) SiO2 
 PCOD9311574
Probable space group: P 2 2 21
;
_chemical_formula_sum "Si O2"
_cell_formula_units_Z 22
_cell_length_a 6.701897
_cell_length_b 11.178304
_cell_length_c 12.866979
_cell_angle_alpha 90.000000
_cell_angle_beta 90.000000
_cell_angle_gamma 90.000000
_cell_volume 963.940566
_symmetry_space_group_name_H-M "P 2 2 21"
_symmetry_group_IT_number 17
_symmetry_cell_setting 'orthorhombic'
loop_
_space_group_symop_operation_xyz
x,y,z
-x,-y,1/2+z
x,-y,-z
-x,y,1/2-z
loop_
_atom_site_type_symbol
_atom_site_label
_atom_site_fract_x
_atom_site_fract_y
_atom_site_fract_z
Si Si1 0.472587 0.835136 0.461840
Si Si2 0.875685 0.394076 0.351771
Si Si3 0.500000 0.029875 0.750000
Si Si4 0.840904 0.500000 0.000000
Si Si5 0.486027 0.582885 0.131282
Si Si6 0.896404 0.000000 0.000000
Si Si7 0.780198 0.118277 0.355749
O O1 0.527861 0.890925 0.351097
O O2 0.522831 0.695389 0.446593
O O3 0.604533 0.879371 0.557620
O O4 0.248927 0.886370 0.477816
O O5 0.690262 0.484578 0.370292
O O6 0.820680 0.256716 0.333402
O O7 0.000000 0.434442 0.250000
O O8 0.013005 0.399231 0.455010
O O9 0.307724 0.944403 0.753458
O O10 0.694310 0.473490 0.904938
O O11 0.500000 0.625128 0.250000
O O12 0.041301 0.043476 0.092798
#
# Coordination Sequence:
#
# PCOD9311574 Si02
#       7
#     4   4   2   2   4   2   4
#     4  12  25  49  72 106 152 197 245 310 387 445
#     4  12  28  48  79 117 149 206 265 311 392 470
#     4  12  24  46  72 106 148 198 246 304 386 446
#     4  12  24  50  74 110 152 198 246 318 390 448
#     4  12  26  48  77 107 154 200 249 318 384 462
#     4  12  24  48  74 112 148 194 254 310 380 448
#     4  12  27  48  72 111 151 190 257 323 369 455
#
# _framework density 22.822984000000002
#
# number of rings (size 3 to 8) (size 9 to 14) (size 15 to 20)
#    0.000    0.000    6.364    3.818    3.818    1.455 
#    0.000    1.818    0.000    0.000    0.000    0.000 
#    0.000    0.000    0.000    0.000    0.000    0.000 
#
# Total GULP energy -122932.234241 kJ/mol
# GULP energy per Si atom -5587.828829 kJ/mol
# Density = 2.277104 g / cm^3
# Si number density = 22.822984 Si / 1000 Ang^3
#
#
#
# Elastic Constant Matrix: (Units=GPa)
#
#
# Indices 1 2 3 4 5 6 
#
# 1 130.4703 59.6730 34.1947 0.0000 0.0000 0.0000
# 2 59.6730 127.9351 13.4217 0.0000 0.0000 0.0000
# 3 34.1947 13.4217 67.6236 0.0000 0.0000 0.0000
# 4 0.0000 0.0000 0.0000 41.1185 0.0000 0.0000
# 5 0.0000 0.0000 0.0000 0.0000 52.6786 0.0000
# 6 0.0000 0.0000 0.0000 0.0000 0.0000 32.6966
#
#
#
# Elastic Compliance Matrix: (Units=1/GPa)
#
#
# Indices 1 2 3 4 5 6 
#
# 1 0.011007 -0.004647 -0.004643 0.000000 0.000000 0.000000
# 2 -0.004647 0.009944 0.000376 0.000000 0.000000 0.000000
# 3 -0.004643 0.000376 0.017061 0.000000 0.000000 0.000000
# 4 0.000000 0.000000 0.000000 0.024320 0.000000 0.000000
# 5 0.000000 0.000000 0.000000 0.000000 0.018983 0.000000
# 6 0.000000 0.000000 0.000000 0.000000 0.000000 0.030584
#
#
# Mechanical properties :
#
#
# Convention : Reuss Voigt Hill
#
# Bulk Modulus (GPa) = 49.54458 60.06755 54.80607
# Shear Modulus (GPa) = 36.64175 39.88137 38.26156
#
# Velocity S-wave (km/s) = 4.01119 4.18475 4.09889
# Velocity P-wave (km/s) = 6.57329 7.05163 6.81666
#
# Compressibility (1/GPa) = 0.02018384
#
# Stress axis : x y z
#
# Youngs Moduli (GPa) = 90.85216 100.55863 58.61264
#
# Poissons Ratio (x) = 0.46728 0.27217
# Poissons Ratio (y) = 0.42217 -0.02204
# Poissons Ratio (z) = 0.42187 -0.03781
#
# Static dielectric constant tensor:
#      x y z
#    x 1.877420 0.000000 0.000000 
#    y 0.000000 1.936880 0.000000 
#    z 0.000000 0.000000 1.871180 
# 
# From -- ./inp_files/7697.got.cif
#   From: 2010.05.17/outbox.cif.g08.bks.cpg/sg17_4_cif.got.tgz:7697.got - 2010.06.03 22:34:06.
