data_PCOD9311427
_publ_section_title
;
Structure prediction by ZEFSAII (Michael W. Deem and Ramdas Pophale) SiO2 
 PCOD9311427
Probable space group: P 2 2 21
;
_chemical_formula_sum "Si O2"
_cell_formula_units_Z 16
_cell_length_a 6.352702
_cell_length_b 21.128496
_cell_length_c 5.118568
_cell_angle_alpha 90.000000
_cell_angle_beta 90.000000
_cell_angle_gamma 90.000000
_cell_volume 687.029751
_symmetry_space_group_name_H-M "P 2 2 21"
_symmetry_group_IT_number 17
_symmetry_cell_setting 'orthorhombic'
loop_
_space_group_symop_operation_xyz
x,y,z
-x,-y,1/2+z
x,-y,-z
-x,y,1/2-z
loop_
_atom_site_type_symbol
_atom_site_label
_atom_site_fract_x
_atom_site_fract_y
_atom_site_fract_z
Si Si1 0.151215 0.926755 0.998142
Si Si2 0.500000 0.159906 0.250000
Si Si3 0.140385 0.240811 0.506340
Si Si4 0.361381 0.629991 0.506323
Si Si5 0.863492 0.500000 0.000000
O O1 0.349871 0.882206 0.937241
O O2 0.000000 0.918139 0.750000
O O3 0.000000 0.917641 0.250000
O O4 0.223833 0.000000 0.000000
O O5 0.351205 0.202155 0.437844
O O6 0.198056 0.314279 0.548794
O O7 0.000000 0.235929 0.250000
O O8 0.000000 0.219099 0.750000
O O9 0.500000 0.621169 0.250000
O O10 0.265607 0.562108 0.576963
O O11 0.500000 0.652113 0.750000
O O12 0.000000 0.518745 0.250000
#
# Coordination Sequence:
#
# PCOD9311427 Si02
#       5
#     4   2   4   4   2
#     4  10  25  50  78 112 152 194 249 311 376 453
#     4  12  28  50  78 114 150 206 248 312 384 452
#     4  12  28  49  73 107 152 198 251 312 375 454
#     4  12  24  46  72 104 143 196 251 308 373 445
#     4  12  24  42  70 106 144 192 248 310 372 440
#
# _framework density 23.288657000000001
#
# number of rings (size 3 to 8) (size 9 to 14) (size 15 to 20)
#    0.000    0.500    1.250    6.000    0.000   10.000 
#    0.000    2.500    0.000    0.000    0.000    0.000 
#    0.000    0.000    0.000    0.000    0.000    0.000 
#
# Total GULP energy -89694.120179 kJ/mol
# GULP energy per Si atom -5605.882511 kJ/mol
# Density = 2.323565 g / cm^3
# Si number density = 23.288657 Si / 1000 Ang^3
#
#
#
# Elastic Constant Matrix: (Units=GPa)
#
#
# Indices 1 2 3 4 5 6 
#
# 1 127.2677 66.0422 44.8933 0.0000 0.0000 0.0000
# 2 66.0422 165.7880 -4.2892 0.0000 0.0000 0.0000
# 3 44.8933 -4.2892 115.7311 0.0000 0.0000 0.0000
# 4 0.0000 0.0000 0.0000 51.6105 0.0000 0.0000
# 5 0.0000 0.0000 0.0000 0.0000 50.6365 0.0000
# 6 0.0000 0.0000 0.0000 0.0000 0.0000 -29.5916
#
#
#
# Elastic Compliance Matrix: (Units=1/GPa)
#
#
# Indices 1 2 3 4 5 6 
#
# 1 0.012169 -0.004974 -0.004905 0.000000 0.000000 0.000000
# 2 -0.004974 0.008071 0.002229 0.000000 0.000000 0.000000
# 3 -0.004905 0.002229 0.010626 0.000000 0.000000 0.000000
# 4 0.000000 0.000000 0.000000 0.019376 0.000000 0.000000
# 5 0.000000 0.000000 0.000000 0.000000 0.019749 0.000000
# 6 0.000000 0.000000 0.000000 0.000000 0.000000 -0.033793
#
#
# Mechanical properties :
#
#
# Convention : Reuss Voigt Hill
#
# Bulk Modulus (GPa) = 64.24691 69.11995 66.68343
# Shear Modulus (GPa) = 88.20448 34.67377 61.43913
#
# Velocity S-wave (km/s) = 6.16090 3.86277 5.14187
# Velocity P-wave (km/s) = 8.84624 7.04548 7.99671
#
# Compressibility (1/GPa) = 0.01556495
#
# Stress axis : x y z
#
# Youngs Moduli (GPa) = 82.17620 123.89958 94.10918
#
# Poissons Ratio (x) = 0.61633 0.46159
# Poissons Ratio (y) = 0.40878 -0.20975
# Poissons Ratio (z) = 0.40306 -0.27614
#
# Static dielectric constant tensor:
#      x y z
#    x 1.851280 0.000000 0.000000 
#    y 0.000000 2.002240 0.000000 
#    z 0.000000 0.000000 1.809480 
# 
# From -- ./inp_files/343.got.cif
#   From: 2010.05.17/outbox.cif.g08.bks.cpg/sg17_1_cif.got.tgz:343.got - 2010.06.03 22:34:06.
