data_PCOD9311105
_publ_section_title
;
Structure prediction by ZEFSAII (Michael W. Deem and Ramdas Pophale) SiO2 
 PCOD9311105
Probable space group: P 2 2 21
;
_chemical_formula_sum "Si O2"
_cell_formula_units_Z 24
_cell_length_a 7.420574
_cell_length_b 15.439012
_cell_length_c 10.185300
_cell_angle_alpha 90.000000
_cell_angle_beta 90.000000
_cell_angle_gamma 90.000000
_cell_volume 1166.892451
_symmetry_space_group_name_H-M "P 2 2 21"
_symmetry_group_IT_number 17
_symmetry_cell_setting 'orthorhombic'
loop_
_space_group_symop_operation_xyz
x,y,z
-x,-y,1/2+z
x,-y,-z
-x,y,1/2-z
loop_
_atom_site_type_symbol
_atom_site_label
_atom_site_fract_x
_atom_site_fract_y
_atom_site_fract_z
Si Si1 0.214189 0.701893 0.736255
Si Si2 0.259005 0.763397 0.023639
Si Si3 0.473120 0.080049 0.596322
Si Si4 0.344026 0.514476 0.649317
Si Si5 0.826240 0.798560 0.017430
Si Si6 0.204509 0.660648 0.272694
O O1 0.285076 0.611906 0.677944
O O2 0.234778 0.778539 0.631062
O O3 0.000000 0.689469 0.750000
O O4 0.292735 0.724688 0.878721
O O5 0.386831 0.843626 0.057822
O O6 0.293190 0.690324 0.135946
O O7 0.045503 0.793014 0.023334
O O8 0.500000 0.059420 0.750000
O O9 0.270481 0.116228 0.571408
O O10 0.505003 0.000000 0.500000
O O11 0.399056 0.500000 0.500000
O O12 0.500000 0.493389 0.750000
O O13 0.204149 0.438782 0.684278
O O14 0.741666 0.721464 0.106455
O O15 0.000000 0.685694 0.250000
#
# Coordination Sequence:
#
# PCOD9311105 Si02
#       6
#     4   4   4   4   4   4
#     4  10  23  43  66  95 129 176 224 272 322 380
#     4  10  24  43  72  98 128 173 222 264 329 395
#     4  12  28  45  70 101 132 169 211 271 338 401
#     4  12  27  39  57  94 135 174 222 275 319 373
#     4  10  22  45  70  96 131 174 217 270 323 387
#     4  10  21  41  66  88 124 176 217 263 317 375
#
# _framework density 20.567449
#
# number of rings (size 3 to 8) (size 9 to 14) (size 15 to 20)
#    0.000    1.333    3.333    0.500    9.333    0.667 
#    0.000    0.000    0.000    0.000    0.000    0.000 
#    0.000    0.000    0.000    0.000    0.000    0.000 
#
# Total GULP energy -133960.933943 kJ/mol
# GULP energy per Si atom -5581.705581 kJ/mol
# Density = 2.052064 g / cm^3
# Si number density = 20.567449 Si / 1000 Ang^3
#
#
#
# Elastic Constant Matrix: (Units=GPa)
#
#
# Indices 1 2 3 4 5 6 
#
# 1 43.7692 10.0041 28.6637 0.0000 0.0000 0.0000
# 2 10.0041 79.6821 45.1067 0.0000 0.0000 0.0000
# 3 28.6637 45.1067 181.7024 0.0000 0.0000 0.0000
# 4 0.0000 0.0000 0.0000 38.7305 0.0000 0.0000
# 5 0.0000 0.0000 0.0000 0.0000 21.0307 0.0000
# 6 0.0000 0.0000 0.0000 0.0000 0.0000 8.0609
#
#
#
# Elastic Compliance Matrix: (Units=1/GPa)
#
#
# Indices 1 2 3 4 5 6 
#
# 1 0.025559 -0.001078 -0.003764 0.000000 0.000000 0.000000
# 2 -0.001078 0.014647 -0.003466 0.000000 0.000000 0.000000
# 3 -0.003764 -0.003466 0.006958 0.000000 0.000000 0.000000
# 4 0.000000 0.000000 0.000000 0.025819 0.000000 0.000000
# 5 0.000000 0.000000 0.000000 0.000000 0.047549 0.000000
# 6 0.000000 0.000000 0.000000 0.000000 0.000000 0.124055
#
#
# Mechanical properties :
#
#
# Convention : Reuss Voigt Hill
#
# Bulk Modulus (GPa) = 32.73639 52.52252 42.62945
# Shear Modulus (GPa) = 18.42386 28.32304 23.37345
#
# Velocity S-wave (km/s) = 2.99620 3.71493 3.37475
# Velocity P-wave (km/s) = 5.28401 6.63273 5.99641
#
# Compressibility (1/GPa) = 0.03054705
#
# Stress axis : x y z
#
# Youngs Moduli (GPa) = 39.12565 68.27203 143.72444
#
# Poissons Ratio (x) = 0.07360 0.54102
# Poissons Ratio (y) = 0.04218 0.49816
# Poissons Ratio (z) = 0.14728 0.23664
#
# Static dielectric constant tensor:
#      x y z
#    x 1.792650 0.000000 0.000000 
#    y 0.000000 1.746970 0.000000 
#    z 0.000000 0.000000 1.758030 
# 
# From -- ./inp_files/4266.got.cif
#   From: 2010.05.17/outbox.cif.g08.bks.cpg/sg17_3_cif.got.tgz:4266.got - 2010.06.03 22:34:06.
