data_PCOD9311082
_publ_section_title
;
Structure prediction by ZEFSAII (Michael W. Deem and Ramdas Pophale) SiO2 
 PCOD9311082
Probable space group: P 2 2 21
;
_chemical_formula_sum "Si O2"
_cell_formula_units_Z 12
_cell_length_a 11.557205
_cell_length_b 8.376873
_cell_length_c 5.415043
_cell_angle_alpha 90.000000
_cell_angle_beta 90.000000
_cell_angle_gamma 90.000000
_cell_volume 524.247850
_symmetry_space_group_name_H-M "P 2 2 21"
_symmetry_group_IT_number 17
_symmetry_cell_setting 'orthorhombic'
loop_
_space_group_symop_operation_xyz
x,y,z
-x,-y,1/2+z
x,-y,-z
-x,y,1/2-z
loop_
_atom_site_type_symbol
_atom_site_label
_atom_site_fract_x
_atom_site_fract_y
_atom_site_fract_z
Si Si1 0.250959 0.000000 0.000000
Si Si2 0.074038 0.500000 0.500000
Si Si3 0.500000 0.723346 0.250000
Si Si4 0.397540 0.000000 0.500000
Si Si5 0.236431 0.344604 0.837413
O O1 0.321080 0.991296 0.743596
O O2 0.199286 0.178549 0.967423
O O3 0.161804 0.360442 0.587490
O O4 0.000000 0.467201 0.250000
O O5 0.524462 0.843677 0.024950
O O6 0.624646 0.644440 0.288169
O O7 0.212128 0.500000 0.000000
#
# Coordination Sequence:
#
# PCOD9311082 Si02
#       5
#     2   2   2   2   4
#     4  10  25  44  72 111 154 195 246 284 385 442
#     4  12  28  54  78 102 148 206 258 316 374 424
#     4  10  22  38  70 116 154 186 238 282 392 438
#     4  10  21  40  62 109 170 199 212 298 363 476
#     4  11  26  44  78 111 151 196 240 313 367 455
#
# _framework density 22.889934
#
# number of rings (size 3 to 8) (size 9 to 14) (size 15 to 20)
#    0.000    1.333    1.667    4.000   11.667    0.000 
#    0.000    0.000    7.333    0.000    0.000    0.000 
#    0.000    0.000    0.000    0.000    0.000    0.000 
#
# Total GULP energy -66831.278444 kJ/mol
# GULP energy per Si atom -5569.273204 kJ/mol
# Density = 2.283784 g / cm^3
# Si number density = 22.889934 Si / 1000 Ang^3
#
#
#
# Elastic Constant Matrix: (Units=GPa)
#
#
# Indices 1 2 3 4 5 6 
#
# 1 120.7535 39.5333 51.2202 0.0000 0.0000 0.0000
# 2 39.5333 142.8673 52.7177 0.0000 0.0000 0.0000
# 3 51.2202 52.7177 164.6399 0.0000 0.0000 0.0000
# 4 0.0000 0.0000 0.0000 44.2049 0.0000 0.0000
# 5 0.0000 0.0000 0.0000 0.0000 26.8814 0.0000
# 6 0.0000 0.0000 0.0000 0.0000 0.0000 34.0737
#
#
#
# Elastic Compliance Matrix: (Units=1/GPa)
#
#
# Indices 1 2 3 4 5 6 
#
# 1 0.009943 -0.001826 -0.002509 0.000000 0.000000 0.000000
# 2 -0.001826 0.008273 -0.002081 0.000000 0.000000 0.000000
# 3 -0.002509 -0.002081 0.007521 0.000000 0.000000 0.000000
# 4 0.000000 0.000000 0.000000 0.022622 0.000000 0.000000
# 5 0.000000 0.000000 0.000000 0.000000 0.037200 0.000000
# 6 0.000000 0.000000 0.000000 0.000000 0.000000 0.029348
#
#
# Mechanical properties :
#
#
# Convention : Reuss Voigt Hill
#
# Bulk Modulus (GPa) = 77.48528 79.46700 78.47614
# Shear Modulus (GPa) = 37.86746 40.01798 38.94272
#
# Velocity S-wave (km/s) = 4.07176 4.18578 4.12916
# Velocity P-wave (km/s) = 7.48534 7.62583 7.55591
#
# Compressibility (1/GPa) = 0.01290568
#
# Stress axis : x y z
#
# Youngs Moduli (GPa) = 100.57131 120.88198 132.96715
#
# Poissons Ratio (x) = 0.22069 0.33359
# Poissons Ratio (y) = 0.18361 0.27669
# Poissons Ratio (z) = 0.25231 0.25154
#
# Static dielectric constant tensor:
#      x y z
#    x 1.964330 0.000000 0.000000 
#    y 0.000000 1.945950 0.000000 
#    z 0.000000 0.000000 1.756720 
# 
# From -- ./inp_files/1139.got.cif
#   From: 2010.05.17/outbox.cif.g08.bks.cpg/sg17_1_cif.got.tgz:1139.got - 2010.06.03 22:34:06.
