data_PCOD9311058
_publ_section_title
;
Structure prediction by ZEFSAII (Michael W. Deem and Ramdas Pophale) SiO2 
 PCOD9311058
Probable space group: P 2 2 21
;
_chemical_formula_sum "Si O2"
_cell_formula_units_Z 16
_cell_length_a 7.964507
_cell_length_b 10.159432
_cell_length_c 7.497121
_cell_angle_alpha 90.000000
_cell_angle_beta 90.000000
_cell_angle_gamma 90.000000
_cell_volume 606.628551
_symmetry_space_group_name_H-M "P 2 2 21"
_symmetry_group_IT_number 17
_symmetry_cell_setting 'orthorhombic'
loop_
_space_group_symop_operation_xyz
x,y,z
-x,-y,1/2+z
x,-y,-z
-x,y,1/2-z
loop_
_atom_site_type_symbol
_atom_site_label
_atom_site_fract_x
_atom_site_fract_y
_atom_site_fract_z
Si Si1 0.800498 0.475848 0.712749
Si Si2 0.865330 0.272880 0.089926
Si Si3 0.810686 0.798431 0.378000
Si Si4 0.688864 0.933995 0.733532
O O1 0.774061 0.500000 0.500000
O O2 0.733689 0.326329 0.730936
O O3 0.000000 0.477548 0.750000
O O4 0.760612 0.595641 0.849675
O O5 0.739192 0.152854 0.098519
O O6 0.000000 0.254298 0.250000
O O7 0.003649 0.251517 0.935886
O O8 0.710856 0.836858 0.561448
O O9 0.806875 0.940437 0.288133
O O10 0.500000 0.981005 0.750000
#
# Coordination Sequence:
#
# PCOD9311058 Si02
#       4
#     4   4   4   4
#     4  11  18  35  65  98 130 163 208 277 344 382
#     4   9  18  37  64  92 128 164 211 278 335 372
#     4  10  21  39  63  92 133 165 218 286 326 392
#     4  10  21  39  60  89 136 179 215 268 332 396
#
# _framework density 26.375285000000002
#
# number of rings (size 3 to 8) (size 9 to 14) (size 15 to 20)
#    0.000    2.000    7.500    0.000    0.000    5.000 
#    0.000   21.250    0.000   15.000    0.000    0.000 
#    0.000    0.000    0.000    0.000    0.000    0.000 
#
# Total GULP energy -89140.353614 kJ/mol
# GULP energy per Si atom -5571.272101 kJ/mol
# Density = 2.631525 g / cm^3
# Si number density = 26.375285 Si / 1000 Ang^3
#
#
#
# Elastic Constant Matrix: (Units=GPa)
#
#
# Indices 1 2 3 4 5 6 
#
# 1 55.5036 27.3741 20.7859 0.0000 0.0000 0.0000
# 2 27.3741 205.0741 59.2011 0.0000 0.0000 0.0000
# 3 20.7859 59.2011 114.3839 0.0000 0.0000 0.0000
# 4 0.0000 0.0000 0.0000 47.6952 0.0000 0.0000
# 5 0.0000 0.0000 0.0000 0.0000 16.1196 0.0000
# 6 0.0000 0.0000 0.0000 0.0000 0.0000 -14.9980
#
#
#
# Elastic Compliance Matrix: (Units=1/GPa)
#
#
# Indices 1 2 3 4 5 6 
#
# 1 0.019943 -0.001900 -0.002641 0.000000 0.000000 0.000000
# 2 -0.001900 0.005914 -0.002716 0.000000 0.000000 0.000000
# 3 -0.002641 -0.002716 0.010628 0.000000 0.000000 0.000000
# 4 0.000000 0.000000 0.000000 0.020966 0.000000 0.000000
# 5 0.000000 0.000000 0.000000 0.000000 0.062036 0.000000
# 6 0.000000 0.000000 0.000000 0.000000 0.000000 -0.066676
#
#
# Mechanical properties :
#
#
# Convention : Reuss Voigt Hill
#
# Bulk Modulus (GPa) = 45.51184 65.52042 55.51613
# Shear Modulus (GPa) = 66.98117 27.60339 47.29228
#
# Velocity S-wave (km/s) = 5.04485 3.23857 4.23904
# Velocity P-wave (km/s) = 7.15731 6.23538 6.71219
#
# Compressibility (1/GPa) = 0.02197230
#
# Stress axis : x y z
#
# Youngs Moduli (GPa) = 50.14362 169.09610 94.09242
#
# Poissons Ratio (x) = 0.32123 0.24848
# Poissons Ratio (y) = 0.09526 0.25551
# Poissons Ratio (z) = 0.13242 0.45919
#
# Static dielectric constant tensor:
#      x y z
#    x 2.007630 0.000000 0.000000 
#    y 0.000000 2.156930 0.000000 
#    z 0.000000 0.000000 2.628450 
# 
# From -- ./inp_files/5794.got.cif
#   From: 2010.05.17/outbox.cif.g08.bks.cpg/sg17_3_cif.got.tgz:5794.got - 2010.06.03 22:34:06.
