data_PCOD9311923
_publ_section_title
;
Structure prediction by ZEFSAII (Michael W. Deem and Ramdas Pophale) SiO2 
 PCOD9311923
Probable space group: P 21 21 2
;
_chemical_formula_sum "Si O2"
_cell_formula_units_Z 32
_cell_length_a 7.992307
_cell_length_b 15.270165
_cell_length_c 11.509437
_cell_angle_alpha 90.000000
_cell_angle_beta 90.000000
_cell_angle_gamma 90.000000
_cell_volume 1404.655964
_symmetry_space_group_name_H-M "P 21 21 2"
_symmetry_group_IT_number 18
_symmetry_cell_setting 'orthorhombic'
loop_
_space_group_symop_operation_xyz
x,y,z
-x,-y,z
1/2+x,1/2-y,-z
1/2-x,1/2+y,-z
loop_
_atom_site_type_symbol
_atom_site_label
_atom_site_fract_x
_atom_site_fract_y
_atom_site_fract_z
Si Si1 0.216323 0.944072 0.478317
Si Si2 0.850035 0.876674 0.404797
Si Si3 0.163716 0.444525 0.273291
Si Si4 0.150640 0.051226 0.918118
Si Si5 0.502972 0.716703 0.179340
Si Si6 0.705067 0.770990 0.977132
Si Si7 0.482687 0.752879 0.760718
Si Si8 0.678511 0.235322 0.395005
O O1 0.216171 0.955732 0.616710
O O2 0.332403 0.862697 0.443485
O O3 0.034673 0.911471 0.438250
O O4 0.259329 0.036047 0.417240
O O5 0.871441 0.828374 0.282190
O O6 0.809446 0.803120 0.499840
O O7 0.235865 0.485336 0.154791
O O8 0.107060 0.344543 0.263487
O O9 0.000000 0.500000 0.302951
O O10 0.740799 0.875698 0.985091
O O11 0.053755 0.115397 0.827169
O O12 0.000000 0.000000 0.981994
O O13 0.478871 0.746601 0.310272
O O14 0.360977 0.764151 0.099177
O O15 0.666296 0.731175 0.102020
O O16 0.549264 0.750597 0.892037
O O17 0.653646 0.749418 0.682406
#
# Coordination Sequence:
#
# PCOD9311923 Si02
#       8
#     4   4   4   4   4   4   4   4
#     4  10  22  32  61  88 129 177 212 266 330 398
#     4  10  20  37  56  93 129 172 220 262 335 396
#     4  12  20  36  59  96 129 165 214 273 323 378
#     4  10  23  38  63  98 127 159 213 274 322 381
#     4   9  20  39  65  90 127 166 211 268 323 389
#     4   9  20  41  63  91 120 169 208 264 332 375
#     4  10  20  36  60  89 128 168 210 275 320 387
#     4  10  19  39  59  93 130 169 221 270 330 387
#
# _framework density 22.781378
#
# number of rings (size 3 to 8) (size 9 to 14) (size 15 to 20)
#    0.750    1.250    2.500    1.500    3.500    1.000 
#    0.000    0.000   11.000    0.000    3.250    0.000 
#    0.000    0.000    0.000    0.000    0.000    0.000 
#
# Total GULP energy -178663.723179 kJ/mol
# GULP energy per Si atom -5583.241349 kJ/mol
# Density = 2.272953 g / cm^3
# Si number density = 22.781378 Si / 1000 Ang^3
#
#
#
# Elastic Constant Matrix: (Units=GPa)
#
#
# Indices 1 2 3 4 5 6 
#
# 1 37.6989 27.0076 23.8643 0.0000 0.0000 0.0000
# 2 27.0076 141.2474 42.6687 0.0000 0.0000 0.0000
# 3 23.8643 42.6687 79.9284 0.0000 0.0000 0.0000
# 4 0.0000 0.0000 0.0000 -6.6466 0.0000 0.0000
# 5 0.0000 0.0000 0.0000 0.0000 37.3658 0.0000
# 6 0.0000 0.0000 0.0000 0.0000 0.0000 39.8901
#
#
#
# Elastic Compliance Matrix: (Units=1/GPa)
#
#
# Indices 1 2 3 4 5 6 
#
# 1 0.034656 -0.004174 -0.008119 0.000000 0.000000 0.000000
# 2 -0.004174 0.008944 -0.003528 0.000000 0.000000 0.000000
# 3 -0.008119 -0.003528 0.016819 0.000000 0.000000 0.000000
# 4 0.000000 0.000000 0.000000 -0.150452 0.000000 0.000000
# 5 0.000000 0.000000 0.000000 0.000000 0.026762 0.000000
# 6 0.000000 0.000000 0.000000 0.000000 0.000000 0.025069
#
#
# Mechanical properties :
#
#
# Convention : Reuss Voigt Hill
#
# Bulk Modulus (GPa) = 34.75131 49.55064 42.15098
# Shear Modulus (GPa) = 1649.35430 25.14414 837.24922
#
# Velocity S-wave (km/s) = 26.93630 3.32582 19.19147
# Velocity P-wave (km/s) = 31.34814 6.04532 22.57490
#
# Compressibility (1/GPa) = 0.02877589
#
# Stress axis : x y z
#
# Youngs Moduli (GPa) = 28.85536 111.81089 59.45714
#
# Poissons Ratio (x) = 0.46667 0.48274
# Poissons Ratio (y) = 0.12044 0.20978
# Poissons Ratio (z) = 0.23428 0.39450
#
# Static dielectric constant tensor:
#      x y z
#    x 1.986880 0.000000 0.000000 
#    y 0.000000 1.865590 0.000000 
#    z 0.000000 0.000000 1.822740 
# 
# From -- ./inp_files/5691.got.cif
#   From: 2010.05.17/outbox.cif.g08.bks.cpg/sg18_3_cif.got.tgz:5691.got - 2010.06.03 22:40:56.
