data_PCOD9311430
_publ_section_title
;
Structure prediction by ZEFSAII (Michael W. Deem and Ramdas Pophale) SiO2 
 PCOD9311430
Probable space group: P 2 2 21
;
_chemical_formula_sum "Si O2"
_cell_formula_units_Z 12
_cell_length_a 8.492626
_cell_length_b 8.436407
_cell_length_c 7.897161
_cell_angle_alpha 90.000000
_cell_angle_beta 90.000000
_cell_angle_gamma 90.000000
_cell_volume 565.809864
_symmetry_space_group_name_H-M "P 2 2 21"
_symmetry_group_IT_number 17
_symmetry_cell_setting 'orthorhombic'
loop_
_space_group_symop_operation_xyz
x,y,z
-x,-y,1/2+z
x,-y,-z
-x,y,1/2-z
loop_
_atom_site_type_symbol
_atom_site_label
_atom_site_fract_x
_atom_site_fract_y
_atom_site_fract_z
Si Si1 0.817321 0.352433 0.719451
Si Si2 0.301120 0.301309 0.125130
Si Si3 0.643813 0.816746 0.969860
O O1 0.729545 0.519313 0.686976
O O2 0.801350 0.263903 0.539807
O O3 0.737237 0.260724 0.874723
O O4 0.000000 0.384980 0.750000
O O5 0.267576 0.197355 0.290409
O O6 0.480000 0.275017 0.062770
O O7 0.607397 0.000000 0.000000
#
# Coordination Sequence:
#
# PCOD9311430 Si02
#       3
#     4   4   4
#     4  11  26  46  72 104 140 185 237 296 351 417
#     4  10  26  42  76  98 134 186 238 294 340 418
#     4  11  26  46  72 104 140 185 237 296 351 417
#
# _framework density 21.208537
#
# number of rings (size 3 to 8) (size 9 to 14) (size 15 to 20)
#    0.000    1.333    0.000    2.000   37.333    0.000 
#    6.000    0.000    0.000    0.000    0.000    0.000 
#    0.000    0.000    0.000    0.000    0.000    0.000 
#
# Total GULP energy -67075.107481 kJ/mol
# GULP energy per Si atom -5589.592290 kJ/mol
# Density = 2.116026 g / cm^3
# Si number density = 21.208537 Si / 1000 Ang^3
#
#
#
# Elastic Constant Matrix: (Units=GPa)
#
#
# Indices 1 2 3 4 5 6 
#
# 1 100.8481 91.5689 67.8074 0.0000 0.0000 0.0000
# 2 91.5689 84.0509 62.8608 0.0000 0.0000 0.0000
# 3 67.8074 62.8608 196.5805 0.0000 0.0000 0.0000
# 4 0.0000 0.0000 0.0000 13.8837 0.0000 0.0000
# 5 0.0000 0.0000 0.0000 0.0000 15.0697 0.0000
# 6 0.0000 0.0000 0.0000 0.0000 0.0000 -12.9797
#
#
#
# Elastic Compliance Matrix: (Units=1/GPa)
#
#
# Indices 1 2 3 4 5 6 
#
# 1 0.921057 -1.006555 0.004163 0.000000 0.000000 0.000000
# 2 -1.006555 1.115627 -0.009550 0.000000 0.000000 0.000000
# 3 0.004163 -0.009550 0.006705 0.000000 0.000000 0.000000
# 4 0.000000 0.000000 0.000000 0.072027 0.000000 0.000000
# 5 0.000000 0.000000 0.000000 0.000000 0.066358 0.000000
# 6 0.000000 0.000000 0.000000 0.000000 0.000000 -0.077043
#
#
# Mechanical properties :
#
#
# Convention : Reuss Voigt Hill
#
# Bulk Modulus (GPa) = 51.26899 91.77263 71.52081
# Shear Modulus (GPa) = 1.20916 13.81089 7.51002
#
# Velocity S-wave (km/s) = 0.75589 2.55462 1.88381
# Velocity P-wave (km/s) = 4.99881 7.21574 6.20705
#
# Compressibility (1/GPa) = 0.01950497
#
# Stress axis : x y z
#
# Youngs Moduli (GPa) = 1.08571 0.89636 149.14784
#
# Poissons Ratio (x) = 0.90223 -0.62088
# Poissons Ratio (y) = 1.09283 1.42430
# Poissons Ratio (z) = -0.00452 0.00856
#
# Static dielectric constant tensor:
#      x y z
#    x 1.753890 0.000000 0.000000 
#    y 0.000000 1.753910 0.000000 
#    z 0.000000 0.000000 1.906090 
# 
# From -- ./inp_files/3623.got.cif
#   From: 2010.05.17/outbox.cif.g08.bks.cpg/sg17_2_cif.got.tgz:3623.got - 2010.06.03 22:34:06.
