data_PCOD9311761
_publ_section_title
;
Structure prediction by ZEFSAII (Michael W. Deem and Ramdas Pophale) SiO2 
 PCOD9311761
Probable space group: P 21 21 2
;
_chemical_formula_sum "Si O2"
_cell_formula_units_Z 30
_cell_length_a 14.041952
_cell_length_b 8.095360
_cell_length_c 11.304768
_cell_angle_alpha 90.000000
_cell_angle_beta 90.000000
_cell_angle_gamma 90.000000
_cell_volume 1285.065620
_symmetry_space_group_name_H-M "P 21 21 2"
_symmetry_group_IT_number 18
_symmetry_cell_setting 'orthorhombic'
loop_
_space_group_symop_operation_xyz
x,y,z
-x,-y,z
1/2+x,1/2-y,-z
1/2-x,1/2+y,-z
loop_
_atom_site_type_symbol
_atom_site_label
_atom_site_fract_x
_atom_site_fract_y
_atom_site_fract_z
Si Si1 0.163643 0.473195 0.269194
Si Si2 0.108586 0.348676 0.027608
Si Si3 0.651851 0.166476 0.398124
Si Si4 0.974173 0.179184 0.679749
Si Si5 0.060825 0.840477 0.949189
Si Si6 0.218678 0.693688 0.587768
Si Si7 0.000000 0.500000 0.430006
Si Si8 0.222416 0.656208 0.051998
O O1 0.105713 0.372728 0.168451
O O2 0.226350 0.335171 0.336419
O O3 0.084471 0.567528 0.346121
O O4 0.222973 0.600846 0.188715
O O5 0.174565 0.195506 0.993959
O O6 0.168059 0.507574 0.985312
O O7 0.006128 0.314792 0.978282
O O8 0.422353 0.766920 0.300272
O O9 0.724784 0.292583 0.462345
O O10 0.711606 0.999035 0.373213
O O11 0.566994 0.119323 0.492177
O O12 0.107258 0.741887 0.597463
O O13 0.925490 0.157384 0.808213
O O14 0.000000 0.000000 0.630279
O O15 0.156235 0.811924 0.021760
O O16 0.000000 0.000000 0.982954
#
# Coordination Sequence:
#
# PCOD9311761 Si02
#       8
#     4   4   4   4   4   4   2   4
#     4   9  22  36  70  85 131 173 218 273 338 404
#     4  10  21  37  60  90 121 169 211 268 319 392
#     4  11  23  42  69  98 132 174 228 289 331 410
#     4  11  24  40  65  99 134 175 224 277 344 397
#     4  11  23  38  63  90 133 171 217 274 325 398
#     4  11  22  42  67  95 131 172 226 274 346 395
#     4  10  18  42  62  90 120 176 222 270 336 394
#     4  10  21  39  61  93 126 171 217 262 335 392
#
# _framework density 23.345112
#
# number of rings (size 3 to 8) (size 9 to 14) (size 15 to 20)
#    0.800    0.800    1.333    3.600    3.733    3.200 
#    0.000    0.000    2.933    0.800    0.000    0.000 
#    0.000    0.000    0.000    0.000    0.000    0.000 
#
# Total GULP energy -167195.256258 kJ/mol
# GULP energy per Si atom -5573.175209 kJ/mol
# Density = 2.329198 g / cm^3
# Si number density = 23.345112 Si / 1000 Ang^3
#
#
#
# Elastic Constant Matrix: (Units=GPa)
#
#
# Indices 1 2 3 4 5 6 
#
# 1 140.4633 31.1661 10.8773 0.0000 0.0000 0.0000
# 2 31.1661 86.6902 -4.1064 0.0000 0.0000 0.0000
# 3 10.8773 -4.1064 45.8556 0.0000 0.0000 0.0000
# 4 0.0000 0.0000 0.0000 26.9016 0.0000 0.0000
# 5 0.0000 0.0000 0.0000 0.0000 48.5183 0.0000
# 6 0.0000 0.0000 0.0000 0.0000 0.0000 52.3345
#
#
#
# Elastic Compliance Matrix: (Units=1/GPa)
#
#
# Indices 1 2 3 4 5 6 
#
# 1 0.007942 -0.002957 -0.002149 0.000000 0.000000 0.000000
# 2 -0.002957 0.012685 0.001837 0.000000 0.000000 0.000000
# 3 -0.002149 0.001837 0.022482 0.000000 0.000000 0.000000
# 4 0.000000 0.000000 0.000000 0.037172 0.000000 0.000000
# 5 0.000000 0.000000 0.000000 0.000000 0.020611 0.000000
# 6 0.000000 0.000000 0.000000 0.000000 0.000000 0.019108
#
#
# Mechanical properties :
#
#
# Convention : Reuss Voigt Hill
#
# Bulk Modulus (GPa) = 27.34286 38.76480 33.05383
# Shear Modulus (GPa) = 36.04192 41.22236 38.63214
#
# Velocity S-wave (km/s) = 3.93348 4.20668 4.07237
# Velocity P-wave (km/s) = 5.68925 6.34319 6.02510
#
# Compressibility (1/GPa) = 0.03657262
#
# Stress axis : x y z
#
# Youngs Moduli (GPa) = 125.91642 78.83069 44.48041
#
# Poissons Ratio (x) = 0.23310 0.09557
# Poissons Ratio (y) = 0.37233 -0.08173
# Poissons Ratio (z) = 0.27055 -0.14484
#
# Static dielectric constant tensor:
#      x y z
#    x 1.829770 0.000000 0.000000 
#    y 0.000000 1.944300 0.000000 
#    z 0.000000 0.000000 1.963750 
# 
# From -- ./inp_files/6078.got.cif
#   From: 2010.05.17/outbox.cif.g08.bks.cpg/sg18_4_cif.got.tgz:6078.got - 2010.06.03 22:40:56.
