data_PCOD9311020
_publ_section_title
;
Structure prediction by ZEFSAII (Michael W. Deem and Ramdas Pophale) SiO2 
 PCOD9311020
Probable space group: P 2 2 21
;
_chemical_formula_sum "Si O2"
_cell_formula_units_Z 16
_cell_length_a 9.641028
_cell_length_b 8.851843
_cell_length_c 8.369104
_cell_angle_alpha 90.000000
_cell_angle_beta 90.000000
_cell_angle_gamma 90.000000
_cell_volume 714.226585
_symmetry_space_group_name_H-M "P 2 2 21"
_symmetry_group_IT_number 17
_symmetry_cell_setting 'orthorhombic'
loop_
_space_group_symop_operation_xyz
x,y,z
-x,-y,1/2+z
x,-y,-z
-x,y,1/2-z
loop_
_atom_site_type_symbol
_atom_site_label
_atom_site_fract_x
_atom_site_fract_y
_atom_site_fract_z
Si Si1 0.888735 0.378137 0.873674
Si Si2 0.347393 0.832078 0.813683
Si Si3 0.653678 0.801855 0.318983
Si Si4 0.100689 0.139721 0.392358
O O1 0.766863 0.289875 0.781860
O O2 0.000000 0.443963 0.750000
O O3 0.836941 0.500000 0.000000
O O4 0.968238 0.253602 0.982658
O O5 0.500000 0.799188 0.750000
O O6 0.229868 0.779334 0.692063
O O7 0.328470 0.015408 0.810889
O O8 0.334465 0.770046 0.992244
O O9 0.500000 0.770196 0.250000
O O10 0.000000 0.090682 0.250000
O O11 0.147844 0.000000 0.500000
#
# Coordination Sequence:
#
# PCOD9311020 Si02
#       4
#     4   4   4   4
#     4  12  26  46  65  93 134 181 223 268 333 395
#     4  10  21  37  68 104 137 166 212 279 343 388
#     4  10  21  40  68 101 135 171 219 274 332 395
#     4  12  24  39  64  98 129 169 225 279 327 383
#
# _framework density 22.401852999999999
#
# number of rings (size 3 to 8) (size 9 to 14) (size 15 to 20)
#    0.000    1.000    2.500    4.500    7.000    0.000 
#    0.000    5.000    0.000    0.000    0.000    0.000 
#    0.000    0.000    0.000    0.000    0.000    0.000 
#
# Total GULP energy -89465.280888 kJ/mol
# GULP energy per Si atom -5591.580055 kJ/mol
# Density = 2.235087 g / cm^3
# Si number density = 22.401853 Si / 1000 Ang^3
#
#
#
# Elastic Constant Matrix: (Units=GPa)
#
#
# Indices 1 2 3 4 5 6 
#
# 1 125.2987 18.1072 77.6045 0.0000 0.0000 0.0000
# 2 18.1072 44.8491 54.5610 0.0000 0.0000 0.0000
# 3 77.6045 54.5610 196.1755 0.0000 0.0000 0.0000
# 4 0.0000 0.0000 0.0000 37.0598 0.0000 0.0000
# 5 0.0000 0.0000 0.0000 0.0000 41.0829 0.0000
# 6 0.0000 0.0000 0.0000 0.0000 0.0000 14.7811
#
#
#
# Elastic Compliance Matrix: (Units=1/GPa)
#
#
# Indices 1 2 3 4 5 6 
#
# 1 0.010617 0.001244 -0.004546 0.000000 0.000000 0.000000
# 2 0.001244 0.033845 -0.009905 0.000000 0.000000 0.000000
# 3 -0.004546 -0.009905 0.009651 0.000000 0.000000 0.000000
# 4 0.000000 0.000000 0.000000 0.026983 0.000000 0.000000
# 5 0.000000 0.000000 0.000000 0.000000 0.024341 0.000000
# 6 0.000000 0.000000 0.000000 0.000000 0.000000 0.067654
#
#
# Mechanical properties :
#
#
# Convention : Reuss Voigt Hill
#
# Bulk Modulus (GPa) = 36.10383 74.09652 55.10018
# Shear Modulus (GPa) = 23.95362 32.98815 28.47089
#
# Velocity S-wave (km/s) = 3.27352 3.84156 3.56886
# Velocity P-wave (km/s) = 5.51718 7.26806 6.45229
#
# Compressibility (1/GPa) = 0.02769789
#
# Stress axis : x y z
#
# Youngs Moduli (GPa) = 94.19219 29.54669 103.62151
#
# Poissons Ratio (x) = -0.03675 0.47103
# Poissons Ratio (y) = -0.11715 1.02637
# Poissons Ratio (z) = 0.42817 0.29266
#
# Static dielectric constant tensor:
#      x y z
#    x 1.785170 0.000000 0.000000 
#    y 0.000000 1.851440 0.000000 
#    z 0.000000 0.000000 1.828220 
# 
# From -- ./inp_files/3733.got.cif
#   From: 2010.05.17/outbox.cif.g08.bks.cpg/sg17_2_cif.got.tgz:3733.got - 2010.06.03 22:34:06.
