data_PCOD9311268
_publ_section_title
;
Structure prediction by ZEFSAII (Michael W. Deem and Ramdas Pophale) SiO2 
 PCOD9311268
Probable space group: P 2 2 21
;
_chemical_formula_sum "Si O2"
_cell_formula_units_Z 18
_cell_length_a 4.852218
_cell_length_b 5.262654
_cell_length_c 27.245544
_cell_angle_alpha 90.000000
_cell_angle_beta 90.000000
_cell_angle_gamma 90.000000
_cell_volume 695.729800
_symmetry_space_group_name_H-M "P 2 2 21"
_symmetry_group_IT_number 17
_symmetry_cell_setting 'orthorhombic'
loop_
_space_group_symop_operation_xyz
x,y,z
-x,-y,1/2+z
x,-y,-z
-x,y,1/2-z
loop_
_atom_site_type_symbol
_atom_site_label
_atom_site_fract_x
_atom_site_fract_y
_atom_site_fract_z
Si Si1 0.842875 0.022288 0.329215
Si Si2 0.973591 0.631965 0.592908
Si Si3 0.357633 0.725501 0.350100
Si Si4 0.443213 0.744917 0.530242
Si Si5 0.500000 0.241747 0.750000
O O1 0.652107 0.841156 0.364238
O O2 0.718032 0.942205 0.277403
O O3 0.160669 0.954271 0.332938
O O4 0.832625 0.291969 0.355020
O O5 0.716588 0.634251 0.556435
O O6 0.187963 0.414916 0.608713
O O7 0.196296 0.820477 0.567484
O O8 0.392074 0.593237 0.296153
O O9 0.332425 0.500000 0.500000
O O10 0.510189 0.000000 0.500000
#
# Coordination Sequence:
#
# PCOD9311268 Si02
#       5
#     4   4   4   4   2
#     4  10  22  42  71 104 152 203 251 311 372 465
#     4  12  26  46  79 110 148 206 256 319 404 464
#     4  10  22  42  71 104 152 203 251 311 372 465
#     4  12  30  51  80 117 150 199 260 341 402 484
#     4   8  22  42  68 104 158 206 246 316 370 442
#
# _framework density 25.872112999999999
#
# number of rings (size 3 to 8) (size 9 to 14) (size 15 to 20)
#    1.333    0.000    0.000    4.667    9.333    0.000 
#    0.000    6.667    0.000    0.000    0.000    0.000 
#    0.000    0.000    0.000    0.000    0.000    0.000 
#
# Total GULP energy -100276.757269 kJ/mol
# GULP energy per Si atom -5570.930959 kJ/mol
# Density = 2.581323 g / cm^3
# Si number density = 25.872113 Si / 1000 Ang^3
#
#
#
# Elastic Constant Matrix: (Units=GPa)
#
#
# Indices 1 2 3 4 5 6 
#
# 1 131.1119 9.6046 39.2746 0.0000 0.0000 0.0000
# 2 9.6046 76.9777 24.1542 0.0000 0.0000 0.0000
# 3 39.2746 24.1542 108.4406 0.0000 0.0000 0.0000
# 4 0.0000 0.0000 0.0000 36.2592 0.0000 0.0000
# 5 0.0000 0.0000 0.0000 0.0000 45.2156 0.0000
# 6 0.0000 0.0000 0.0000 0.0000 0.0000 23.5660
#
#
#
# Elastic Compliance Matrix: (Units=1/GPa)
#
#
# Indices 1 2 3 4 5 6 
#
# 1 0.008556 -0.000102 -0.003076 0.000000 0.000000 0.000000
# 2 -0.000102 0.013968 -0.003074 0.000000 0.000000 0.000000
# 3 -0.003076 -0.003074 0.011020 0.000000 0.000000 0.000000
# 4 0.000000 0.000000 0.000000 0.027579 0.000000 0.000000
# 5 0.000000 0.000000 0.000000 0.000000 0.022116 0.000000
# 6 0.000000 0.000000 0.000000 0.000000 0.000000 0.042434
#
#
# Mechanical properties :
#
#
# Convention : Reuss Voigt Hill
#
# Bulk Modulus (GPa) = 47.52965 51.39967 49.46466
# Shear Modulus (GPa) = 34.43709 37.24130 35.83920
#
# Velocity S-wave (km/s) = 3.65231 3.79811 3.72592
# Velocity P-wave (km/s) = 6.01637 6.25653 6.13762
#
# Compressibility (1/GPa) = 0.02103950
#
# Stress axis : x y z
#
# Youngs Moduli (GPa) = 116.87732 71.59127 90.74044
#
# Poissons Ratio (x) = 0.00733 0.27912
# Poissons Ratio (y) = 0.01196 0.27896
# Poissons Ratio (z) = 0.35951 0.22009
#
# Static dielectric constant tensor:
#      x y z
#    x 2.017710 0.000000 0.000000 
#    y 0.000000 2.157550 0.000000 
#    z 0.000000 0.000000 2.233640 
# 
# From -- ./inp_files/10345.got.cif
#   From: 2010.05.17/outbox.cif.g08.bks.cpg/sg17_6_cif.got.tgz:10345.got - 2010.06.03 22:34:06.
