data_PCOD9311534
_publ_section_title
;
Structure prediction by ZEFSAII (Michael W. Deem and Ramdas Pophale) SiO2 
 PCOD9311534
Probable space group: P 2 2 21
;
_chemical_formula_sum "Si O2"
_cell_formula_units_Z 16
_cell_length_a 5.641725
_cell_length_b 22.393696
_cell_length_c 5.269232
_cell_angle_alpha 90.000000
_cell_angle_beta 90.000000
_cell_angle_gamma 90.000000
_cell_volume 665.709895
_symmetry_space_group_name_H-M "P 2 2 21"
_symmetry_group_IT_number 17
_symmetry_cell_setting 'orthorhombic'
loop_
_space_group_symop_operation_xyz
x,y,z
-x,-y,1/2+z
x,-y,-z
-x,y,1/2-z
loop_
_atom_site_type_symbol
_atom_site_label
_atom_site_fract_x
_atom_site_fract_y
_atom_site_fract_z
Si Si1 0.652489 0.820871 0.511120
Si Si2 0.348950 0.000000 0.500000
Si Si3 0.245261 0.694972 0.113147
Si Si4 0.000000 0.095210 0.250000
Si Si5 0.748319 0.565288 0.613948
O O1 0.500000 0.841097 0.750000
O O2 0.723373 0.751781 0.569411
O O3 0.879328 0.862906 0.536908
O O4 0.500000 0.823541 0.250000
O O5 0.185378 0.052666 0.392682
O O6 0.500000 0.980981 0.250000
O O7 0.500000 0.693795 0.250000
O O8 0.000000 0.711095 0.250000
O O9 0.209793 0.626347 0.036518
O O10 0.701976 0.500000 0.500000
O O11 0.500000 0.579161 0.750000
O O12 0.000000 0.556665 0.750000
#
# Coordination Sequence:
#
# PCOD9311534 Si02
#       5
#     4   2   4   2   4
#     4  11  29  50  78 118 157 210 269 334 405 493
#     4  12  30  56  80 122 160 210 266 334 406 500
#     4  11  25  47  72 108 155 200 266 336 410 481
#     4  12  30  52  88 112 168 210 272 328 424 484
#     4  12  24  41  69 102 147 204 267 332 407 478
#
# _framework density 24.034492
#
# number of rings (size 3 to 8) (size 9 to 14) (size 15 to 20)
#    0.000    0.500    0.000    6.000    8.750   10.000 
#    0.000    0.000    0.000    0.000    0.000    0.000 
#    0.000    0.000    0.000    0.000    0.000    0.000 
#
# Total GULP energy -89349.522268 kJ/mol
# GULP energy per Si atom -5584.345142 kJ/mol
# Density = 2.397979 g / cm^3
# Si number density = 24.034492 Si / 1000 Ang^3
#
#
#
# Elastic Constant Matrix: (Units=GPa)
#
#
# Indices 1 2 3 4 5 6 
#
# 1 123.0714 10.5029 47.3383 0.0000 0.0000 0.0000
# 2 10.5029 166.2737 29.6603 0.0000 0.0000 0.0000
# 3 47.3383 29.6603 99.0848 0.0000 0.0000 0.0000
# 4 0.0000 0.0000 0.0000 30.2812 0.0000 0.0000
# 5 0.0000 0.0000 0.0000 0.0000 51.3720 0.0000
# 6 0.0000 0.0000 0.0000 0.0000 0.0000 48.8531
#
#
#
# Elastic Compliance Matrix: (Units=1/GPa)
#
#
# Indices 1 2 3 4 5 6 
#
# 1 0.009963 0.000232 -0.004829 0.000000 0.000000 0.000000
# 2 0.000232 0.006359 -0.002014 0.000000 0.000000 0.000000
# 3 -0.004829 -0.002014 0.013003 0.000000 0.000000 0.000000
# 4 0.000000 0.000000 0.000000 0.033024 0.000000 0.000000
# 5 0.000000 0.000000 0.000000 0.000000 0.019466 0.000000
# 6 0.000000 0.000000 0.000000 0.000000 0.000000 0.020470
#
#
# Mechanical properties :
#
#
# Convention : Reuss Voigt Hill
#
# Bulk Modulus (GPa) = 62.10678 62.60364 62.35521
# Shear Modulus (GPa) = 41.36530 46.16317 43.76424
#
# Velocity S-wave (km/s) = 4.15309 4.38734 4.27182
# Velocity P-wave (km/s) = 6.99245 7.19506 7.09448
#
# Compressibility (1/GPa) = 0.01610130
#
# Stress axis : x y z
#
# Youngs Moduli (GPa) = 100.36976 157.26128 76.90739
#
# Poissons Ratio (x) = -0.03651 0.37142
# Poissons Ratio (y) = -0.02330 0.15492
# Poissons Ratio (z) = 0.48473 0.31678
#
# Static dielectric constant tensor:
#      x y z
#    x 1.975480 0.000000 0.000000 
#    y 0.000000 2.079980 0.000000 
#    z 0.000000 0.000000 2.173250 
# 
# From -- ./inp_files/257.got.cif
#   From: 2010.05.17/outbox.cif.g08.bks.cpg/sg17_1_cif.got.tgz:257.got - 2010.06.03 22:34:06.
