data_PCOD9311613
_publ_section_title
;
Structure prediction by ZEFSAII (Michael W. Deem and Ramdas Pophale) SiO2 
 PCOD9311613
Probable space group: P 21 21 2
;
_chemical_formula_sum "Si O2"
_cell_formula_units_Z 30
_cell_length_a 14.941740
_cell_length_b 8.050202
_cell_length_c 10.057865
_cell_angle_alpha 90.000000
_cell_angle_beta 90.000000
_cell_angle_gamma 90.000000
_cell_volume 1209.800487
_symmetry_space_group_name_H-M "P 21 21 2"
_symmetry_group_IT_number 18
_symmetry_cell_setting 'orthorhombic'
loop_
_space_group_symop_operation_xyz
x,y,z
-x,-y,z
1/2+x,1/2-y,-z
1/2-x,1/2+y,-z
loop_
_atom_site_type_symbol
_atom_site_label
_atom_site_fract_x
_atom_site_fract_y
_atom_site_fract_z
Si Si1 0.398622 0.960978 0.035526
Si Si2 0.377508 0.722244 0.244937
Si Si3 0.500000 0.500000 0.050614
Si Si4 0.911483 0.275141 0.331813
Si Si5 0.838477 0.184599 0.067364
Si Si6 0.459816 0.312876 0.385187
Si Si7 0.601394 0.163243 0.747153
Si Si8 0.206960 0.883327 0.778522
O O1 0.344283 0.872562 0.153832
O O2 0.500000 0.000000 0.083392
O O3 0.410868 0.846098 0.906106
O O4 0.354007 0.126851 0.980480
O O5 0.445548 0.626385 0.144258
O O6 0.446285 0.783098 0.358514
O O7 0.307343 0.574333 0.272814
O O8 0.429429 0.411412 0.960600
O O9 0.842947 0.190418 0.228345
O O10 0.903257 0.232656 0.485490
O O11 0.905314 0.472986 0.305110
O O12 0.017338 0.235227 0.305946
O O13 0.782612 0.115223 0.939441
O O14 0.500000 0.500000 0.398040
O O15 0.386327 0.300405 0.266949
O O16 0.705067 0.206454 0.722639
#
# Coordination Sequence:
#
# PCOD9311613 Si02
#       8
#     4   4   2   4   4   4   4   4
#     4  11  17  33  58  87 121 154 206 257 298 375
#     4  10  18  35  61  87 118 161 201 254 318 362
#     4  10  14  30  54  84 114 154 192 248 304 356
#     4  10  21  40  62  88 125 169 207 251 321 383
#     4  10  19  34  60  91 118 158 205 259 311 367
#     4  10  20  40  62  87 123 167 210 261 307 382
#     4  10  21  40  62  85 127 169 200 259 321 366
#     4  10  21  40  64  89 125 159 212 263 312 371
#
# _framework density 24.797478000000002
#
# number of rings (size 3 to 8) (size 9 to 14) (size 15 to 20)
#    0.000    1.867    7.333    0.000    0.933    2.133 
#   12.000    0.000    2.933    0.000    0.000    0.000 
#    0.000    0.000    0.000    0.000    0.000    0.000 
#
# Total GULP energy -167270.868158 kJ/mol
# GULP energy per Si atom -5575.695605 kJ/mol
# Density = 2.474104 g / cm^3
# Si number density = 24.797478 Si / 1000 Ang^3
#
#
#
# Elastic Constant Matrix: (Units=GPa)
#
#
# Indices 1 2 3 4 5 6 
#
# 1 93.5445 -1.7441 19.2786 0.0000 0.0000 0.0000
# 2 -1.7441 21.8106 10.4488 0.0000 0.0000 0.0000
# 3 19.2786 10.4488 116.7059 0.0000 0.0000 0.0000
# 4 0.0000 0.0000 0.0000 22.3659 0.0000 0.0000
# 5 0.0000 0.0000 0.0000 0.0000 18.9906 0.0000
# 6 0.0000 0.0000 0.0000 0.0000 0.0000 32.5360
#
#
#
# Elastic Compliance Matrix: (Units=1/GPa)
#
#
# Indices 1 2 3 4 5 6 
#
# 1 0.011138 0.001851 -0.002006 0.000000 0.000000 0.000000
# 2 0.001851 0.048212 -0.004622 0.000000 0.000000 0.000000
# 3 -0.002006 -0.004622 0.009314 0.000000 0.000000 0.000000
# 4 0.000000 0.000000 0.000000 0.044711 0.000000 0.000000
# 5 0.000000 0.000000 0.000000 0.000000 0.052658 0.000000
# 6 0.000000 0.000000 0.000000 0.000000 0.000000 0.030735
#
#
# Mechanical properties :
#
#
# Convention : Reuss Voigt Hill
#
# Bulk Modulus (GPa) = 16.91749 32.00307 24.46028
# Shear Modulus (GPa) = 22.12160 28.38368 25.25264
#
# Velocity S-wave (km/s) = 2.99003 3.38689 3.19463
# Velocity P-wave (km/s) = 4.33099 5.31305 4.84696
#
# Compressibility (1/GPa) = 0.05911041
#
# Stress axis : x y z
#
# Youngs Moduli (GPa) = 89.78306 20.74189 107.36881
#
# Poissons Ratio (x) = -0.03840 0.21534
# Poissons Ratio (y) = -0.16623 0.49629
# Poissons Ratio (z) = 0.18007 0.09587
#
# Static dielectric constant tensor:
#      x y z
#    x 2.306120 0.000000 0.000000 
#    y 0.000000 2.073160 0.000000 
#    z 0.000000 0.000000 2.015780 
# 
# From -- ./inp_files/6219.got.cif
#   From: 2010.05.17/outbox.cif.g08.bks.cpg/sg18_4_cif.got.tgz:6219.got - 2010.06.03 22:40:56.
