data_PCOD9311989
_publ_section_title
;
Structure prediction by ZEFSAII (Michael W. Deem and Ramdas Pophale) SiO2 
 PCOD9311989
Probable space group: P 21 21 2
;
_chemical_formula_sum "Si O2"
_cell_formula_units_Z 24
_cell_length_a 9.052550
_cell_length_b 15.971379
_cell_length_c 9.096200
_cell_angle_alpha 90.000000
_cell_angle_beta 90.000000
_cell_angle_gamma 90.000000
_cell_volume 1315.144123
_symmetry_space_group_name_H-M "P 21 21 2"
_symmetry_group_IT_number 18
_symmetry_cell_setting 'orthorhombic'
loop_
_space_group_symop_operation_xyz
x,y,z
-x,-y,z
1/2+x,1/2-y,-z
1/2-x,1/2+y,-z
loop_
_atom_site_type_symbol
_atom_site_label
_atom_site_fract_x
_atom_site_fract_y
_atom_site_fract_z
Si Si1 0.851217 0.175679 0.581774
Si Si2 0.005766 0.835810 0.894492
Si Si3 0.695485 0.745152 0.860404
Si Si4 0.000000 0.000000 0.092958
Si Si5 0.496156 0.178603 0.602549
Si Si6 0.719631 0.572717 0.688445
Si Si7 0.000000 0.500000 0.526556
O O1 0.924560 0.150223 0.734560
O O2 0.674212 0.187554 0.600892
O O3 0.926690 0.260628 0.521791
O O4 0.869908 0.105235 0.455041
O O5 0.843522 0.797427 0.879722
O O6 0.114081 0.775485 0.987417
O O7 0.993866 0.919446 0.990409
O O8 0.579068 0.790868 0.752942
O O9 0.741355 0.658149 0.780833
O O10 0.136602 0.990040 0.203758
O O11 0.459818 0.081662 0.569399
O O12 0.866530 0.531165 0.627430
#
# Coordination Sequence:
#
# PCOD9311989 Si02
#       7
#     4   4   4   2   4   4   2
#     4  10  20  37  60  82 111 149 192 231 275 339
#     4  11  22  38  59  84 114 151 189 230 280 336
#     4  10  22  39  57  81 116 153 186 224 282 344
#     4  10  24  38  54  84 116 146 186 236 286 326
#     4  10  21  37  59  87 113 146 190 234 279 331
#     4   9  21  39  56  81 112 145 187 234 280 331
#     4  10  20  34  60  86 108 140 190 240 278 320
#
# _framework density 18.248950000000001
#
# number of rings (size 3 to 8) (size 9 to 14) (size 15 to 20)
#    0.000    2.000    0.000    4.000    0.000   11.333 
#    0.000    0.000    0.000    2.000    0.000    0.000 
#    0.000    0.000    0.000    0.000    0.000    0.000 
#
# Total GULP energy -133956.682742 kJ/mol
# GULP energy per Si atom -5581.528448 kJ/mol
# Density = 1.820741 g / cm^3
# Si number density = 18.248950 Si / 1000 Ang^3
#
#
#
# Elastic Constant Matrix: (Units=GPa)
#
#
# Indices 1 2 3 4 5 6 
#
# 1 87.5315 34.2556 38.4297 0.0000 0.0000 0.0000
# 2 34.2556 70.8711 37.8901 0.0000 0.0000 0.0000
# 3 38.4297 37.8901 124.0962 0.0000 0.0000 0.0000
# 4 0.0000 0.0000 0.0000 17.9596 0.0000 0.0000
# 5 0.0000 0.0000 0.0000 0.0000 29.7274 0.0000
# 6 0.0000 0.0000 0.0000 0.0000 0.0000 29.0563
#
#
#
# Elastic Compliance Matrix: (Units=1/GPa)
#
#
# Indices 1 2 3 4 5 6 
#
# 1 0.014908 -0.005662 -0.002888 0.000000 0.000000 0.000000
# 2 -0.005662 0.019013 -0.004052 0.000000 0.000000 0.000000
# 3 -0.002888 -0.004052 0.010190 0.000000 0.000000 0.000000
# 4 0.000000 0.000000 0.000000 0.055681 0.000000 0.000000
# 5 0.000000 0.000000 0.000000 0.000000 0.033639 0.000000
# 6 0.000000 0.000000 0.000000 0.000000 0.000000 0.034416
#
#
# Mechanical properties :
#
#
# Convention : Reuss Voigt Hill
#
# Bulk Modulus (GPa) = 52.88895 55.96105 54.42500
# Shear Modulus (GPa) = 25.08120 26.81022 25.94571
#
# Velocity S-wave (km/s) = 3.71130 3.83709 3.77472
# Velocity P-wave (km/s) = 6.88548 7.09669 6.99188
#
# Compressibility (1/GPa) = 0.01890754
#
# Stress axis : x y z
#
# Youngs Moduli (GPa) = 67.07727 52.59537 98.13769
#
# Poissons Ratio (x) = 0.29779 0.28342
# Poissons Ratio (y) = 0.37978 0.39764
# Poissons Ratio (z) = 0.19372 0.21311
#
# Static dielectric constant tensor:
#      x y z
#    x 1.592700 0.000000 0.000000 
#    y 0.000000 1.624200 0.000000 
#    z 0.000000 0.000000 1.621350 
# 
# From -- ./inp_files/3198.got.cif
#   From: 2010.05.17/outbox.cif.g08.bks.cpg/sg18_2_cif.got.tgz:3198.got - 2010.06.03 22:40:56.
