data_PCOD9311073
_publ_section_title
;
Structure prediction by ZEFSAII (Michael W. Deem and Ramdas Pophale) SiO2 
 PCOD9311073
Probable space group: P 2 2 21
;
_chemical_formula_sum "Si O2"
_cell_formula_units_Z 14
_cell_length_a 13.390091
_cell_length_b 5.946779
_cell_length_c 7.503358
_cell_angle_alpha 90.000000
_cell_angle_beta 90.000000
_cell_angle_gamma 90.000000
_cell_volume 597.476730
_symmetry_space_group_name_H-M "P 2 2 21"
_symmetry_group_IT_number 17
_symmetry_cell_setting 'orthorhombic'
loop_
_space_group_symop_operation_xyz
x,y,z
-x,-y,1/2+z
x,-y,-z
-x,y,1/2-z
loop_
_atom_site_type_symbol
_atom_site_label
_atom_site_fract_x
_atom_site_fract_y
_atom_site_fract_z
Si Si1 0.639358 0.657131 0.140730
Si Si2 0.090700 0.500000 0.000000
Si Si3 0.000000 0.146675 0.250000
Si Si4 0.450868 0.500000 0.000000
Si Si5 0.806097 0.120571 0.689398
O O1 0.613163 0.514363 0.320711
O O2 0.705778 0.864938 0.198149
O O3 0.696681 0.500000 0.000000
O O4 0.533251 0.696467 0.039847
O O5 0.023794 0.692945 0.915103
O O6 0.159032 0.374795 0.855451
O O7 0.900697 0.001347 0.225051
O O8 0.786442 0.000000 0.500000
#
# Coordination Sequence:
#
# PCOD9311073 Si02
#       5
#     4   2   2   2   4
#     4   9  17  36  66 105 136 180 227 282 350 425
#     4  10  21  42  63  84 140 188 215 300 335 406
#     4  10  22  42  66  92 132 188 240 278 352 408
#     4   8  17  34  69 104 134 182 225 276 371 422
#     4  10  21  39  66 102 137 184 239 287 347 421
#
# _framework density 23.431873
#
# number of rings (size 3 to 8) (size 9 to 14) (size 15 to 20)
#    0.857    1.714    0.000    1.714    0.000    0.000 
#   20.571    0.000   12.571   20.571    0.000    0.000 
#    0.000    0.000    0.000    0.000    0.000    0.000 
#
# Total GULP energy -78056.820054 kJ/mol
# GULP energy per Si atom -5575.487147 kJ/mol
# Density = 2.337854 g / cm^3
# Si number density = 23.431873 Si / 1000 Ang^3
#
#
#
# Elastic Constant Matrix: (Units=GPa)
#
#
# Indices 1 2 3 4 5 6 
#
# 1 147.0882 53.6072 59.1337 0.0000 0.0000 0.0000
# 2 53.6072 70.5214 24.7112 0.0000 0.0000 0.0000
# 3 59.1337 24.7112 102.7198 0.0000 0.0000 0.0000
# 4 0.0000 0.0000 0.0000 25.6362 0.0000 0.0000
# 5 0.0000 0.0000 0.0000 0.0000 37.8934 0.0000
# 6 0.0000 0.0000 0.0000 0.0000 0.0000 -61.6411
#
#
#
# Elastic Compliance Matrix: (Units=1/GPa)
#
#
# Indices 1 2 3 4 5 6 
#
# 1 0.011232 -0.006850 -0.004818 0.000000 0.000000 0.000000
# 2 -0.006850 0.019663 -0.000787 0.000000 0.000000 0.000000
# 3 -0.004818 -0.000787 0.012698 0.000000 0.000000 0.000000
# 4 0.000000 0.000000 0.000000 0.039007 0.000000 0.000000
# 5 0.000000 0.000000 0.000000 0.000000 0.026390 0.000000
# 6 0.000000 0.000000 0.000000 0.000000 0.000000 -0.016223
#
#
# Mechanical properties :
#
#
# Convention : Reuss Voigt Hill
#
# Bulk Modulus (GPa) = 53.52413 66.13708 59.83061
# Shear Modulus (GPa) = 40.35335 12.56952 26.46143
#
# Velocity S-wave (km/s) = 4.15439 2.31860 3.36414
# Velocity P-wave (km/s) = 6.77525 5.95436 6.37803
#
# Compressibility (1/GPa) = 0.01868316
#
# Stress axis : x y z
#
# Youngs Moduli (GPa) = 89.02969 50.85746 78.75056
#
# Poissons Ratio (x) = 0.34837 0.37944
# Poissons Ratio (y) = 0.60984 0.06197
# Poissons Ratio (z) = 0.42897 0.04002
#
# Static dielectric constant tensor:
#      x y z
#    x 1.944300 0.000000 0.000000 
#    y 0.000000 1.916150 0.000000 
#    z 0.000000 0.000000 1.963000 
# 
# From -- ./inp_files/5009.got.cif
#   From: 2010.05.17/outbox.cif.g08.bks.cpg/sg17_3_cif.got.tgz:5009.got - 2010.06.03 22:34:06.
