data_PCOD9311319
_publ_section_title
;
Structure prediction by ZEFSAII (Michael W. Deem and Ramdas Pophale) SiO2 
 PCOD9311319
Probable space group: P 2 2 21
;
_chemical_formula_sum "Si O2"
_cell_formula_units_Z 14
_cell_length_a 7.990594
_cell_length_b 13.915347
_cell_length_c 5.392029
_cell_angle_alpha 90.000000
_cell_angle_beta 90.000000
_cell_angle_gamma 90.000000
_cell_volume 599.549886
_symmetry_space_group_name_H-M "P 2 2 21"
_symmetry_group_IT_number 17
_symmetry_cell_setting 'orthorhombic'
loop_
_space_group_symop_operation_xyz
x,y,z
-x,-y,1/2+z
x,-y,-z
-x,y,1/2-z
loop_
_atom_site_type_symbol
_atom_site_label
_atom_site_fract_x
_atom_site_fract_y
_atom_site_fract_z
Si Si1 0.611313 0.500000 0.000000
Si Si2 0.000000 0.824650 0.750000
Si Si3 0.500000 0.168257 0.750000
Si Si4 0.871920 0.000000 0.000000
Si Si5 0.339776 0.000000 0.000000
Si Si6 0.318749 0.708576 0.611938
O O1 0.500000 0.482810 0.750000
O O2 0.713483 0.596979 0.946463
O O3 0.024855 0.901004 0.525556
O O4 0.166202 0.759741 0.752899
O O5 0.353352 0.234074 0.642891
O O6 0.554670 0.096759 0.531190
O O7 0.760652 0.998176 0.755377
O O8 0.500000 0.710569 0.750000
#
# Coordination Sequence:
#
# PCOD9311319 Si02
#       6
#     2   2   2   2   2   4
#     4  10  22  48  84 116 154 202 266 332 412 474
#     4  12  26  50  74 112 160 208 270 318 402 464
#     4  12  24  44  78 116 158 220 268 328 406 486
#     4  12  26  48  68 109 159 208 257 333 382 475
#     4  12  26  44  72 111 157 206 267 317 392 475
#     4  11  25  49  79 113 156 212 266 337 401 482
#
# _framework density 23.350852
#
# number of rings (size 3 to 8) (size 9 to 14) (size 15 to 20)
#    0.000    0.571    4.286    3.429    2.000    0.000 
#    5.143    5.714    0.000    0.000    0.000    0.000 
#    0.000    0.000    0.000    0.000    0.000    0.000 
#
# Total GULP energy -78299.692573 kJ/mol
# GULP energy per Si atom -5592.835184 kJ/mol
# Density = 2.329770 g / cm^3
# Si number density = 23.350852 Si / 1000 Ang^3
#
#
#
# Elastic Constant Matrix: (Units=GPa)
#
#
# Indices 1 2 3 4 5 6 
#
# 1 129.1514 85.7695 52.2457 0.0000 0.0000 0.0000
# 2 85.7695 234.9645 48.9843 0.0000 0.0000 0.0000
# 3 52.2457 48.9843 148.1636 0.0000 0.0000 0.0000
# 4 0.0000 0.0000 0.0000 32.4663 0.0000 0.0000
# 5 0.0000 0.0000 0.0000 0.0000 52.7740 0.0000
# 6 0.0000 0.0000 0.0000 0.0000 0.0000 2115.5656
#
#
#
# Elastic Compliance Matrix: (Units=1/GPa)
#
#
# Indices 1 2 3 4 5 6 
#
# 1 0.011200 -0.003507 -0.002790 0.000000 0.000000 0.000000
# 2 -0.003507 0.005669 -0.000638 0.000000 0.000000 0.000000
# 3 -0.002790 -0.000638 0.007944 0.000000 0.000000 0.000000
# 4 0.000000 0.000000 0.000000 0.030801 0.000000 0.000000
# 5 0.000000 0.000000 0.000000 0.000000 0.018949 0.000000
# 6 0.000000 0.000000 0.000000 0.000000 0.000000 0.000473
#
#
# Mechanical properties :
#
#
# Convention : Reuss Voigt Hill
#
# Bulk Modulus (GPa) = 91.37259 98.47536 94.92398
# Shear Modulus (GPa) = 54.02296 461.84651 257.93473
#
# Velocity S-wave (km/s) = 4.81514 14.07889 10.52142
# Velocity P-wave (km/s) = 8.37433 17.50858 13.72370
#
# Compressibility (1/GPa) = 0.01094420
#
# Stress axis : x y z
#
# Youngs Moduli (GPa) = 89.28228 176.39789 125.88177
#
# Poissons Ratio (x) = 0.61860 0.35123
# Poissons Ratio (y) = 0.31310 0.08027
# Poissons Ratio (z) = 0.24911 0.11248
#
# Static dielectric constant tensor:
#      x y z
#    x 2.021250 0.000000 0.000000 
#    y 0.000000 1.888710 0.000000 
#    z 0.000000 0.000000 1.822620 
# 
# From -- ./inp_files/679.got.cif
#   From: 2010.05.17/outbox.cif.g08.bks.cpg/sg17_1_cif.got.tgz:679.got - 2010.06.03 22:34:06.
