data_PCOD9311558
_publ_section_title
;
Structure prediction by ZEFSAII (Michael W. Deem and Ramdas Pophale) SiO2 
 PCOD9311558
Probable space group: P 2 2 21
;
_chemical_formula_sum "Si O2"
_cell_formula_units_Z 18
_cell_length_a 9.861745
_cell_length_b 6.731708
_cell_length_c 12.245186
_cell_angle_alpha 90.000000
_cell_angle_beta 90.000000
_cell_angle_gamma 90.000000
_cell_volume 812.913665
_symmetry_space_group_name_H-M "P 2 2 21"
_symmetry_group_IT_number 17
_symmetry_cell_setting 'orthorhombic'
loop_
_space_group_symop_operation_xyz
x,y,z
-x,-y,1/2+z
x,-y,-z
-x,y,1/2-z
loop_
_atom_site_type_symbol
_atom_site_label
_atom_site_fract_x
_atom_site_fract_y
_atom_site_fract_z
Si Si1 0.363393 0.274092 0.196383
Si Si2 0.183962 0.126252 0.394693
Si Si3 0.063706 0.500000 0.500000
Si Si4 0.814274 0.656806 0.366065
Si Si5 0.000000 0.903684 0.250000
Si Si6 0.337205 0.000000 0.000000
O O1 0.500000 0.355386 0.250000
O O2 0.279028 0.154361 0.288782
O O3 0.273516 0.459746 0.153324
O O4 0.404753 0.121882 0.099413
O O5 0.155564 0.344509 0.438522
O O6 0.231554 0.000000 0.500000
O O7 0.037861 0.042360 0.352423
O O8 0.958412 0.601543 0.417904
O O9 0.864649 0.771821 0.259209
O O10 0.745196 0.822828 0.441167
#
# Coordination Sequence:
#
# PCOD9311558 Si02
#       6
#     4   4   2   4   2   2
#     4  12  29  49  73 106 152 203 255 306 367 456
#     4  12  26  44  70 114 147 194 246 310 386 443
#     4  12  22  42  72 108 152 180 242 314 380 454
#     4  12  23  45  72 109 143 192 238 309 382 436
#     4  12  22  44  74 106 150 182 244 314 376 448
#     4  12  24  50  76 104 138 200 254 294 378 430
#
# _framework density 22.142572000000001
#
# number of rings (size 3 to 8) (size 9 to 14) (size 15 to 20)
#    0.000    0.000    6.667    4.000    1.556    0.889 
#    4.000    0.000    0.000    0.000    0.000    0.000 
#    0.000    0.000    0.000    0.000    0.000    0.000 
#
# Total GULP energy -100510.216358 kJ/mol
# GULP energy per Si atom -5583.900909 kJ/mol
# Density = 2.209217 g / cm^3
# Si number density = 22.142572 Si / 1000 Ang^3
#
#
#
# Elastic Constant Matrix: (Units=GPa)
#
#
# Indices 1 2 3 4 5 6 
#
# 1 38.1322 2.1934 13.8839 0.0000 0.0000 0.0000
# 2 2.1934 93.7128 31.9416 0.0000 0.0000 0.0000
# 3 13.8839 31.9416 95.2217 0.0000 0.0000 0.0000
# 4 0.0000 0.0000 0.0000 50.1168 0.0000 0.0000
# 5 0.0000 0.0000 0.0000 0.0000 -2.5639 0.0000
# 6 0.0000 0.0000 0.0000 0.0000 0.0000 2.4845
#
#
#
# Elastic Compliance Matrix: (Units=1/GPa)
#
#
# Indices 1 2 3 4 5 6 
#
# 1 0.027751 0.000824 -0.004323 0.000000 0.000000 0.000000
# 2 0.000824 0.012073 -0.004170 0.000000 0.000000 0.000000
# 3 -0.004323 -0.004170 0.012531 0.000000 0.000000 0.000000
# 4 0.000000 0.000000 0.000000 0.019953 0.000000 0.000000
# 5 0.000000 0.000000 0.000000 0.000000 -0.390032 0.000000
# 6 0.000000 0.000000 0.000000 0.000000 0.000000 0.402489
#
#
# Mechanical properties :
#
#
# Convention : Reuss Voigt Hill
#
# Bulk Modulus (GPa) = 27.01432 35.90048 31.45740
# Shear Modulus (GPa) = 44.46729 21.94401 33.20565
#
# Velocity S-wave (km/s) = 4.48619 3.15148 3.87671
# Velocity P-wave (km/s) = 6.24989 5.43056 5.85458
#
# Compressibility (1/GPa) = 0.03701741
#
# Stress axis : x y z
#
# Youngs Moduli (GPa) = 36.03468 82.83003 79.80313
#
# Poissons Ratio (x) = -0.06824 0.34496
# Poissons Ratio (y) = -0.02969 0.33277
# Poissons Ratio (z) = 0.15576 0.34539
#
# Static dielectric constant tensor:
#      x y z
#    x 1.776490 0.000000 0.000000 
#    y 0.000000 1.876620 0.000000 
#    z 0.000000 0.000000 2.391660 
# 
# From -- ./inp_files/5840.got.cif
#   From: 2010.05.17/outbox.cif.g08.bks.cpg/sg17_3_cif.got.tgz:5840.got - 2010.06.03 22:34:06.
