data_PCOD9311699
_publ_section_title
;
Structure prediction by ZEFSAII (Michael W. Deem and Ramdas Pophale) SiO2 
 PCOD9311699
Probable space group: P 21 21 2
;
_chemical_formula_sum "Si O2"
_cell_formula_units_Z 24
_cell_length_a 11.279950
_cell_length_b 13.461281
_cell_length_c 6.226334
_cell_angle_alpha 90.000000
_cell_angle_beta 90.000000
_cell_angle_gamma 90.000000
_cell_volume 945.422597
_symmetry_space_group_name_H-M "P 21 21 2"
_symmetry_group_IT_number 18
_symmetry_cell_setting 'orthorhombic'
loop_
_space_group_symop_operation_xyz
x,y,z
-x,-y,z
1/2+x,1/2-y,-z
1/2-x,1/2+y,-z
loop_
_atom_site_type_symbol
_atom_site_label
_atom_site_fract_x
_atom_site_fract_y
_atom_site_fract_z
Si Si1 0.500000 0.000000 0.647743
Si Si2 0.859548 0.866595 0.325017
Si Si3 0.000000 0.000000 0.050381
Si Si4 0.229344 0.424791 0.271101
Si Si5 0.295471 0.134741 0.696337
Si Si6 0.960078 0.174687 0.710013
Si Si7 0.139222 0.287965 0.941204
O O1 0.617925 0.057467 0.567549
O O2 0.426567 0.094336 0.748244
O O3 0.733362 0.861121 0.443587
O O4 0.871324 0.779574 0.154074
O O5 0.892349 0.968582 0.207337
O O6 0.958533 0.850183 0.507528
O O7 0.026956 0.905469 0.902445
O O8 0.280786 0.535848 0.242720
O O9 0.324448 0.346001 0.349471
O O10 0.176452 0.392017 0.041355
O O11 0.244691 0.231551 0.810654
O O12 0.018346 0.274440 0.806961
#
# Coordination Sequence:
#
# PCOD9311699 Si02
#       7
#     2   4   2   4   4   4   4
#     4   8  22  38  64  80 128 170 194 254 322 356
#     4  10  19  37  58  87 117 147 208 262 302 366
#     4  10  18  32  62  88 108 148 202 250 310 366
#     4  10  20  38  61  87 121 164 203 247 310 374
#     4   9  20  41  61  84 127 163 198 264 304 364
#     4  10  20  35  58  87 116 153 201 258 306 351
#     4  10  22  37  63  92 117 165 214 250 313 373
#
# _framework density 25.385475
#
# number of rings (size 3 to 8) (size 9 to 14) (size 15 to 20)
#    1.000    1.333    0.000    4.500    2.333    0.000 
#    3.000    9.167    0.000    0.000    0.000    0.000 
#    0.000    0.000    0.000    0.000    0.000    0.000 
#
# Total GULP energy -133663.773960 kJ/mol
# GULP energy per Si atom -5569.323915 kJ/mol
# Density = 2.532770 g / cm^3
# Si number density = 25.385475 Si / 1000 Ang^3
#
#
#
# Elastic Constant Matrix: (Units=GPa)
#
#
# Indices 1 2 3 4 5 6 
#
# 1 133.7432 5.5079 14.4779 0.0000 0.0000 0.0000
# 2 5.5079 66.3732 14.6076 0.0000 0.0000 0.0000
# 3 14.4779 14.6076 95.7850 0.0000 0.0000 0.0000
# 4 0.0000 0.0000 0.0000 35.9896 0.0000 0.0000
# 5 0.0000 0.0000 0.0000 0.0000 15.8656 0.0000
# 6 0.0000 0.0000 0.0000 0.0000 0.0000 25.4051
#
#
#
# Elastic Compliance Matrix: (Units=1/GPa)
#
#
# Indices 1 2 3 4 5 6 
#
# 1 0.007611 -0.000392 -0.001091 0.000000 0.000000 0.000000
# 2 -0.000392 0.015610 -0.002321 0.000000 0.000000 0.000000
# 3 -0.001091 -0.002321 0.010959 0.000000 0.000000 0.000000
# 4 0.000000 0.000000 0.000000 0.027786 0.000000 0.000000
# 5 0.000000 0.000000 0.000000 0.000000 0.063029 0.000000
# 6 0.000000 0.000000 0.000000 0.000000 0.000000 0.039362
#
#
# Mechanical properties :
#
#
# Convention : Reuss Voigt Hill
#
# Bulk Modulus (GPa) = 37.63279 40.56536 39.09907
# Shear Modulus (GPa) = 27.65151 32.87260 30.26206
#
# Velocity S-wave (km/s) = 3.30398 3.60243 3.45643
# Velocity P-wave (km/s) = 5.42326 5.77215 5.60043
#
# Compressibility (1/GPa) = 0.02657257
#
# Stress axis : x y z
#
# Youngs Moduli (GPa) = 131.38510 64.06270 91.24984
#
# Poissons Ratio (x) = 0.02508 0.09953
# Poissons Ratio (y) = 0.05144 0.21182
# Poissons Ratio (z) = 0.14330 0.14871
#
# Static dielectric constant tensor:
#      x y z
#    x 2.137750 0.000000 0.000000 
#    y 0.000000 2.056920 0.000000 
#    z 0.000000 0.000000 2.025900 
# 
# From -- ./inp_files/1151.got.cif
#   From: 2010.05.17/outbox.cif.g08.bks.cpg/sg18_1_cif.got.tgz:1151.got - 2010.06.03 22:40:56.
