data_PCOD9311233
_publ_section_title
;
Structure prediction by ZEFSAII (Michael W. Deem and Ramdas Pophale) SiO2 
 PCOD9311233
Probable space group: P 2 2 21
;
_chemical_formula_sum "Si O2"
_cell_formula_units_Z 22
_cell_length_a 7.969455
_cell_length_b 16.939356
_cell_length_c 7.835556
_cell_angle_alpha 90.000000
_cell_angle_beta 90.000000
_cell_angle_gamma 90.000000
_cell_volume 1057.779965
_symmetry_space_group_name_H-M "P 2 2 21"
_symmetry_group_IT_number 17
_symmetry_cell_setting 'orthorhombic'
loop_
_space_group_symop_operation_xyz
x,y,z
-x,-y,1/2+z
x,-y,-z
-x,y,1/2-z
loop_
_atom_site_type_symbol
_atom_site_label
_atom_site_fract_x
_atom_site_fract_y
_atom_site_fract_z
Si Si1 0.159029 0.564638 0.359104
Si Si2 0.646455 0.773881 0.455652
Si Si3 0.500000 0.640818 0.250000
Si Si4 0.714173 0.000000 0.000000
Si Si5 0.169959 0.155210 0.649028
Si Si6 0.500000 0.887499 0.750000
Si Si7 0.017155 0.283759 0.446648
O O1 0.201894 0.500000 0.500000
O O2 0.330448 0.589897 0.264695
O O3 0.087791 0.644111 0.445104
O O4 0.000000 0.534104 0.250000
O O5 0.525620 0.700371 0.410700
O O6 0.682286 0.821160 0.278312
O O7 0.587790 0.830809 0.608487
O O8 0.828754 0.738438 0.498976
O O9 0.819246 0.935333 0.100673
O O10 0.610951 0.053236 0.134349
O O11 0.145136 0.211050 0.484369
O O12 0.000000 0.170054 0.750000
O O13 0.000000 0.303721 0.250000
#
# Coordination Sequence:
#
# PCOD9311233 Si02
#       7
#     4   4   2   2   4   2   4
#     4  12  26  50  75 109 149 190 231 303 365 430
#     4  11  23  43  71  97 139 185 248 291 366 429
#     4  12  24  47  77 104 148 186 244 294 361 437
#     4  12  24  40  58  96 144 174 240 300 370 410
#     4  10  22  41  66  92 135 189 234 301 360 430
#     4  12  26  39  63 102 140 192 240 308 367 441
#     4  11  22  44  71 102 136 188 242 291 361 438
#
# _framework density 20.798278
#
# number of rings (size 3 to 8) (size 9 to 14) (size 15 to 20)
#    0.000    0.727    3.636    4.364    2.545    4.364 
#    3.273    0.000    0.000    0.000    0.000    0.000 
#    0.000    0.000    0.000    0.000    0.000    0.000 
#
# Total GULP energy -122867.041828 kJ/mol
# GULP energy per Si atom -5584.865538 kJ/mol
# Density = 2.075094 g / cm^3
# Si number density = 20.798278 Si / 1000 Ang^3
#
#
#
# Elastic Constant Matrix: (Units=GPa)
#
#
# Indices 1 2 3 4 5 6 
#
# 1 76.7605 2.2237 12.0332 0.0000 0.0000 0.0000
# 2 2.2237 63.8991 -6.9145 0.0000 0.0000 0.0000
# 3 12.0332 -6.9145 59.4922 0.0000 0.0000 0.0000
# 4 0.0000 0.0000 0.0000 46.9736 0.0000 0.0000
# 5 0.0000 0.0000 0.0000 0.0000 26.7064 0.0000
# 6 0.0000 0.0000 0.0000 0.0000 0.0000 26.6568
#
#
#
# Elastic Compliance Matrix: (Units=1/GPa)
#
#
# Indices 1 2 3 4 5 6 
#
# 1 0.013492 -0.000775 -0.002819 0.000000 0.000000 0.000000
# 2 -0.000775 0.015893 0.002004 0.000000 0.000000 0.000000
# 3 -0.002819 0.002004 0.017612 0.000000 0.000000 0.000000
# 4 0.000000 0.000000 0.000000 0.021289 0.000000 0.000000
# 5 0.000000 0.000000 0.000000 0.000000 0.037444 0.000000
# 6 0.000000 0.000000 0.000000 0.000000 0.000000 0.037514
#
#
# Mechanical properties :
#
#
# Convention : Reuss Voigt Hill
#
# Bulk Modulus (GPa) = 22.82162 23.87073 23.34617
# Shear Modulus (GPa) = 31.05024 32.92132 31.98578
#
# Velocity S-wave (km/s) = 3.86803 3.98287 3.92587
# Velocity P-wave (km/s) = 5.56287 5.71429 5.63909
#
# Compressibility (1/GPa) = 0.04381810
#
# Stress axis : x y z
#
# Youngs Moduli (GPa) = 74.11860 62.91896 56.77941
#
# Poissons Ratio (x) = 0.04873 0.16006
# Poissons Ratio (y) = 0.05741 -0.11378
# Poissons Ratio (z) = 0.20894 -0.12608
#
# Static dielectric constant tensor:
#      x y z
#    x 1.768460 0.000000 0.000000 
#    y 0.000000 1.707930 0.000000 
#    z 0.000000 0.000000 1.786070 
# 
# From -- ./inp_files/4224.got.cif
#   From: 2010.05.17/outbox.cif.g08.bks.cpg/sg17_3_cif.got.tgz:4224.got - 2010.06.03 22:34:06.
