data_PCOD9311502
_publ_section_title
;
Structure prediction by ZEFSAII (Michael W. Deem and Ramdas Pophale) SiO2 
 PCOD9311502
Probable space group: P 2 2 21
;
_chemical_formula_sum "Si O2"
_cell_formula_units_Z 20
_cell_length_a 4.990498
_cell_length_b 9.025527
_cell_length_c 16.076301
_cell_angle_alpha 90.000000
_cell_angle_beta 90.000000
_cell_angle_gamma 90.000000
_cell_volume 724.106731
_symmetry_space_group_name_H-M "P 2 2 21"
_symmetry_group_IT_number 17
_symmetry_cell_setting 'orthorhombic'
loop_
_space_group_symop_operation_xyz
x,y,z
-x,-y,1/2+z
x,-y,-z
-x,y,1/2-z
loop_
_atom_site_type_symbol
_atom_site_label
_atom_site_fract_x
_atom_site_fract_y
_atom_site_fract_z
Si Si1 0.500000 0.273441 0.750000
Si Si2 0.193623 0.504969 0.667080
Si Si3 0.148528 0.500000 0.000000
Si Si4 0.129831 0.122141 0.626280
Si Si5 0.369428 0.824903 0.030194
Si Si6 0.742956 0.832133 0.807084
O O1 0.447726 0.397412 0.677667
O O2 0.261819 0.170161 0.714017
O O3 0.026626 0.481524 0.583768
O O4 0.310442 0.668683 0.662863
O O5 0.000000 0.486631 0.750000
O O6 0.291544 0.335309 0.010628
O O7 0.826581 0.167811 0.611089
O O8 0.320659 0.183819 0.554397
O O9 0.178813 0.947006 0.622840
O O10 0.327352 0.000000 0.000000
O O11 0.500000 0.881370 0.750000
O O12 0.000000 0.822885 0.750000
#
# Coordination Sequence:
#
# PCOD9311502 Si02
#       6
#     2   4   2   4   4   4
#     4  12  24  44  76 106 160 196 272 322 398 490
#     4  11  25  48  75 115 156 207 267 330 397 484
#     4  12  26  52  80 114 162 210 264 332 408 468
#     4  12  26  47  77 111 154 209 260 329 400 476
#     4  12  28  51  75 114 157 206 269 328 397 479
#     4  11  23  43  75 110 151 203 260 323 398 472
#
# _framework density 27.620238000000001
#
# number of rings (size 3 to 8) (size 9 to 14) (size 15 to 20)
#    0.000    0.400    4.000    4.200    0.000    2.400 
#    7.200    0.000    0.000    0.000    0.000    0.000 
#    0.000    0.000    0.000    0.000    0.000    0.000 
#
# Total GULP energy -111667.103949 kJ/mol
# GULP energy per Si atom -5583.355197 kJ/mol
# Density = 2.755737 g / cm^3
# Si number density = 27.620238 Si / 1000 Ang^3
#
#
#
# Elastic Constant Matrix: (Units=GPa)
#
#
# Indices 1 2 3 4 5 6 
#
# 1 102.5647 11.7920 41.3198 0.0000 0.0000 0.0000
# 2 11.7920 234.6543 26.6297 0.0000 0.0000 0.0000
# 3 41.3198 26.6297 144.8189 0.0000 0.0000 0.0000
# 4 0.0000 0.0000 0.0000 41.5524 0.0000 0.0000
# 5 0.0000 0.0000 0.0000 0.0000 58.6602 0.0000
# 6 0.0000 0.0000 0.0000 0.0000 0.0000 34.5206
#
#
#
# Elastic Compliance Matrix: (Units=1/GPa)
#
#
# Indices 1 2 3 4 5 6 
#
# 1 0.011026 -0.000201 -0.003109 0.000000 0.000000 0.000000
# 2 -0.000201 0.004356 -0.000744 0.000000 0.000000 0.000000
# 3 -0.003109 -0.000744 0.007929 0.000000 0.000000 0.000000
# 4 0.000000 0.000000 0.000000 0.024066 0.000000 0.000000
# 5 0.000000 0.000000 0.000000 0.000000 0.017047 0.000000
# 6 0.000000 0.000000 0.000000 0.000000 0.000000 0.028968
#
#
# Mechanical properties :
#
#
# Convention : Reuss Voigt Hill
#
# Bulk Modulus (GPa) = 65.77550 71.28010 68.52780
# Shear Modulus (GPa) = 46.91880 53.76639 50.34260
#
# Velocity S-wave (km/s) = 4.12601 4.41685 4.27391
# Velocity P-wave (km/s) = 6.82383 7.20241 7.01567
#
# Compressibility (1/GPa) = 0.01520323
#
# Stress axis : x y z
#
# Youngs Moduli (GPa) = 90.69875 229.56378 126.12069
#
# Poissons Ratio (x) = 0.04620 0.39208
# Poissons Ratio (y) = 0.01825 0.09378
# Poissons Ratio (z) = 0.28196 0.17070
#
# Static dielectric constant tensor:
#      x y z
#    x 2.107610 0.000000 0.000000 
#    y 0.000000 2.280120 0.000000 
#    z 0.000000 0.000000 2.383470 
# 
# From -- ./inp_files/8951.got.cif
#   From: 2010.05.17/outbox.cif.g08.bks.cpg/sg17_5_cif.got.tgz:8951.got - 2010.06.03 22:34:06.
