data_PCOD9311261
_publ_section_title
;
Structure prediction by ZEFSAII (Michael W. Deem and Ramdas Pophale) SiO2 
 PCOD9311261
Probable space group: P 2 2 21
;
_chemical_formula_sum "Si O2"
_cell_formula_units_Z 22
_cell_length_a 5.542354
_cell_length_b 4.900743
_cell_length_c 30.057141
_cell_angle_alpha 90.000000
_cell_angle_beta 90.000000
_cell_angle_gamma 90.000000
_cell_volume 816.401621
_symmetry_space_group_name_H-M "P 2 2 21"
_symmetry_group_IT_number 17
_symmetry_cell_setting 'orthorhombic'
loop_
_space_group_symop_operation_xyz
x,y,z
-x,-y,1/2+z
x,-y,-z
-x,y,1/2-z
loop_
_atom_site_type_symbol
_atom_site_label
_atom_site_fract_x
_atom_site_fract_y
_atom_site_fract_z
Si Si1 0.930114 0.746772 0.629485
Si Si2 0.749435 0.744322 0.032782
Si Si3 0.205575 0.216733 0.661427
Si Si4 0.744055 0.912728 0.448435
Si Si5 0.605017 0.394158 0.295694
Si Si6 0.000000 0.774836 0.250000
O O1 0.802303 0.834484 0.583758
O O2 0.163185 0.948308 0.631694
O O3 0.731624 0.802334 0.668478
O O4 0.023356 0.444331 0.640913
O O5 0.514149 0.779338 0.063770
O O6 0.018056 0.722479 0.052431
O O7 0.695106 0.500000 0.000000
O O8 0.771003 0.000000 0.000000
O O9 0.430101 0.404628 0.676175
O O10 0.127221 0.083805 0.708994
O O11 0.717612 0.000000 0.500000
O O12 0.500000 0.264675 0.250000
O O13 0.806187 0.584348 0.273622
#
# Coordination Sequence:
#
# PCOD9311261 Si02
#       6
#     4   4   4   4   4   2
#     4  11  25  42  66 104 140 185 249 301 371 452
#     4  10  22  42  69  97 131 179 233 290 361 431
#     4  10  23  41  65  98 138 183 233 297 361 437
#     4  10  24  46  71 103 142 190 241 307 372 449
#     4   9  20  43  71 100 147 191 243 304 378 446
#     4   8  18  40  64  98 130 184 228 290 352 438
#
# _framework density 26.947524999999999
#
# number of rings (size 3 to 8) (size 9 to 14) (size 15 to 20)
#    0.000    2.182    0.000    0.545    2.545   13.091 
#    3.273   11.818    0.000    0.000    0.000    0.000 
#    0.000    0.000    0.000    0.000    0.000    0.000 
#
# Total GULP energy -122849.260226 kJ/mol
# GULP energy per Si atom -5584.057283 kJ/mol
# Density = 2.688619 g / cm^3
# Si number density = 26.947525 Si / 1000 Ang^3
#
#
#
# Elastic Constant Matrix: (Units=GPa)
#
#
# Indices 1 2 3 4 5 6 
#
# 1 164.2459 9.9539 24.3271 0.0000 0.0000 0.0000
# 2 9.9539 97.9806 11.7931 0.0000 0.0000 0.0000
# 3 24.3271 11.7931 125.9587 0.0000 0.0000 0.0000
# 4 0.0000 0.0000 0.0000 21.6221 0.0000 0.0000
# 5 0.0000 0.0000 0.0000 0.0000 38.6930 0.0000
# 6 0.0000 0.0000 0.0000 0.0000 0.0000 -75.1419
#
#
#
# Elastic Compliance Matrix: (Units=1/GPa)
#
#
# Indices 1 2 3 4 5 6 
#
# 1 0.006292 -0.000499 -0.001168 0.000000 0.000000 0.000000
# 2 -0.000499 0.010362 -0.000874 0.000000 0.000000 0.000000
# 3 -0.001168 -0.000874 0.008247 0.000000 0.000000 0.000000
# 4 0.000000 0.000000 0.000000 0.046249 0.000000 0.000000
# 5 0.000000 0.000000 0.000000 0.000000 0.025845 0.000000
# 6 0.000000 0.000000 0.000000 0.000000 0.000000 -0.013308
#
#
# Mechanical properties :
#
#
# Convention : Reuss Voigt Hill
#
# Bulk Modulus (GPa) = 50.45797 53.37037 51.91417
# Shear Modulus (GPa) = 52.42547 19.84204 36.13375
#
# Velocity S-wave (km/s) = 4.41553 2.71647 3.66579
# Velocity P-wave (km/s) = 6.69037 5.44860 6.10116
#
# Compressibility (1/GPa) = 0.01981848
#
# Stress axis : x y z
#
# Youngs Moduli (GPa) = 158.93920 96.50717 121.26212
#
# Poissons Ratio (x) = 0.04811 0.14169
# Poissons Ratio (y) = 0.07924 0.10597
# Poissons Ratio (z) = 0.18572 0.08433
#
# Static dielectric constant tensor:
#      x y z
#    x 2.232110 0.000000 0.000000 
#    y 0.000000 2.022780 0.000000 
#    z 0.000000 0.000000 2.198740 
# 
# From -- ./inp_files/11076.got.cif
#   From: 2010.05.17/outbox.cif.g08.bks.cpg/sg17_6_cif.got.tgz:11076.got - 2010.06.03 22:34:06.
