data_PCOD9311398
_publ_section_title
;
Structure prediction by ZEFSAII (Michael W. Deem and Ramdas Pophale) SiO2 
 PCOD9311398
Probable space group: P 2 2 21
;
_chemical_formula_sum "Si O2"
_cell_formula_units_Z 14
_cell_length_a 5.068489
_cell_length_b 11.164453
_cell_length_c 9.673200
_cell_angle_alpha 90.000000
_cell_angle_beta 90.000000
_cell_angle_gamma 90.000000
_cell_volume 547.376471
_symmetry_space_group_name_H-M "P 2 2 21"
_symmetry_group_IT_number 17
_symmetry_cell_setting 'orthorhombic'
loop_
_space_group_symop_operation_xyz
x,y,z
-x,-y,1/2+z
x,-y,-z
-x,y,1/2-z
loop_
_atom_site_type_symbol
_atom_site_label
_atom_site_fract_x
_atom_site_fract_y
_atom_site_fract_z
Si Si1 0.500000 0.646640 0.250000
Si Si2 0.132825 0.444959 0.127134
Si Si3 0.000000 0.110512 0.750000
Si Si4 0.629668 0.778474 0.486980
Si Si5 0.500000 0.056638 0.250000
O O1 0.274428 0.555805 0.201792
O O2 0.416449 0.735489 0.372989
O O3 0.000000 0.374599 0.250000
O O4 0.968381 0.500000 0.000000
O O5 0.321201 0.348625 0.060418
O O6 0.130772 0.178393 0.885121
O O7 0.245219 0.023025 0.712725
O O8 0.565031 0.868558 0.610293
#
# Coordination Sequence:
#
# PCOD9311398 Si02
#       5
#     2   4   2   4   2
#     4  10  24  48  74 116 160 198 264 326 422 496
#     4  10  24  45  72 113 152 199 255 321 400 500
#     4  12  30  56  80 122 166 220 286 354 414 490
#     4  11  27  51  81 116 159 220 265 348 417 491
#     4  12  30  56  84 122 162 220 298 348 412 496
#
# _framework density 25.576549
#
# number of rings (size 3 to 8) (size 9 to 14) (size 15 to 20)
#    0.000    1.143    0.000    2.571   10.000   14.857 
#    5.143    0.000    0.000    0.000    0.000    0.000 
#    0.000    0.000    0.000    0.000    0.000    0.000 
#
# Total GULP energy -78113.433687 kJ/mol
# GULP energy per Si atom -5579.530978 kJ/mol
# Density = 2.551834 g / cm^3
# Si number density = 25.576549 Si / 1000 Ang^3
#
#
#
# Elastic Constant Matrix: (Units=GPa)
#
#
# Indices 1 2 3 4 5 6 
#
# 1 108.8923 51.1607 61.2223 0.0000 0.0000 0.0000
# 2 51.1607 147.4172 83.3334 0.0000 0.0000 0.0000
# 3 61.2223 83.3334 221.6801 0.0000 0.0000 0.0000
# 4 0.0000 0.0000 0.0000 208.1734 0.0000 0.0000
# 5 0.0000 0.0000 0.0000 0.0000 41.7444 0.0000
# 6 0.0000 0.0000 0.0000 0.0000 0.0000 31.2983
#
#
#
# Elastic Compliance Matrix: (Units=1/GPa)
#
#
# Indices 1 2 3 4 5 6 
#
# 1 0.011743 -0.002847 -0.002173 0.000000 0.000000 0.000000
# 2 -0.002847 0.009304 -0.002711 0.000000 0.000000 0.000000
# 3 -0.002173 -0.002711 0.006130 0.000000 0.000000 0.000000
# 4 0.000000 0.000000 0.000000 0.004804 0.000000 0.000000
# 5 0.000000 0.000000 0.000000 0.000000 0.023955 0.000000
# 6 0.000000 0.000000 0.000000 0.000000 0.000000 0.031951
#
#
# Mechanical properties :
#
#
# Convention : Reuss Voigt Hill
#
# Bulk Modulus (GPa) = 85.36142 96.60247 90.98195
# Shear Modulus (GPa) = 46.61836 75.06142 60.83989
#
# Velocity S-wave (km/s) = 4.27394 5.42323 4.88252
# Velocity P-wave (km/s) = 7.60281 8.77879 8.21188
#
# Compressibility (1/GPa) = 0.01171489
#
# Stress axis : x y z
#
# Youngs Moduli (GPa) = 85.16026 107.47829 163.12396
#
# Poissons Ratio (x) = 0.30599 0.35443
# Poissons Ratio (y) = 0.24245 0.44229
# Poissons Ratio (z) = 0.18503 0.29141
#
# Static dielectric constant tensor:
#      x y z
#    x 1.861330 0.000000 0.000000 
#    y 0.000000 2.014700 0.000000 
#    z 0.000000 0.000000 2.153400 
# 
# From -- ./inp_files/3357.got.cif
#   From: 2010.05.17/outbox.cif.g08.bks.cpg/sg17_2_cif.got.tgz:3357.got - 2010.06.03 22:34:06.
