data_PCOD9311351
_publ_section_title
;
Structure prediction by ZEFSAII (Michael W. Deem and Ramdas Pophale) SiO2 
 PCOD9311351
Probable space group: P 2 2 21
;
_chemical_formula_sum "Si O2"
_cell_formula_units_Z 18
_cell_length_a 7.991889
_cell_length_b 9.143685
_cell_length_c 9.612509
_cell_angle_alpha 90.000000
_cell_angle_beta 90.000000
_cell_angle_gamma 90.000000
_cell_volume 702.437129
_symmetry_space_group_name_H-M "P 2 2 21"
_symmetry_group_IT_number 17
_symmetry_cell_setting 'orthorhombic'
loop_
_space_group_symop_operation_xyz
x,y,z
-x,-y,1/2+z
x,-y,-z
-x,y,1/2-z
loop_
_atom_site_type_symbol
_atom_site_label
_atom_site_fract_x
_atom_site_fract_y
_atom_site_fract_z
Si Si1 0.406221 0.743977 0.917296
Si Si2 0.265447 0.416352 0.316245
Si Si3 0.026612 0.500000 0.000000
Si Si4 0.850135 0.021074 0.338023
Si Si5 0.753105 0.707055 0.303217
O O1 0.588044 0.684477 0.878210
O O2 0.278850 0.626883 0.846488
O O3 0.324893 0.890784 0.853801
O O4 0.385960 0.743235 0.081277
O O5 0.301850 0.590135 0.311434
O O6 0.096225 0.405149 0.399500
O O7 0.107740 0.619749 0.105341
O O8 0.000000 0.093863 0.250000
O O9 0.902275 0.000000 0.500000
O O10 0.816732 0.866362 0.262170
#
# Coordination Sequence:
#
# PCOD9311351 Si02
#       5
#     4   4   2   4   4
#     4  10  24  42  68  96 145 187 227 285 356 424
#     4  11  24  41  68 101 140 181 232 287 355 418
#     4  12  24  36  76 104 130 180 236 294 352 408
#     4  10  23  43  74 102 144 188 237 298 359 428
#     4  11  23  45  71 104 137 181 239 300 345 419
#
# _framework density 25.625067000000001
#
# number of rings (size 3 to 8) (size 9 to 14) (size 15 to 20)
#    0.000    1.333    2.222    2.000   12.444    0.000 
#    0.000    4.444   39.111    0.000    0.000    0.000 
#    0.000    0.000    0.000    0.000    0.000    0.000 
#
# Total GULP energy -100491.631885 kJ/mol
# GULP energy per Si atom -5582.868438 kJ/mol
# Density = 2.556674 g / cm^3
# Si number density = 25.625067 Si / 1000 Ang^3
#
#
#
# Elastic Constant Matrix: (Units=GPa)
#
#
# Indices 1 2 3 4 5 6 
#
# 1 112.3171 46.1948 7.3842 0.0000 0.0000 0.0000
# 2 46.1948 148.7952 1.0556 0.0000 0.0000 0.0000
# 3 7.3842 1.0556 50.0432 0.0000 0.0000 0.0000
# 4 0.0000 0.0000 0.0000 14.3097 0.0000 0.0000
# 5 0.0000 0.0000 0.0000 0.0000 52.7441 0.0000
# 6 0.0000 0.0000 0.0000 0.0000 0.0000 45.2481
#
#
#
# Elastic Compliance Matrix: (Units=1/GPa)
#
#
# Indices 1 2 3 4 5 6 
#
# 1 0.010311 -0.003191 -0.001454 0.000000 0.000000 0.000000
# 2 -0.003191 0.007709 0.000308 0.000000 0.000000 0.000000
# 3 -0.001454 0.000308 0.020191 0.000000 0.000000 0.000000
# 4 0.000000 0.000000 0.000000 0.069883 0.000000 0.000000
# 5 0.000000 0.000000 0.000000 0.000000 0.018959 0.000000
# 6 0.000000 0.000000 0.000000 0.000000 0.000000 0.022100
#
#
# Mechanical properties :
#
#
# Convention : Reuss Voigt Hill
#
# Bulk Modulus (GPa) = 33.85530 46.71386 40.28458
# Shear Modulus (GPa) = 29.81985 39.56177 34.69081
#
# Velocity S-wave (km/s) = 3.41500 3.93347 3.68337
# Velocity P-wave (km/s) = 5.36564 6.23690 5.81761
#
# Compressibility (1/GPa) = 0.02953747
#
# Stress axis : x y z
#
# Youngs Moduli (GPa) = 96.98033 129.71654 49.52747
#
# Poissons Ratio (x) = 0.41392 0.07202
# Poissons Ratio (y) = 0.30946 -0.01527
# Poissons Ratio (z) = 0.14103 -0.03998
#
# Static dielectric constant tensor:
#      x y z
#    x 2.105680 0.000000 0.000000 
#    y 0.000000 2.063880 0.000000 
#    z 0.000000 0.000000 1.859640 
# 
# From -- ./inp_files/6377.got.cif
#   From: 2010.05.17/outbox.cif.g08.bks.cpg/sg17_4_cif.got.tgz:6377.got - 2010.06.03 22:34:06.
