data_PCOD9311329
_publ_section_title
;
Structure prediction by ZEFSAII (Michael W. Deem and Ramdas Pophale) SiO2 
 PCOD9311329
Probable space group: P 2 2 21
;
_chemical_formula_sum "Si O2"
_cell_formula_units_Z 30
_cell_length_a 15.549999
_cell_length_b 11.658138
_cell_length_c 9.124558
_cell_angle_alpha 90.000000
_cell_angle_beta 90.000000
_cell_angle_gamma 90.000000
_cell_volume 1654.136685
_symmetry_space_group_name_H-M "P 2 2 21"
_symmetry_group_IT_number 17
_symmetry_cell_setting 'orthorhombic'
loop_
_space_group_symop_operation_xyz
x,y,z
-x,-y,1/2+z
x,-y,-z
-x,y,1/2-z
loop_
_atom_site_type_symbol
_atom_site_label
_atom_site_fract_x
_atom_site_fract_y
_atom_site_fract_z
Si Si1 0.768031 0.763445 0.692201
Si Si2 0.016468 0.000000 0.500000
Si Si3 0.410173 0.869559 0.175679
Si Si4 0.124693 0.985289 0.775853
Si Si5 0.086115 0.651129 0.333206
Si Si6 0.411171 0.861272 0.823563
Si Si7 0.913182 0.625616 0.833107
Si Si8 0.774158 0.787911 0.345149
O O1 0.815232 0.877521 0.752091
O O2 0.667907 0.782235 0.725637
O O3 0.824401 0.662713 0.759074
O O4 0.773512 0.754815 0.515979
O O5 0.947020 0.060195 0.391782
O O6 0.080550 0.961422 0.370046
O O7 0.500000 0.834185 0.250000
O O8 0.323203 0.801191 0.213258
O O9 0.395360 0.004177 0.213772
O O10 0.418517 0.859440 0.999820
O O11 0.181392 0.087032 0.841731
O O12 0.085859 0.512582 0.332248
O O13 0.083403 0.679232 0.504823
O O14 0.167575 0.703386 0.250419
O O15 0.000000 0.691724 0.250000
O O16 0.500000 0.826557 0.750000
O O17 0.000000 0.663427 0.750000
#
# Coordination Sequence:
#
# PCOD9311329 Si02
#       8
#     4   2   4   4   4   4   4   4
#     4  11  21  35  57  79 111 144 181 222 270 327
#     4  10  24  34  48  66 116 152 176 214 266 324
#     4   9  18  34  53  78 110 144 176 217 268 323
#     4  11  22  36  47  78 109 146 180 217 265 323
#     4  10  23  40  57  79 108 144 187 231 272 316
#     4   9  18  34  53  78 110 144 176 217 268 323
#     4  10  23  40  57  79 108 144 187 231 272 316
#     4  11  21  35  57  79 111 144 181 222 270 327
#
# _framework density 18.136348000000002
#
# number of rings (size 3 to 8) (size 9 to 14) (size 15 to 20)
#    0.000    1.867    2.667    0.800    5.600    2.667 
#    0.000    0.000    0.000    0.800    0.000    0.000 
#    0.000    0.000    0.000    0.000    0.000    0.000 
#
# Total GULP energy -167170.612739 kJ/mol
# GULP energy per Si atom -5572.353758 kJ/mol
# Density = 1.809507 g / cm^3
# Si number density = 18.136348 Si / 1000 Ang^3
#
#
#
# Elastic Constant Matrix: (Units=GPa)
#
#
# Indices 1 2 3 4 5 6 
#
# 1 173.5649 26.0668 68.1327 0.0000 0.0000 0.0000
# 2 26.0668 21.7484 21.3595 0.0000 0.0000 0.0000
# 3 68.1327 21.3595 74.5883 0.0000 0.0000 0.0000
# 4 0.0000 0.0000 0.0000 21.6996 0.0000 0.0000
# 5 0.0000 0.0000 0.0000 0.0000 33.8816 0.0000
# 6 0.0000 0.0000 0.0000 0.0000 0.0000 10.8931
#
#
#
# Elastic Compliance Matrix: (Units=1/GPa)
#
#
# Indices 1 2 3 4 5 6 
#
# 1 0.009210 -0.003863 -0.007307 0.000000 0.000000 0.000000
# 2 -0.003863 0.065592 -0.015255 0.000000 0.000000 0.000000
# 3 -0.007307 -0.015255 0.024450 0.000000 0.000000 0.000000
# 4 0.000000 0.000000 0.000000 0.046084 0.000000 0.000000
# 5 0.000000 0.000000 0.000000 0.000000 0.029515 0.000000
# 6 0.000000 0.000000 0.000000 0.000000 0.000000 0.091802
#
#
# Mechanical properties :
#
#
# Convention : Reuss Voigt Hill
#
# Bulk Modulus (GPa) = 21.55019 55.66881 38.60950
# Shear Modulus (GPa) = 14.92680 23.58435 19.25557
#
# Velocity S-wave (km/s) = 2.87197 3.61001 3.26193
# Velocity P-wave (km/s) = 4.78599 6.93811 5.96000
#
# Compressibility (1/GPa) = 0.04640330
#
# Stress axis : x y z
#
# Youngs Moduli (GPa) = 108.57952 15.24569 40.90035
#
# Poissons Ratio (x) = 0.05889 0.29884
# Poissons Ratio (y) = 0.41940 0.62394
# Poissons Ratio (z) = 0.79335 0.23257
#
# Static dielectric constant tensor:
#      x y z
#    x 1.623520 0.000000 0.000000 
#    y 0.000000 1.627610 0.000000 
#    z 0.000000 0.000000 1.644910 
# 
# From -- ./inp_files/5245.got.cif
#   From: 2010.05.17/outbox.cif.g08.bks.cpg/sg17_3_cif.got.tgz:5245.got - 2010.06.03 22:34:06.
