data_PCOD9311835
_publ_section_title
;
Structure prediction by ZEFSAII (Michael W. Deem and Ramdas Pophale) SiO2 
 PCOD9311835
Probable space group: P 21 21 2
;
_chemical_formula_sum "Si O2"
_cell_formula_units_Z 32
_cell_length_a 7.939229
_cell_length_b 13.367200
_cell_length_c 12.997850
_cell_angle_alpha 90.000000
_cell_angle_beta 90.000000
_cell_angle_gamma 90.000000
_cell_volume 1379.400235
_symmetry_space_group_name_H-M "P 21 21 2"
_symmetry_group_IT_number 18
_symmetry_cell_setting 'orthorhombic'
loop_
_space_group_symop_operation_xyz
x,y,z
-x,-y,z
1/2+x,1/2-y,-z
1/2-x,1/2+y,-z
loop_
_atom_site_type_symbol
_atom_site_label
_atom_site_fract_x
_atom_site_fract_y
_atom_site_fract_z
Si Si1 0.036309 0.255966 0.473003
Si Si2 0.853709 0.928242 0.329940
Si Si3 0.709540 0.353122 0.371723
Si Si4 0.867598 0.419393 0.172035
Si Si5 0.689827 0.526360 0.993517
Si Si6 0.688374 0.856567 0.128382
Si Si7 0.309249 0.963012 0.518207
Si Si8 0.589622 0.206472 0.991095
O O1 0.069963 0.160624 0.400106
O O2 0.053262 0.211803 0.588629
O O3 0.173391 0.345514 0.462566
O O4 0.862145 0.306442 0.439531
O O5 0.740183 0.872841 0.245460
O O6 0.753277 0.002979 0.405725
O O7 0.000000 0.000000 0.283795
O O8 0.772364 0.353435 0.255560
O O9 0.698977 0.469799 0.404290
O O10 0.735454 0.483121 0.105850
O O11 0.000000 0.500000 0.219185
O O12 0.975000 0.352043 0.092908
O O13 0.500000 0.500000 0.968965
O O14 0.743324 0.640757 0.988784
O O15 0.814843 0.467945 0.917518
O O16 0.839790 0.804479 0.063544
O O17 0.521315 0.796406 0.094983
O O18 0.500000 0.000000 0.528238
#
# Coordination Sequence:
#
# PCOD9311835 Si02
#       8
#     4   4   4   4   4   4   4   4
#     4  10  20  37  58  83 121 161 203 258 317 378
#     4  11  23  38  62  93 124 164 215 268 326 386
#     4  10  19  35  57  82 114 156 202 252 311 378
#     4   9  18  35  58  82 113 155 200 247 309 373
#     4  10  21  40  61  87 123 157 201 263 319 381
#     4  11  22  39  61  90 124 167 212 260 323 387
#     4   9  20  37  56  83 120 161 205 255 313 381
#     4  10  22  39  62  90 123 163 206 257 319 384
#
# _framework density 23.198485999999999
#
# number of rings (size 3 to 8) (size 9 to 14) (size 15 to 20)
#    0.000    2.000    0.000    4.875    0.000    2.000 
#    0.000   18.750    0.000    0.000    0.000    0.000 
#    0.000    0.000    0.000    0.000    0.000    0.000 
#
# Total GULP energy -178667.405999 kJ/mol
# GULP energy per Si atom -5583.356437 kJ/mol
# Density = 2.314569 g / cm^3
# Si number density = 23.198486 Si / 1000 Ang^3
#
#
#
# Elastic Constant Matrix: (Units=GPa)
#
#
# Indices 1 2 3 4 5 6 
#
# 1 87.4386 22.6587 21.7581 0.0000 0.0000 0.0000
# 2 22.6587 111.9255 3.8565 0.0000 0.0000 0.0000
# 3 21.7581 3.8565 64.2095 0.0000 0.0000 0.0000
# 4 0.0000 0.0000 0.0000 8.4683 0.0000 0.0000
# 5 0.0000 0.0000 0.0000 0.0000 31.4653 0.0000
# 6 0.0000 0.0000 0.0000 0.0000 0.0000 38.4573
#
#
#
# Elastic Compliance Matrix: (Units=1/GPa)
#
#
# Indices 1 2 3 4 5 6 
#
# 1 0.013161 -0.002516 -0.004309 0.000000 0.000000 0.000000
# 2 -0.002516 0.009434 0.000286 0.000000 0.000000 0.000000
# 3 -0.004309 0.000286 0.017017 0.000000 0.000000 0.000000
# 4 0.000000 0.000000 0.000000 0.118087 0.000000 0.000000
# 5 0.000000 0.000000 0.000000 0.000000 0.031781 0.000000
# 6 0.000000 0.000000 0.000000 0.000000 0.000000 0.026003
#
#
# Mechanical properties :
#
#
# Convention : Reuss Voigt Hill
#
# Bulk Modulus (GPa) = 37.68671 40.01334 38.85002
# Shear Modulus (GPa) = 21.06114 30.03155 25.54634
#
# Velocity S-wave (km/s) = 3.01635 3.60189 3.32204
# Velocity P-wave (km/s) = 5.33027 5.88080 5.61229
#
# Compressibility (1/GPa) = 0.02653456
#
# Stress axis : x y z
#
# Youngs Moduli (GPa) = 75.98397 105.99977 58.76530
#
# Poissons Ratio (x) = 0.26668 0.25319
# Poissons Ratio (y) = 0.19116 -0.01680
# Poissons Ratio (z) = 0.32738 -0.03031
#
# Static dielectric constant tensor:
#      x y z
#    x 1.911940 0.000000 0.000000 
#    y 0.000000 1.690180 0.000000 
#    z 0.000000 0.000000 1.867950 
# 
# From -- ./inp_files/6794.got.cif
#   From: 2010.05.17/outbox.cif.g08.bks.cpg/sg18_4_cif.got.tgz:6794.got - 2010.06.03 22:40:56.
