data_PCOD9311630
_publ_section_title
;
Structure prediction by ZEFSAII (Michael W. Deem and Ramdas Pophale) SiO2 
 PCOD9311630
Probable space group: P 21 21 2
;
_chemical_formula_sum "Si O2"
_cell_formula_units_Z 32
_cell_length_a 32.404539
_cell_length_b 5.394247
_cell_length_c 8.100758
_cell_angle_alpha 90.000000
_cell_angle_beta 90.000000
_cell_angle_gamma 90.000000
_cell_volume 1415.997004
_symmetry_space_group_name_H-M "P 21 21 2"
_symmetry_group_IT_number 18
_symmetry_cell_setting 'orthorhombic'
loop_
_space_group_symop_operation_xyz
x,y,z
-x,-y,z
1/2+x,1/2-y,-z
1/2-x,1/2+y,-z
loop_
_atom_site_type_symbol
_atom_site_label
_atom_site_fract_x
_atom_site_fract_y
_atom_site_fract_z
Si Si1 0.884960 0.766982 0.716503
Si Si2 0.821395 0.676175 0.008637
Si Si3 0.736363 0.555922 0.444078
Si Si4 0.986140 0.251632 0.402582
Si Si5 0.520797 0.248759 0.222775
Si Si6 0.266414 0.176186 0.871259
Si Si7 0.324916 0.512686 0.680595
Si Si8 0.109349 0.731087 0.505081
O O1 0.851119 0.736329 0.859053
O O2 0.930423 0.738725 0.796212
O O3 0.881416 0.537379 0.585709
O O4 0.886109 0.040617 0.634705
O O5 0.775056 0.770762 0.968046
O O6 0.808112 0.390418 0.030456
O O7 0.837007 0.784222 0.184156
O O8 0.767348 0.350472 0.525594
O O9 0.750988 0.530760 0.257194
O O10 0.693545 0.420504 0.499087
O O11 0.937901 0.262365 0.444201
O O12 0.000000 0.500000 0.312558
O O13 0.011238 0.250638 0.578095
O O14 0.000000 0.000000 0.316255
O O15 0.500000 0.500000 0.159048
O O16 0.500000 0.000000 0.156989
O O17 0.283182 0.393879 0.755472
O O18 0.360030 0.312509 0.642388
#
# Coordination Sequence:
#
# PCOD9311630 Si02
#       8
#     4   4   4   4   4   4   4   4
#     4  12  25  40  68 107 135 172 229 286 338 415
#     4  12  26  44  66  94 134 184 226 287 348 417
#     4  10  21  40  66  86 115 159 217 266 323 382
#     4  10  16  34  62  95 132 167 211 271 337 396
#     4  10  16  35  63  97 132 166 216 274 333 391
#     4  11  24  45  65  85 124 179 227 269 345 414
#     4  11  26  42  64  94 132 171 225 291 337 404
#     4  12  24  40  66 106 135 170 225 293 341 396
#
# _framework density 22.598915999999999
#
# number of rings (size 3 to 8) (size 9 to 14) (size 15 to 20)
#    0.000    1.000    7.500    0.750    3.500    5.000 
#    0.000    0.000    0.000    0.750    0.000    0.000 
#    0.000    0.000    0.000    0.000    0.000    0.000 
#
# Total GULP energy -178282.113300 kJ/mol
# GULP energy per Si atom -5571.316041 kJ/mol
# Density = 2.254748 g / cm^3
# Si number density = 22.598916 Si / 1000 Ang^3
#
#
#
# Elastic Constant Matrix: (Units=GPa)
#
#
# Indices 1 2 3 4 5 6 
#
# 1 102.6046 15.6610 34.5634 0.0000 0.0000 0.0000
# 2 15.6610 135.6426 19.4537 0.0000 0.0000 0.0000
# 3 34.5634 19.4537 45.1669 0.0000 0.0000 0.0000
# 4 0.0000 0.0000 0.0000 21.3667 0.0000 0.0000
# 5 0.0000 0.0000 0.0000 0.0000 11.1092 0.0000
# 6 0.0000 0.0000 0.0000 0.0000 0.0000 33.2945
#
#
#
# Elastic Compliance Matrix: (Units=1/GPa)
#
#
# Indices 1 2 3 4 5 6 
#
# 1 0.013132 -0.000080 -0.010015 0.000000 0.000000 0.000000
# 2 -0.000080 0.007858 -0.003323 0.000000 0.000000 0.000000
# 3 -0.010015 -0.003323 0.031235 0.000000 0.000000 0.000000
# 4 0.000000 0.000000 0.000000 0.046802 0.000000 0.000000
# 5 0.000000 0.000000 0.000000 0.000000 0.090015 0.000000
# 6 0.000000 0.000000 0.000000 0.000000 0.000000 0.030035
#
#
# Mechanical properties :
#
#
# Convention : Reuss Voigt Hill
#
# Bulk Modulus (GPa) = 39.38671 46.97448 43.18060
# Shear Modulus (GPa) = 19.65594 27.40315 23.52954
#
# Velocity S-wave (km/s) = 2.95239 3.48600 3.23023
# Velocity P-wave (km/s) = 5.39338 6.08557 5.74990
#
# Compressibility (1/GPa) = 0.02538927
#
# Stress axis : x y z
#
# Youngs Moduli (GPa) = 76.15059 127.25597 32.01533
#
# Poissons Ratio (x) = 0.01017 0.32062
# Poissons Ratio (y) = 0.00608 0.10640
# Poissons Ratio (z) = 0.76262 0.42292
#
# Static dielectric constant tensor:
#      x y z
#    x 1.863390 0.000000 0.000000 
#    y 0.000000 2.080380 0.000000 
#    z 0.000000 0.000000 1.997590 
# 
# From -- ./inp_files/4859.got.cif
#   From: 2010.05.17/outbox.cif.g08.bks.cpg/sg18_3_cif.got.tgz:4859.got - 2010.06.03 22:40:56.
