data_PCOD9311127
_publ_section_title
;
Structure prediction by ZEFSAII (Michael W. Deem and Ramdas Pophale) SiO2 
 PCOD9311127
Probable space group: P 2 2 21
;
_chemical_formula_sum "Si O2"
_cell_formula_units_Z 22
_cell_length_a 5.248478
_cell_length_b 5.242539
_cell_length_c 28.797711
_cell_angle_alpha 90.000000
_cell_angle_beta 90.000000
_cell_angle_gamma 90.000000
_cell_volume 792.379115
_symmetry_space_group_name_H-M "P 2 2 21"
_symmetry_group_IT_number 17
_symmetry_cell_setting 'orthorhombic'
loop_
_space_group_symop_operation_xyz
x,y,z
-x,-y,1/2+z
x,-y,-z
-x,y,1/2-z
loop_
_atom_site_type_symbol
_atom_site_label
_atom_site_fract_x
_atom_site_fract_y
_atom_site_fract_z
Si Si1 0.441146 0.813793 0.372515
Si Si2 0.044885 0.904373 0.846943
Si Si3 0.397288 0.527003 0.794811
Si Si4 0.732712 0.407001 0.053298
Si Si5 0.000000 0.851017 0.250000
Si Si6 0.232257 0.756779 0.970086
O O1 0.733973 0.911326 0.369019
O O2 0.406619 0.623505 0.328042
O O3 0.372698 0.635865 0.416066
O O4 0.231232 0.037621 0.369487
O O5 0.962822 0.978112 0.794565
O O6 0.213965 0.659041 0.832958
O O7 0.500000 0.689173 0.750000
O O8 0.230546 0.325073 0.766520
O O9 0.510821 0.196903 0.050303
O O10 0.014529 0.311150 0.066785
O O11 0.775827 0.500000 0.000000
O O12 0.269880 0.500000 0.000000
O O13 0.150395 0.000000 0.000000
#
# Coordination Sequence:
#
# PCOD9311127 Si02
#       6
#     4   4   4   4   2   4
#     4  11  25  47  65 107 145 185 248 310 363 446
#     4  11  25  40  71 101 141 189 238 304 362 447
#     4  11  24  43  71 101 141 196 243 303 377 449
#     4  10  22  45  72  98 143 189 238 303 375 445
#     4  10  22  42  68  92 146 178 240 294 364 446
#     4  10  21  42  72 104 135 187 241 297 369 448
#
# _framework density 27.764489999999999
#
# number of rings (size 3 to 8) (size 9 to 14) (size 15 to 20)
#    0.000    1.455    1.818    2.182    5.091    0.000 
#   19.636    0.000    0.000    0.000    0.000    0.000 
#    0.000    0.000    0.000    0.000    0.000    0.000 
#
# Total GULP energy -123055.552171 kJ/mol
# GULP energy per Si atom -5593.434190 kJ/mol
# Density = 2.770130 g / cm^3
# Si number density = 27.764490 Si / 1000 Ang^3
#
#
#
# Elastic Constant Matrix: (Units=GPa)
#
#
# Indices 1 2 3 4 5 6 
#
# 1 181.8331 19.6676 33.6559 0.0000 0.0000 0.0000
# 2 19.6676 89.5412 10.2556 0.0000 0.0000 0.0000
# 3 33.6559 10.2556 117.7010 0.0000 0.0000 0.0000
# 4 0.0000 0.0000 0.0000 40.0277 0.0000 0.0000
# 5 0.0000 0.0000 0.0000 0.0000 52.1528 0.0000
# 6 0.0000 0.0000 0.0000 0.0000 0.0000 36.7400
#
#
#
# Elastic Compliance Matrix: (Units=1/GPa)
#
#
# Indices 1 2 3 4 5 6 
#
# 1 0.005915 -0.001117 -0.001594 0.000000 0.000000 0.000000
# 2 -0.001117 0.011491 -0.000682 0.000000 0.000000 0.000000
# 3 -0.001594 -0.000682 0.009011 0.000000 0.000000 0.000000
# 4 0.000000 0.000000 0.000000 0.024983 0.000000 0.000000
# 5 0.000000 0.000000 0.000000 0.000000 0.019174 0.000000
# 6 0.000000 0.000000 0.000000 0.000000 0.000000 0.027218
#
#
# Mechanical properties :
#
#
# Convention : Reuss Voigt Hill
#
# Bulk Modulus (GPa) = 50.93592 57.35927 54.14759
# Shear Modulus (GPa) = 44.99497 47.48384 46.23941
#
# Velocity S-wave (km/s) = 4.03003 4.13999 4.08538
# Velocity P-wave (km/s) = 6.32775 6.59975 6.46518
#
# Compressibility (1/GPa) = 0.01963251
#
# Stress axis : x y z
#
# Youngs Moduli (GPa) = 169.05011 87.02127 110.97091
#
# Poissons Ratio (x) = 0.09718 0.17691
# Poissons Ratio (y) = 0.18878 0.07568
# Poissons Ratio (z) = 0.26950 0.05935
#
# Static dielectric constant tensor:
#      x y z
#    x 2.450290 0.000000 0.000000 
#    y 0.000000 2.305790 0.000000 
#    z 0.000000 0.000000 -1.038740 
# 
# From -- ./inp_files/11091.got.cif
#   From: 2010.05.17/outbox.cif.g08.bks.cpg/sg17_6_cif.got.tgz:11091.got - 2010.06.03 22:34:06.
