data_PCOD9311667
_publ_section_title
;
Structure prediction by ZEFSAII (Michael W. Deem and Ramdas Pophale) SiO2 
 PCOD9311667
Probable space group: P 21 21 2
;
_chemical_formula_sum "Si O2"
_cell_formula_units_Z 18
_cell_length_a 6.550772
_cell_length_b 7.052576
_cell_length_c 17.508649
_cell_angle_alpha 90.000000
_cell_angle_beta 90.000000
_cell_angle_gamma 90.000000
_cell_volume 808.896387
_symmetry_space_group_name_H-M "P 21 21 2"
_symmetry_group_IT_number 18
_symmetry_cell_setting 'orthorhombic'
loop_
_space_group_symop_operation_xyz
x,y,z
-x,-y,z
1/2+x,1/2-y,-z
1/2-x,1/2+y,-z
loop_
_atom_site_type_symbol
_atom_site_label
_atom_site_fract_x
_atom_site_fract_y
_atom_site_fract_z
Si Si1 0.000000 0.500000 0.671492
Si Si2 0.664474 0.225385 0.599116
Si Si3 0.129709 0.805238 0.094354
Si Si4 0.119137 0.800548 0.262826
Si Si5 0.000000 0.500000 0.970435
Si Si6 0.500000 0.500000 0.474700
O O1 0.162695 0.620992 0.623486
O O2 0.146496 0.353341 0.717139
O O3 0.507023 0.204252 0.668962
O O4 0.543961 0.320033 0.528879
O O5 0.798152 0.045780 0.573927
O O6 0.100860 0.716775 0.178141
O O7 0.095924 0.654561 0.027569
O O8 0.000000 0.000000 0.084678
O O9 0.355399 0.882496 0.084394
O O10 0.000000 0.000000 0.255858
#
# Coordination Sequence:
#
# PCOD9311667 Si02
#       6
#     2   4   4   4   2   2
#     4  10  17  42  66  93 126 176 230 262 345 408
#     4  11  23  42  63  97 129 177 227 276 344 401
#     4  11  23  42  68 100 142 179 225 285 333 409
#     4   9  20  40  66  92 134 180 220 273 344 407
#     4  12  23  42  70 107 134 180 232 270 349 404
#     4  12  24  42  66  94 132 172 226 292 332 398
#
# _framework density 22.252541999999998
#
# number of rings (size 3 to 8) (size 9 to 14) (size 15 to 20)
#    0.000    1.333    5.556    2.000    0.000    0.000 
#    4.000    0.000    0.000    0.000    0.000    0.000 
#    0.000    0.000    0.000    0.000    0.000    0.000 
#
# Total GULP energy -100537.454877 kJ/mol
# GULP energy per Si atom -5585.414160 kJ/mol
# Density = 2.220189 g / cm^3
# Si number density = 22.252542 Si / 1000 Ang^3
#
#
#
# Elastic Constant Matrix: (Units=GPa)
#
#
# Indices 1 2 3 4 5 6 
#
# 1 103.6727 16.2062 45.5373 0.0000 0.0000 0.0000
# 2 16.2062 65.1629 25.3513 0.0000 0.0000 0.0000
# 3 45.5373 25.3513 129.0361 0.0000 0.0000 0.0000
# 4 0.0000 0.0000 0.0000 -5.3600 0.0000 0.0000
# 5 0.0000 0.0000 0.0000 0.0000 24.7584 0.0000
# 6 0.0000 0.0000 0.0000 0.0000 0.0000 49.1931
#
#
#
# Elastic Compliance Matrix: (Units=1/GPa)
#
#
# Indices 1 2 3 4 5 6 
#
# 1 0.011530 -0.001391 -0.003796 0.000000 0.000000 0.000000
# 2 -0.001391 0.016784 -0.002807 0.000000 0.000000 0.000000
# 3 -0.003796 -0.002807 0.009641 0.000000 0.000000 0.000000
# 4 0.000000 0.000000 0.000000 -0.186566 0.000000 0.000000
# 5 0.000000 0.000000 0.000000 0.000000 0.040390 0.000000
# 6 0.000000 0.000000 0.000000 0.000000 0.000000 0.020328
#
#
# Mechanical properties :
#
#
# Convention : Reuss Voigt Hill
#
# Bulk Modulus (GPa) = 45.51996 52.45126 48.98561
# Shear Modulus (GPa) = -77.41971 27.77009 -24.82481
#
# Velocity S-wave (km/s) = -5.90482 3.53647 -3.34368
# Velocity P-wave (km/s) = 5.09792 6.34804 2.67477
#
# Compressibility (1/GPa) = 0.02196838
#
# Stress axis : x y z
#
# Youngs Moduli (GPa) = 86.72670 59.58055 103.72627
#
# Poissons Ratio (x) = 0.08287 0.39373
# Poissons Ratio (y) = 0.12063 0.29112
# Poissons Ratio (z) = 0.32920 0.16722
#
# Static dielectric constant tensor:
#      x y z
#    x 1.826910 0.000000 0.000000 
#    y 0.000000 1.828090 0.000000 
#    z 0.000000 0.000000 1.811580 
# 
# From -- ./inp_files/7069.got.cif
#   From: 2010.05.17/outbox.cif.g08.bks.cpg/sg18_4_cif.got.tgz:7069.got - 2010.06.03 22:40:56.
