data_PCOD9311265
_publ_section_title
;
Structure prediction by ZEFSAII (Michael W. Deem and Ramdas Pophale) SiO2 
 PCOD9311265
Probable space group: P 2 2 21
;
_chemical_formula_sum "Si O2"
_cell_formula_units_Z 20
_cell_length_a 9.076688
_cell_length_b 13.156190
_cell_length_c 7.961593
_cell_angle_alpha 90.000000
_cell_angle_beta 90.000000
_cell_angle_gamma 90.000000
_cell_volume 950.730697
_symmetry_space_group_name_H-M "P 2 2 21"
_symmetry_group_IT_number 17
_symmetry_cell_setting 'orthorhombic'
loop_
_space_group_symop_operation_xyz
x,y,z
-x,-y,1/2+z
x,-y,-z
-x,y,1/2-z
loop_
_atom_site_type_symbol
_atom_site_label
_atom_site_fract_x
_atom_site_fract_y
_atom_site_fract_z
Si Si1 0.000000 0.771340 0.750000
Si Si2 0.173205 0.713142 0.271764
Si Si3 0.500000 0.205504 0.250000
Si Si4 0.761083 0.119852 0.023532
Si Si5 0.350796 0.455298 0.675572
Si Si6 0.268031 0.351753 0.094518
O O1 0.878202 0.699962 0.668285
O O2 0.092316 0.839442 0.618774
O O3 0.241565 0.815341 0.349828
O O4 0.222767 0.620872 0.390747
O O5 0.000000 0.726485 0.250000
O O6 0.239000 0.662130 0.103387
O O7 0.382156 0.144266 0.362362
O O8 0.404735 0.279138 0.133736
O O9 0.771169 0.000000 0.000000
O O10 0.406985 0.500000 0.500000
O O11 0.500000 0.406119 0.750000
O O12 0.296208 0.543064 0.805471
#
# Coordination Sequence:
#
# PCOD9311265 Si02
#       6
#     2   4   2   4   4   4
#     4  10  22  42  70  98 142 188 234 300 358 452
#     4  12  27  44  68 108 141 191 243 306 361 442
#     4  10  24  46  68 104 136 188 236 304 362 444
#     4  11  26  47  74 103 143 194 249 314 379 434
#     4  12  26  43  70 106 149 201 239 290 370 448
#     4  11  23  44  71 101 148 183 239 292 360 442
#
# _framework density 21.036451
#
# number of rings (size 3 to 8) (size 9 to 14) (size 15 to 20)
#    0.000    0.800    3.000    4.200    5.600    1.600 
#    0.000    4.000    0.000    0.000    0.000    0.000 
#    0.000    0.000    0.000    0.000    0.000    0.000 
#
# Total GULP energy -111578.781298 kJ/mol
# GULP energy per Si atom -5578.939065 kJ/mol
# Density = 2.098857 g / cm^3
# Si number density = 21.036451 Si / 1000 Ang^3
#
#
#
# Elastic Constant Matrix: (Units=GPa)
#
#
# Indices 1 2 3 4 5 6 
#
# 1 129.7283 59.3886 25.9212 0.0000 0.0000 0.0000
# 2 59.3886 161.2897 38.4613 0.0000 0.0000 0.0000
# 3 25.9212 38.4613 64.0437 0.0000 0.0000 0.0000
# 4 0.0000 0.0000 0.0000 32.8525 0.0000 0.0000
# 5 0.0000 0.0000 0.0000 0.0000 19.3484 0.0000
# 6 0.0000 0.0000 0.0000 0.0000 0.0000 12.2585
#
#
#
# Elastic Compliance Matrix: (Units=1/GPa)
#
#
# Indices 1 2 3 4 5 6 
#
# 1 0.009493 -0.003010 -0.002034 0.000000 0.000000 0.000000
# 2 -0.003010 0.008191 -0.003701 0.000000 0.000000 0.000000
# 3 -0.002034 -0.003701 0.018660 0.000000 0.000000 0.000000
# 4 0.000000 0.000000 0.000000 0.030439 0.000000 0.000000
# 5 0.000000 0.000000 0.000000 0.000000 0.051684 0.000000
# 6 0.000000 0.000000 0.000000 0.000000 0.000000 0.081576
#
#
# Mechanical properties :
#
#
# Convention : Reuss Voigt Hill
#
# Bulk Modulus (GPa) = 53.04083 66.95597 59.99840
# Shear Modulus (GPa) = 22.33956 28.31125 25.32540
#
# Velocity S-wave (km/s) = 3.26229 3.67252 3.47346
# Velocity P-wave (km/s) = 6.28160 7.06264 6.68354
#
# Compressibility (1/GPa) = 0.01885340
#
# Stress axis : x y z
#
# Youngs Moduli (GPa) = 105.34067 122.08664 53.59019
#
# Poissons Ratio (x) = 0.36752 0.10902
# Poissons Ratio (y) = 0.31711 0.19832
# Poissons Ratio (z) = 0.21430 0.45180
#
# Static dielectric constant tensor:
#      x y z
#    x 1.764270 0.000000 0.000000 
#    y 0.000000 1.762710 0.000000 
#    z 0.000000 0.000000 2.277090 
# 
# From -- ./inp_files/4050.got.cif
#   From: 2010.05.17/outbox.cif.g08.bks.cpg/sg17_3_cif.got.tgz:4050.got - 2010.06.03 22:34:06.
