data_PCOD9311828
_publ_section_title
;
Structure prediction by ZEFSAII (Michael W. Deem and Ramdas Pophale) SiO2 
 PCOD9311828
Probable space group: P 21 21 2
;
_chemical_formula_sum "Si O2"
_cell_formula_units_Z 22
_cell_length_a 13.422722
_cell_length_b 5.355957
_cell_length_c 11.732555
_cell_angle_alpha 90.000000
_cell_angle_beta 90.000000
_cell_angle_gamma 90.000000
_cell_volume 843.471234
_symmetry_space_group_name_H-M "P 21 21 2"
_symmetry_group_IT_number 18
_symmetry_cell_setting 'orthorhombic'
loop_
_space_group_symop_operation_xyz
x,y,z
-x,-y,z
1/2+x,1/2-y,-z
1/2-x,1/2+y,-z
loop_
_atom_site_type_symbol
_atom_site_label
_atom_site_fract_x
_atom_site_fract_y
_atom_site_fract_z
Si Si1 0.637512 0.353753 0.636847
Si Si2 0.154047 0.868853 0.587210
Si Si3 0.666927 0.606484 0.860889
Si Si4 0.500000 0.000000 0.490009
Si Si5 0.136816 0.148566 0.791885
Si Si6 0.134227 0.636352 0.922961
O O1 0.740496 0.202262 0.640142
O O2 0.663947 0.568215 0.545416
O O3 0.613527 0.456339 0.761286
O O4 0.552478 0.195995 0.575540
O O5 0.080921 0.636594 0.587635
O O6 0.112531 0.101298 0.659842
O O7 0.746049 0.786759 0.799172
O O8 0.744486 0.417595 0.925952
O O9 0.606280 0.771126 0.950835
O O10 0.094726 0.380014 0.866103
O O11 0.115432 0.879624 0.846570
#
# Coordination Sequence:
#
# PCOD9311828 Si02
#       6
#     4   4   4   2   4   4
#     4  12  25  45  76 112 169 216 271 339 419 493
#     4  12  24  47  74 112 166 212 271 340 413 497
#     4  10  20  37  67 111 161 199 266 334 389 492
#     4  12  30  46  72 118 168 218 278 336 418 500
#     4  10  20  36  67 107 153 201 260 323 392 469
#     4  10  19  34  62 113 156 192 272 325 384 482
#
# _framework density 26.082694
#
# number of rings (size 3 to 8) (size 9 to 14) (size 15 to 20)
#    1.091    0.000    5.455    1.636    2.545    0.000 
#    0.000    0.000    0.000    0.000    0.000   21.636 
#    0.000    0.000    0.000    0.000    0.000    0.000 
#
# Total GULP energy -123108.519187 kJ/mol
# GULP energy per Si atom -5595.841781 kJ/mol
# Density = 2.602333 g / cm^3
# Si number density = 26.082694 Si / 1000 Ang^3
#
#
#
# Elastic Constant Matrix: (Units=GPa)
#
#
# Indices 1 2 3 4 5 6 
#
# 1 76.3615 29.4674 13.5498 0.0000 0.0000 0.0000
# 2 29.4674 165.1918 64.5599 0.0000 0.0000 0.0000
# 3 13.5498 64.5599 164.4274 0.0000 0.0000 0.0000
# 4 0.0000 0.0000 0.0000 64.7078 0.0000 0.0000
# 5 0.0000 0.0000 0.0000 0.0000 -3.2409 0.0000
# 6 0.0000 0.0000 0.0000 0.0000 0.0000 40.2450
#
#
#
# Elastic Compliance Matrix: (Units=1/GPa)
#
#
# Indices 1 2 3 4 5 6 
#
# 1 0.014070 -0.002429 -0.000206 0.000000 0.000000 0.000000
# 2 -0.002429 0.007570 -0.002772 0.000000 0.000000 0.000000
# 3 -0.000206 -0.002772 0.007187 0.000000 0.000000 0.000000
# 4 0.000000 0.000000 0.000000 0.015454 0.000000 0.000000
# 5 0.000000 0.000000 0.000000 0.000000 -0.308554 0.000000
# 6 0.000000 0.000000 0.000000 0.000000 0.000000 0.024848
#
#
# Mechanical properties :
#
#
# Convention : Reuss Voigt Hill
#
# Bulk Modulus (GPa) = 55.51632 69.01498 62.26565
# Shear Modulus (GPa) = -22.46116 40.23596 8.88740
#
# Velocity S-wave (km/s) = -2.93772 3.93189 1.84792
# Velocity P-wave (km/s) = 3.13432 6.86517 5.33641
#
# Compressibility (1/GPa) = 0.01801272
#
# Stress axis : x y z
#
# Youngs Moduli (GPa) = 71.07532 132.09414 139.13807
#
# Poissons Ratio (x) = 0.32092 0.02860
# Poissons Ratio (y) = 0.17267 0.38572
# Poissons Ratio (z) = 0.01461 0.36619
#
# Static dielectric constant tensor:
#      x y z
#    x 2.071110 0.000000 0.000000 
#    y 0.000000 2.077020 0.000000 
#    z 0.000000 0.000000 2.038460 
# 
# From -- ./inp_files/6032.got.cif
#   From: 2010.05.17/outbox.cif.g08.bks.cpg/sg18_4_cif.got.tgz:6032.got - 2010.06.03 22:40:56.
