data_PCOD9311320
_publ_section_title
;
Structure prediction by ZEFSAII (Michael W. Deem and Ramdas Pophale) SiO2 
 PCOD9311320
Probable space group: P 2 2 21
;
_chemical_formula_sum "Si O2"
_cell_formula_units_Z 12
_cell_length_a 9.108470
_cell_length_b 6.339056
_cell_length_c 7.619351
_cell_angle_alpha 90.000000
_cell_angle_beta 90.000000
_cell_angle_gamma 90.000000
_cell_volume 439.934480
_symmetry_space_group_name_H-M "P 2 2 21"
_symmetry_group_IT_number 17
_symmetry_cell_setting 'orthorhombic'
loop_
_space_group_symop_operation_xyz
x,y,z
-x,-y,1/2+z
x,-y,-z
-x,y,1/2-z
loop_
_atom_site_type_symbol
_atom_site_label
_atom_site_fract_x
_atom_site_fract_y
_atom_site_fract_z
Si Si1 0.807361 0.829578 0.644757
Si Si2 0.522727 0.000000 0.500000
Si Si3 0.000000 0.548970 0.250000
Si Si4 0.257238 0.741803 0.460883
O O1 0.905053 0.620495 0.636042
O O2 0.199535 0.849534 0.642255
O O3 0.863976 0.000000 0.500000
O O4 0.634444 0.837271 0.593684
O O5 0.404662 0.144865 0.602070
O O6 0.877044 0.699828 0.168648
O O7 0.301405 0.500000 0.500000
#
# Coordination Sequence:
#
# PCOD9311320 Si02
#       4
#     4   2   2   4
#     4   9  22  47  83 120 171 226 287 348 440 513
#     4  10  22  48  88 120 168 234 290 352 440 522
#     4  10  22  50  88 130 174 222 290 370 436 514
#     4  10  22  49  79 129 167 221 292 364 426 520
#
# _framework density 27.276786999999999
#
# number of rings (size 3 to 8) (size 9 to 14) (size 15 to 20)
#    1.000    1.333    0.000    1.000    0.000    0.000 
#   30.000   20.000    0.000    8.000    0.000    0.000 
#    0.000    0.000    0.000    0.000    0.000    0.000 
#
# Total GULP energy -66847.894483 kJ/mol
# GULP energy per Si atom -5570.657874 kJ/mol
# Density = 2.721470 g / cm^3
# Si number density = 27.276787 Si / 1000 Ang^3
#
#
#
# Elastic Constant Matrix: (Units=GPa)
#
#
# Indices 1 2 3 4 5 6 
#
# 1 276.5016 129.2473 91.2499 0.0000 0.0000 0.0000
# 2 129.2473 165.3454 93.3136 0.0000 0.0000 0.0000
# 3 91.2499 93.3136 167.3746 0.0000 0.0000 0.0000
# 4 0.0000 0.0000 0.0000 77.1157 0.0000 0.0000
# 5 0.0000 0.0000 0.0000 0.0000 56.1635 0.0000
# 6 0.0000 0.0000 0.0000 0.0000 0.0000 24.4991
#
#
#
# Elastic Compliance Matrix: (Units=1/GPa)
#
#
# Indices 1 2 3 4 5 6 
#
# 1 0.005795 -0.004008 -0.000925 0.000000 0.000000 0.000000
# 2 -0.004008 0.011597 -0.004280 0.000000 0.000000 0.000000
# 3 -0.000925 -0.004280 0.008865 0.000000 0.000000 0.000000
# 4 0.000000 0.000000 0.000000 0.012968 0.000000 0.000000
# 5 0.000000 0.000000 0.000000 0.000000 0.017805 0.000000
# 6 0.000000 0.000000 0.000000 0.000000 0.000000 0.040818
#
#
# Mechanical properties :
#
#
# Convention : Reuss Voigt Hill
#
# Bulk Modulus (GPa) = 127.70260 137.42703 132.56481
# Shear Modulus (GPa) = 42.05775 51.24969 46.65372
#
# Velocity S-wave (km/s) = 3.93095 4.33930 4.14016
# Velocity P-wave (km/s) = 8.21718 8.69470 8.45931
#
# Compressibility (1/GPa) = 0.00783069
#
# Stress axis : x y z
#
# Youngs Moduli (GPa) = 172.54940 86.23285 112.80222
#
# Poissons Ratio (x) = 0.34564 0.10434
# Poissons Ratio (y) = 0.69161 0.48280
# Poissons Ratio (z) = 0.15960 0.36908
#
# Static dielectric constant tensor:
#      x y z
#    x 2.022560 0.000000 0.000000 
#    y 0.000000 2.241020 0.000000 
#    z 0.000000 0.000000 2.424640 
# 
# From -- ./inp_files/7435.got.cif
#   From: 2010.05.17/outbox.cif.g08.bks.cpg/sg17_4_cif.got.tgz:7435.got - 2010.06.03 22:34:06.
