data_PCOD9311378
_publ_section_title
;
Structure prediction by ZEFSAII (Michael W. Deem and Ramdas Pophale) SiO2 
 PCOD9311378
Probable space group: P 2 2 21
;
_chemical_formula_sum "Si O2"
_cell_formula_units_Z 18
_cell_length_a 5.112222
_cell_length_b 5.756038
_cell_length_c 25.117717
_cell_angle_alpha 90.000000
_cell_angle_beta 90.000000
_cell_angle_gamma 90.000000
_cell_volume 739.117560
_symmetry_space_group_name_H-M "P 2 2 21"
_symmetry_group_IT_number 17
_symmetry_cell_setting 'orthorhombic'
loop_
_space_group_symop_operation_xyz
x,y,z
-x,-y,1/2+z
x,-y,-z
-x,y,1/2-z
loop_
_atom_site_type_symbol
_atom_site_label
_atom_site_fract_x
_atom_site_fract_y
_atom_site_fract_z
Si Si1 0.321745 0.454485 0.108329
Si Si2 0.523719 0.173000 0.690776
Si Si3 0.918137 0.500000 0.500000
Si Si4 0.706612 0.883476 0.949709
Si Si5 0.036972 0.078005 0.348761
O O1 0.479986 0.624218 0.146705
O O2 0.499672 0.242109 0.088018
O O3 0.073066 0.337534 0.138678
O O4 0.246706 0.570324 0.051982
O O5 0.500000 0.271499 0.750000
O O6 0.800824 0.053138 0.679428
O O7 0.295345 0.980900 0.684638
O O8 0.100916 0.296600 0.478383
O O9 0.886529 0.020792 0.907586
O O10 0.570626 0.000000 0.000000
#
# Coordination Sequence:
#
# PCOD9311378 Si02
#       5
#     4   4   2   4   4
#     4  11  26  46  77 114 152 197 257 315 383 466
#     4  12  28  51  76 107 149 200 257 320 381 449
#     4  10  24  40  72 110 150 200 240 310 388 468
#     4  11  24  43  72 109 153 196 241 309 386 463
#     4  11  26  49  75 108 150 194 252 310 381 457
#
# _framework density 24.353363999999999
#
# number of rings (size 3 to 8) (size 9 to 14) (size 15 to 20)
#    0.000    0.889    2.222    2.667   12.444    4.444 
#    4.000    0.000    0.000    0.000    0.000    0.000 
#    0.000    0.000    0.000    0.000    0.000    0.000 
#
# Total GULP energy -100622.080273 kJ/mol
# GULP energy per Si atom -5590.115571 kJ/mol
# Density = 2.429793 g / cm^3
# Si number density = 24.353364 Si / 1000 Ang^3
#
#
#
# Elastic Constant Matrix: (Units=GPa)
#
#
# Indices 1 2 3 4 5 6 
#
# 1 129.7283 20.5900 32.0959 0.0000 0.0000 0.0000
# 2 20.5900 34.8048 33.8563 0.0000 0.0000 0.0000
# 3 32.0959 33.8563 138.0956 0.0000 0.0000 0.0000
# 4 0.0000 0.0000 0.0000 38.8447 0.0000 0.0000
# 5 0.0000 0.0000 0.0000 0.0000 14.9344 0.0000
# 6 0.0000 0.0000 0.0000 0.0000 0.000083314.1551
#
#
#
# Elastic Compliance Matrix: (Units=1/GPa)
#
#
# Indices 1 2 3 4 5 6 
#
# 1 0.008609 -0.004132 -0.000988 0.000000 0.000000 0.000000
# 2 -0.004132 0.039713 -0.008776 0.000000 0.000000 0.000000
# 3 -0.000988 -0.008776 0.009622 0.000000 0.000000 0.000000
# 4 0.000000 0.000000 0.000000 0.025744 0.000000 0.000000
# 5 0.000000 0.000000 0.000000 0.000000 0.066960 0.000000
# 6 0.000000 0.000000 0.000000 0.000000 0.000000 0.000012
#
#
# Mechanical properties :
#
#
# Convention : Reuss Voigt Hill
#
# Bulk Modulus (GPa) = 33.16443 52.85699 43.01071
# Shear Modulus (GPa) = 26.52506 16687.99260 8357.25883
#
# Velocity S-wave (km/s) = 3.30384 82.86926 58.64397
# Velocity P-wave (km/s) = 5.31050 95.80277 67.84678
#
# Compressibility (1/GPa) = 0.03015279
#
# Stress axis : x y z
#
# Youngs Moduli (GPa) = 116.16293 25.18085 103.92327
#
# Poissons Ratio (x) = 0.10404 0.10266
# Poissons Ratio (y) = 0.47996 0.91202
# Poissons Ratio (z) = 0.11475 0.22098
#
# Static dielectric constant tensor:
#      x y z
#    x 1.987810 0.000000 0.000000 
#    y 0.000000 2.009680 0.000000 
#    z 0.000000 0.000000 0.875600 
# 
# From -- ./inp_files/10328.got.cif
#   From: 2010.05.17/outbox.cif.g08.bks.cpg/sg17_6_cif.got.tgz:10328.got - 2010.06.03 22:34:06.
