data_PCOD9311062
_publ_section_title
;
Structure prediction by ZEFSAII (Michael W. Deem and Ramdas Pophale) SiO2 
 PCOD9311062
Probable space group: P 2 2 21
;
_chemical_formula_sum "Si O2"
_cell_formula_units_Z 24
_cell_length_a 8.073843
_cell_length_b 5.572969
_cell_length_c 24.627041
_cell_angle_alpha 90.000000
_cell_angle_beta 90.000000
_cell_angle_gamma 90.000000
_cell_volume 1108.100525
_symmetry_space_group_name_H-M "P 2 2 21"
_symmetry_group_IT_number 17
_symmetry_cell_setting 'orthorhombic'
loop_
_space_group_symop_operation_xyz
x,y,z
-x,-y,1/2+z
x,-y,-z
-x,y,1/2-z
loop_
_atom_site_type_symbol
_atom_site_label
_atom_site_fract_x
_atom_site_fract_y
_atom_site_fract_z
Si Si1 0.557901 0.215726 0.804545
Si Si2 0.353941 0.824089 0.851576
Si Si3 0.166514 0.749248 0.527046
Si Si4 0.281471 0.602462 0.644228
Si Si5 0.232459 0.751320 0.972926
Si Si6 0.178757 0.147414 0.254568
O O1 0.500000 0.363034 0.750000
O O2 0.682341 0.321820 0.849755
O O3 0.405451 0.099580 0.837585
O O4 0.672191 0.021499 0.773916
O O5 0.529896 0.692694 0.848398
O O6 0.279444 0.772087 0.909961
O O7 0.232764 0.748126 0.803222
O O8 0.228313 0.500000 0.500000
O O9 0.212484 0.717959 0.590037
O O10 0.967121 0.750529 0.521875
O O11 0.226523 0.000000 0.500000
O O12 0.171566 0.664574 0.696412
O O13 0.292076 0.500000 0.000000
O O14 0.294262 0.000000 0.000000
O O15 0.000000 0.026044 0.250000
#
# Coordination Sequence:
#
# PCOD9311062 Si02
#       6
#     4   4   4   4   4   4
#     4   9  20  38  59  94 127 166 206 267 324 394
#     4  10  22  38  62  90 127 164 209 268 319 386
#     4  10  24  43  66  94 129 170 217 267 320 380
#     4  11  22  38  65  89 128 162 214 263 326 384
#     4  10  23  44  65  94 128 170 217 266 318 380
#     4  10  21  39  61  92 125 164 211 264 325 387
#
# _framework density 21.658684000000001
#
# number of rings (size 3 to 8) (size 9 to 14) (size 15 to 20)
#    0.000    2.000    0.000    3.500    7.000    2.000 
#    3.000    0.000    0.000    0.000    0.000    0.000 
#    0.000    0.000    0.000    0.000    0.000    0.000 
#
# Total GULP energy -133656.598871 kJ/mol
# GULP energy per Si atom -5569.024953 kJ/mol
# Density = 2.160939 g / cm^3
# Si number density = 21.658684 Si / 1000 Ang^3
#
#
#
# Elastic Constant Matrix: (Units=GPa)
#
#
# Indices 1 2 3 4 5 6 
#
# 1 31.3156 13.7990 9.5105 0.0000 0.0000 0.0000
# 2 13.7990 100.4783 77.6376 0.0000 0.0000 0.0000
# 3 9.5105 77.6376 176.2929 0.0000 0.0000 0.0000
# 4 0.0000 0.0000 0.0000 27.0889 0.0000 0.0000
# 5 0.0000 0.0000 0.0000 0.0000 38.9748 0.0000
# 6 0.0000 0.0000 0.0000 0.0000 0.0000 7.6954
#
#
#
# Elastic Compliance Matrix: (Units=1/GPa)
#
#
# Indices 1 2 3 4 5 6 
#
# 1 0.034003 -0.004930 0.000337 0.000000 0.000000 0.000000
# 2 -0.004930 0.015801 -0.006692 0.000000 0.000000 0.000000
# 3 0.000337 -0.006692 0.008601 0.000000 0.000000 0.000000
# 4 0.000000 0.000000 0.000000 0.036916 0.000000 0.000000
# 5 0.000000 0.000000 0.000000 0.000000 0.025658 0.000000
# 6 0.000000 0.000000 0.000000 0.000000 0.000000 0.129948
#
#
# Mechanical properties :
#
#
# Convention : Reuss Voigt Hill
#
# Bulk Modulus (GPa) = 27.90665 56.66456 42.28560
# Shear Modulus (GPa) = 17.51669 28.56114 23.03891
#
# Velocity S-wave (km/s) = 2.84696 3.63532 3.26502
# Velocity P-wave (km/s) = 4.87028 6.62118 5.81204
#
# Compressibility (1/GPa) = 0.03583376
#
# Stress axis : x y z
#
# Youngs Moduli (GPa) = 29.40918 63.28891 116.25882
#
# Poissons Ratio (x) = 0.31201 -0.03914
# Poissons Ratio (y) = 0.14498 0.77806
# Poissons Ratio (z) = -0.00990 0.42356
#
# Static dielectric constant tensor:
#      x y z
#    x 1.764230 0.000000 0.000000 
#    y 0.000000 2.032130 0.000000 
#    z 0.000000 0.000000 1.818970 
# 
# From -- ./inp_files/10408.got.cif
#   From: 2010.05.17/outbox.cif.g08.bks.cpg/sg17_6_cif.got.tgz:10408.got - 2010.06.03 22:34:06.
