data_PCOD9311327
_publ_section_title
;
Structure prediction by ZEFSAII (Michael W. Deem and Ramdas Pophale) SiO2 
 PCOD9311327
Probable space group: P 2 2 21
;
_chemical_formula_sum "Si O2"
_cell_formula_units_Z 32
_cell_length_a 9.408773
_cell_length_b 10.967412
_cell_length_c 15.129960
_cell_angle_alpha 90.000000
_cell_angle_beta 90.000000
_cell_angle_gamma 90.000000
_cell_volume 1561.258907
_symmetry_space_group_name_H-M "P 2 2 21"
_symmetry_group_IT_number 17
_symmetry_cell_setting 'orthorhombic'
loop_
_space_group_symop_operation_xyz
x,y,z
-x,-y,1/2+z
x,-y,-z
-x,y,1/2-z
loop_
_atom_site_type_symbol
_atom_site_label
_atom_site_fract_x
_atom_site_fract_y
_atom_site_fract_z
Si Si1 0.295065 0.947948 0.587565
Si Si2 0.328067 0.542597 0.743854
Si Si3 0.699457 0.379019 0.441650
Si Si4 0.640447 0.333190 0.060868
Si Si5 0.524574 0.134462 0.649222
Si Si6 0.798840 0.866900 0.458936
Si Si7 0.074867 0.898079 0.343429
Si Si8 0.708169 0.678597 0.131210
O O1 0.339473 0.811239 0.571418
O O2 0.222796 0.000000 0.500000
O O3 0.435244 0.030084 0.599980
O O4 0.173031 0.979650 0.657782
O O5 0.500000 0.537878 0.750000
O O6 0.271377 0.593330 0.837204
O O7 0.299909 0.616597 0.653399
O O8 0.273917 0.410403 0.713804
O O9 0.736137 0.500000 0.500000
O O10 0.527504 0.363009 0.446039
O O11 0.770911 0.253085 0.478932
O O12 0.714886 0.372303 0.968788
O O13 0.500000 0.102796 0.750000
O O14 0.684915 0.144932 0.619801
O O15 0.449272 0.263812 0.633914
O O16 0.954862 0.880360 0.417906
O O17 0.766083 0.000000 0.500000
O O18 0.186247 0.790013 0.358160
O O19 0.000000 0.887018 0.250000
#
# Coordination Sequence:
#
# PCOD9311327 Si02
#       8
#     4   4   4   4   4   4   4   4
#     4  11  20  41  63  93 133 175 219 286 339 411
#     4  10  23  37  66 105 138 170 221 290 350 415
#     4  11  24  41  67 107 149 178 222 296 364 415
#     4  11  20  38  70  98 134 175 223 275 355 415
#     4  11  22  34  65 100 130 169 228 283 337 412
#     4  12  25  43  69 100 142 185 230 290 362 412
#     4  11  26  42  68  95 131 184 239 284 334 416
#     4  11  21  41  69  92 131 176 235 279 338 411
#
# _framework density 20.496281
#
# number of rings (size 3 to 8) (size 9 to 14) (size 15 to 20)
#    0.000    1.000    3.750    5.250    3.500    3.500 
#    0.000    1.250    0.000    0.000    0.000    0.000 
#    0.000    0.000    0.000    0.000    0.000    0.000 
#
# Total GULP energy -178503.258201 kJ/mol
# GULP energy per Si atom -5578.226819 kJ/mol
# Density = 2.044963 g / cm^3
# Si number density = 20.496281 Si / 1000 Ang^3
#
#
#
# Elastic Constant Matrix: (Units=GPa)
#
#
# Indices 1 2 3 4 5 6 
#
# 1 41.7521 12.2281 9.0878 0.0000 0.0000 0.0000
# 2 12.2281 110.5599 35.3306 0.0000 0.0000 0.0000
# 3 9.0878 35.3306 124.4522 0.0000 0.0000 0.0000
# 4 0.0000 0.0000 0.0000 22.9595 0.0000 0.0000
# 5 0.0000 0.0000 0.0000 0.0000 21.2289 0.0000
# 6 0.0000 0.0000 0.0000 0.0000 0.0000 10.0022
#
#
#
# Elastic Compliance Matrix: (Units=1/GPa)
#
#
# Indices 1 2 3 4 5 6 
#
# 1 0.024899 -0.002390 -0.001140 0.000000 0.000000 0.000000
# 2 -0.002390 0.010177 -0.002715 0.000000 0.000000 0.000000
# 3 -0.001140 -0.002715 0.008889 0.000000 0.000000 0.000000
# 4 0.000000 0.000000 0.000000 0.043555 0.000000 0.000000
# 5 0.000000 0.000000 0.000000 0.000000 0.047106 0.000000
# 6 0.000000 0.000000 0.000000 0.000000 0.000000 0.099978
#
#
# Mechanical properties :
#
#
# Convention : Reuss Voigt Hill
#
# Bulk Modulus (GPa) = 31.76957 43.33968 37.55463
# Shear Modulus (GPa) = 19.41122 25.51263 22.46192
#
# Velocity S-wave (km/s) = 3.08077 3.53192 3.31403
# Velocity P-wave (km/s) = 5.30930 6.15009 5.74510
#
# Compressibility (1/GPa) = 0.03147666
#
# Stress axis : x y z
#
# Youngs Moduli (GPa) = 40.16251 98.26446 112.49777
#
# Poissons Ratio (x) = 0.23481 0.12822
# Poissons Ratio (y) = 0.09597 0.30538
# Poissons Ratio (z) = 0.04578 0.26674
#
# Static dielectric constant tensor:
#      x y z
#    x 1.705410 0.000000 0.000000 
#    y 0.000000 1.790060 0.000000 
#    z 0.000000 0.000000 1.849140 
# 
# From -- ./inp_files/8295.got.cif
#   From: 2010.05.17/outbox.cif.g08.bks.cpg/sg17_5_cif.got.tgz:8295.got - 2010.06.03 22:34:06.
