data_PCOD9311442
_publ_section_title
;
Structure prediction by ZEFSAII (Michael W. Deem and Ramdas Pophale) SiO2 
 PCOD9311442
Probable space group: P 2 2 21
;
_chemical_formula_sum "Si O2"
_cell_formula_units_Z 18
_cell_length_a 11.858187
_cell_length_b 5.116868
_cell_length_c 12.656255
_cell_angle_alpha 90.000000
_cell_angle_beta 90.000000
_cell_angle_gamma 90.000000
_cell_volume 767.940770
_symmetry_space_group_name_H-M "P 2 2 21"
_symmetry_group_IT_number 17
_symmetry_cell_setting 'orthorhombic'
loop_
_space_group_symop_operation_xyz
x,y,z
-x,-y,1/2+z
x,-y,-z
-x,y,1/2-z
loop_
_atom_site_type_symbol
_atom_site_label
_atom_site_fract_x
_atom_site_fract_y
_atom_site_fract_z
Si Si1 0.994792 0.000000 0.500000
Si Si2 0.178718 0.931414 0.320556
Si Si3 0.500000 0.712445 0.750000
Si Si4 0.165303 0.500000 0.000000
Si Si5 0.696154 0.433268 0.119208
Si Si6 0.706628 0.877959 0.617304
O O1 0.069789 0.999571 0.392107
O O2 0.917701 0.255077 0.507449
O O3 0.269456 0.131499 0.370617
O O4 0.200324 0.995980 0.196823
O O5 0.207829 0.629297 0.339510
O O6 0.417407 0.532421 0.682949
O O7 0.585491 0.872776 0.674477
O O8 0.248385 0.583049 0.904528
O O9 0.677288 0.500000 0.000000
O O10 0.698700 0.000000 0.500000
#
# Coordination Sequence:
#
# PCOD9311442 Si02
#       6
#     2   4   2   2   4   4
#     4  12  24  52  80 112 146 216 252 320 402 444
#     4  11  25  46  79 109 151 194 264 313 374 467
#     4  10  28  42  80 106 148 212 246 308 406 458
#     4  12  28  50  76 110 164 192 260 328 380 468
#     4  11  22  43  70 112 146 189 251 325 361 461
#     4  11  28  54  72 118 159 202 257 326 391 470
#
# _framework density 23.439308
#
# number of rings (size 3 to 8) (size 9 to 14) (size 15 to 20)
#    0.000    0.889    3.333    1.333    7.778    8.000 
#    4.000    0.000    0.000    0.000    0.000    0.000 
#    0.000    0.000    0.000    0.000    0.000    0.000 
#
# Total GULP energy -100518.951938 kJ/mol
# GULP energy per Si atom -5584.386219 kJ/mol
# Density = 2.338596 g / cm^3
# Si number density = 23.439308 Si / 1000 Ang^3
#
#
#
# Elastic Constant Matrix: (Units=GPa)
#
#
# Indices 1 2 3 4 5 6 
#
# 1 134.2989 25.6819 60.9398 0.0000 0.0000 0.0000
# 2 25.6819 81.3830 38.7497 0.0000 0.0000 0.0000
# 3 60.9398 38.7497 189.3314 0.0000 0.0000 0.0000
# 4 0.0000 0.0000 0.0000 90.9358 0.0000 0.0000
# 5 0.0000 0.0000 0.0000 0.0000 42.1168 0.0000
# 6 0.0000 0.0000 0.0000 0.0000 0.0000 23.6710
#
#
#
# Elastic Compliance Matrix: (Units=1/GPa)
#
#
# Indices 1 2 3 4 5 6 
#
# 1 0.008904 -0.001601 -0.002538 0.000000 0.000000 0.000000
# 2 -0.001601 0.013902 -0.002330 0.000000 0.000000 0.000000
# 3 -0.002538 -0.002330 0.006576 0.000000 0.000000 0.000000
# 4 0.000000 0.000000 0.000000 0.010997 0.000000 0.000000
# 5 0.000000 0.000000 0.000000 0.000000 0.023743 0.000000
# 6 0.000000 0.000000 0.000000 0.000000 0.000000 0.042246
#
#
# Mechanical properties :
#
#
# Convention : Reuss Voigt Hill
#
# Bulk Modulus (GPa) = 60.81598 72.86179 66.83889
# Shear Modulus (GPa) = 40.06807 49.98752 45.02779
#
# Velocity S-wave (km/s) = 4.13902 4.62306 4.38772
# Velocity P-wave (km/s) = 6.98888 7.72332 7.36526
#
# Compressibility (1/GPa) = 0.01644305
#
# Stress axis : x y z
#
# Youngs Moduli (GPa) = 112.30870 71.93071 152.07826
#
# Poissons Ratio (x) = 0.11518 0.38600
# Poissons Ratio (y) = 0.17984 0.35433
# Poissons Ratio (z) = 0.28506 0.16759
#
# Static dielectric constant tensor:
#      x y z
#    x 1.878230 0.000000 0.000000 
#    y 0.000000 1.899850 0.000000 
#    z 0.000000 0.000000 1.947090 
# 
# From -- ./inp_files/5874.got.cif
#   From: 2010.05.17/outbox.cif.g08.bks.cpg/sg17_3_cif.got.tgz:5874.got - 2010.06.03 22:34:06.
