data_PCOD9311757
_publ_section_title
;
Structure prediction by ZEFSAII (Michael W. Deem and Ramdas Pophale) SiO2 
 PCOD9311757
Probable space group: P 21 21 2
;
_chemical_formula_sum "Si O2"
_cell_formula_units_Z 28
_cell_length_a 13.532687
_cell_length_b 9.329438
_cell_length_c 8.269477
_cell_angle_alpha 90.000000
_cell_angle_beta 90.000000
_cell_angle_gamma 90.000000
_cell_volume 1044.041023
_symmetry_space_group_name_H-M "P 21 21 2"
_symmetry_group_IT_number 18
_symmetry_cell_setting 'orthorhombic'
loop_
_space_group_symop_operation_xyz
x,y,z
-x,-y,z
1/2+x,1/2-y,-z
1/2-x,1/2+y,-z
loop_
_atom_site_type_symbol
_atom_site_label
_atom_site_fract_x
_atom_site_fract_y
_atom_site_fract_z
Si Si1 0.427157 0.773095 0.231490
Si Si2 0.795900 0.766834 0.217975
Si Si3 0.155515 0.947742 0.356855
Si Si4 0.895602 0.271139 0.568320
Si Si5 0.148022 0.434328 0.454884
Si Si6 0.641232 0.741126 0.931840
Si Si7 0.500000 0.500000 0.083038
Si Si8 0.000000 0.500000 0.005965
O O1 0.543407 0.781858 0.269914
O O2 0.383818 0.821739 0.404370
O O3 0.421871 0.606917 0.176890
O O4 0.421516 0.900734 0.100519
O O5 0.713685 0.761745 0.359925
O O6 0.859252 0.632052 0.276881
O O7 0.733770 0.763603 0.053628
O O8 0.857333 0.910803 0.250902
O O9 0.074308 0.867613 0.465186
O O10 0.242288 0.978368 0.484529
O O11 0.186206 0.818596 0.235584
O O12 0.909397 0.416921 0.472109
O O13 0.567846 0.612534 0.986862
O O14 0.571524 0.879715 0.916783
#
# Coordination Sequence:
#
# PCOD9311757 Si02
#       8
#     4   4   4   4   4   4   2   2
#     4  11  19  38  66  97 121 174 225 264 322 381
#     4  10  21  40  65  92 130 166 212 262 323 394
#     4  10  24  40  62  94 133 161 207 279 326 381
#     4  10  19  40  63  93 128 163 220 264 315 383
#     4  10  21  37  66  96 125 169 212 270 321 389
#     4  11  23  45  64  95 132 176 220 265 333 391
#     4  10  24  36  66  90 128 176 222 264 312 404
#     4  10  18  40  68  86 124 172 226 268 308 402
#
# _framework density 26.818871999999999
#
# number of rings (size 3 to 8) (size 9 to 14) (size 15 to 20)
#    0.000    1.714    4.286    0.857    2.000    4.571 
#    5.143    1.429    0.000    0.000    0.000    0.000 
#    0.000    0.000    0.000    0.000    0.000    0.000 
#
# Total GULP energy -156263.105445 kJ/mol
# GULP energy per Si atom -5580.825194 kJ/mol
# Density = 2.675783 g / cm^3
# Si number density = 26.818872 Si / 1000 Ang^3
#
#
#
# Elastic Constant Matrix: (Units=GPa)
#
#
# Indices 1 2 3 4 5 6 
#
# 1 43.6276 35.9444 9.4592 0.0000 0.0000 0.0000
# 2 35.9444 180.7939 45.8434 0.0000 0.0000 0.0000
# 3 9.4592 45.8434 79.3138 0.0000 0.0000 0.0000
# 4 0.0000 0.0000 0.0000 43.5743 0.0000 0.0000
# 5 0.0000 0.0000 0.0000 0.0000 29.9807 0.0000
# 6 0.0000 0.0000 0.0000 0.0000 0.0000 23.3086
#
#
#
# Elastic Compliance Matrix: (Units=1/GPa)
#
#
# Indices 1 2 3 4 5 6 
#
# 1 0.027413 -0.005415 -0.000140 0.000000 0.000000 0.000000
# 2 -0.005415 0.007551 -0.003718 0.000000 0.000000 0.000000
# 3 -0.000140 -0.003718 0.014774 0.000000 0.000000 0.000000
# 4 0.000000 0.000000 0.000000 0.022949 0.000000 0.000000
# 5 0.000000 0.000000 0.000000 0.000000 0.033355 0.000000
# 6 0.000000 0.000000 0.000000 0.000000 0.000000 0.042903
#
#
# Mechanical properties :
#
#
# Convention : Reuss Voigt Hill
#
# Bulk Modulus (GPa) = 32.05976 54.02547 43.04262
# Shear Modulus (GPa) = 28.10782 33.53863 30.82323
#
# Velocity S-wave (km/s) = 3.24089 3.54016 3.39383
# Velocity P-wave (km/s) = 5.09751 6.07443 5.60728
#
# Compressibility (1/GPa) = 0.03119175
#
# Stress axis : x y z
#
# Youngs Moduli (GPa) = 36.47963 132.44101 67.68619
#
# Poissons Ratio (x) = 0.71711 0.00945
# Poissons Ratio (y) = 0.19752 0.25169
# Poissons Ratio (z) = 0.00510 0.49248
#
# Static dielectric constant tensor:
#      x y z
#    x 2.138390 0.000000 0.000000 
#    y 0.000000 2.175510 0.000000 
#    z 0.000000 0.000000 2.113610 
# 
# From -- ./inp_files/4561.got.cif
#   From: 2010.05.17/outbox.cif.g08.bks.cpg/sg18_3_cif.got.tgz:4561.got - 2010.06.03 22:40:56.
