data_PCOD9311269
_publ_section_title
;
Structure prediction by ZEFSAII (Michael W. Deem and Ramdas Pophale) SiO2 
 PCOD9311269
Probable space group: P 2 2 21
;
_chemical_formula_sum "Si O2"
_cell_formula_units_Z 24
_cell_length_a 6.167875
_cell_length_b 8.913959
_cell_length_c 19.851444
_cell_angle_alpha 90.000000
_cell_angle_beta 90.000000
_cell_angle_gamma 90.000000
_cell_volume 1091.436061
_symmetry_space_group_name_H-M "P 2 2 21"
_symmetry_group_IT_number 17
_symmetry_cell_setting 'orthorhombic'
loop_
_space_group_symop_operation_xyz
x,y,z
-x,-y,1/2+z
x,-y,-z
-x,y,1/2-z
loop_
_atom_site_type_symbol
_atom_site_label
_atom_site_fract_x
_atom_site_fract_y
_atom_site_fract_z
Si Si1 0.170465 0.500000 0.000000
Si Si2 0.507661 0.949161 0.930148
Si Si3 0.851901 0.293592 0.073031
Si Si4 0.222492 0.238787 0.170111
Si Si5 0.637932 0.182203 0.817973
Si Si6 0.000000 0.991339 0.250000
Si Si7 0.519128 0.504465 0.373136
O O1 0.310652 0.538984 0.066432
O O2 0.017131 0.360375 0.019047
O O3 0.729300 0.858738 0.945355
O O4 0.351082 0.837301 0.891068
O O5 0.552351 0.084555 0.880018
O O6 0.408590 0.000000 0.000000
O O7 0.668354 0.414191 0.088787
O O8 0.984497 0.273951 0.142183
O O9 0.354198 0.393568 0.179336
O O10 0.185092 0.108086 0.224318
O O11 0.500000 0.156480 0.750000
O O12 0.879883 0.119381 0.802438
O O13 0.592348 0.353521 0.838478
#
# Coordination Sequence:
#
# PCOD9311269 Si02
#       7
#     2   4   4   4   4   2   4
#     4  10  22  42  72 104 146 180 242 298 368 438
#     4  11  25  44  72 104 142 184 240 299 374 434
#     4  10  22  43  68 103 138 191 236 298 359 446
#     4  10  23  46  71 100 137 196 238 289 362 448
#     4  12  27  48  70 106 148 188 239 317 368 435
#     4  12  24  48  76 100 148 196 248 296 370 448
#     4  10  25  44  71 105 143 188 239 304 369 430
#
# _framework density 21.989377999999999
#
# number of rings (size 3 to 8) (size 9 to 14) (size 15 to 20)
#    0.000    1.333    3.333    0.500    9.333    4.667 
#    0.000    0.000    0.000    0.000    0.000    0.000 
#    0.000    0.000    0.000    0.000    0.000    0.000 
#
# Total GULP energy -134032.215253 kJ/mol
# GULP energy per Si atom -5584.675636 kJ/mol
# Density = 2.193933 g / cm^3
# Si number density = 21.989378 Si / 1000 Ang^3
#
#
#
# Elastic Constant Matrix: (Units=GPa)
#
#
# Indices 1 2 3 4 5 6 
#
# 1 69.6716 41.7231 17.4398 0.0000 0.0000 0.0000
# 2 41.7231 151.6876 48.3642 0.0000 0.0000 0.0000
# 3 17.4398 48.3642 80.2902 0.0000 0.0000 0.0000
# 4 0.0000 0.0000 0.0000 34.2471 0.0000 0.0000
# 5 0.0000 0.0000 0.0000 0.0000 30.6099 0.0000
# 6 0.0000 0.0000 0.0000 0.0000 0.0000 23.2294
#
#
#
# Elastic Compliance Matrix: (Units=1/GPa)
#
#
# Indices 1 2 3 4 5 6 
#
# 1 0.017262 -0.004397 -0.001101 0.000000 0.000000 0.000000
# 2 -0.004397 0.009280 -0.004635 0.000000 0.000000 0.000000
# 3 -0.001101 -0.004635 0.015486 0.000000 0.000000 0.000000
# 4 0.000000 0.000000 0.000000 0.029200 0.000000 0.000000
# 5 0.000000 0.000000 0.000000 0.000000 0.032669 0.000000
# 6 0.000000 0.000000 0.000000 0.000000 0.000000 0.043049
#
#
# Mechanical properties :
#
#
# Convention : Reuss Voigt Hill
#
# Bulk Modulus (GPa) = 45.95143 57.41153 51.68148
# Shear Modulus (GPa) = 28.65922 30.55875 29.60899
#
# Velocity S-wave (km/s) = 3.61407 3.73192 3.67347
# Velocity P-wave (km/s) = 6.19337 6.68843 6.44565
#
# Compressibility (1/GPa) = 0.02176211
#
# Stress axis : x y z
#
# Youngs Moduli (GPa) = 57.93147 107.76234 64.57559
#
# Poissons Ratio (x) = 0.47384 0.07108
# Poissons Ratio (y) = 0.25473 0.29929
# Poissons Ratio (z) = 0.06377 0.49945
#
# Static dielectric constant tensor:
#      x y z
#    x 1.814810 0.000000 0.000000 
#    y 0.000000 1.831340 0.000000 
#    z 0.000000 0.000000 1.818840 
# 
# From -- ./inp_files/10438.got.cif
#   From: 2010.05.17/outbox.cif.g08.bks.cpg/sg17_6_cif.got.tgz:10438.got - 2010.06.03 22:34:06.
