data_PCOD9311730
_publ_section_title
;
Structure prediction by ZEFSAII (Michael W. Deem and Ramdas Pophale) SiO2 
 PCOD9311730
Probable space group: P 21 21 2
;
_chemical_formula_sum "Si O2"
_cell_formula_units_Z 16
_cell_length_a 4.933653
_cell_length_b 8.368934
_cell_length_c 21.159963
_cell_angle_alpha 90.000000
_cell_angle_beta 90.000000
_cell_angle_gamma 90.000000
_cell_volume 873.682522
_symmetry_space_group_name_H-M "P 21 21 2"
_symmetry_group_IT_number 18
_symmetry_cell_setting 'orthorhombic'
loop_
_space_group_symop_operation_xyz
x,y,z
-x,-y,z
1/2+x,1/2-y,-z
1/2-x,1/2+y,-z
loop_
_atom_site_type_symbol
_atom_site_label
_atom_site_fract_x
_atom_site_fract_y
_atom_site_fract_z
Si Si1 0.500000 0.500000 0.766730
Si Si2 0.371547 0.163591 0.022745
Si Si3 0.266117 0.608692 0.646792
Si Si4 0.000000 0.500000 0.853392
Si Si5 0.111107 0.820797 0.535017
O O1 0.388851 0.632570 0.716979
O O2 0.749254 0.550918 0.810176
O O3 0.399345 0.136850 0.097996
O O4 0.500000 0.000000 0.995622
O O5 0.567355 0.302563 0.997851
O O6 0.500000 0.500000 0.614209
O O7 0.199125 0.759290 0.604222
O O8 0.000000 0.500000 0.653666
O O9 0.372309 0.793691 0.490858
O O10 0.000000 0.000000 0.536105
#
# Coordination Sequence:
#
# PCOD9311730 Si02
#       5
#     2   4   4   2   4
#     4  10  18  36  56  88 106 160 200 240 268 356
#     4  10  20  34  56  88 122 151 192 238 294 334
#     4  10  20  36  59  82 112 149 196 244 288 334
#     4  10  20  32  62  86 116 152 204 230 280 352
#     4  12  24  38  59  88 121 148 191 242 306 356
#
# _framework density 18.313289999999999
#
# number of rings (size 3 to 8) (size 9 to 14) (size 15 to 20)
#    1.500    0.000    1.250    6.750    0.000    0.000 
#    0.000    0.000    0.000    6.000    6.500    0.000 
#    0.000    0.000    0.000    0.000    0.000    0.000 
#
# Total GULP energy -89128.870142 kJ/mol
# GULP energy per Si atom -5570.554384 kJ/mol
# Density = 1.827161 g / cm^3
# Si number density = 18.313290 Si / 1000 Ang^3
#
#
#
# Elastic Constant Matrix: (Units=GPa)
#
#
# Indices 1 2 3 4 5 6 
#
# 1 116.8846 13.3865 41.0698 0.0000 0.0000 0.0000
# 2 13.3865 59.5711 27.4949 0.0000 0.0000 0.0000
# 3 41.0698 27.4949 130.7179 0.0000 0.0000 0.0000
# 4 0.0000 0.0000 0.0000 1.3343 0.0000 0.0000
# 5 0.0000 0.0000 0.0000 0.0000 69.8566 0.0000
# 6 0.0000 0.0000 0.0000 0.0000 0.0000 29.8586
#
#
#
# Elastic Compliance Matrix: (Units=1/GPa)
#
#
# Indices 1 2 3 4 5 6 
#
# 1 0.009656 -0.000852 -0.002855 0.000000 0.000000 0.000000
# 2 -0.000852 0.018667 -0.003659 0.000000 0.000000 0.000000
# 3 -0.002855 -0.003659 0.009316 0.000000 0.000000 0.000000
# 4 0.000000 0.000000 0.000000 0.749453 0.000000 0.000000
# 5 0.000000 0.000000 0.000000 0.000000 0.014315 0.000000
# 6 0.000000 0.000000 0.000000 0.000000 0.000000 0.033491
#
#
# Mechanical properties :
#
#
# Convention : Reuss Voigt Hill
#
# Bulk Modulus (GPa) = 43.65198 52.34177 47.99688
# Shear Modulus (GPa) = 5.83250 35.22474 20.52862
#
# Velocity S-wave (km/s) = 1.78655 4.39048 3.35172
# Velocity P-wave (km/s) = 5.30506 7.37191 6.42218
#
# Compressibility (1/GPa) = 0.02290847
#
# Stress axis : x y z
#
# Youngs Moduli (GPa) = 103.56188 53.57106 107.33722
#
# Poissons Ratio (x) = 0.04566 0.30640
# Poissons Ratio (y) = 0.08827 0.39270
# Poissons Ratio (z) = 0.29562 0.19599
#
# Static dielectric constant tensor:
#      x y z
#    x 1.646130 0.000000 0.000000 
#    y 0.000000 1.636160 0.000000 
#    z 0.000000 0.000000 1.659750 
# 
# From -- ./inp_files/7049.got.cif
#   From: 2010.05.17/outbox.cif.g08.bks.cpg/sg18_4_cif.got.tgz:7049.got - 2010.06.03 22:40:56.
