data_PCOD9311364
_publ_section_title
;
Structure prediction by ZEFSAII (Michael W. Deem and Ramdas Pophale) SiO2 
 PCOD9311364
Probable space group: P 2 2 21
;
_chemical_formula_sum "Si O2"
_cell_formula_units_Z 20
_cell_length_a 5.242676
_cell_length_b 5.280932
_cell_length_c 26.321319
_cell_angle_alpha 90.000000
_cell_angle_beta 90.000000
_cell_angle_gamma 90.000000
_cell_volume 728.737709
_symmetry_space_group_name_H-M "P 2 2 21"
_symmetry_group_IT_number 17
_symmetry_cell_setting 'orthorhombic'
loop_
_space_group_symop_operation_xyz
x,y,z
-x,-y,1/2+z
x,-y,-z
-x,y,1/2-z
loop_
_atom_site_type_symbol
_atom_site_label
_atom_site_fract_x
_atom_site_fract_y
_atom_site_fract_z
Si Si1 0.894326 0.878428 0.443616
Si Si2 0.849100 0.566757 0.829891
Si Si3 0.500000 0.350424 0.750000
Si Si4 0.400276 0.840113 0.581802
Si Si5 0.816991 0.500000 0.000000
Si Si6 0.879001 0.068929 0.693234
O O1 0.987213 0.595305 0.456343
O O2 0.873090 0.000000 0.500000
O O3 0.640742 0.972754 0.415863
O O4 0.144231 0.999042 0.419684
O O5 0.707647 0.530231 0.775927
O O6 0.639700 0.645404 0.871910
O O7 0.993034 0.301243 0.837340
O O8 0.054168 0.792743 0.826612
O O9 0.594602 0.164094 0.705134
O O10 0.373279 0.693451 0.527973
O O11 0.000000 0.076440 0.750000
#
# Coordination Sequence:
#
# PCOD9311364 Si02
#       6
#     4   4   2   4   2   4
#     4  10  23  46  71 105 143 191 252 307 380 457
#     4  11  26  45  72 112 150 194 259 315 393 469
#     4  10  24  50  80 102 156 206 248 328 390 466
#     4  11  26  45  72 113 147 196 257 321 387 472
#     4  10  24  50  78 100 152 206 248 326 394 464
#     4  10  23  46  70 105 142 194 247 306 378 457
#
# _framework density 27.444717000000001
#
# number of rings (size 3 to 8) (size 9 to 14) (size 15 to 20)
#    0.000    1.600    0.000    3.600    5.600   14.400 
#    0.000    2.000    0.000    0.000    0.000    0.000 
#    0.000    0.000    0.000    0.000    0.000    0.000 
#
# Total GULP energy -112011.256879 kJ/mol
# GULP energy per Si atom -5600.562844 kJ/mol
# Density = 2.738225 g / cm^3
# Si number density = 27.444717 Si / 1000 Ang^3
#
#
#
# Elastic Constant Matrix: (Units=GPa)
#
#
# Indices 1 2 3 4 5 6 
#
# 1 177.3610 68.8248 25.5328 0.0000 0.0000 0.0000
# 2 68.8248 167.0058 36.8913 0.0000 0.0000 0.0000
# 3 25.5328 36.8913 58.4072 0.0000 0.0000 0.0000
# 4 0.0000 0.0000 0.0000 54.8032 0.0000 0.0000
# 5 0.0000 0.0000 0.0000 0.0000 25.2234 0.0000
# 6 0.0000 0.0000 0.0000 0.0000 0.0000 40.6412
#
#
#
# Elastic Compliance Matrix: (Units=1/GPa)
#
#
# Indices 1 2 3 4 5 6 
#
# 1 0.006809 -0.002497 -0.001399 0.000000 0.000000 0.000000
# 2 -0.002497 0.007874 -0.003882 0.000000 0.000000 0.000000
# 3 -0.001399 -0.003882 0.020185 0.000000 0.000000 0.000000
# 4 0.000000 0.000000 0.000000 0.018247 0.000000 0.000000
# 5 0.000000 0.000000 0.000000 0.000000 0.039646 0.000000
# 6 0.000000 0.000000 0.000000 0.000000 0.000000 0.024606
#
#
# Mechanical properties :
#
#
# Convention : Reuss Voigt Hill
#
# Bulk Modulus (GPa) = 51.78310 73.91908 62.85109
# Shear Modulus (GPa) = 35.87836 42.23523 39.05680
#
# Velocity S-wave (km/s) = 3.61958 3.92716 3.77650
# Velocity P-wave (km/s) = 6.03138 6.89607 6.47817
#
# Compressibility (1/GPa) = 0.01931132
#
# Stress axis : x y z
#
# Youngs Moduli (GPa) = 146.87463 126.99528 49.54182
#
# Poissons Ratio (x) = 0.31707 0.06933
# Poissons Ratio (y) = 0.36671 0.19233
# Poissons Ratio (z) = 0.20553 0.49301
#
# Static dielectric constant tensor:
#      x y z
#    x 2.124720 0.000000 0.000000 
#    y 0.000000 2.154620 0.000000 
#    z 0.000000 0.000000 2.280990 
# 
# From -- ./inp_files/11045.got.cif
#   From: 2010.05.17/outbox.cif.g08.bks.cpg/sg17_6_cif.got.tgz:11045.got - 2010.06.03 22:34:06.
