data_PCOD9311770
_publ_section_title
;
Structure prediction by ZEFSAII (Michael W. Deem and Ramdas Pophale) SiO2 
 PCOD9311770
Probable space group: P 21 21 2
;
_chemical_formula_sum "Si O2"
_cell_formula_units_Z 24
_cell_length_a 5.434768
_cell_length_b 12.320947
_cell_length_c 17.445421
_cell_angle_alpha 90.000000
_cell_angle_beta 90.000000
_cell_angle_gamma 90.000000
_cell_volume 1168.171357
_symmetry_space_group_name_H-M "P 21 21 2"
_symmetry_group_IT_number 18
_symmetry_cell_setting 'orthorhombic'
loop_
_space_group_symop_operation_xyz
x,y,z
-x,-y,z
1/2+x,1/2-y,-z
1/2-x,1/2+y,-z
loop_
_atom_site_type_symbol
_atom_site_label
_atom_site_fract_x
_atom_site_fract_y
_atom_site_fract_z
Si Si1 0.426758 0.676008 0.772296
Si Si2 0.000197 0.747533 0.397579
Si Si3 0.000879 0.870863 0.557395
Si Si4 0.085383 0.172833 0.955118
Si Si5 0.085593 0.328856 0.093522
Si Si6 0.926791 0.612745 0.847972
O O1 0.479775 0.693566 0.683611
O O2 0.423191 0.790782 0.819017
O O3 0.659326 0.611595 0.808185
O O4 0.154467 0.629523 0.788939
O O5 0.998567 0.830607 0.469050
O O6 0.754459 0.674883 0.407105
O O7 0.254679 0.679859 0.404422
O O8 0.000000 0.000000 0.562234
O O9 0.335449 0.116236 0.931910
O O10 0.078574 0.283405 0.903480
O O11 0.835235 0.115540 0.932451
O O12 0.085449 0.216593 0.041750
O O13 0.000000 0.500000 0.888123
#
# Coordination Sequence:
#
# PCOD9311770 Si02
#       6
#     4   4   4   4   4   4
#     4  10  19  32  49  73 102 130 169 216 256 308
#     4  10  21  37  57  84 109 136 179 217 258 322
#     4  10  21  38  59  80 107 142 175 214 263 315
#     4   8  14  25  40  61  87 120 162 197 234 298
#     4   8  14  25  43  63  85 119 160 200 243 286
#     4  10  19  29  44  69 103 139 170 210 264 307
#
# _framework density 20.544933
#
# number of rings (size 3 to 8) (size 9 to 14) (size 15 to 20)
#    0.000    2.667    0.000    2.000    0.000    1.333 
#    0.000    0.000    0.000    2.000    0.000    0.000 
#    0.000    0.000    0.000    0.000    0.000    0.000 
#
# Total GULP energy -133834.053538 kJ/mol
# GULP energy per Si atom -5576.418897 kJ/mol
# Density = 2.049817 g / cm^3
# Si number density = 20.544933 Si / 1000 Ang^3
#
#
#
# Elastic Constant Matrix: (Units=GPa)
#
#
# Indices 1 2 3 4 5 6 
#
# 1 198.0647 17.3368 15.3141 0.0000 0.0000 0.0000
# 2 17.3368 53.4226 -4.6515 0.0000 0.0000 0.0000
# 3 15.3141 -4.6515 65.0941 0.0000 0.0000 0.0000
# 4 0.0000 0.0000 0.0000 -5.9477 0.0000 0.0000
# 5 0.0000 0.0000 0.0000 0.0000 27.3821 0.0000
# 6 0.0000 0.0000 0.0000 0.0000 0.0000 18.1672
#
#
#
# Elastic Compliance Matrix: (Units=1/GPa)
#
#
# Indices 1 2 3 4 5 6 
#
# 1 0.005317 -0.001846 -0.001383 0.000000 0.000000 0.000000
# 2 -0.001846 0.019477 0.001826 0.000000 0.000000 0.000000
# 3 -0.001383 0.001826 0.015818 0.000000 0.000000 0.000000
# 4 0.000000 0.000000 0.000000 -0.168131 0.000000 0.000000
# 5 0.000000 0.000000 0.000000 0.000000 0.036520 0.000000
# 6 0.000000 0.000000 0.000000 0.000000 0.000000 0.055044
#
#
# Mechanical properties :
#
#
# Convention : Reuss Voigt Hill
#
# Bulk Modulus (GPa) = 26.45036 41.39780 33.92408
# Shear Modulus (GPa) = -243.34662 27.15912 -108.09375
#
# Velocity S-wave (km/s) = -10.89510 3.63979 -7.26137
# Velocity P-wave (km/s) = 12.05689 6.15286 7.33181
#
# Compressibility (1/GPa) = 0.03780667
#
# Stress axis : x y z
#
# Youngs Moduli (GPa) = 188.06325 51.34333 63.21827
#
# Poissons Ratio (x) = 0.09478 0.08742
# Poissons Ratio (y) = 0.34717 -0.11544
# Poissons Ratio (z) = 0.26007 -0.09376
#
# Static dielectric constant tensor:
#      x y z
#    x 1.827150 0.000000 0.000000 
#    y 0.000000 1.622330 0.000000 
#    z 0.000000 0.000000 1.696420 
# 
# From -- ./inp_files/7146.got.cif
#   From: 2010.05.17/outbox.cif.g08.bks.cpg/sg18_4_cif.got.tgz:7146.got - 2010.06.03 22:40:56.
