data_PCOD9311466
_publ_section_title
;
Structure prediction by ZEFSAII (Michael W. Deem and Ramdas Pophale) SiO2 
 PCOD9311466
Probable space group: P 2 2 21
;
_chemical_formula_sum "Si O2"
_cell_formula_units_Z 16
_cell_length_a 7.357252
_cell_length_b 9.932274
_cell_length_c 10.037858
_cell_angle_alpha 90.000000
_cell_angle_beta 90.000000
_cell_angle_gamma 90.000000
_cell_volume 733.508872
_symmetry_space_group_name_H-M "P 2 2 21"
_symmetry_group_IT_number 17
_symmetry_cell_setting 'orthorhombic'
loop_
_space_group_symop_operation_xyz
x,y,z
-x,-y,1/2+z
x,-y,-z
-x,y,1/2-z
loop_
_atom_site_type_symbol
_atom_site_label
_atom_site_fract_x
_atom_site_fract_y
_atom_site_fract_z
Si Si1 0.247919 0.658880 0.510162
Si Si2 0.711123 0.421451 0.290206
Si Si3 0.537145 0.123232 0.598933
Si Si4 0.158475 0.683170 0.076697
O O1 0.299472 0.500000 0.500000
O O2 0.208527 0.333974 0.330858
O O3 0.402768 0.756279 0.451977
O O4 0.056711 0.684751 0.438888
O O5 0.500000 0.425893 0.250000
O O6 0.757653 0.360219 0.433444
O O7 0.782541 0.573334 0.312593
O O8 0.500000 0.083405 0.750000
O O9 0.742558 0.177975 0.603151
O O10 0.514503 0.000000 0.500000
#
# Coordination Sequence:
#
# PCOD9311466 Si02
#       4
#     4   4   4   4
#     4  12  24  43  76 108 144 186 239 306 369 430
#     4  11  21  40  70 111 142 186 230 299 368 423
#     4  12  30  51  72 103 148 200 246 300 362 438
#     4  11  24  43  70 108 147 182 238 303 363 433
#
# _framework density 21.812961000000001
#
# number of rings (size 3 to 8) (size 9 to 14) (size 15 to 20)
#    0.000    0.500    5.000    4.500    3.500    4.000 
#    0.000    0.000    0.000    0.000    0.000    0.000 
#    0.000    0.000    0.000    0.000    0.000    0.000 
#
# Total GULP energy -89472.495595 kJ/mol
# GULP energy per Si atom -5592.030975 kJ/mol
# Density = 2.176331 g / cm^3
# Si number density = 21.812961 Si / 1000 Ang^3
#
#
#
# Elastic Constant Matrix: (Units=GPa)
#
#
# Indices 1 2 3 4 5 6 
#
# 1 105.9106 34.8605 30.4218 0.0000 0.0000 0.0000
# 2 34.8605 97.3869 40.1229 0.0000 0.0000 0.0000
# 3 30.4218 40.1229 155.6748 0.0000 0.0000 0.0000
# 4 0.0000 0.0000 0.0000 32.1007 0.0000 0.0000
# 5 0.0000 0.0000 0.0000 0.0000 36.7486 0.0000
# 6 0.0000 0.0000 0.0000 0.0000 0.0000 13.0544
#
#
#
# Elastic Compliance Matrix: (Units=1/GPa)
#
#
# Indices 1 2 3 4 5 6 
#
# 1 0.010920 -0.003390 -0.001260 0.000000 0.000000 0.000000
# 2 -0.003390 0.012540 -0.002570 0.000000 0.000000 0.000000
# 3 -0.001260 -0.002570 0.007332 0.000000 0.000000 0.000000
# 4 0.000000 0.000000 0.000000 0.031152 0.000000 0.000000
# 5 0.000000 0.000000 0.000000 0.000000 0.027212 0.000000
# 6 0.000000 0.000000 0.000000 0.000000 0.000000 0.076603
#
#
# Mechanical properties :
#
#
# Convention : Reuss Voigt Hill
#
# Bulk Modulus (GPa) = 61.15048 63.30921 62.22985
# Shear Modulus (GPa) = 26.93259 33.28521 30.10890
#
# Velocity S-wave (km/s) = 3.51765 3.91056 3.71930
# Velocity P-wave (km/s) = 6.67783 7.03397 6.85821
#
# Compressibility (1/GPa) = 0.01635310
#
# Stress axis : x y z
#
# Youngs Moduli (GPa) = 91.57848 79.74261 136.38399
#
# Poissons Ratio (x) = 0.27029 0.17188
# Poissons Ratio (y) = 0.31041 0.35047
# Poissons Ratio (z) = 0.11542 0.20492
#
# Static dielectric constant tensor:
#      x y z
#    x 1.833230 0.000000 0.000000 
#    y 0.000000 1.781120 0.000000 
#    z 0.000000 0.000000 1.933890 
# 
# From -- ./inp_files/6267.got.cif
#   From: 2010.05.17/outbox.cif.g08.bks.cpg/sg17_4_cif.got.tgz:6267.got - 2010.06.03 22:34:06.
