data_PCOD9311285
_publ_section_title
;
Structure prediction by ZEFSAII (Michael W. Deem and Ramdas Pophale) SiO2 
 PCOD9311285
Probable space group: P 2 2 21
;
_chemical_formula_sum "Si O2"
_cell_formula_units_Z 12
_cell_length_a 5.277981
_cell_length_b 17.700813
_cell_length_c 5.113188
_cell_angle_alpha 90.000000
_cell_angle_beta 90.000000
_cell_angle_gamma 90.000000
_cell_volume 477.697312
_symmetry_space_group_name_H-M "P 2 2 21"
_symmetry_group_IT_number 17
_symmetry_cell_setting 'orthorhombic'
loop_
_space_group_symop_operation_xyz
x,y,z
-x,-y,1/2+z
x,-y,-z
-x,y,1/2-z
loop_
_atom_site_type_symbol
_atom_site_label
_atom_site_fract_x
_atom_site_fract_y
_atom_site_fract_z
Si Si1 0.168387 0.000000 0.500000
Si Si2 0.253955 0.164982 0.574303
Si Si3 0.752975 0.671645 0.066930
Si Si4 0.500000 0.449757 0.250000
O O1 0.288123 0.917716 0.553682
O O2 0.000000 0.987032 0.250000
O O3 0.500000 0.170956 0.750000
O O4 0.241642 0.245375 0.428948
O O5 0.000000 0.164793 0.750000
O O6 0.500000 0.667980 0.250000
O O7 0.000000 0.663856 0.250000
O O8 0.717670 0.605586 0.858272
O O9 0.577378 0.500000 0.500000
#
# Coordination Sequence:
#
# PCOD9311285 Si02
#       4
#     2   4   4   2
#     4  10  22  44  66 106 144 190 242 296 354 424
#     4   9  20  42  70 102 144 190 242 295 360 432
#     4  10  23  50  76 109 150 197 248 308 378 454
#     4  12  26  54  78 118 148 200 256 322 388 468
#
# _framework density 25.120511
#
# number of rings (size 3 to 8) (size 9 to 14) (size 15 to 20)
#    0.000    2.000    1.667    0.000    0.000    6.667 
#   39.000    0.000    0.000    0.000    0.000    0.000 
#    0.000    0.000    0.000    0.000    0.000    0.000 
#
# Total GULP energy -67009.228806 kJ/mol
# GULP energy per Si atom -5584.102400 kJ/mol
# Density = 2.506334 g / cm^3
# Si number density = 25.120511 Si / 1000 Ang^3
#
#
#
# Elastic Constant Matrix: (Units=GPa)
#
#
# Indices 1 2 3 4 5 6 
#
# 1 177.3855 37.2995 48.7641 0.0000 0.0000 0.0000
# 2 37.2995 295.9896 78.8396 0.0000 0.0000 0.0000
# 3 48.7641 78.8396 113.5190 0.0000 0.0000 0.0000
# 4 0.0000 0.0000 0.0000 1.4280 0.0000 0.0000
# 5 0.0000 0.0000 0.0000 0.0000 51.7443 0.0000
# 6 0.0000 0.0000 0.0000 0.0000 0.0000 22.4398
#
#
#
# Elastic Compliance Matrix: (Units=1/GPa)
#
#
# Indices 1 2 3 4 5 6 
#
# 1 0.006394 -0.000091 -0.002684 0.000000 0.000000 0.000000
# 2 -0.000091 0.004147 -0.002841 0.000000 0.000000 0.000000
# 3 -0.002684 -0.002841 0.011935 0.000000 0.000000 0.000000
# 4 0.000000 0.000000 0.000000 0.700269 0.000000 0.000000
# 5 0.000000 0.000000 0.000000 0.000000 0.019326 0.000000
# 6 0.000000 0.000000 0.000000 0.000000 0.000000 0.044564
#
#
# Mechanical properties :
#
#
# Convention : Reuss Voigt Hill
#
# Bulk Modulus (GPa) = 88.92809 101.85561 95.39185
# Shear Modulus (GPa) = 6.23742 43.25516 24.74629
#
# Velocity S-wave (km/s) = 1.57746 4.15409 3.14204
# Velocity P-wave (km/s) = 6.22859 7.97768 7.15677
#
# Compressibility (1/GPa) = 0.01124504
#
# Stress axis : x y z
#
# Youngs Moduli (GPa) = 156.38923 241.15970 83.78842
#
# Poissons Ratio (x) = 0.02194 0.22485
# Poissons Ratio (y) = 0.01423 0.23802
# Poissons Ratio (z) = 0.41969 0.68508
#
# Static dielectric constant tensor:
#      x y z
#    x 1.952010 0.000000 0.000000 
#    y 0.000000 2.181180 0.000000 
#    z 0.000000 0.000000 1.976480 
# 
# From -- ./inp_files/159.got.cif
#   From: 2010.05.17/outbox.cif.g08.bks.cpg/sg17_1_cif.got.tgz:159.got - 2010.06.03 22:34:06.
