data_PCOD9311267
_publ_section_title
;
Structure prediction by ZEFSAII (Michael W. Deem and Ramdas Pophale) SiO2 
 PCOD9311267
Probable space group: P 2 2 21
;
_chemical_formula_sum "Si O2"
_cell_formula_units_Z 32
_cell_length_a 11.393002
_cell_length_b 8.450880
_cell_length_c 15.510640
_cell_angle_alpha 90.000000
_cell_angle_beta 90.000000
_cell_angle_gamma 90.000000
_cell_volume 1493.378266
_symmetry_space_group_name_H-M "P 2 2 21"
_symmetry_group_IT_number 17
_symmetry_cell_setting 'orthorhombic'
loop_
_space_group_symop_operation_xyz
x,y,z
-x,-y,1/2+z
x,-y,-z
-x,y,1/2-z
loop_
_atom_site_type_symbol
_atom_site_label
_atom_site_fract_x
_atom_site_fract_y
_atom_site_fract_z
Si Si1 0.839279 0.835177 0.471607
Si Si2 0.275896 0.646139 0.627604
Si Si3 0.127370 0.053335 0.783772
Si Si4 0.218917 0.279060 0.642066
Si Si5 0.063139 0.686685 0.523142
Si Si6 0.381516 0.321507 0.023569
Si Si7 0.398300 0.825386 0.471458
Si Si8 0.629586 0.839202 0.714850
O O1 0.887359 0.869272 0.377401
O O2 0.746292 0.698025 0.482758
O O3 0.946796 0.786819 0.531954
O O4 0.782688 0.000000 0.500000
O O5 0.253689 0.461859 0.642061
O O6 0.145706 0.707950 0.605520
O O7 0.349187 0.698533 0.542287
O O8 0.337002 0.717081 0.709973
O O9 0.157403 0.200369 0.721747
O O10 0.000000 0.986167 0.750000
O O11 0.250095 0.948714 0.788300
O O12 0.137064 0.252477 0.558644
O O13 0.340825 0.194932 0.620754
O O14 0.041595 0.500000 0.500000
O O15 0.383016 0.255002 0.122699
O O16 0.420617 0.500000 0.000000
O O17 0.464893 0.203133 0.971347
O O18 0.367039 0.000000 0.500000
O O19 0.500000 0.902827 0.750000
#
# Coordination Sequence:
#
# PCOD9311267 Si02
#       8
#     4   4   4   4   4   4   4   4
#     4  12  25  44  67  98 147 190 237 291 375 437
#     4  10  22  42  71 103 136 181 244 292 352 425
#     4  12  27  48  71 109 149 192 248 306 368 447
#     4  10  22  42  72 103 134 183 237 298 344 432
#     4   9  20  41  67  99 134 182 238 289 351 421
#     4  12  27  46  68 100 146 194 236 303 378 446
#     4  11  22  41  71 101 139 183 234 296 359 426
#     4  12  27  47  71 105 147 190 244 308 365 441
#
# _framework density 21.427928000000001
#
# number of rings (size 3 to 8) (size 9 to 14) (size 15 to 20)
#    0.000    1.000    3.750    3.375    3.500    2.000 
#    0.000    1.250    0.000    0.000    0.000    0.000 
#    0.000    0.000    0.000    0.000    0.000    0.000 
#
# Total GULP energy -178345.785368 kJ/mol
# GULP energy per Si atom -5573.305793 kJ/mol
# Density = 2.137916 g / cm^3
# Si number density = 21.427928 Si / 1000 Ang^3
#
#
#
# Elastic Constant Matrix: (Units=GPa)
#
#
# Indices 1 2 3 4 5 6 
#
# 1 128.9047 34.9836 22.1241 0.0000 0.0000 0.0000
# 2 34.9836 61.5822 11.6410 0.0000 0.0000 0.0000
# 3 22.1241 11.6410 58.7936 0.0000 0.0000 0.0000
# 4 0.0000 0.0000 0.0000 19.2208 0.0000 0.0000
# 5 0.0000 0.0000 0.0000 0.0000 34.3781 0.0000
# 6 0.0000 0.0000 0.0000 0.0000 0.0000 34.5195
#
#
#
# Elastic Compliance Matrix: (Units=1/GPa)
#
#
# Indices 1 2 3 4 5 6 
#
# 1 0.009544 -0.004927 -0.002616 0.000000 0.000000 0.000000
# 2 -0.004927 0.019414 -0.001990 0.000000 0.000000 0.000000
# 3 -0.002616 -0.001990 0.018387 0.000000 0.000000 0.000000
# 4 0.000000 0.000000 0.000000 0.052027 0.000000 0.000000
# 5 0.000000 0.000000 0.000000 0.000000 0.029088 0.000000
# 6 0.000000 0.000000 0.000000 0.000000 0.000000 0.028969
#
#
# Mechanical properties :
#
#
# Convention : Reuss Voigt Hill
#
# Bulk Modulus (GPa) = 35.36197 42.97531 39.16864
# Shear Modulus (GPa) = 26.89320 29.65913 28.27616
#
# Velocity S-wave (km/s) = 3.54652 3.72443 3.63656
# Velocity P-wave (km/s) = 5.77139 6.21244 5.99597
#
# Compressibility (1/GPa) = 0.02827897
#
# Stress axis : x y z
#
# Youngs Moduli (GPa) = 104.77994 51.51028 54.38642
#
# Poissons Ratio (x) = 0.25380 0.14226
# Poissons Ratio (y) = 0.51627 0.10821
# Poissons Ratio (z) = 0.27408 0.10249
#
# Static dielectric constant tensor:
#      x y z
#    x 1.863150 0.000000 0.000000 
#    y 0.000000 1.734360 0.000000 
#    z 0.000000 0.000000 1.747330 
# 
# From -- ./inp_files/8552.got.cif
#   From: 2010.05.17/outbox.cif.g08.bks.cpg/sg17_5_cif.got.tgz:8552.got - 2010.06.03 22:34:06.
