data_PCOD9311107
_publ_section_title
;
Structure prediction by ZEFSAII (Michael W. Deem and Ramdas Pophale) SiO2 
 PCOD9311107
Probable space group: P 2 2 21
;
_chemical_formula_sum "Si O2"
_cell_formula_units_Z 30
_cell_length_a 11.661381
_cell_length_b 5.254121
_cell_length_c 22.271414
_cell_angle_alpha 90.000000
_cell_angle_beta 90.000000
_cell_angle_gamma 90.000000
_cell_volume 1364.576369
_symmetry_space_group_name_H-M "P 2 2 21"
_symmetry_group_IT_number 17
_symmetry_cell_setting 'orthorhombic'
loop_
_space_group_symop_operation_xyz
x,y,z
-x,-y,1/2+z
x,-y,-z
-x,y,1/2-z
loop_
_atom_site_type_symbol
_atom_site_label
_atom_site_fract_x
_atom_site_fract_y
_atom_site_fract_z
Si Si1 0.185139 0.338096 0.178338
Si Si2 0.233757 0.622081 0.434003
Si Si3 0.026420 0.303288 0.393718
Si Si4 0.899620 0.971773 0.215243
Si Si5 0.328673 0.729797 0.255600
Si Si6 0.092741 0.000000 0.500000
Si Si7 0.391850 0.958401 0.850834
Si Si8 0.530586 0.445923 0.866297
O O1 0.131883 0.195803 0.236719
O O2 0.272236 0.545597 0.205627
O O3 0.261925 0.138394 0.139998
O O4 0.085441 0.436461 0.134521
O O5 0.234801 0.500000 0.500000
O O6 0.138801 0.477352 0.394807
O O7 0.359573 0.594599 0.408109
O O8 0.179038 0.893710 0.449280
O O9 0.050675 0.080493 0.345828
O O10 0.016678 0.197613 0.461771
O O11 0.000000 0.817989 0.250000
O O12 0.780460 0.828351 0.206937
O O13 0.416934 0.598130 0.299887
O O14 0.383691 0.965751 0.219858
O O15 0.474399 0.724077 0.867294
O O16 0.440987 0.217422 0.879338
#
# Coordination Sequence:
#
# PCOD9311107 Si02
#       8
#     4   4   4   4   4   2   4   4
#     4  10  22  40  60  93 137 177 223 271 335 416
#     4  10  24  42  69  98 126 167 227 287 347 396
#     4  10  21  41  66  96 134 169 225 277 351 403
#     4   9  20  35  59  96 134 173 210 268 334 408
#     4  11  23  36  62  92 140 173 226 264 329 411
#     4  10  22  42  66 102 124 170 224 286 344 400
#     4  11  26  41  61  97 128 185 220 267 325 404
#     4  12  26  40  69  93 141 177 225 277 336 395
#
# _framework density 21.984845
#
# number of rings (size 3 to 8) (size 9 to 14) (size 15 to 20)
#    0.000    1.600    1.333    2.000   11.200    5.867 
#    0.000    0.000    2.933    0.000    0.000    0.000 
#    0.000    0.000    0.000    0.000    0.000    0.000 
#
# Total GULP energy -167442.076671 kJ/mol
# GULP energy per Si atom -5581.402556 kJ/mol
# Density = 2.193481 g / cm^3
# Si number density = 21.984845 Si / 1000 Ang^3
#
#
#
# Elastic Constant Matrix: (Units=GPa)
#
#
# Indices 1 2 3 4 5 6 
#
# 1 71.2714 12.5265 28.1970 0.0000 0.0000 0.0000
# 2 12.5265 78.8153 14.7098 0.0000 0.0000 0.0000
# 3 28.1970 14.7098 63.2203 0.0000 0.0000 0.0000
# 4 0.0000 0.0000 0.0000 12.0097 0.0000 0.0000
# 5 0.0000 0.0000 0.0000 0.0000 41.9991 0.0000
# 6 0.0000 0.0000 0.0000 0.0000 0.0000 7.0090
#
#
#
# Elastic Compliance Matrix: (Units=1/GPa)
#
#
# Indices 1 2 3 4 5 6 
#
# 1 0.017175 -0.001359 -0.007344 0.000000 0.000000 0.000000
# 2 -0.001359 0.013371 -0.002505 0.000000 0.000000 0.000000
# 3 -0.007344 -0.002505 0.019676 0.000000 0.000000 0.000000
# 4 0.000000 0.000000 0.000000 0.083266 0.000000 0.000000
# 5 0.000000 0.000000 0.000000 0.000000 0.023810 0.000000
# 6 0.000000 0.000000 0.000000 0.000000 0.000000 0.142675
#
#
# Mechanical properties :
#
#
# Convention : Reuss Voigt Hill
#
# Bulk Modulus (GPa) = 35.96304 36.01930 35.99117
# Shear Modulus (GPa) = 15.07573 22.72847 18.90210
#
# Velocity S-wave (km/s) = 2.62149 3.21880 2.93538
# Velocity P-wave (km/s) = 5.05535 5.49850 5.28158
#
# Compressibility (1/GPa) = 0.02780632
#
# Stress axis : x y z
#
# Youngs Moduli (GPa) = 58.22316 74.78636 50.82302
#
# Poissons Ratio (x) = 0.10164 0.37325
# Poissons Ratio (y) = 0.07913 0.12731
# Poissons Ratio (z) = 0.42760 0.18734
#
# Static dielectric constant tensor:
#      x y z
#    x 1.866030 0.000000 0.000000 
#    y 0.000000 1.947140 0.000000 
#    z 0.000000 0.000000 1.896690 
# 
# From -- ./inp_files/10240.got.cif
#   From: 2010.05.17/outbox.cif.g08.bks.cpg/sg17_6_cif.got.tgz:10240.got - 2010.06.03 22:34:06.
