data_PCOD9311746
_publ_section_title
;
Structure prediction by ZEFSAII (Michael W. Deem and Ramdas Pophale) SiO2 
 PCOD9311746
Probable space group: P 21 21 2
;
_chemical_formula_sum "Si O2"
_cell_formula_units_Z 26
_cell_length_a 8.826651
_cell_length_b 12.072769
_cell_length_c 13.103100
_cell_angle_alpha 90.000000
_cell_angle_beta 90.000000
_cell_angle_gamma 90.000000
_cell_volume 1396.294096
_symmetry_space_group_name_H-M "P 21 21 2"
_symmetry_group_IT_number 18
_symmetry_cell_setting 'orthorhombic'
loop_
_space_group_symop_operation_xyz
x,y,z
-x,-y,z
1/2+x,1/2-y,-z
1/2-x,1/2+y,-z
loop_
_atom_site_type_symbol
_atom_site_label
_atom_site_fract_x
_atom_site_fract_y
_atom_site_fract_z
Si Si1 0.432719 0.611787 0.967384
Si Si2 0.500000 0.000000 0.555149
Si Si3 0.802925 0.864368 0.251475
Si Si4 0.524085 0.124956 0.188125
Si Si5 0.222179 0.420693 0.618631
Si Si6 0.205241 0.738450 0.097456
Si Si7 0.569012 0.780338 0.678494
O O1 0.500000 0.500000 0.012035
O O2 0.388003 0.593447 0.849548
O O3 0.567148 0.702372 0.960987
O O4 0.283701 0.645906 0.028884
O O5 0.636467 0.046730 0.484436
O O6 0.439292 0.103802 0.620333
O O7 0.640625 0.824220 0.208518
O O8 0.901575 0.768071 0.301227
O O9 0.787730 0.967468 0.329012
O O10 0.594457 0.116574 0.301045
O O11 0.652437 0.180852 0.120368
O O12 0.500000 0.000000 0.150054
O O13 0.340577 0.318663 0.619578
O O14 0.144721 0.705101 0.209461
#
# Coordination Sequence:
#
# PCOD9311746 Si02
#       7
#     4   2   4   4   4   4   4
#     4  11  21  37  63  89 122 161 211 244 299 367
#     4  12  24  40  64  90 124 166 204 252 326 364
#     4  10  18  38  65  94 119 158 204 265 300 355
#     4   9  16  33  62  87 119 149 201 258 298 344
#     4  10  20  38  64  90 115 159 210 253 302 365
#     4  10  22  40  57  94 124 165 199 254 303 363
#     4  10  24  40  61  87 134 153 208 260 308 368
#
# _framework density 18.620719000000001
#
# number of rings (size 3 to 8) (size 9 to 14) (size 15 to 20)
#    0.000    1.846    2.308    5.077    2.154    0.000 
#    8.308    0.000    0.000    0.000    0.000    0.000 
#    0.000    0.000    0.000    0.000    0.000    0.000 
#
# Total GULP energy -144973.224163 kJ/mol
# GULP energy per Si atom -5575.893237 kJ/mol
# Density = 1.857834 g / cm^3
# Si number density = 18.620719 Si / 1000 Ang^3
#
#
#
# Elastic Constant Matrix: (Units=GPa)
#
#
# Indices 1 2 3 4 5 6 
#
# 1 92.1830 29.7783 28.4246 0.0000 0.0000 0.0000
# 2 29.7783 65.6144 49.4505 0.0000 0.0000 0.0000
# 3 28.4246 49.4505 72.2382 0.0000 0.0000 0.0000
# 4 0.0000 0.0000 0.0000 13.7028 0.0000 0.0000
# 5 0.0000 0.0000 0.0000 0.0000 25.7762 0.0000
# 6 0.0000 0.0000 0.0000 0.0000 0.0000 25.3356
#
#
#
# Elastic Compliance Matrix: (Units=1/GPa)
#
#
# Indices 1 2 3 4 5 6 
#
# 1 0.012879 -0.004185 -0.002203 0.000000 0.000000 0.000000
# 2 -0.004185 0.032843 -0.020836 0.000000 0.000000 0.000000
# 3 -0.002203 -0.020836 0.028973 0.000000 0.000000 0.000000
# 4 0.000000 0.000000 0.000000 0.072978 0.000000 0.000000
# 5 0.000000 0.000000 0.000000 0.000000 0.038796 0.000000
# 6 0.000000 0.000000 0.000000 0.000000 0.000000 0.039470
#
#
# Mechanical properties :
#
#
# Convention : Reuss Voigt Hill
#
# Bulk Modulus (GPa) = 49.38824 49.48249 49.43537
# Shear Modulus (GPa) = 17.41342 21.12171 19.26756
#
# Velocity S-wave (km/s) = 3.06136 3.37161 3.22022
# Velocity P-wave (km/s) = 6.25114 6.46441 6.35867
#
# Compressibility (1/GPa) = 0.02024773
#
# Stress axis : x y z
#
# Youngs Moduli (GPa) = 77.64519 30.44825 34.51476
#
# Poissons Ratio (x) = 0.12741 0.07604
# Poissons Ratio (y) = 0.32491 0.71914
# Poissons Ratio (z) = 0.17107 0.63441
#
# Static dielectric constant tensor:
#      x y z
#    x 1.667560 0.000000 0.000000 
#    y 0.000000 1.670630 0.000000 
#    z 0.000000 0.000000 1.637410 
# 
# From -- ./inp_files/6717.got.cif
#   From: 2010.05.17/outbox.cif.g08.bks.cpg/sg18_4_cif.got.tgz:6717.got - 2010.06.03 22:40:56.
