data_PCOD9311681
_publ_section_title
;
Structure prediction by ZEFSAII (Michael W. Deem and Ramdas Pophale) SiO2 
 PCOD9311681
Probable space group: P 21 21 2
;
_chemical_formula_sum "Si O2"
_cell_formula_units_Z 26
_cell_length_a 8.119499
_cell_length_b 16.112721
_cell_length_c 9.928269
_cell_angle_alpha 90.000000
_cell_angle_beta 90.000000
_cell_angle_gamma 90.000000
_cell_volume 1298.887853
_symmetry_space_group_name_H-M "P 21 21 2"
_symmetry_group_IT_number 18
_symmetry_cell_setting 'orthorhombic'
loop_
_space_group_symop_operation_xyz
x,y,z
-x,-y,z
1/2+x,1/2-y,-z
1/2-x,1/2+y,-z
loop_
_atom_site_type_symbol
_atom_site_label
_atom_site_fract_x
_atom_site_fract_y
_atom_site_fract_z
Si Si1 0.500000 0.000000 0.483168
Si Si2 0.809393 0.313819 0.861279
Si Si3 0.213707 0.772539 0.356724
Si Si4 0.927087 0.318058 0.583366
Si Si5 0.667285 0.545301 0.553018
Si Si6 0.200297 0.499945 0.852683
Si Si7 0.300772 0.820355 0.068916
O O1 0.526896 0.914332 0.403201
O O2 0.319821 0.981051 0.543506
O O3 0.795685 0.300241 0.700069
O O4 0.746670 0.407062 0.894684
O O5 0.005565 0.315335 0.893281
O O6 0.731815 0.239035 0.943809
O O7 0.128580 0.697391 0.431967
O O8 0.407825 0.767809 0.387436
O O9 0.152069 0.855857 0.432948
O O10 0.199708 0.784569 0.197601
O O11 0.500000 0.500000 0.516510
O O12 0.721603 0.517099 0.704826
O O13 0.243846 0.418134 0.940223
O O14 0.000000 0.500000 0.850797
#
# Coordination Sequence:
#
# PCOD9311681 Si02
#       7
#     2   4   4   4   4   4   4
#     4  10  18  36  52  80 116 146 188 242 276 338
#     4  10  19  34  60  80 112 155 185 244 289 335
#     4   9  21  35  53  85 115 143 188 242 286 349
#     4  10  20  35  61  81 114 149 190 240 297 332
#     4  10  18  30  55  83 106 143 194 233 281 338
#     4   9  16  34  55  75 111 150 188 234 282 339
#     4   9  20  35  55  84 114 144 195 234 292 352
#
# _framework density 20.017125
#
# number of rings (size 3 to 8) (size 9 to 14) (size 15 to 20)
#    0.000    2.462    2.308    1.846    2.154    3.692 
#    0.000    0.000   11.846    0.000    0.000    0.000 
#    0.000    0.000    0.000    0.000    0.000    0.000 
#
# Total GULP energy -144747.995855 kJ/mol
# GULP energy per Si atom -5567.230610 kJ/mol
# Density = 1.997157 g / cm^3
# Si number density = 20.017125 Si / 1000 Ang^3
#
#
#
# Elastic Constant Matrix: (Units=GPa)
#
#
# Indices 1 2 3 4 5 6 
#
# 1 33.6149 24.4501 11.6571 0.0000 0.0000 0.0000
# 2 24.4501 99.5815 38.5948 0.0000 0.0000 0.0000
# 3 11.6571 38.5948 46.6876 0.0000 0.0000 0.0000
# 4 0.0000 0.0000 0.0000 24.3594 0.0000 0.0000
# 5 0.0000 0.0000 0.0000 0.0000 18.2819 0.0000
# 6 0.0000 0.0000 0.0000 0.0000 0.0000 29.8619
#
#
#
# Elastic Compliance Matrix: (Units=1/GPa)
#
#
# Indices 1 2 3 4 5 6 
#
# 1 0.036414 -0.007971 -0.002503 0.000000 0.000000 0.000000
# 2 -0.007971 0.016521 -0.011667 0.000000 0.000000 0.000000
# 3 -0.002503 -0.011667 0.031689 0.000000 0.000000 0.000000
# 4 0.000000 0.000000 0.000000 0.041052 0.000000 0.000000
# 5 0.000000 0.000000 0.000000 0.000000 0.054699 0.000000
# 6 0.000000 0.000000 0.000000 0.000000 0.000000 0.033488
#
#
# Mechanical properties :
#
#
# Convention : Reuss Voigt Hill
#
# Bulk Modulus (GPa) = 24.78781 36.58755 30.68768
# Shear Modulus (GPa) = 18.41006 21.51277 19.96142
#
# Velocity S-wave (km/s) = 3.03597 3.28185 3.16130
# Velocity P-wave (km/s) = 4.96988 5.71651 5.35622
#
# Compressibility (1/GPa) = 0.04034241
#
# Stress axis : x y z
#
# Youngs Moduli (GPa) = 27.46179 60.52963 31.55713
#
# Poissons Ratio (x) = 0.48246 0.07899
# Poissons Ratio (y) = 0.21889 0.36818
# Poissons Ratio (z) = 0.06874 0.70620
#
# Static dielectric constant tensor:
#      x y z
#    x 1.787880 0.000000 0.000000 
#    y 0.000000 1.719330 0.000000 
#    z 0.000000 0.000000 1.701150 
# 
# From -- ./inp_files/5599.got.cif
#   From: 2010.05.17/outbox.cif.g08.bks.cpg/sg18_3_cif.got.tgz:5599.got - 2010.06.03 22:40:56.
