data_PCOD9311164
_publ_section_title
;
Structure prediction by ZEFSAII (Michael W. Deem and Ramdas Pophale) SiO2 
 PCOD9311164
Probable space group: P 2 2 21
;
_chemical_formula_sum "Si O2"
_cell_formula_units_Z 28
_cell_length_a 5.391466
_cell_length_b 11.459279
_cell_length_c 19.975663
_cell_angle_alpha 90.000000
_cell_angle_beta 90.000000
_cell_angle_gamma 90.000000
_cell_volume 1234.142666
_symmetry_space_group_name_H-M "P 2 2 21"
_symmetry_group_IT_number 17
_symmetry_cell_setting 'orthorhombic'
loop_
_space_group_symop_operation_xyz
x,y,z
-x,-y,1/2+z
x,-y,-z
-x,y,1/2-z
loop_
_atom_site_type_symbol
_atom_site_label
_atom_site_fract_x
_atom_site_fract_y
_atom_site_fract_z
Si Si1 0.471461 0.805883 0.398788
Si Si2 0.260133 0.639160 0.498908
Si Si3 0.620162 0.000000 0.000000
Si Si4 0.500000 0.843520 0.750000
Si Si5 0.753445 0.612309 0.546641
Si Si6 0.956843 0.875513 0.327825
Si Si7 0.152033 0.100517 0.365038
Si Si8 0.105856 0.328318 0.182685
O O1 0.386391 0.684392 0.431389
O O2 0.217366 0.844894 0.363142
O O3 0.717283 0.807108 0.354523
O O4 0.519738 0.899278 0.458789
O O5 0.223716 0.500000 0.500000
O O6 0.482107 0.670124 0.550141
O O7 0.981684 0.683934 0.513230
O O8 0.768329 0.067557 0.059572
O O9 0.644068 0.918494 0.806025
O O10 0.677010 0.755513 0.709109
O O11 0.720578 0.500000 0.500000
O O12 0.827587 0.585916 0.622700
O O13 0.000000 0.858415 0.250000
O O14 0.928590 0.013001 0.345453
O O15 0.077277 0.233584 0.351118
O O16 0.000000 0.384782 0.250000
#
# Coordination Sequence:
#
# PCOD9311164 Si02
#       8
#     4   4   2   2   4   4   4   4
#     4  11  24  39  62  98 128 169 218 276 326 392
#     4  10  22  42  67  93 124 166 219 279 333 392
#     4  10  24  36  60  96 136 164 218 272 334 394
#     4  10  22  38  60  92 128 184 230 262 336 396
#     4  10  22  39  67  96 126 168 216 279 347 405
#     4  11  24  40  62  89 133 180 224 257 328 393
#     4  10  23  39  58  93 132 184 219 274 320 404
#     4  10  22  37  63  92 134 174 225 276 334 408
#
# _framework density 22.687815000000001
#
# number of rings (size 3 to 8) (size 9 to 14) (size 15 to 20)
#    0.000    1.714    0.000    3.429   14.000    3.429 
#    0.000    0.000    0.000   20.571    0.000    0.000 
#    0.000    0.000    0.000    0.000    0.000    0.000 
#
# Total GULP energy -156137.146594 kJ/mol
# GULP energy per Si atom -5576.326664 kJ/mol
# Density = 2.263618 g / cm^3
# Si number density = 22.687815 Si / 1000 Ang^3
#
#
#
# Elastic Constant Matrix: (Units=GPa)
#
#
# Indices 1 2 3 4 5 6 
#
# 1 133.4060 6.1982 31.8578 0.0000 0.0000 0.0000
# 2 6.1982 54.0246 32.5997 0.0000 0.0000 0.0000
# 3 31.8578 32.5997 152.4176 0.0000 0.0000 0.0000
# 4 0.0000 0.0000 0.0000 37.5381 0.0000 0.0000
# 5 0.0000 0.0000 0.0000 0.0000 31.4050 0.0000
# 6 0.0000 0.0000 0.0000 0.0000 0.0000 19.3935
#
#
#
# Elastic Compliance Matrix: (Units=1/GPa)
#
#
# Indices 1 2 3 4 5 6 
#
# 1 0.007890 0.000103 -0.001671 0.000000 0.000000 0.000000
# 2 0.000103 0.021254 -0.004568 0.000000 0.000000 0.000000
# 3 -0.001671 -0.004568 0.007887 0.000000 0.000000 0.000000
# 4 0.000000 0.000000 0.000000 0.026640 0.000000 0.000000
# 5 0.000000 0.000000 0.000000 0.000000 0.031842 0.000000
# 6 0.000000 0.000000 0.000000 0.000000 0.000000 0.051564
#
#
# Mechanical properties :
#
#
# Convention : Reuss Voigt Hill
#
# Bulk Modulus (GPa) = 40.38666 53.46216 46.92441
# Shear Modulus (GPa) = 29.83261 35.61349 32.72305
#
# Velocity S-wave (km/s) = 3.63011 3.96627 3.80191
# Velocity P-wave (km/s) = 5.95063 6.67761 6.32457
#
# Compressibility (1/GPa) = 0.02476065
#
# Stress axis : x y z
#
# Youngs Moduli (GPa) = 126.73913 47.04900 126.78811
#
# Poissons Ratio (x) = -0.00486 0.21190
# Poissons Ratio (y) = -0.01308 0.57911
# Poissons Ratio (z) = 0.21181 0.21490
#
# Static dielectric constant tensor:
#      x y z
#    x 1.965110 0.000000 0.000000 
#    y 0.000000 1.945460 0.000000 
#    z 0.000000 0.000000 1.856060 
# 
# From -- ./inp_files/9927.got.cif
#   From: 2010.05.17/outbox.cif.g08.bks.cpg/sg17_5_cif.got.tgz:9927.got - 2010.06.03 22:34:06.
