data_PCOD9311338
_publ_section_title
;
Structure prediction by ZEFSAII (Michael W. Deem and Ramdas Pophale) SiO2 
 PCOD9311338
Probable space group: P 2 2 21
;
_chemical_formula_sum "Si O2"
_cell_formula_units_Z 12
_cell_length_a 17.380068
_cell_length_b 5.409195
_cell_length_c 5.144562
_cell_angle_alpha 90.000000
_cell_angle_beta 90.000000
_cell_angle_gamma 90.000000
_cell_volume 483.651473
_symmetry_space_group_name_H-M "P 2 2 21"
_symmetry_group_IT_number 17
_symmetry_cell_setting 'orthorhombic'
loop_
_space_group_symop_operation_xyz
x,y,z
-x,-y,1/2+z
x,-y,-z
-x,y,1/2-z
loop_
_atom_site_type_symbol
_atom_site_label
_atom_site_fract_x
_atom_site_fract_y
_atom_site_fract_z
Si Si1 0.418207 0.321609 0.750385
Si Si2 0.127601 0.000000 0.500000
Si Si3 0.000000 0.657393 0.750000
Si Si4 0.251376 0.676595 0.248391
O O1 0.418349 0.500000 0.500000
O O2 0.500000 0.180031 0.750000
O O3 0.335408 0.191248 0.756826
O O4 0.418232 0.500000 0.000000
O O5 0.071512 0.183595 0.348447
O O6 0.182717 0.135600 0.704583
O O7 0.975735 0.500000 0.500000
O O8 0.250578 0.500000 0.500000
O O9 0.242984 0.500000 0.000000
#
# Coordination Sequence:
#
# PCOD9311338 Si02
#       4
#     4   2   2   4
#     4   8  14  29  56  89 129 177 220 264 324 386
#     4  12  28  48  76 104 136 180 230 284 352 414
#     4  12  30  52  74 104 138 178 228 286 352 424
#     4  10  23  41  66 102 139 178 227 280 334 400
#
# _framework density 24.811254999999999
#
# number of rings (size 3 to 8) (size 9 to 14) (size 15 to 20)
#    0.000    2.000    0.000    2.000    0.000   14.667 
#    0.000    0.000    0.000   20.000    0.000    4.667 
#    0.000    0.000    0.000    0.000    0.000    0.000 
#
# Total GULP energy -67225.518864 kJ/mol
# GULP energy per Si atom -5602.126572 kJ/mol
# Density = 2.475478 g / cm^3
# Si number density = 24.811255 Si / 1000 Ang^3
#
#
#
# Elastic Constant Matrix: (Units=GPa)
#
#
# Indices 1 2 3 4 5 6 
#
# 1 275.9723 84.7759 56.7517 0.0000 0.0000 0.0000
# 2 84.7759 73.9751 59.6354 0.0000 0.0000 0.0000
# 3 56.7517 59.6354 219.6334 0.0000 0.0000 0.0000
# 4 0.0000 0.0000 0.0000 41.4469 0.0000 0.0000
# 5 0.0000 0.0000 0.0000 0.0000 31.2823 0.0000
# 6 0.0000 0.0000 0.0000 0.0000 0.0000 -50.5078
#
#
#
# Elastic Compliance Matrix: (Units=1/GPa)
#
#
# Indices 1 2 3 4 5 6 
#
# 1 0.005617 -0.006743 0.000379 0.000000 0.000000 0.000000
# 2 -0.006743 0.025401 -0.005155 0.000000 0.000000 0.000000
# 3 0.000379 -0.005155 0.005855 0.000000 0.000000 0.000000
# 4 0.000000 0.000000 0.000000 0.024127 0.000000 0.000000
# 5 0.000000 0.000000 0.000000 0.000000 0.031967 0.000000
# 6 0.000000 0.000000 0.000000 0.000000 0.000000 -0.019799
#
#
# Mechanical properties :
#
#
# Convention : Reuss Voigt Hill
#
# Bulk Modulus (GPa) = 72.27358 107.98962 90.13160
# Shear Modulus (GPa) = 49.59552 29.00547 39.30050
#
# Velocity S-wave (km/s) = 4.47577 3.42284 3.98424
# Velocity P-wave (km/s) = 7.47680 7.69676 7.58758
#
# Compressibility (1/GPa) = 0.01383632
#
# Stress axis : x y z
#
# Youngs Moduli (GPa) = 178.03552 39.36879 170.80674
#
# Poissons Ratio (x) = 0.26546 -0.06482
# Poissons Ratio (y) = 1.20047 0.88044
# Poissons Ratio (z) = -0.06756 0.20293
#
# Static dielectric constant tensor:
#      x y z
#    x 2.016850 0.000000 0.000000 
#    y 0.000000 1.940830 0.000000 
#    z 0.000000 0.000000 1.908980 
# 
# From -- ./inp_files/2359.got.cif
#   From: 2010.05.17/outbox.cif.g08.bks.cpg/sg17_2_cif.got.tgz:2359.got - 2010.06.03 22:34:06.
