data_PCOD9311540
_publ_section_title
;
Structure prediction by ZEFSAII (Michael W. Deem and Ramdas Pophale) SiO2 
 PCOD9311540
Probable space group: P 2 2 21
;
_chemical_formula_sum "Si O2"
_cell_formula_units_Z 16
_cell_length_a 5.044096
_cell_length_b 25.251543
_cell_length_c 5.317064
_cell_angle_alpha 90.000000
_cell_angle_beta 90.000000
_cell_angle_gamma 90.000000
_cell_volume 677.240860
_symmetry_space_group_name_H-M "P 2 2 21"
_symmetry_group_IT_number 17
_symmetry_cell_setting 'orthorhombic'
loop_
_space_group_symop_operation_xyz
x,y,z
-x,-y,1/2+z
x,-y,-z
-x,y,1/2-z
loop_
_atom_site_type_symbol
_atom_site_label
_atom_site_fract_x
_atom_site_fract_y
_atom_site_fract_z
Si Si1 0.500000 0.533842 0.250000
Si Si2 0.679574 0.308661 0.999612
Si Si3 0.000000 0.032122 0.750000
Si Si4 0.756103 0.191426 0.084687
Si Si5 0.000000 0.393004 0.750000
Si Si6 0.500000 0.101697 0.750000
O O1 0.437149 0.500000 0.500000
O O2 0.751972 0.570200 0.316267
O O3 0.500000 0.313138 0.750000
O O4 0.898500 0.354021 0.969801
O O5 0.500000 0.314400 0.250000
O O6 0.811317 0.250173 0.981854
O O7 0.259901 0.064722 0.844463
O O8 0.086515 0.000000 0.500000
O O9 0.500000 0.201415 0.250000
O O10 0.000000 0.173859 0.250000
O O11 0.668841 0.143297 0.913509
#
# Coordination Sequence:
#
# PCOD9311540 Si02
#       6
#     2   4   2   4   2   2
#     4  12  30  53  78 112 150 201 272 338 390 460
#     4  11  27  48  76 120 164 206 257 314 389 485
#     4  12  30  51  78 112 150 201 274 338 388 458
#     4  11  26  45  74 115 162 204 254 312 387 483
#     4  12  28  51  84 110 158 209 260 324 408 460
#     4  12  26  49  82 106 156 209 256 324 404 460
#
# _framework density 23.625273
#
# number of rings (size 3 to 8) (size 9 to 14) (size 15 to 20)
#    0.000    0.500    2.500    3.000   14.000    3.000 
#    0.000    0.000    0.000    0.000    0.000    0.000 
#    0.000    0.000    0.000    0.000    0.000    0.000 
#
# Total GULP energy -89477.997773 kJ/mol
# GULP energy per Si atom -5592.374861 kJ/mol
# Density = 2.357150 g / cm^3
# Si number density = 23.625273 Si / 1000 Ang^3
#
#
#
# Elastic Constant Matrix: (Units=GPa)
#
#
# Indices 1 2 3 4 5 6 
#
# 1 166.0207 56.0774 52.9399 0.0000 0.0000 0.0000
# 2 56.0774 131.7436 52.3756 0.0000 0.0000 0.0000
# 3 52.9399 52.3756 145.6616 0.0000 0.0000 0.0000
# 4 0.0000 0.0000 0.0000 43.3832 0.0000 0.0000
# 5 0.0000 0.0000 0.0000 0.0000 51.3098 0.0000
# 6 0.0000 0.0000 0.0000 0.0000 0.0000 69.5757
#
#
#
# Elastic Compliance Matrix: (Units=1/GPa)
#
#
# Indices 1 2 3 4 5 6 
#
# 1 0.007428 -0.002437 -0.001823 0.000000 0.000000 0.000000
# 2 -0.002437 0.009656 -0.002586 0.000000 0.000000 0.000000
# 3 -0.001823 -0.002586 0.008458 0.000000 0.000000 0.000000
# 4 0.000000 0.000000 0.000000 0.023050 0.000000 0.000000
# 5 0.000000 0.000000 0.000000 0.000000 0.019489 0.000000
# 6 0.000000 0.000000 0.000000 0.000000 0.000000 0.014373
#
#
# Mechanical properties :
#
#
# Convention : Reuss Voigt Hill
#
# Bulk Modulus (GPa) = 84.39816 85.13464 84.76640
# Shear Modulus (GPa) = 49.95147 51.65593 50.80370
#
# Velocity S-wave (km/s) = 4.60317 4.68104 4.64227
# Velocity P-wave (km/s) = 8.00334 8.08269 8.04311
#
# Compressibility (1/GPa) = 0.01184860
#
# Stress axis : x y z
#
# Youngs Moduli (GPa) = 134.62803 103.56295 118.23245
#
# Poissons Ratio (x) = 0.25236 0.21559
# Poissons Ratio (y) = 0.32806 0.30579
# Poissons Ratio (z) = 0.24548 0.26785
#
# Static dielectric constant tensor:
#      x y z
#    x 1.861680 0.000000 0.000000 
#    y 0.000000 2.000420 0.000000 
#    z 0.000000 0.000000 1.898530 
# 
# From -- ./inp_files/302.got.cif
#   From: 2010.05.17/outbox.cif.g08.bks.cpg/sg17_1_cif.got.tgz:302.got - 2010.06.03 22:34:06.
