data_PCOD9311123
_publ_section_title
;
Structure prediction by ZEFSAII (Michael W. Deem and Ramdas Pophale) SiO2 
 PCOD9311123
Probable space group: P 2 2 21
;
_chemical_formula_sum "Si O2"
_cell_formula_units_Z 16
_cell_length_a 8.215570
_cell_length_b 5.237040
_cell_length_c 14.051810
_cell_angle_alpha 90.000000
_cell_angle_beta 90.000000
_cell_angle_gamma 90.000000
_cell_volume 604.582901
_symmetry_space_group_name_H-M "P 2 2 21"
_symmetry_group_IT_number 17
_symmetry_cell_setting 'orthorhombic'
loop_
_space_group_symop_operation_xyz
x,y,z
-x,-y,1/2+z
x,-y,-z
-x,y,1/2-z
loop_
_atom_site_type_symbol
_atom_site_label
_atom_site_fract_x
_atom_site_fract_y
_atom_site_fract_z
Si Si1 0.371232 0.646578 0.400832
Si Si2 0.418802 0.167327 0.125100
Si Si3 0.877183 0.249225 0.527540
Si Si4 0.178418 0.118738 0.760715
O O1 0.331736 0.500000 0.500000
O O2 0.468392 0.920916 0.403685
O O3 0.225043 0.708063 0.328525
O O4 0.490368 0.431513 0.359422
O O5 0.279792 0.227433 0.043788
O O6 0.681523 0.084098 0.281789
O O7 0.968644 0.500000 0.500000
O O8 0.829720 0.259668 0.637251
O O9 0.977736 0.000000 0.500000
O O10 0.000000 0.000647 0.750000
#
# Coordination Sequence:
#
# PCOD9311123 Si02
#       4
#     4   4   4   4
#     4  12  25  46  75 107 141 187 245 299 350 426
#     4  11  24  47  75 101 140 194 247 297 353 422
#     4  10  21  42  68  94 133 185 234 282 349 420
#     4  11  26  45  72 110 148 188 235 296 369 432
#
# _framework density 26.464525999999999
#
# number of rings (size 3 to 8) (size 9 to 14) (size 15 to 20)
#    0.000    1.000    0.000    9.750    0.000   11.000 
#    0.000   27.500    0.000    0.000    0.000    0.000 
#    0.000    0.000    0.000    0.000    0.000    0.000 
#
# Total GULP energy -89468.354740 kJ/mol
# GULP energy per Si atom -5591.772171 kJ/mol
# Density = 2.640429 g / cm^3
# Si number density = 26.464526 Si / 1000 Ang^3
#
#
#
# Elastic Constant Matrix: (Units=GPa)
#
#
# Indices 1 2 3 4 5 6 
#
# 1 117.3052 41.3836 46.1152 0.0000 0.0000 0.0000
# 2 41.3836 183.0656 38.0159 0.0000 0.0000 0.0000
# 3 46.1152 38.0159 185.8119 0.0000 0.0000 0.0000
# 4 0.0000 0.0000 0.0000 40.7056 0.0000 0.0000
# 5 0.0000 0.0000 0.0000 0.0000 22.9719 0.0000
# 6 0.0000 0.0000 0.0000 0.0000 0.0000 2.6450
#
#
#
# Elastic Compliance Matrix: (Units=1/GPa)
#
#
# Indices 1 2 3 4 5 6 
#
# 1 0.009996 -0.001822 -0.002108 0.000000 0.000000 0.000000
# 2 -0.001822 0.006037 -0.000783 0.000000 0.000000 0.000000
# 3 -0.002108 -0.000783 0.006065 0.000000 0.000000 0.000000
# 4 0.000000 0.000000 0.000000 0.024567 0.000000 0.000000
# 5 0.000000 0.000000 0.000000 0.000000 0.043531 0.000000
# 6 0.000000 0.000000 0.000000 0.000000 0.000000 0.378072
#
#
# Mechanical properties :
#
#
# Convention : Reuss Voigt Hill
#
# Bulk Modulus (GPa) = 78.91200 81.91244 80.41222
# Shear Modulus (GPa) = 10.37520 37.30904 23.84212
#
# Velocity S-wave (km/s) = 1.98215 3.75877 3.00477
# Velocity P-wave (km/s) = 5.92633 7.06093 6.51836
#
# Compressibility (1/GPa) = 0.01267234
#
# Stress axis : x y z
#
# Youngs Moduli (GPa) = 100.03712 165.64563 164.87569
#
# Poissons Ratio (x) = 0.30180 0.34758
# Poissons Ratio (y) = 0.18226 0.12909
# Poissons Ratio (z) = 0.21089 0.12969
#
# Static dielectric constant tensor:
#      x y z
#    x 2.105020 0.000000 0.000000 
#    y 0.000000 2.147800 0.000000 
#    z 0.000000 0.000000 2.137340 
# 
# From -- ./inp_files/9212.got.cif
#   From: 2010.05.17/outbox.cif.g08.bks.cpg/sg17_5_cif.got.tgz:9212.got - 2010.06.03 22:34:06.
