data_PCOD9311808
_publ_section_title
;
Structure prediction by ZEFSAII (Michael W. Deem and Ramdas Pophale) SiO2 
 PCOD9311808
Probable space group: P 21 21 2
;
_chemical_formula_sum "Si O2"
_cell_formula_units_Z 32
_cell_length_a 15.236099
_cell_length_b 9.655410
_cell_length_c 12.114170
_cell_angle_alpha 90.000000
_cell_angle_beta 90.000000
_cell_angle_gamma 90.000000
_cell_volume 1782.125030
_symmetry_space_group_name_H-M "P 21 21 2"
_symmetry_group_IT_number 18
_symmetry_cell_setting 'orthorhombic'
loop_
_space_group_symop_operation_xyz
x,y,z
-x,-y,z
1/2+x,1/2-y,-z
1/2-x,1/2+y,-z
loop_
_atom_site_type_symbol
_atom_site_label
_atom_site_fract_x
_atom_site_fract_y
_atom_site_fract_z
Si Si1 0.927447 0.889077 0.493157
Si Si2 0.223607 0.647602 0.740328
Si Si3 0.068583 0.125777 0.244254
Si Si4 0.336383 0.741267 0.316913
Si Si5 0.733082 0.039576 0.708726
Si Si6 0.260879 0.970111 0.459098
Si Si7 0.916326 0.596875 0.118548
Si Si8 0.601379 0.046511 0.131963
O O1 0.947113 0.828687 0.371927
O O2 0.912112 0.784632 0.592605
O O3 0.836873 0.974356 0.479486
O O4 0.000000 0.000000 0.522667
O O5 0.325465 0.599001 0.760022
O O6 0.195838 0.582922 0.622103
O O7 0.162600 0.582422 0.833454
O O8 0.220711 0.812784 0.731712
O O9 0.056379 0.250953 0.159945
O O10 0.000000 0.000000 0.224774
O O11 0.294444 0.595234 0.281589
O O12 0.265617 0.829724 0.388079
O O13 0.371727 0.831743 0.216335
O O14 0.700276 0.046073 0.581287
O O15 0.654974 0.038060 0.796228
O O16 0.000000 0.500000 0.121150
O O17 0.882439 0.594912 0.993135
O O18 0.500000 0.000000 0.143463
#
# Coordination Sequence:
#
# PCOD9311808 Si02
#       8
#     4   4   4   4   4   4   4   4
#     4   9  18  32  54  83 113 135 164 214 267 320
#     4   9  19  36  56  77 112 148 173 215 275 324
#     4   9  18  36  59  83 109 140 174 213 269 331
#     4  10  20  35  56  80 105 142 185 217 261 328
#     4  10  19  33  56  83 107 135 179 225 265 322
#     4   9  17  33  53  79 113 141 167 210 270 328
#     4  10  22  38  54  77 108 138 180 233 270 309
#     4  10  23  41  53  70 107 149 185 227 276 316
#
# _framework density 17.956092000000002
#
# number of rings (size 3 to 8) (size 9 to 14) (size 15 to 20)
#    0.000    2.500    0.000    3.000    0.000    8.000 
#    0.000   11.250    0.000    0.000    0.000    0.000 
#    0.000    0.000    0.000    0.000    0.000    0.000 
#
# Total GULP energy -178276.451067 kJ/mol
# GULP energy per Si atom -5571.139096 kJ/mol
# Density = 1.791522 g / cm^3
# Si number density = 17.956092 Si / 1000 Ang^3
#
#
#
# Elastic Constant Matrix: (Units=GPa)
#
#
# Indices 1 2 3 4 5 6 
#
# 1 31.1784 27.8785 45.1000 0.0000 0.0000 0.0000
# 2 27.8785 98.4031 73.6092 0.0000 0.0000 0.0000
# 3 45.1000 73.6092 157.7053 0.0000 0.0000 0.0000
# 4 0.0000 0.0000 0.0000 6.9602 0.0000 0.0000
# 5 0.0000 0.0000 0.0000 0.0000 10.8653 0.0000
# 6 0.0000 0.0000 0.0000 0.0000 0.0000 17.9442
#
#
#
# Elastic Compliance Matrix: (Units=1/GPa)
#
#
# Indices 1 2 3 4 5 6 
#
# 1 0.056971 -0.006074 -0.013457 0.000000 0.000000 0.000000
# 2 -0.006074 0.016261 -0.005853 0.000000 0.000000 0.000000
# 3 -0.013457 -0.005853 0.012921 0.000000 0.000000 0.000000
# 4 0.000000 0.000000 0.000000 0.143673 0.000000 0.000000
# 5 0.000000 0.000000 0.000000 0.000000 0.092036 0.000000
# 6 0.000000 0.000000 0.000000 0.000000 0.000000 0.055728
#
#
# Mechanical properties :
#
#
# Convention : Reuss Voigt Hill
#
# Bulk Modulus (GPa) = 28.26053 64.49580 46.37816
# Shear Modulus (GPa) = 11.35966 16.53389 13.94677
#
# Velocity S-wave (km/s) = 2.51795 3.03775 2.78998
# Velocity P-wave (km/s) = 4.92202 6.94986 6.02191
#
# Compressibility (1/GPa) = 0.03538504
#
# Stress axis : x y z
#
# Youngs Moduli (GPa) = 17.55294 61.49569 77.39125
#
# Poissons Ratio (x) = 0.37350 1.04148
# Poissons Ratio (y) = 0.10661 0.45298
# Poissons Ratio (z) = 0.23622 0.35994
#
# Static dielectric constant tensor:
#      x y z
#    x 1.629320 0.000000 0.000000 
#    y 0.000000 1.637070 0.000000 
#    z 0.000000 0.000000 1.633990 
# 
# From -- ./inp_files/6154.got.cif
#   From: 2010.05.17/outbox.cif.g08.bks.cpg/sg18_4_cif.got.tgz:6154.got - 2010.06.03 22:40:56.
