data_PCOD9311501
_publ_section_title
;
Structure prediction by ZEFSAII (Michael W. Deem and Ramdas Pophale) SiO2 
 PCOD9311501
Probable space group: P 2 2 21
;
_chemical_formula_sum "Si O2"
_cell_formula_units_Z 24
_cell_length_a 11.093608
_cell_length_b 5.296040
_cell_length_c 16.415933
_cell_angle_alpha 90.000000
_cell_angle_beta 90.000000
_cell_angle_gamma 90.000000
_cell_volume 964.472043
_symmetry_space_group_name_H-M "P 2 2 21"
_symmetry_group_IT_number 17
_symmetry_cell_setting 'orthorhombic'
loop_
_space_group_symop_operation_xyz
x,y,z
-x,-y,1/2+z
x,-y,-z
-x,y,1/2-z
loop_
_atom_site_type_symbol
_atom_site_label
_atom_site_fract_x
_atom_site_fract_y
_atom_site_fract_z
Si Si1 0.000000 0.966904 0.750000
Si Si2 0.281788 0.765849 0.412576
Si Si3 0.793690 0.000000 0.500000
Si Si4 0.082008 0.500000 0.500000
Si Si5 0.091686 0.637131 0.116507
Si Si6 0.253856 0.742257 0.695060
Si Si7 0.487051 0.500000 0.500000
Si Si8 0.671776 0.313815 0.365789
O O1 0.040614 0.158643 0.821454
O O2 0.117954 0.802068 0.728281
O O3 0.168927 0.726371 0.472694
O O4 0.269886 0.528272 0.348975
O O5 0.399525 0.717690 0.466906
O O6 0.281627 0.026992 0.365333
O O7 0.875284 0.778571 0.466977
O O8 0.716963 0.914872 0.577414
O O9 0.010190 0.551529 0.584104
O O10 0.215204 0.506550 0.141607
O O11 0.344604 0.760635 0.772468
O O12 0.568217 0.430675 0.421875
#
# Coordination Sequence:
#
# PCOD9311501 Si02
#       8
#     2   4   2   2   4   4   2   4
#     4  12  26  44  78 108 174 194 242 324 404 480
#     4  11  29  51  77 111 155 207 259 317 393 466
#     4  12  22  40  70 114 144 196 256 316 372 460
#     4  11  23  42  72 106 161 199 258 302 390 471
#     4  12  24  44  69 118 156 205 250 324 385 477
#     4  12  28  49  75 119 155 204 253 312 403 477
#     4  11  27  58  78 106 153 213 270 344 374 453
#     4  12  26  46  76 110 150 200 268 316 390 458
#
# _framework density 24.884080999999998
#
# number of rings (size 3 to 8) (size 9 to 14) (size 15 to 20)
#    0.000    0.333    6.667    1.000    4.667    5.333 
#    0.000    3.333    0.000    0.000    0.000    0.000 
#    0.000    0.000    0.000    0.000    0.000    0.000 
#
# Total GULP energy -134400.472396 kJ/mol
# GULP energy per Si atom -5600.019683 kJ/mol
# Density = 2.482744 g / cm^3
# Si number density = 24.884081 Si / 1000 Ang^3
#
#
#
# Elastic Constant Matrix: (Units=GPa)
#
#
# Indices 1 2 3 4 5 6 
#
# 1 112.7353 11.4129 46.9624 0.0000 0.0000 0.0000
# 2 11.4129 105.7303 63.7252 0.0000 0.0000 0.0000
# 3 46.9624 63.7252 139.6544 0.0000 0.0000 0.0000
# 4 0.0000 0.0000 0.0000 66.9631 0.0000 0.0000
# 5 0.0000 0.0000 0.0000 0.0000 33.9914 0.0000
# 6 0.0000 0.0000 0.0000 0.0000 0.0000 35.6453
#
#
#
# Elastic Compliance Matrix: (Units=1/GPa)
#
#
# Indices 1 2 3 4 5 6 
#
# 1 0.010457 0.001366 -0.004140 0.000000 0.000000 0.000000
# 2 0.001366 0.013225 -0.006494 0.000000 0.000000 0.000000
# 3 -0.004140 -0.006494 0.011516 0.000000 0.000000 0.000000
# 4 0.000000 0.000000 0.000000 0.014934 0.000000 0.000000
# 5 0.000000 0.000000 0.000000 0.000000 0.029419 0.000000
# 6 0.000000 0.000000 0.000000 0.000000 0.000000 0.028054
#
#
# Mechanical properties :
#
#
# Convention : Reuss Voigt Hill
#
# Bulk Modulus (GPa) = 60.01576 66.92456 63.47016
# Shear Modulus (GPa) = 37.96723 43.05459 40.51091
#
# Velocity S-wave (km/s) = 3.91034 4.16409 4.03921
# Velocity P-wave (km/s) = 6.67519 7.07619 6.87861
#
# Compressibility (1/GPa) = 0.01666229
#
# Stress axis : x y z
#
# Youngs Moduli (GPa) = 95.63413 75.61719 86.83686
#
# Poissons Ratio (x) = -0.10332 0.35948
# Poissons Ratio (y) = -0.13067 0.56391
# Poissons Ratio (z) = 0.39590 0.49105
#
# Static dielectric constant tensor:
#      x y z
#    x 2.187910 0.000000 0.000000 
#    y 0.000000 1.999960 0.000000 
#    z 0.000000 0.000000 1.753050 
# 
# From -- ./inp_files/9620.got.cif
#   From: 2010.05.17/outbox.cif.g08.bks.cpg/sg17_5_cif.got.tgz:9620.got - 2010.06.03 22:34:06.
