data_PCOD9311038
_publ_section_title
;
Structure prediction by ZEFSAII (Michael W. Deem and Ramdas Pophale) SiO2 
 PCOD9311038
Probable space group: P 2 2 21
;
_chemical_formula_sum "Si O2"
_cell_formula_units_Z 20
_cell_length_a 17.820491
_cell_length_b 11.346790
_cell_length_c 5.219693
_cell_angle_alpha 90.000000
_cell_angle_beta 90.000000
_cell_angle_gamma 90.000000
_cell_volume 1055.449950
_symmetry_space_group_name_H-M "P 2 2 21"
_symmetry_group_IT_number 17
_symmetry_cell_setting 'orthorhombic'
loop_
_space_group_symop_operation_xyz
x,y,z
-x,-y,1/2+z
x,-y,-z
-x,y,1/2-z
loop_
_atom_site_type_symbol
_atom_site_label
_atom_site_fract_x
_atom_site_fract_y
_atom_site_fract_z
Si Si1 0.389017 0.500000 0.000000
Si Si2 0.452716 0.240554 0.001178
Si Si3 0.050603 0.861546 0.499890
Si Si4 0.716701 0.500000 0.000000
Si Si5 0.713892 0.861050 0.460990
Si Si6 0.211694 0.753309 0.539285
O O1 0.437411 0.381186 0.007145
O O2 0.336495 0.503707 0.250722
O O3 0.500000 0.206822 0.250000
O O4 0.500000 0.211361 0.750000
O O5 0.371984 0.179140 0.993459
O O6 0.124534 0.782665 0.504033
O O7 0.000000 0.841529 0.250000
O O8 0.073897 0.000000 0.500000
O O9 0.000000 0.841992 0.750000
O O10 0.766595 0.617031 0.989663
O O11 0.761599 0.796778 0.682131
O O12 0.721358 0.000000 0.500000
O O13 0.743179 0.822540 0.182533
#
# Coordination Sequence:
#
# PCOD9311038 Si02
#       6
#     2   4   4   2   4   4
#     4  12  22  43  62  91 122 162 214 262 308 369
#     4  12  24  40  62  91 122 162 209 265 317 367
#     4  10  21  38  62  93 127 162 201 249 302 360
#     4  12  22  41  68  91 124 162 206 266 306 361
#     4  12  25  42  65  91 125 168 212 256 313 376
#     4  12  23  43  66  95 126 164 212 256 306 369
#
# _framework density 18.949265
#
# number of rings (size 3 to 8) (size 9 to 14) (size 15 to 20)
#    0.000    0.400    4.000    6.000    0.000    2.400 
#    0.000    1.000    0.000    0.000    0.000    0.000 
#    0.000    0.000    0.000    0.000    0.000    0.000 
#
# Total GULP energy -111979.736432 kJ/mol
# GULP energy per Si atom -5598.986822 kJ/mol
# Density = 1.890614 g / cm^3
# Si number density = 18.949265 Si / 1000 Ang^3
#
#
#
# Elastic Constant Matrix: (Units=GPa)
#
#
# Indices 1 2 3 4 5 6 
#
# 1 92.0828 -3.0502 28.0345 0.0000 0.0000 0.0000
# 2 -3.0502 61.9476 -13.3367 0.0000 0.0000 0.0000
# 3 28.0345 -13.3367 114.1221 0.0000 0.0000 0.0000
# 4 0.0000 0.0000 0.0000 -12.3570 0.0000 0.0000
# 5 0.0000 0.0000 0.0000 0.0000 25.7272 0.0000
# 6 0.0000 0.0000 0.0000 0.0000 0.0000 43.3960
#
#
#
# Elastic Compliance Matrix: (Units=1/GPa)
#
#
# Indices 1 2 3 4 5 6 
#
# 1 0.011738 -0.000044 -0.002889 0.000000 0.000000 0.000000
# 2 -0.000044 0.016559 0.001946 0.000000 0.000000 0.000000
# 3 -0.002889 0.001946 0.009700 0.000000 0.000000 0.000000
# 4 0.000000 0.000000 0.000000 -0.080926 0.000000 0.000000
# 5 0.000000 0.000000 0.000000 0.000000 0.038869 0.000000
# 6 0.000000 0.000000 0.000000 0.000000 0.000000 0.023044
#
#
# Mechanical properties :
#
#
# Convention : Reuss Voigt Hill
#
# Bulk Modulus (GPa) = 27.75943 32.38306 30.07125
# Shear Modulus (GPa) = 151.67652 28.45355 90.06503
#
# Velocity S-wave (km/s) = 8.95641 3.87921 6.90165
# Velocity P-wave (km/s) = 11.02894 6.09842 8.91146
#
# Compressibility (1/GPa) = 0.03602379
#
# Stress axis : x y z
#
# Youngs Moduli (GPa) = 85.19513 60.38839 103.09761
#
# Poissons Ratio (x) = 0.00265 0.29780
# Poissons Ratio (y) = 0.00374 -0.20063
# Poissons Ratio (z) = 0.24609 -0.11751
#
# Static dielectric constant tensor:
#      x y z
#    x 1.616470 0.000000 0.000000 
#    y 0.000000 1.637810 0.000000 
#    z 0.000000 0.000000 1.630150 
# 
# From -- ./inp_files/2025.got.cif
#   From: 2010.05.17/outbox.cif.g08.bks.cpg/sg17_2_cif.got.tgz:2025.got - 2010.06.03 22:34:06.
