data_PCOD9311522
_publ_section_title
;
Structure prediction by ZEFSAII (Michael W. Deem and Ramdas Pophale) SiO2 
 PCOD9311522
Probable space group: P 2 2 21
;
_chemical_formula_sum "Si O2"
_cell_formula_units_Z 18
_cell_length_a 8.127328
_cell_length_b 7.663084
_cell_length_c 12.285719
_cell_angle_alpha 90.000000
_cell_angle_beta 90.000000
_cell_angle_gamma 90.000000
_cell_volume 765.159459
_symmetry_space_group_name_H-M "P 2 2 21"
_symmetry_group_IT_number 17
_symmetry_cell_setting 'orthorhombic'
loop_
_space_group_symop_operation_xyz
x,y,z
-x,-y,1/2+z
x,-y,-z
-x,y,1/2-z
loop_
_atom_site_type_symbol
_atom_site_label
_atom_site_fract_x
_atom_site_fract_y
_atom_site_fract_z
Si Si1 0.549570 0.000000 0.500000
Si Si2 0.265949 0.884310 0.655506
Si Si3 0.813404 0.573919 0.700992
Si Si4 0.989372 0.692705 0.992547
Si Si5 0.220233 0.190562 0.829108
O O1 0.426892 0.906441 0.583739
O O2 0.661619 0.881434 0.423117
O O3 0.281844 0.720397 0.734805
O O4 0.118914 0.829193 0.573898
O O5 0.225745 0.050717 0.731781
O O6 0.850492 0.644464 0.580054
O O7 0.733146 0.384925 0.708431
O O8 0.000000 0.563734 0.750000
O O9 0.048355 0.230388 0.892682
O O10 0.904617 0.500000 0.000000
#
# Coordination Sequence:
#
# PCOD9311522 Si02
#       5
#     2   4   4   4   4
#     4  12  28  44  64 100 144 188 224 268 334 400
#     4  11  25  46  69 102 139 177 227 276 334 403
#     4   9  21  42  72 103 130 170 226 285 339 394
#     4   9  21  44  74 103 131 171 225 287 344 393
#     4  11  24  47  70  99 139 179 226 277 337 401
#
# _framework density 23.524511
#
# number of rings (size 3 to 8) (size 9 to 14) (size 15 to 20)
#    0.000    1.778    0.000    2.000    0.000   16.000 
#    0.000   30.000    0.000    0.000    0.000    0.000 
#    0.000    0.000    0.000    0.000    0.000    0.000 
#
# Total GULP energy -100705.620597 kJ/mol
# GULP energy per Si atom -5594.756700 kJ/mol
# Density = 2.347097 g / cm^3
# Si number density = 23.524511 Si / 1000 Ang^3
#
#
#
# Elastic Constant Matrix: (Units=GPa)
#
#
# Indices 1 2 3 4 5 6 
#
# 1 66.5534 65.8809 41.2314 0.0000 0.0000 0.0000
# 2 65.8809 191.8155 58.7501 0.0000 0.0000 0.0000
# 3 41.2314 58.7501 93.0896 0.0000 0.0000 0.0000
# 4 0.0000 0.0000 0.0000 59.7508 0.0000 0.0000
# 5 0.0000 0.0000 0.0000 0.0000 41.1812 0.0000
# 6 0.0000 0.0000 0.0000 0.0000 0.0000 -53.2076
#
#
#
# Elastic Compliance Matrix: (Units=1/GPa)
#
#
# Indices 1 2 3 4 5 6 
#
# 1 0.026299 -0.006775 -0.007373 0.000000 0.000000 0.000000
# 2 -0.006775 0.008208 -0.002179 0.000000 0.000000 0.000000
# 3 -0.007373 -0.002179 0.015383 0.000000 0.000000 0.000000
# 4 0.000000 0.000000 0.000000 0.016736 0.000000 0.000000
# 5 0.000000 0.000000 0.000000 0.000000 0.024283 0.000000
# 6 0.000000 0.000000 0.000000 0.000000 0.000000 -0.018794
#
#
# Mechanical properties :
#
#
# Convention : Reuss Voigt Hill
#
# Bulk Modulus (GPa) = 58.01623 75.90925 66.96274
# Shear Modulus (GPa) = 45.24283 21.91794 33.58038
#
# Velocity S-wave (km/s) = 4.39021 3.05570 3.78228
# Velocity P-wave (km/s) = 7.10029 6.69238 6.89935
#
# Compressibility (1/GPa) = 0.01723655
#
# Stress axis : x y z
#
# Youngs Moduli (GPa) = 38.02368 121.83798 65.00485
#
# Poissons Ratio (x) = 0.82539 0.47929
# Poissons Ratio (y) = 0.25759 0.14167
# Poissons Ratio (z) = 0.28035 0.26553
#
# Static dielectric constant tensor:
#      x y z
#    x 1.874520 0.000000 0.000000 
#    y 0.000000 1.935770 0.000000 
#    z 0.000000 0.000000 1.978140 
# 
# From -- ./inp_files/9242.got.cif
#   From: 2010.05.17/outbox.cif.g08.bks.cpg/sg17_5_cif.got.tgz:9242.got - 2010.06.03 22:34:06.
