data_PCOD9311792
_publ_section_title
;
Structure prediction by ZEFSAII (Michael W. Deem and Ramdas Pophale) SiO2 
 PCOD9311792
Probable space group: P 21 21 2
;
_chemical_formula_sum "Si O2"
_cell_formula_units_Z 30
_cell_length_a 6.369120
_cell_length_b 24.197525
_cell_length_c 12.025631
_cell_angle_alpha 90.000000
_cell_angle_beta 90.000000
_cell_angle_gamma 90.000000
_cell_volume 1853.353456
_symmetry_space_group_name_H-M "P 21 21 2"
_symmetry_group_IT_number 18
_symmetry_cell_setting 'orthorhombic'
loop_
_space_group_symop_operation_xyz
x,y,z
-x,-y,z
1/2+x,1/2-y,-z
1/2-x,1/2+y,-z
loop_
_atom_site_type_symbol
_atom_site_label
_atom_site_fract_x
_atom_site_fract_y
_atom_site_fract_z
Si Si1 0.882812 0.944644 0.365460
Si Si2 0.380131 0.763786 0.861538
Si Si3 0.798663 0.169008 0.058561
Si Si4 0.798643 0.830992 0.441439
Si Si5 0.880151 0.263786 0.361539
Si Si6 0.999990 0.701806 0.750000
Si Si7 0.500000 0.000000 0.249996
Si Si8 0.117186 0.944643 0.134541
O O1 0.887434 0.892738 0.446933
O O2 0.000003 0.928390 0.250002
O O3 0.651600 0.963495 0.327408
O O4 0.000000 0.000000 0.406474
O O5 0.522485 0.714722 0.914350
O O6 0.499989 0.783030 0.749999
O O7 0.159117 0.738719 0.821788
O O8 0.330575 0.810039 0.952501
O O9 0.644414 0.168390 0.165116
O O10 0.887453 0.107262 0.053068
O O11 0.669405 0.810038 0.547499
O O12 0.644394 0.831610 0.334884
O O13 0.977497 0.785279 0.414350
O O14 0.659137 0.238719 0.321787
O O15 0.651598 0.036507 0.172586
O O16 0.000000 0.000000 0.093529
#
# Coordination Sequence:
#
# PCOD9311792 Si02
#       8
#     4   4   4   4   4   4   2   4
#     4   9  18  31  47  75 106 133 171 209 258 310
#     4  10  21  33  49  78 107 139 174 211 259 310
#     4  11  19  34  52  75 109 140 169 215 263 314
#     4  11  19  34  52  75 109 140 169 215 263 314
#     4  10  21  33  49  78 107 139 174 211 259 310
#     4  10  19  32  50  75 103 140 171 210 260 320
#     4   8  16  32  48  78  98 136 164 212 258 316
#     4   9  18  31  47  75 106 133 171 209 258 310
#
# _framework density 16.186876000000002
#
# number of rings (size 3 to 8) (size 9 to 14) (size 15 to 20)
#    0.000    2.400    2.667    3.200    0.000    2.133 
#    0.000    0.000    0.000    0.000    0.000    5.600 
#    0.000    0.000    0.000    0.000    0.000    0.000 
#
# Total GULP energy -167205.212851 kJ/mol
# GULP energy per Si atom -5573.507095 kJ/mol
# Density = 1.615003 g / cm^3
# Si number density = 16.186876 Si / 1000 Ang^3
#
#
#
# Elastic Constant Matrix: (Units=GPa)
#
#
# Indices 1 2 3 4 5 6 
#
# 1 83.3144 36.6277 22.0812 0.0000 0.0000 0.0000
# 2 36.6277 131.5936 57.7905 0.0000 0.0000 0.0000
# 3 22.0812 57.7905 66.5442 0.0000 0.0000 0.0000
# 4 0.0000 0.0000 0.0000 23.8192 0.0000 0.0000
# 5 0.0000 0.0000 0.0000 0.0000 24.4186 0.0000
# 6 0.0000 0.0000 0.0000 0.0000 0.0000 8.9248
#
#
#
# Elastic Compliance Matrix: (Units=1/GPa)
#
#
# Indices 1 2 3 4 5 6 
#
# 1 0.013842 -0.002967 -0.002016 0.000000 0.000000 0.000000
# 2 -0.002967 0.012920 -0.010236 0.000000 0.000000 0.000000
# 3 -0.002016 -0.010236 0.024586 0.000000 0.000000 0.000000
# 4 0.000000 0.000000 0.000000 0.041983 0.000000 0.000000
# 5 0.000000 0.000000 0.000000 0.000000 0.040952 0.000000
# 6 0.000000 0.000000 0.000000 0.000000 0.000000 0.112047
#
#
# Mechanical properties :
#
#
# Convention : Reuss Voigt Hill
#
# Bulk Modulus (GPa) = 47.82587 57.16123 52.49355
# Shear Modulus (GPa) = 17.62184 22.42938 20.02561
#
# Velocity S-wave (km/s) = 3.30305 3.72647 3.52113
# Velocity P-wave (km/s) = 6.64508 7.34203 7.00223
#
# Compressibility (1/GPa) = 0.02090919
#
# Stress axis : x y z
#
# Youngs Moduli (GPa) = 72.24610 77.39746 40.67336
#
# Poissons Ratio (x) = 0.22966 0.08200
# Poissons Ratio (y) = 0.21437 0.41633
# Poissons Ratio (z) = 0.14565 0.79224
#
# Static dielectric constant tensor:
#      x y z
#    x 1.572560 0.000000 0.000000 
#    y 0.000000 1.560380 0.000000 
#    z 0.000000 0.000000 1.535130 
# 
# From -- ./inp_files/2126.got.cif
#   From: 2010.05.17/outbox.cif.g08.bks.cpg/sg18_2_cif.got.tgz:2126.got - 2010.06.03 22:40:56.
