data_PCOD9311550
_publ_section_title
;
Structure prediction by ZEFSAII (Michael W. Deem and Ramdas Pophale) SiO2 
 PCOD9311550
Probable space group: P 2 2 21
;
_chemical_formula_sum "Si O2"
_cell_formula_units_Z 12
_cell_length_a 6.465486
_cell_length_b 6.997635
_cell_length_c 11.845887
_cell_angle_alpha 90.000000
_cell_angle_beta 90.000000
_cell_angle_gamma 90.000000
_cell_volume 535.944782
_symmetry_space_group_name_H-M "P 2 2 21"
_symmetry_group_IT_number 17
_symmetry_cell_setting 'orthorhombic'
loop_
_space_group_symop_operation_xyz
x,y,z
-x,-y,1/2+z
x,-y,-z
-x,y,1/2-z
loop_
_atom_site_type_symbol
_atom_site_label
_atom_site_fract_x
_atom_site_fract_y
_atom_site_fract_z
Si Si1 0.491696 0.772064 0.086434
Si Si2 0.500000 0.575758 0.750000
Si Si3 0.871825 0.000000 0.000000
Si Si4 0.249005 0.868033 0.859523
O O1 0.503628 0.569671 0.145657
O O2 0.355668 0.925270 0.158258
O O3 0.371827 0.780816 0.967439
O O4 0.719240 0.851714 0.060602
O O5 0.304617 0.718858 0.761884
O O6 0.020431 0.093813 0.094465
#
# Coordination Sequence:
#
# PCOD9311550 Si02
#       4
#     4   2   2   4
#     4   9  20  40  61  85 121 157 193 241 292 346
#     4  12  20  36  66  92 116 150 196 248 294 340
#     4   8  18  44  64  78 120 164 190 236 296 346
#     4   9  20  40  61  85 121 157 193 241 292 346
#
# _framework density 22.390366
#
# number of rings (size 3 to 8) (size 9 to 14) (size 15 to 20)
#    0.000    3.333    0.000    2.000    0.000    0.000 
#    0.000   66.667    0.000    0.000    0.000    0.000 
#    0.000    0.000    0.000    0.000    0.000    0.000 
#
# Total GULP energy -66996.940303 kJ/mol
# GULP energy per Si atom -5583.078359 kJ/mol
# Density = 2.233940 g / cm^3
# Si number density = 22.390366 Si / 1000 Ang^3
#
#
#
# Elastic Constant Matrix: (Units=GPa)
#
#
# Indices 1 2 3 4 5 6 
#
# 1 163.0292 56.8442 19.4593 0.0000 0.0000 0.0000
# 2 56.8442 161.1432 23.9368 0.0000 0.0000 0.0000
# 3 19.4593 23.9368 29.3507 0.0000 0.0000 0.0000
# 4 0.0000 0.0000 0.0000 63.4427 0.0000 0.0000
# 5 0.0000 0.0000 0.0000 0.0000 30.2618 0.0000
# 6 0.0000 0.0000 0.0000 0.0000 0.0000 6.1788
#
#
#
# Elastic Compliance Matrix: (Units=1/GPa)
#
#
# Indices 1 2 3 4 5 6 
#
# 1 0.007232 -0.002092 -0.003088 0.000000 0.000000 0.000000
# 2 -0.002092 0.007666 -0.004865 0.000000 0.000000 0.000000
# 3 -0.003088 -0.004865 0.040086 0.000000 0.000000 0.000000
# 4 0.000000 0.000000 0.000000 0.015762 0.000000 0.000000
# 5 0.000000 0.000000 0.000000 0.000000 0.033045 0.000000
# 6 0.000000 0.000000 0.000000 0.000000 0.000000 0.161843
#
#
# Mechanical properties :
#
#
# Convention : Reuss Voigt Hill
#
# Bulk Modulus (GPa) = 28.65920 61.55597 45.10759
# Shear Modulus (GPa) = 16.81480 36.86219 26.83849
#
# Velocity S-wave (km/s) = 2.74338 4.06192 3.46593
# Velocity P-wave (km/s) = 4.78147 7.03923 6.01719
#
# Compressibility (1/GPa) = 0.03489281
#
# Stress axis : x y z
#
# Youngs Moduli (GPa) = 138.27307 130.43861 24.94637
#
# Poissons Ratio (x) = 0.27293 0.07704
# Poissons Ratio (y) = 0.28932 0.12137
# Poissons Ratio (z) = 0.42704 0.63459
#
# Static dielectric constant tensor:
#      x y z
#    x 1.808030 0.000000 0.000000 
#    y 0.000000 1.814310 0.000000 
#    z 0.000000 0.000000 1.989440 
# 
# From -- ./inp_files/8778.got.cif
#   From: 2010.05.17/outbox.cif.g08.bks.cpg/sg17_5_cif.got.tgz:8778.got - 2010.06.03 22:34:06.
