data_PCOD9311732
_publ_section_title
;
Structure prediction by ZEFSAII (Michael W. Deem and Ramdas Pophale) SiO2 
 PCOD9311732
Probable space group: P 21 21 2
;
_chemical_formula_sum "Si O2"
_cell_formula_units_Z 30
_cell_length_a 15.926813
_cell_length_b 11.810655
_cell_length_c 7.861922
_cell_angle_alpha 90.000000
_cell_angle_beta 90.000000
_cell_angle_gamma 90.000000
_cell_volume 1478.875436
_symmetry_space_group_name_H-M "P 21 21 2"
_symmetry_group_IT_number 18
_symmetry_cell_setting 'orthorhombic'
loop_
_space_group_symop_operation_xyz
x,y,z
-x,-y,z
1/2+x,1/2-y,-z
1/2-x,1/2+y,-z
loop_
_atom_site_type_symbol
_atom_site_label
_atom_site_fract_x
_atom_site_fract_y
_atom_site_fract_z
Si Si1 0.352176 0.189998 0.494020
Si Si2 0.228358 0.845741 0.266624
Si Si3 0.858064 0.824534 0.912341
Si Si4 0.000000 0.500000 0.797943
Si Si5 0.457630 0.234068 0.162889
Si Si6 0.130987 0.436727 0.511503
Si Si7 0.694091 0.233104 0.725010
Si Si8 0.323079 0.420180 0.080001
O O1 0.347317 0.280570 0.643745
O O2 0.422200 0.221448 0.354914
O O3 0.261683 0.199515 0.393288
O O4 0.369263 0.063659 0.560760
O O5 0.289345 0.748939 0.189414
O O6 0.278074 0.914122 0.408461
O O7 0.206945 0.927197 0.113280
O O8 0.949584 0.780701 0.862084
O O9 0.851112 0.956147 0.865427
O O10 0.840213 0.802186 0.113304
O O11 0.041685 0.603086 0.900270
O O12 0.067726 0.443141 0.671077
O O13 0.394266 0.323380 0.080386
O O14 0.122192 0.330800 0.384454
O O15 0.748844 0.130324 0.805409
#
# Coordination Sequence:
#
# PCOD9311732 Si02
#       8
#     4   4   4   2   4   4   4   4
#     4   9  19  36  59  82 116 151 195 242 292 339
#     4  10  20  36  60  89 112 156 201 236 289 352
#     4  11  20  37  59  86 121 156 195 238 293 351
#     4  10  20  38  60  82 114 154 186 250 296 344
#     4  10  21  39  57  84 117 156 188 244 297 346
#     4  10  18  36  58  81 118 145 196 240 288 341
#     4   9  20  35  56  89 111 154 198 234 286 354
#     4  10  21  37  60  83 123 152 195 236 294 347
#
# _framework density 20.285684
#
# number of rings (size 3 to 8) (size 9 to 14) (size 15 to 20)
#    0.000    2.133    1.333    2.000    0.000    1.067 
#    7.200    0.000    0.000    0.000    0.000    0.000 
#    0.000    0.000    0.000    0.000    0.000    0.000 
#
# Total GULP energy -167280.480543 kJ/mol
# GULP energy per Si atom -5576.016018 kJ/mol
# Density = 2.023951 g / cm^3
# Si number density = 20.285684 Si / 1000 Ang^3
#
#
#
# Elastic Constant Matrix: (Units=GPa)
#
#
# Indices 1 2 3 4 5 6 
#
# 1 46.3366 16.8912 -4.3426 0.0000 0.0000 0.0000
# 2 16.8912 90.8857 3.8384 0.0000 0.0000 0.0000
# 3 -4.3426 3.8384 29.7378 0.0000 0.0000 0.0000
# 4 0.0000 0.0000 0.0000 21.9823 0.0000 0.0000
# 5 0.0000 0.0000 0.0000 0.0000 15.8209 0.0000
# 6 0.0000 0.0000 0.0000 0.0000 0.0000 29.5903
#
#
#
# Elastic Compliance Matrix: (Units=1/GPa)
#
#
# Indices 1 2 3 4 5 6 
#
# 1 0.023622 -0.004561 0.004038 0.000000 0.000000 0.000000
# 2 -0.004561 0.011944 -0.002208 0.000000 0.000000 0.000000
# 3 0.004038 -0.002208 0.034502 0.000000 0.000000 0.000000
# 4 0.000000 0.000000 0.000000 0.045491 0.000000 0.000000
# 5 0.000000 0.000000 0.000000 0.000000 0.063208 0.000000
# 6 0.000000 0.000000 0.000000 0.000000 0.000000 0.033795
#
#
# Mechanical properties :
#
#
# Convention : Reuss Voigt Hill
#
# Bulk Modulus (GPa) = 15.47809 22.19267 18.83538
# Shear Modulus (GPa) = 20.87180 23.51690 22.19435
#
# Velocity S-wave (km/s) = 3.21112 3.40852 3.31129
# Velocity P-wave (km/s) = 4.62547 5.14339 4.89129
#
# Compressibility (1/GPa) = 0.06460747
#
# Stress axis : x y z
#
# Youngs Moduli (GPa) = 42.33302 83.72630 28.98392
#
# Poissons Ratio (x) = 0.38185 -0.11704
# Poissons Ratio (y) = 0.19307 0.06399
# Poissons Ratio (z) = -0.17095 0.18484
#
# Static dielectric constant tensor:
#      x y z
#    x 1.737400 0.000000 0.000000 
#    y 0.000000 1.723630 0.000000 
#    z 0.000000 0.000000 1.744530 
# 
# From -- ./inp_files/3892.got.cif
#   From: 2010.05.17/outbox.cif.g08.bks.cpg/sg18_2_cif.got.tgz:3892.got - 2010.06.03 22:40:56.
