data_PCOD9311818
_publ_section_title
;
Structure prediction by ZEFSAII (Michael W. Deem and Ramdas Pophale) SiO2 
 PCOD9311818
Probable space group: P 21 21 2
;
_chemical_formula_sum "Si O2"
_cell_formula_units_Z 32
_cell_length_a 22.924468
_cell_length_b 5.375883
_cell_length_c 12.139971
_cell_angle_alpha 90.000000
_cell_angle_beta 90.000000
_cell_angle_gamma 90.000000
_cell_volume 1496.121016
_symmetry_space_group_name_H-M "P 21 21 2"
_symmetry_group_IT_number 18
_symmetry_cell_setting 'orthorhombic'
loop_
_space_group_symop_operation_xyz
x,y,z
-x,-y,z
1/2+x,1/2-y,-z
1/2-x,1/2+y,-z
loop_
_atom_site_type_symbol
_atom_site_label
_atom_site_fract_x
_atom_site_fract_y
_atom_site_fract_z
Si Si1 0.063399 0.490563 0.046372
Si Si2 0.825820 0.753592 0.973924
Si Si3 0.357496 0.367219 0.836584
Si Si4 0.263899 0.199344 0.361131
Si Si5 0.760213 0.508422 0.157166
Si Si6 0.174163 0.201808 0.558133
Si Si7 0.962475 0.739431 0.515430
Si Si8 0.055602 0.175733 0.270631
O O1 0.111132 0.370620 0.966950
O O2 0.089865 0.743107 0.093866
O O3 0.058007 0.334571 0.159701
O O4 0.000000 0.500000 0.995328
O O5 0.783237 0.557525 0.033102
O O6 0.830904 0.956344 0.070856
O O7 0.799615 0.864047 0.863813
O O8 0.386317 0.510490 0.735878
O O9 0.311432 0.164682 0.795597
O O10 0.248041 0.256090 0.234629
O O11 0.206278 0.211851 0.438155
O O12 0.304299 0.435908 0.394688
O O13 0.296666 0.939134 0.380269
O O14 0.103754 0.225674 0.560266
O O15 0.950101 0.685841 0.385449
O O16 0.000000 0.500000 0.556931
O O17 0.000000 0.000000 0.524283
O O18 0.000000 0.000000 0.263772
#
# Coordination Sequence:
#
# PCOD9311818 Si02
#       8
#     4   4   4   4   4   4   4   4
#     4  10  19  34  53  80 120 167 200 245 302 363
#     4  10  22  35  55  89 121 157 205 254 300 388
#     4  10  21  33  52  83 122 160 189 250 293 377
#     4  10  24  40  67  87 128 170 207 272 309 374
#     4  11  22  38  59  86 123 164 209 252 324 360
#     4  10  23  44  60  98 122 161 222 253 318 382
#     4  11  24  38  63  92 127 165 199 264 319 381
#     4  10  20  31  52  85 122 159 202 232 304 388
#
# _framework density 21.388642000000001
#
# number of rings (size 3 to 8) (size 9 to 14) (size 15 to 20)
#    0.000    1.750    2.500    1.125    8.750    2.000 
#    0.000    0.000    0.000    0.750    6.500    0.000 
#    0.000    0.000    0.000    0.000    0.000    0.000 
#
# Total GULP energy -178625.804058 kJ/mol
# GULP energy per Si atom -5582.056377 kJ/mol
# Density = 2.133996 g / cm^3
# Si number density = 21.388642 Si / 1000 Ang^3
#
#
#
# Elastic Constant Matrix: (Units=GPa)
#
#
# Indices 1 2 3 4 5 6 
#
# 1 159.1536 43.0681 28.1430 0.0000 0.0000 0.0000
# 2 43.0681 82.1978 7.8288 0.0000 0.0000 0.0000
# 3 28.1430 7.8288 38.5800 0.0000 0.0000 0.0000
# 4 0.0000 0.0000 0.0000 17.3455 0.0000 0.0000
# 5 0.0000 0.0000 0.0000 0.0000 77.8712 0.0000
# 6 0.0000 0.0000 0.0000 0.0000 0.0000 37.3990
#
#
#
# Elastic Compliance Matrix: (Units=1/GPa)
#
#
# Indices 1 2 3 4 5 6 
#
# 1 0.008243 -0.003820 -0.005238 0.000000 0.000000 0.000000
# 2 -0.003820 0.014176 -0.000090 0.000000 0.000000 0.000000
# 3 -0.005238 -0.000090 0.029759 0.000000 0.000000 0.000000
# 4 0.000000 0.000000 0.000000 0.057652 0.000000 0.000000
# 5 0.000000 0.000000 0.000000 0.000000 0.012842 0.000000
# 6 0.000000 0.000000 0.000000 0.000000 0.000000 0.026739
#
#
# Mechanical properties :
#
#
# Convention : Reuss Voigt Hill
#
# Bulk Modulus (GPa) = 29.51389 48.66791 39.09090
# Shear Modulus (GPa) = 27.93279 39.91591 33.92435
#
# Velocity S-wave (km/s) = 3.61773 4.32466 3.98690
# Velocity P-wave (km/s) = 5.59280 6.90945 6.28569
#
# Compressibility (1/GPa) = 0.03388235
#
# Stress axis : x y z
#
# Youngs Moduli (GPa) = 121.31135 70.54188 33.60285
#
# Poissons Ratio (x) = 0.26949 0.17601
# Poissons Ratio (y) = 0.46344 0.00302
# Poissons Ratio (z) = 0.63543 0.00634
#
# Static dielectric constant tensor:
#      x y z
#    x 1.919860 0.000000 0.000000 
#    y 0.000000 1.705820 0.000000 
#    z 0.000000 0.000000 1.743440 
# 
# From -- ./inp_files/7023.got.cif
#   From: 2010.05.17/outbox.cif.g08.bks.cpg/sg18_4_cif.got.tgz:7023.got - 2010.06.03 22:40:56.
