data_PCOD9311996
_publ_section_title
;
Structure prediction by ZEFSAII (Michael W. Deem and Ramdas Pophale) SiO2 
 PCOD9311996
Probable space group: P 21 21 2
;
_chemical_formula_sum "Si O2"
_cell_formula_units_Z 32
_cell_length_a 5.026169
_cell_length_b 18.247269
_cell_length_c 15.646361
_cell_angle_alpha 90.000000
_cell_angle_beta 90.000000
_cell_angle_gamma 90.000000
_cell_volume 1434.988128
_symmetry_space_group_name_H-M "P 21 21 2"
_symmetry_group_IT_number 18
_symmetry_cell_setting 'orthorhombic'
loop_
_space_group_symop_operation_xyz
x,y,z
-x,-y,z
1/2+x,1/2-y,-z
1/2-x,1/2+y,-z
loop_
_atom_site_type_symbol
_atom_site_label
_atom_site_fract_x
_atom_site_fract_y
_atom_site_fract_z
Si Si1 0.481029 0.320761 0.796700
Si Si2 0.450405 0.414919 0.302576
Si Si3 0.443326 0.087857 0.786872
Si Si4 0.788219 0.241247 0.383480
Si Si5 0.284245 0.328112 0.445547
Si Si6 0.453644 0.087225 0.161197
Si Si7 0.555881 0.914385 0.969717
Si Si8 0.726467 0.225362 0.950483
O O1 0.372429 0.283413 0.710553
O O2 0.232387 0.369089 0.832015
O O3 0.600127 0.261668 0.865129
O O4 0.729836 0.375590 0.780103
O O5 0.500000 0.500000 0.285617
O O6 0.736762 0.382764 0.281790
O O7 0.346957 0.403224 0.397627
O O8 0.231465 0.382169 0.238502
O O9 0.309345 0.101684 0.878810
O O10 0.500000 0.000000 0.781838
O O11 0.993212 0.300410 0.421783
O O12 0.819174 0.175488 0.453202
O O13 0.491781 0.272609 0.398228
O O14 0.500000 0.000000 0.173913
O O15 0.337080 0.098726 0.064346
O O16 0.300556 0.862324 0.957021
O O17 0.500000 0.000000 0.968488
O O18 0.523799 0.252320 0.025430
#
# Coordination Sequence:
#
# PCOD9311996 Si02
#       8
#     4   4   4   4   4   4   4   4
#     4  12  23  43  64  93 123 161 205 259 311 357
#     4  10  20  35  55  83 117 149 188 242 295 352
#     4   9  20  35  54  83 116 152 196 235 288 362
#     4  10  23  40  63  88 118 155 196 243 292 366
#     4  10  21  40  61  89 117 153 196 237 302 365
#     4  11  24  43  65  88 123 166 209 254 307 361
#     4  10  22  41  60  85 123 167 205 248 302 359
#     4  12  24  41  58  91 124 159 205 258 301 360
#
# _framework density 22.299835999999999
#
# number of rings (size 3 to 8) (size 9 to 14) (size 15 to 20)
#    0.000    1.500    2.500    1.875    3.500    2.000 
#    0.000    6.875    0.000    1.500    0.000    0.000 
#    0.000    0.000    0.000    0.000    0.000    0.000 
#
# Total GULP energy -178448.189480 kJ/mol
# GULP energy per Si atom -5576.505921 kJ/mol
# Density = 2.224908 g / cm^3
# Si number density = 22.299836 Si / 1000 Ang^3
#
#
#
# Elastic Constant Matrix: (Units=GPa)
#
#
# Indices 1 2 3 4 5 6 
#
# 1 93.0438 17.9133 0.3457 0.0000 0.0000 0.0000
# 2 17.9133 87.1367 13.6660 0.0000 0.0000 0.0000
# 3 0.3457 13.6660 90.5525 0.0000 0.0000 0.0000
# 4 0.0000 0.0000 0.0000 32.2116 0.0000 0.0000
# 5 0.0000 0.0000 0.0000 0.0000 23.7641 0.0000
# 6 0.0000 0.0000 0.0000 0.0000 0.0000 19.0535
#
#
#
# Elastic Compliance Matrix: (Units=1/GPa)
#
#
# Indices 1 2 3 4 5 6 
#
# 1 0.011199 -0.002351 0.000312 0.000000 0.000000 0.000000
# 2 -0.002351 0.012248 -0.001839 0.000000 0.000000 0.000000
# 3 0.000312 -0.001839 0.011320 0.000000 0.000000 0.000000
# 4 0.000000 0.000000 0.000000 0.031045 0.000000 0.000000
# 5 0.000000 0.000000 0.000000 0.000000 0.042080 0.000000
# 6 0.000000 0.000000 0.000000 0.000000 0.000000 0.052484
#
#
# Mechanical properties :
#
#
# Convention : Reuss Voigt Hill
#
# Bulk Modulus (GPa) = 37.02373 37.17589 37.09981
# Shear Modulus (GPa) = 28.22685 30.92637 29.57661
#
# Velocity S-wave (km/s) = 3.56165 3.72807 3.64581
# Velocity P-wave (km/s) = 5.79246 5.93620 5.86477
#
# Compressibility (1/GPa) = 0.02700971
#
# Stress axis : x y z
#
# Youngs Moduli (GPa) = 89.29258 81.64549 88.34131
#
# Poissons Ratio (x) = 0.19197 -0.02757
# Poissons Ratio (y) = 0.20995 0.16250
# Poissons Ratio (z) = -0.02787 0.15018
#
# Static dielectric constant tensor:
#      x y z
#    x 1.811540 0.000000 0.000000 
#    y 0.000000 1.889360 0.000000 
#    z 0.000000 0.000000 1.855110 
# 
# From -- ./inp_files/6566.got.cif
#   From: 2010.05.17/outbox.cif.g08.bks.cpg/sg18_4_cif.got.tgz:6566.got - 2010.06.03 22:40:56.
