data_PCOD9311380
_publ_section_title
;
Structure prediction by ZEFSAII (Michael W. Deem and Ramdas Pophale) SiO2 
 PCOD9311380
Probable space group: P 2 2 21
;
_chemical_formula_sum "Si O2"
_cell_formula_units_Z 22
_cell_length_a 13.616364
_cell_length_b 12.330746
_cell_length_c 5.778417
_cell_angle_alpha 90.000000
_cell_angle_beta 90.000000
_cell_angle_gamma 90.000000
_cell_volume 970.195786
_symmetry_space_group_name_H-M "P 2 2 21"
_symmetry_group_IT_number 17
_symmetry_cell_setting 'orthorhombic'
loop_
_space_group_symop_operation_xyz
x,y,z
-x,-y,1/2+z
x,-y,-z
-x,y,1/2-z
loop_
_atom_site_type_symbol
_atom_site_label
_atom_site_fract_x
_atom_site_fract_y
_atom_site_fract_z
Si Si1 0.752956 0.000000 0.500000
Si Si2 0.160893 0.500000 0.500000
Si Si3 0.500000 0.441335 0.750000
Si Si4 0.604898 0.891869 0.144969
Si Si5 0.143620 0.800837 0.016623
Si Si6 0.000000 0.355654 0.250000
Si Si7 0.000000 0.939354 0.250000
Si Si8 0.697587 0.681989 0.207597
O O1 0.681919 0.935974 0.331230
O O2 0.817502 0.906114 0.624558
O O3 0.085818 0.564956 0.663642
O O4 0.232403 0.406790 0.593898
O O5 0.482469 0.500000 0.500000
O O6 0.401304 0.373695 0.793170
O O7 0.500000 0.858298 0.250000
O O8 0.659143 0.783656 0.051010
O O9 0.584125 0.000000 0.000000
O O10 0.235666 0.728663 0.086029
O O11 0.095809 0.862317 0.236180
O O12 0.057499 0.726454 0.919026
O O13 0.004314 0.000000 0.500000
#
# Coordination Sequence:
#
# PCOD9311380 Si02
#       8
#     2   2   2   4   4   2   2   4
#     4  10  24  42  64 108 140 202 242 318 386 478
#     4  12  26  48  72 110 150 216 258 346 388 482
#     4  12  28  54  82 120 158 208 268 336 396 480
#     4  11  23  44  70 103 152 193 254 312 395 473
#     4  11  25  44  73 109 154 203 263 320 398 473
#     4  12  27  47  76 114 158 208 280 340 406 472
#     4  12  25  47  74 108 158 214 264 322 388 474
#     4  11  26  47  74 112 152 207 263 326 400 479
#
# _framework density 22.675833000000001
#
# number of rings (size 3 to 8) (size 9 to 14) (size 15 to 20)
#    0.000    0.727    3.636    2.727    5.091    2.909 
#    4.909    0.000    0.000    0.000    0.000    0.000 
#    0.000    0.000    0.000    0.000    0.000    0.000 
#
# Total GULP energy -122647.697748 kJ/mol
# GULP energy per Si atom -5574.895352 kJ/mol
# Density = 2.262422 g / cm^3
# Si number density = 22.675833 Si / 1000 Ang^3
#
#
#
# Elastic Constant Matrix: (Units=GPa)
#
#
# Indices 1 2 3 4 5 6 
#
# 1 182.1234 80.2084 37.9834 0.0000 0.0000 0.0000
# 2 80.2084 171.2207 49.3646 0.0000 0.0000 0.0000
# 3 37.9834 49.3646 61.2966 0.0000 0.0000 0.0000
# 4 0.0000 0.0000 0.0000 32.5989 0.0000 0.0000
# 5 0.0000 0.0000 0.0000 0.0000 61.3337 0.0000
# 6 0.0000 0.0000 0.0000 0.0000 0.0000 61.6184
#
#
#
# Elastic Compliance Matrix: (Units=1/GPa)
#
#
# Indices 1 2 3 4 5 6 
#
# 1 0.007150 -0.002699 -0.002257 0.000000 0.000000 0.000000
# 2 -0.002699 0.008625 -0.005274 0.000000 0.000000 0.000000
# 3 -0.002257 -0.005274 0.021960 0.000000 0.000000 0.000000
# 4 0.000000 0.000000 0.000000 0.030676 0.000000 0.000000
# 5 0.000000 0.000000 0.000000 0.000000 0.016304 0.000000
# 6 0.000000 0.000000 0.000000 0.000000 0.000000 0.016229
#
#
# Mechanical properties :
#
#
# Convention : Reuss Voigt Hill
#
# Bulk Modulus (GPa) = 57.88498 83.30595 70.59546
# Shear Modulus (GPa) = 39.31970 47.58247 43.45108
#
# Velocity S-wave (km/s) = 4.16864 4.58578 4.38217
# Velocity P-wave (km/s) = 6.98231 8.05336 7.53689
#
# Compressibility (1/GPa) = 0.01727564
#
# Stress axis : x y z
#
# Youngs Moduli (GPa) = 139.85873 115.94056 45.53696
#
# Poissons Ratio (x) = 0.31288 0.10279
# Poissons Ratio (y) = 0.37743 0.24016
# Poissons Ratio (z) = 0.31571 0.61146
#
# Static dielectric constant tensor:
#      x y z
#    x 1.861470 0.000000 0.000000 
#    y 0.000000 1.913830 0.000000 
#    z 0.000000 0.000000 1.890810 
# 
# From -- ./inp_files/2132.got.cif
#   From: 2010.05.17/outbox.cif.g08.bks.cpg/sg17_2_cif.got.tgz:2132.got - 2010.06.03 22:34:06.
