data_PCOD9311641
_publ_section_title
;
Structure prediction by ZEFSAII (Michael W. Deem and Ramdas Pophale) SiO2 
 PCOD9311641
Probable space group: P 21 21 2
;
_chemical_formula_sum "Si O2"
_cell_formula_units_Z 32
_cell_length_a 21.754265
_cell_length_b 7.182938
_cell_length_c 8.765105
_cell_angle_alpha 90.000000
_cell_angle_beta 90.000000
_cell_angle_gamma 90.000000
_cell_volume 1369.631247
_symmetry_space_group_name_H-M "P 21 21 2"
_symmetry_group_IT_number 18
_symmetry_cell_setting 'orthorhombic'
loop_
_space_group_symop_operation_xyz
x,y,z
-x,-y,z
1/2+x,1/2-y,-z
1/2-x,1/2+y,-z
loop_
_atom_site_type_symbol
_atom_site_label
_atom_site_fract_x
_atom_site_fract_y
_atom_site_fract_z
Si Si1 0.700528 0.081561 0.078317
Si Si2 0.577842 0.168111 0.931651
Si Si3 0.045827 0.741905 0.564645
Si Si4 0.045827 0.741905 0.935355
Si Si5 0.828279 0.143006 0.922902
Si Si6 0.328279 0.356995 0.422902
Si Si7 0.077842 0.331889 0.431651
Si Si8 0.200528 0.418439 0.578317
O O1 0.701371 0.153233 0.250000
O O2 0.680358 0.866774 0.082370
O O3 0.648472 0.193732 0.985092
O O4 0.769067 0.078170 0.013463
O O5 0.573566 0.182848 0.750000
O O6 0.523218 0.284128 0.011478
O O7 0.562003 0.956859 0.987117
O O8 0.047073 0.725229 0.750000
O O9 0.102126 0.876573 0.517703
O O10 0.062003 0.543141 0.487117
O O11 0.976782 0.784128 0.511478
O O12 0.102126 0.876572 0.982297
O O13 0.825420 0.072833 0.750000
O O14 0.269067 0.421830 0.513463
O O15 0.319642 0.133226 0.417630
O O16 0.148472 0.306268 0.485092
#
# Coordination Sequence:
#
# PCOD9311641 Si02
#       8
#     4   4   4   4   4   4   4   4
#     4  10  20  33  50  72  99 130 161 197 242 287
#     4  10  17  26  44  69  95 123 159 199 238 281
#     4   9  16  28  45  67  96 124 156 199 242 282
#     4   9  16  28  45  67  96 124 156 199 242 282
#     4   9  19  33  49  72  99 127 160 197 237 286
#     4   9  19  33  49  72  99 127 160 197 237 286
#     4  10  17  26  44  69  95 123 159 199 238 281
#     4  10  20  33  50  72  99 130 161 197 242 287
#
# _framework density 23.363951
#
# number of rings (size 3 to 8) (size 9 to 14) (size 15 to 20)
#    0.000    2.500    0.000    6.750    0.000    6.000 
#    0.000    0.000    0.000    1.500    0.000   10.500 
#    0.000    0.000    0.000    0.000    0.000    0.000 
#
# Total GULP energy -178680.319093 kJ/mol
# GULP energy per Si atom -5583.759972 kJ/mol
# Density = 2.331077 g / cm^3
# Si number density = 23.363951 Si / 1000 Ang^3
#
#
#
# Elastic Constant Matrix: (Units=GPa)
#
#
# Indices 1 2 3 4 5 6 
#
# 1 225.8419 44.0845 71.8866 0.0000 0.0000 0.0000
# 2 44.0845 51.2428 -9.6767 0.0000 0.0000 0.0000
# 3 71.8866 -9.6767 111.8753 0.0000 0.0000 0.0000
# 4 0.0000 0.0000 0.0000 -2.6676 0.0000 0.0000
# 5 0.0000 0.0000 0.0000 0.0000 62.3629 0.0000
# 6 0.0000 0.0000 0.0000 0.0000 0.0000 44.9615
#
#
#
# Elastic Compliance Matrix: (Units=1/GPa)
#
#
# Indices 1 2 3 4 5 6 
#
# 1 0.007725 -0.007709 -0.005631 0.000000 0.000000 0.000000
# 2 -0.007709 0.027532 0.007335 0.000000 0.000000 0.000000
# 3 -0.005631 0.007335 0.013191 0.000000 0.000000 0.000000
# 4 0.000000 0.000000 0.000000 -0.374875 0.000000 0.000000
# 5 0.000000 0.000000 0.000000 0.000000 0.016035 0.000000
# 6 0.000000 0.000000 0.000000 0.000000 0.000000 0.022241
#
#
# Mechanical properties :
#
#
# Convention : Reuss Voigt Hill
#
# Bulk Modulus (GPa) = 27.44330 66.83874 47.14102
# Shear Modulus (GPa) = -18.93975 39.77574 10.41800
#
# Velocity S-wave (km/s) = -2.85026 4.13054 2.11393
# Velocity P-wave (km/s) = 0.96928 7.17065 5.11653
#
# Compressibility (1/GPa) = 0.03643877
#
# Stress axis : x y z
#
# Youngs Moduli (GPa) = 129.45134 36.32110 75.80976
#
# Poissons Ratio (x) = 0.28000 0.42685
# Poissons Ratio (y) = 0.99795 -0.55606
# Poissons Ratio (z) = 0.72888 -0.26641
#
# Static dielectric constant tensor:
#      x y z
#    x 1.976240 0.000000 0.000000 
#    y 0.000000 1.965300 0.000000 
#    z 0.000000 0.000000 1.790600 
# 
# From -- ./inp_files/4714.got.cif
#   From: 2010.05.17/outbox.cif.g08.bks.cpg/sg18_3_cif.got.tgz:4714.got - 2010.06.03 22:40:56.
