data_PCOD9311153
_publ_section_title
;
Structure prediction by ZEFSAII (Michael W. Deem and Ramdas Pophale) SiO2 
 PCOD9311153
Probable space group: P 2 2 21
;
_chemical_formula_sum "Si O2"
_cell_formula_units_Z 30
_cell_length_a 14.699634
_cell_length_b 5.466216
_cell_length_c 18.910335
_cell_angle_alpha 90.000000
_cell_angle_beta 90.000000
_cell_angle_gamma 90.000000
_cell_volume 1519.471411
_symmetry_space_group_name_H-M "P 2 2 21"
_symmetry_group_IT_number 17
_symmetry_cell_setting 'orthorhombic'
loop_
_space_group_symop_operation_xyz
x,y,z
-x,-y,1/2+z
x,-y,-z
-x,y,1/2-z
loop_
_atom_site_type_symbol
_atom_site_label
_atom_site_fract_x
_atom_site_fract_y
_atom_site_fract_z
Si Si1 0.500000 0.961645 0.750000
Si Si2 0.624034 0.240949 0.011620
Si Si3 0.506448 0.282161 0.620118
Si Si4 0.370169 0.360965 0.333378
Si Si5 0.203945 0.967567 0.078654
Si Si6 0.104338 0.981914 0.227717
Si Si7 0.305287 0.530391 0.883126
Si Si8 0.201071 0.484171 0.263429
O O1 0.586080 0.803173 0.773999
O O2 0.538051 0.085470 0.677587
O O3 0.599022 0.242068 0.093121
O O4 0.670261 0.500000 0.000000
O O5 0.539023 0.230638 0.956589
O O6 0.681799 0.000000 0.000000
O O7 0.421640 0.383482 0.665761
O O8 0.587602 0.476123 0.610361
O O9 0.264247 0.410913 0.328993
O O10 0.132733 0.965441 0.144279
O O11 0.256896 0.707063 0.080846
O O12 0.270574 0.204028 0.090268
O O13 0.163721 0.000000 0.000000
O O14 0.156681 0.752196 0.264074
O O15 0.000000 0.952737 0.250000
O O16 0.134956 0.254650 0.250560
O O17 0.271447 0.512400 0.802331
#
# Coordination Sequence:
#
# PCOD9311153 Si02
#       8
#     2   4   4   4   4   4   4   4
#     4  12  22  34  60  80 124 162 220 258 300 340
#     4  10  22  40  54  76 114 166 216 255 299 339
#     4  11  24  37  57  84 124 174 223 254 295 344
#     4  11  24  37  57  85 120 167 208 255 303 348
#     4  10  22  38  60  90 124 159 195 248 314 375
#     4  10  22  42  68  94 119 152 191 251 319 384
#     4  10  22  36  56  87 125 160 209 252 297 355
#     4  10  22  38  63  91 123 150 200 254 309 370
#
# _framework density 19.743708999999999
#
# number of rings (size 3 to 8) (size 9 to 14) (size 15 to 20)
#    0.000    1.600    1.333    2.800    9.333    3.733 
#    0.000    0.000    0.000    5.600    0.000    0.000 
#    0.000    0.000    0.000    0.000    0.000    0.000 
#
# Total GULP energy -167072.838169 kJ/mol
# GULP energy per Si atom -5569.094606 kJ/mol
# Density = 1.969877 g / cm^3
# Si number density = 19.743709 Si / 1000 Ang^3
#
#
#
# Elastic Constant Matrix: (Units=GPa)
#
#
# Indices 1 2 3 4 5 6 
#
# 1 79.8208 19.5671 32.5646 0.0000 0.0000 0.0000
# 2 19.5671 120.0932 32.9729 0.0000 0.0000 0.0000
# 3 32.5646 32.9729 100.0668 0.0000 0.0000 0.0000
# 4 0.0000 0.0000 0.0000 28.7034 0.0000 0.0000
# 5 0.0000 0.0000 0.0000 0.0000 9.6301 0.0000
# 6 0.0000 0.0000 0.0000 0.0000 0.0000 41.6079
#
#
#
# Elastic Compliance Matrix: (Units=1/GPa)
#
#
# Indices 1 2 3 4 5 6 
#
# 1 0.014597 -0.001181 -0.004361 0.000000 0.000000 0.000000
# 2 -0.001181 0.009251 -0.002664 0.000000 0.000000 0.000000
# 3 -0.004361 -0.002664 0.012290 0.000000 0.000000 0.000000
# 4 0.000000 0.000000 0.000000 0.034839 0.000000 0.000000
# 5 0.000000 0.000000 0.000000 0.000000 0.103841 0.000000
# 6 0.000000 0.000000 0.000000 0.000000 0.000000 0.024034
#
#
# Mechanical properties :
#
#
# Convention : Reuss Voigt Hill
#
# Bulk Modulus (GPa) = 50.69451 52.24335 51.46893
# Shear Modulus (GPa) = 22.53893 30.31337 26.42615
#
# Velocity S-wave (km/s) = 3.38239 3.92260 3.66247
# Velocity P-wave (km/s) = 6.40204 6.85813 6.63400
#
# Compressibility (1/GPa) = 0.01972600
#
# Stress axis : x y z
#
# Youngs Moduli (GPa) = 68.50848 108.10030 81.36494
#
# Poissons Ratio (x) = 0.12766 0.35484
# Poissons Ratio (y) = 0.08090 0.21675
# Poissons Ratio (z) = 0.29877 0.28797
#
# Static dielectric constant tensor:
#      x y z
#    x 1.663860 0.000000 0.000000 
#    y 0.000000 1.909060 0.000000 
#    z 0.000000 0.000000 1.774760 
# 
# From -- ./inp_files/9716.got.cif
#   From: 2010.05.17/outbox.cif.g08.bks.cpg/sg17_5_cif.got.tgz:9716.got - 2010.06.03 22:34:06.
