data_PCOD9311139
_publ_section_title
;
Structure prediction by ZEFSAII (Michael W. Deem and Ramdas Pophale) SiO2 
 PCOD9311139
Probable space group: P 2 2 21
;
_chemical_formula_sum "Si O2"
_cell_formula_units_Z 20
_cell_length_a 14.058184
_cell_length_b 7.920015
_cell_length_c 8.324538
_cell_angle_alpha 90.000000
_cell_angle_beta 90.000000
_cell_angle_gamma 90.000000
_cell_volume 926.862620
_symmetry_space_group_name_H-M "P 2 2 21"
_symmetry_group_IT_number 17
_symmetry_cell_setting 'orthorhombic'
loop_
_space_group_symop_operation_xyz
x,y,z
-x,-y,1/2+z
x,-y,-z
-x,y,1/2-z
loop_
_atom_site_type_symbol
_atom_site_label
_atom_site_fract_x
_atom_site_fract_y
_atom_site_fract_z
Si Si1 0.049415 0.500000 0.500000
Si Si2 0.402563 0.484744 0.192599
Si Si3 0.340456 0.163128 0.387410
Si Si4 0.781304 0.336901 0.834999
Si Si5 0.824180 0.013521 0.311643
Si Si6 0.000000 0.758247 0.750000
O O1 0.125567 0.553412 0.364951
O O2 0.991657 0.646455 0.587877
O O3 0.500000 0.574595 0.250000
O O4 0.402301 0.306364 0.294486
O O5 0.303511 0.572063 0.241573
O O6 0.405747 0.500000 0.000000
O O7 0.270494 0.269656 0.503599
O O8 0.375117 0.000000 0.500000
O O9 0.276602 0.086287 0.245863
O O10 0.823406 0.174165 0.751866
O O11 0.835033 0.000000 0.500000
O O12 0.907378 0.125512 0.236309
#
# Coordination Sequence:
#
# PCOD9311139 Si02
#       6
#     2   4   4   4   4   2
#     4  12  26  44  68  98 142 184 246 294 370 432
#     4  12  24  43  75 111 146 189 253 310 363 448
#     4  10  21  44  67  98 141 195 238 293 379 436
#     4  11  22  44  71  94 142 192 232 300 378 429
#     4  11  25  41  66  97 141 182 239 301 372 434
#     4  12  28  42  64 102 138 188 250 304 362 446
#
# _framework density 21.57817
#
# number of rings (size 3 to 8) (size 9 to 14) (size 15 to 20)
#    0.000    0.800    4.000    2.400    5.600    0.000 
#    1.800    9.000    0.000    0.000    0.000    0.000 
#    0.000    0.000    0.000    0.000    0.000    0.000 
#
# Total GULP energy -111537.783636 kJ/mol
# GULP energy per Si atom -5576.889182 kJ/mol
# Density = 2.152906 g / cm^3
# Si number density = 21.578170 Si / 1000 Ang^3
#
#
#
# Elastic Constant Matrix: (Units=GPa)
#
#
# Indices 1 2 3 4 5 6 
#
# 1 66.8155 43.2880 14.6249 0.0000 0.0000 0.0000
# 2 43.2880 86.6498 36.3734 0.0000 0.0000 0.0000
# 3 14.6249 36.3734 99.7814 0.0000 0.0000 0.0000
# 4 0.0000 0.0000 0.0000 26.0195 0.0000 0.0000
# 5 0.0000 0.0000 0.0000 0.0000 1022.8549 0.0000
# 6 0.0000 0.0000 0.0000 0.0000 0.0000 -9.8791
#
#
#
# Elastic Compliance Matrix: (Units=1/GPa)
#
#
# Indices 1 2 3 4 5 6 
#
# 1 0.022202 -0.011483 0.000932 0.000000 0.000000 0.000000
# 2 -0.011483 0.019564 -0.005449 0.000000 0.000000 0.000000
# 3 0.000932 -0.005449 0.011872 0.000000 0.000000 0.000000
# 4 0.000000 0.000000 0.000000 0.038433 0.000000 0.000000
# 5 0.000000 0.000000 0.000000 0.000000 0.000978 0.000000
# 6 0.000000 0.000000 0.000000 0.000000 0.000000 -0.101224
#
#
# Mechanical properties :
#
#
# Convention : Reuss Voigt Hill
#
# Bulk Modulus (GPa) = 46.21415 49.09102 47.65258
# Shear Modulus (GPa) = 161.09691 218.39641 189.74666
#
# Velocity S-wave (km/s) = 8.64982 10.07132 9.38752
# Velocity P-wave (km/s) = 11.01012 12.57146 11.81661
#
# Compressibility (1/GPa) = 0.02163840
#
# Stress axis : x y z
#
# Youngs Moduli (GPa) = 45.04105 51.11323 84.23450
#
# Poissons Ratio (x) = 0.58691 -0.07848
# Poissons Ratio (y) = 0.51719 0.45898
# Poissons Ratio (z) = -0.04196 0.27851
#
# Static dielectric constant tensor:
#      x y z
#    x 1.783660 0.000000 0.000000 
#    y 0.000000 0.582810 0.000000 
#    z 0.000000 0.000000 1.807840 
# 
# From -- ./inp_files/5035.got.cif
#   From: 2010.05.17/outbox.cif.g08.bks.cpg/sg17_3_cif.got.tgz:5035.got - 2010.06.03 22:34:06.
