data_PCOD9311942
_publ_section_title
;
Structure prediction by ZEFSAII (Michael W. Deem and Ramdas Pophale) SiO2 
 PCOD9311942
Probable space group: P 21 21 2
;
_chemical_formula_sum "Si O2"
_cell_formula_units_Z 24
_cell_length_a 11.623521
_cell_length_b 10.544180
_cell_length_c 7.558872
_cell_angle_alpha 90.000000
_cell_angle_beta 90.000000
_cell_angle_gamma 90.000000
_cell_volume 926.419114
_symmetry_space_group_name_H-M "P 21 21 2"
_symmetry_group_IT_number 18
_symmetry_cell_setting 'orthorhombic'
loop_
_space_group_symop_operation_xyz
x,y,z
-x,-y,z
1/2+x,1/2-y,-z
1/2-x,1/2+y,-z
loop_
_atom_site_type_symbol
_atom_site_label
_atom_site_fract_x
_atom_site_fract_y
_atom_site_fract_z
Si Si1 0.168241 0.393628 0.643402
Si Si2 0.988174 0.267846 0.867613
Si Si3 0.404880 0.402395 0.854032
Si Si4 0.597602 0.912182 0.662116
Si Si5 0.843596 0.960490 0.780864
Si Si6 0.337683 0.290941 0.426120
O O1 0.074663 0.374670 0.797469
O O2 0.291298 0.403640 0.737456
O O3 0.129208 0.504165 0.513301
O O4 0.207438 0.282249 0.501057
O O5 0.869139 0.276649 0.759143
O O6 0.062125 0.148884 0.788800
O O7 0.961748 0.229569 0.069931
O O8 0.500000 0.500000 0.783031
O O9 0.361677 0.463628 0.038658
O O10 0.714234 0.907982 0.774154
O O11 0.421878 0.224292 0.568924
O O12 0.500000 0.000000 0.748603
O O13 0.855410 0.061624 0.622851
#
# Coordination Sequence:
#
# PCOD9311942 Si02
#       6
#     4   4   4   4   4   4
#     4  11  22  38  61  92 116 154 200 242 290 349
#     4  10  19  41  61  81 120 154 192 244 292 344
#     4   9  21  42  57  84 118 159 199 234 285 355
#     4  11  21  37  58  91 124 146 192 245 293 345
#     4   9  20  40  62  80 115 161 193 233 294 348
#     4  10  20  37  62  86 112 155 192 243 294 339
#
# _framework density 25.906202
#
# number of rings (size 3 to 8) (size 9 to 14) (size 15 to 20)
#    0.000    2.000    3.333    1.500    0.000    2.667 
#   15.000    0.833    0.000    0.000    0.000    0.000 
#    0.000    0.000    0.000    0.000    0.000    0.000 
#
# Total GULP energy -133820.655984 kJ/mol
# GULP energy per Si atom -5575.860666 kJ/mol
# Density = 2.584724 g / cm^3
# Si number density = 25.906202 Si / 1000 Ang^3
#
#
#
# Elastic Constant Matrix: (Units=GPa)
#
#
# Indices 1 2 3 4 5 6 
#
# 1 131.7527 16.8930 22.5780 0.0000 0.0000 0.0000
# 2 16.8930 36.1190 -11.6376 0.0000 0.0000 0.0000
# 3 22.5780 -11.6376 64.8323 0.0000 0.0000 0.0000
# 4 0.0000 0.0000 0.0000 12.9374 0.0000 0.0000
# 5 0.0000 0.0000 0.0000 0.0000 49.5694 0.0000
# 6 0.0000 0.0000 0.0000 0.0000 0.0000 36.9685
#
#
#
# Elastic Compliance Matrix: (Units=1/GPa)
#
#
# Indices 1 2 3 4 5 6 
#
# 1 0.009009 -0.005545 -0.004133 0.000000 0.000000 0.000000
# 2 -0.005545 0.032799 0.007819 0.000000 0.000000 0.000000
# 3 -0.004133 0.007819 0.018267 0.000000 0.000000 0.000000
# 4 0.000000 0.000000 0.000000 0.077295 0.000000 0.000000
# 5 0.000000 0.000000 0.000000 0.000000 0.020174 0.000000
# 6 0.000000 0.000000 0.000000 0.000000 0.000000 0.027050
#
#
# Mechanical properties :
#
#
# Convention : Reuss Voigt Hill
#
# Bulk Modulus (GPa) = 17.74421 32.04120 24.89271
# Shear Modulus (GPa) = 24.14307 33.55309 28.84808
#
# Velocity S-wave (km/s) = 3.05608 3.60276 3.34062
# Velocity P-wave (km/s) = 4.39513 5.44991 4.95069
#
# Compressibility (1/GPa) = 0.05635640
#
# Stress axis : x y z
#
# Youngs Moduli (GPa) = 110.99749 30.48879 54.74302
#
# Poissons Ratio (x) = 0.16907 0.22625
# Poissons Ratio (y) = 0.61551 -0.42802
# Poissons Ratio (z) = 0.45874 -0.23838
#
# Static dielectric constant tensor:
#      x y z
#    x 2.048320 0.000000 0.000000 
#    y 0.000000 2.292900 0.000000 
#    z 0.000000 0.000000 2.118530 
# 
# From -- ./inp_files/3757.got.cif
#   From: 2010.05.17/outbox.cif.g08.bks.cpg/sg18_2_cif.got.tgz:3757.got - 2010.06.03 22:40:56.
