data_PCOD9311653
_publ_section_title
;
Structure prediction by ZEFSAII (Michael W. Deem and Ramdas Pophale) SiO2 
 PCOD9311653
Probable space group: P 21 21 2
;
_chemical_formula_sum "Si O2"
_cell_formula_units_Z 32
_cell_length_a 7.844372
_cell_length_b 11.363986
_cell_length_c 15.185717
_cell_angle_alpha 90.000000
_cell_angle_beta 90.000000
_cell_angle_gamma 90.000000
_cell_volume 1353.705436
_symmetry_space_group_name_H-M "P 21 21 2"
_symmetry_group_IT_number 18
_symmetry_cell_setting 'orthorhombic'
loop_
_space_group_symop_operation_xyz
x,y,z
-x,-y,z
1/2+x,1/2-y,-z
1/2-x,1/2+y,-z
loop_
_atom_site_type_symbol
_atom_site_label
_atom_site_fract_x
_atom_site_fract_y
_atom_site_fract_z
Si Si1 0.796307 0.216011 0.012533
Si Si2 0.151478 0.182789 0.622125
Si Si3 0.218216 0.232279 0.805542
Si Si4 0.697994 0.034142 0.857846
Si Si5 0.055955 0.134132 0.267253
Si Si6 0.621792 0.386214 0.916096
Si Si7 0.532575 0.246942 0.559648
Si Si8 0.687117 0.054596 0.665294
O O1 0.689787 0.197879 0.103668
O O2 0.988661 0.210842 0.048678
O O3 0.769043 0.116288 0.937037
O O4 0.774781 0.349616 0.977692
O O5 0.107188 0.240170 0.716525
O O6 0.338661 0.223885 0.588720
O O7 0.035209 0.211398 0.539811
O O8 0.180233 0.045678 0.641075
O O9 0.401048 0.281260 0.767688
O O10 0.219779 0.094739 0.835584
O O11 0.724396 0.102893 0.763573
O O12 0.500000 0.000000 0.872508
O O13 0.179319 0.131293 0.183555
O O14 0.107705 0.168265 0.364864
O O15 0.000000 0.000000 0.273755
O O16 0.500000 0.500000 0.922433
O O17 0.648455 0.133792 0.580684
O O18 0.500000 0.000000 0.681822
#
# Coordination Sequence:
#
# PCOD9311653 Si02
#       8
#     4   4   4   4   4   4   4   4
#     4  11  20  34  57  80 109 150 189 226 280 344
#     4   9  19  33  53  76 106 142 177 222 272 322
#     4   9  19  34  49  76 113 142 172 225 284 323
#     4  10  17  31  57  81 101 140 193 229 260 326
#     4   9  18  33  54  78 106 140 182 229 271 324
#     4  10  21  36  54  82 115 146 187 240 289 336
#     4  10  18  33  54  78 103 137 179 220 267 326
#     4   8  16  32  53  77 105 137 179 225 267 315
#
# _framework density 23.638819999999999
#
# number of rings (size 3 to 8) (size 9 to 14) (size 15 to 20)
#    0.000    2.500    0.000    5.250    0.000    2.000 
#    0.000    2.500    0.000    6.000    0.000    0.000 
#    0.000    0.000    0.000    0.000    0.000    0.000 
#
# Total GULP energy -178155.236818 kJ/mol
# GULP energy per Si atom -5567.351151 kJ/mol
# Density = 2.358502 g / cm^3
# Si number density = 23.638820 Si / 1000 Ang^3
#
#
#
# Elastic Constant Matrix: (Units=GPa)
#
#
# Indices 1 2 3 4 5 6 
#
# 1 25.2334 -2.8710 30.2239 0.0000 0.0000 0.0000
# 2 -2.8710 67.8229 30.3863 0.0000 0.0000 0.0000
# 3 30.2239 30.3863 190.4031 0.0000 0.0000 0.0000
# 4 0.0000 0.0000 0.0000 34.0126 0.0000 0.0000
# 5 0.0000 0.0000 0.0000 0.0000 -9.2457 0.0000
# 6 0.0000 0.0000 0.0000 0.0000 0.0000 20.0439
#
#
#
# Elastic Compliance Matrix: (Units=1/GPa)
#
#
# Indices 1 2 3 4 5 6 
#
# 1 0.051294 0.006267 -0.009142 0.000000 0.000000 0.000000
# 2 0.006267 0.016645 -0.003651 0.000000 0.000000 0.000000
# 3 -0.009142 -0.003651 0.007286 0.000000 0.000000 0.000000
# 4 0.000000 0.000000 0.000000 0.029401 0.000000 0.000000
# 5 0.000000 0.000000 0.000000 0.000000 -0.108158 0.000000
# 6 0.000000 0.000000 0.000000 0.000000 0.000000 0.049891
#
#
# Mechanical properties :
#
#
# Convention : Reuss Voigt Hill
#
# Bulk Modulus (GPa) = 16.08433 44.32641 30.20537
# Shear Modulus (GPa) = 62.39453 24.01017 43.20235
#
# Velocity S-wave (km/s) = 5.14317 3.19048 4.27968
# Velocity P-wave (km/s) = 6.48758 5.68897 6.10135
#
# Compressibility (1/GPa) = 0.06217229
#
# Stress axis : x y z
#
# Youngs Moduli (GPa) = 19.49561 60.07652 137.25056
#
# Poissons Ratio (x) = -0.37652 1.25479
# Poissons Ratio (y) = -0.12218 0.50114
# Poissons Ratio (z) = 0.17824 0.21936
#
# Static dielectric constant tensor:
#      x y z
#    x 2.000310 0.000000 0.000000 
#    y 0.000000 2.035220 0.000000 
#    z 0.000000 0.000000 1.956660 
# 
# From -- ./inp_files/6762.got.cif
#   From: 2010.05.17/outbox.cif.g08.bks.cpg/sg18_4_cif.got.tgz:6762.got - 2010.06.03 22:40:56.
