data_PCOD9311979
_publ_section_title
;
Structure prediction by ZEFSAII (Michael W. Deem and Ramdas Pophale) SiO2 
 PCOD9311979
Probable space group: P 21 21 2
;
_chemical_formula_sum "Si O2"
_cell_formula_units_Z 28
_cell_length_a 8.230411
_cell_length_b 17.118809
_cell_length_c 8.488536
_cell_angle_alpha 90.000000
_cell_angle_beta 90.000000
_cell_angle_gamma 90.000000
_cell_volume 1195.990870
_symmetry_space_group_name_H-M "P 21 21 2"
_symmetry_group_IT_number 18
_symmetry_cell_setting 'orthorhombic'
loop_
_space_group_symop_operation_xyz
x,y,z
-x,-y,z
1/2+x,1/2-y,-z
1/2-x,1/2+y,-z
loop_
_atom_site_type_symbol
_atom_site_label
_atom_site_fract_x
_atom_site_fract_y
_atom_site_fract_z
Si Si1 0.689872 0.743909 0.390942
Si Si2 0.826116 0.042800 0.894850
Si Si3 0.541474 0.319076 0.166343
Si Si4 0.662713 0.553085 0.757291
Si Si5 0.667512 0.069418 0.571079
Si Si6 0.641054 0.852860 0.682172
Si Si7 0.523231 0.285276 0.823775
O O1 0.525026 0.743930 0.288523
O O2 0.748977 0.655858 0.422650
O O3 0.660817 0.786836 0.551490
O O4 0.831772 0.788111 0.300170
O O5 0.729164 0.029029 0.733744
O O6 0.880305 0.132774 0.878255
O O7 0.757996 0.030440 0.071759
O O8 0.000000 0.000000 0.894505
O O9 0.680156 0.369005 0.251889
O O10 0.600009 0.292831 0.996868
O O11 0.500000 0.500000 0.739088
O O12 0.772455 0.540758 0.601011
O O13 0.598519 0.642953 0.781095
O O14 0.476265 0.084631 0.600086
O O15 0.550184 0.802313 0.816339
#
# Coordination Sequence:
#
# PCOD9311979 Si02
#       7
#     4   4   4   4   4   4   4
#     4  10  20  34  54  80 118 147 181 238 285 345
#     4   9  20  38  61  83 110 152 201 241 280 341
#     4  10  20  35  56  83 113 154 188 234 295 348
#     4  10  20  37  63  86 112 152 201 241 284 347
#     4  10  20  36  56  84 113 149 186 237 289 344
#     4  11  21  35  54  85 120 145 187 236 301 344
#     4  10  20  35  56  85 112 147 195 235 288 345
#
# _framework density 23.411550999999999
#
# number of rings (size 3 to 8) (size 9 to 14) (size 15 to 20)
#    0.000    2.000    1.429    3.000    2.000    1.143 
#    2.571    0.714    0.000    0.000    0.000    0.000 
#    0.000    0.000    0.000    0.000    0.000    0.000 
#
# Total GULP energy -156168.215286 kJ/mol
# GULP energy per Si atom -5577.436260 kJ/mol
# Density = 2.335826 g / cm^3
# Si number density = 23.411551 Si / 1000 Ang^3
#
#
#
# Elastic Constant Matrix: (Units=GPa)
#
#
# Indices 1 2 3 4 5 6 
#
# 1 79.5753 1.5724 57.5289 0.0000 0.0000 0.0000
# 2 1.5724 36.1782 14.9912 0.0000 0.0000 0.0000
# 3 57.5289 14.9912 197.1059 0.0000 0.0000 0.0000
# 4 0.0000 0.0000 0.0000 3.2745 0.0000 0.0000
# 5 0.0000 0.0000 0.0000 0.0000 18.0039 0.0000
# 6 0.0000 0.0000 0.0000 0.0000 0.0000 30.2909
#
#
#
# Elastic Compliance Matrix: (Units=1/GPa)
#
#
# Indices 1 2 3 4 5 6 
#
# 1 0.015985 0.001279 -0.004763 0.000000 0.000000 0.000000
# 2 0.001279 0.028643 -0.002552 0.000000 0.000000 0.000000
# 3 -0.004763 -0.002552 0.006658 0.000000 0.000000 0.000000
# 4 0.000000 0.000000 0.000000 0.305389 0.000000 0.000000
# 5 0.000000 0.000000 0.000000 0.000000 0.055544 0.000000
# 6 0.000000 0.000000 0.000000 0.000000 0.000000 0.033013
#
#
# Mechanical properties :
#
#
# Convention : Reuss Voigt Hill
#
# Bulk Modulus (GPa) = 25.50127 51.22716 38.36422
# Shear Modulus (GPa) = 10.62986 26.23165 18.43075
#
# Velocity S-wave (km/s) = 2.13314 3.35095 2.80884
# Velocity P-wave (km/s) = 4.12108 6.07458 5.19056
#
# Compressibility (1/GPa) = 0.03921373
#
# Stress axis : x y z
#
# Youngs Moduli (GPa) = 62.56021 34.91286 150.20532
#
# Poissons Ratio (x) = -0.04465 0.71538
# Poissons Ratio (y) = -0.08000 0.38328
# Poissons Ratio (z) = 0.29795 0.08909
#
# Static dielectric constant tensor:
#      x y z
#    x 1.889940 0.000000 0.000000 
#    y 0.000000 2.249140 0.000000 
#    z 0.000000 0.000000 1.900260 
# 
# From -- ./inp_files/3454.got.cif
#   From: 2010.05.17/outbox.cif.g08.bks.cpg/sg18_2_cif.got.tgz:3454.got - 2010.06.03 22:40:56.
