data_PCOD9311747
_publ_section_title
;
Structure prediction by ZEFSAII (Michael W. Deem and Ramdas Pophale) SiO2 
 PCOD9311747
Probable space group: P 21 21 2
;
_chemical_formula_sum "Si O2"
_cell_formula_units_Z 28
_cell_length_a 8.703685
_cell_length_b 20.363959
_cell_length_c 7.920530
_cell_angle_alpha 90.000000
_cell_angle_beta 90.000000
_cell_angle_gamma 90.000000
_cell_volume 1403.846495
_symmetry_space_group_name_H-M "P 21 21 2"
_symmetry_group_IT_number 18
_symmetry_cell_setting 'orthorhombic'
loop_
_space_group_symop_operation_xyz
x,y,z
-x,-y,z
1/2+x,1/2-y,-z
1/2-x,1/2+y,-z
loop_
_atom_site_type_symbol
_atom_site_label
_atom_site_fract_x
_atom_site_fract_y
_atom_site_fract_z
Si Si1 0.307893 0.221124 0.773294
Si Si2 0.500000 0.500000 0.305000
Si Si3 0.095075 0.294968 0.998513
Si Si4 0.109608 0.686275 0.673449
Si Si5 0.247757 0.904523 0.813146
Si Si6 0.255833 0.091252 0.554017
Si Si7 0.795952 0.697089 0.471869
Si Si8 0.000000 0.500000 0.271194
O O1 0.187815 0.233386 0.925051
O O2 0.253323 0.156195 0.673272
O O3 0.289586 0.283277 0.646762
O O4 0.478750 0.214828 0.846067
O O5 0.599105 0.550033 0.191666
O O6 0.608336 0.453742 0.418548
O O7 0.981453 0.316694 0.847444
O O8 0.224295 0.347753 0.051271
O O9 0.203686 0.621156 0.627194
O O10 0.228407 0.746424 0.652211
O O11 0.973868 0.696627 0.531829
O O12 0.259901 0.869724 0.627878
O O13 0.390664 0.953297 0.834965
O O14 0.395123 0.046343 0.615415
#
# Coordination Sequence:
#
# PCOD9311747 Si02
#       8
#     4   2   4   4   4   4   4   2
#     4  10  22  37  62  95 129 161 207 262 325 369
#     4  10  26  36  68  86 122 174 212 268 286 386
#     4  11  22  37  62  98 130 164 196 269 330 372
#     4  10  21  36  63  96 124 161 202 267 318 366
#     4  11  21  40  62  89 120 164 219 250 318 368
#     4  10  20  41  60  91 117 163 222 251 309 373
#     4  10  20  36  63  90 122 158 206 259 307 373
#     4  10  18  38  66  74 114 168 218 254 288 380
#
# _framework density 19.945201000000001
#
# number of rings (size 3 to 8) (size 9 to 14) (size 15 to 20)
#    0.000    1.714    2.857    1.714    8.000    0.000 
#    0.000    0.714    0.000    4.286    0.000    0.000 
#    0.000    0.000    0.000    0.000    0.000    0.000 
#
# Total GULP energy -156135.317873 kJ/mol
# GULP energy per Si atom -5576.261353 kJ/mol
# Density = 1.989980 g / cm^3
# Si number density = 19.945201 Si / 1000 Ang^3
#
#
#
# Elastic Constant Matrix: (Units=GPa)
#
#
# Indices 1 2 3 4 5 6 
#
# 1 111.3204 43.1673 28.7656 0.0000 0.0000 0.0000
# 2 43.1673 87.7218 25.9683 0.0000 0.0000 0.0000
# 3 28.7656 25.9683 74.9225 0.0000 0.0000 0.0000
# 4 0.0000 0.0000 0.0000 -1.7053 0.0000 0.0000
# 5 0.0000 0.0000 0.0000 0.0000 24.7552 0.0000
# 6 0.0000 0.0000 0.0000 0.0000 0.0000 32.3810
#
#
#
# Elastic Compliance Matrix: (Units=1/GPa)
#
#
# Indices 1 2 3 4 5 6 
#
# 1 0.011591 -0.004888 -0.002756 0.000000 0.000000 0.000000
# 2 -0.004888 0.014764 -0.003241 0.000000 0.000000 0.000000
# 3 -0.002756 -0.003241 0.015528 0.000000 0.000000 0.000000
# 4 0.000000 0.000000 0.000000 -0.586405 0.000000 0.000000
# 5 0.000000 0.000000 0.000000 0.000000 0.040396 0.000000
# 6 0.000000 0.000000 0.000000 0.000000 0.000000 0.030882
#
#
# Mechanical properties :
#
#
# Convention : Reuss Voigt Hill
#
# Bulk Modulus (GPa) = 49.71560 52.19636 50.95598
# Shear Modulus (GPa) = -11.24176 22.82374 5.79099
#
# Velocity S-wave (km/s) = -2.37667 3.38645 1.70580
# Velocity P-wave (km/s) = 4.17718 6.44340 5.42984
#
# Compressibility (1/GPa) = 0.02011441
#
# Stress axis : x y z
#
# Youngs Moduli (GPa) = 86.27684 67.73101 64.39781
#
# Poissons Ratio (x) = 0.33106 0.17748
# Poissons Ratio (y) = 0.42171 0.20870
# Poissons Ratio (z) = 0.23777 0.21950
#
# Static dielectric constant tensor:
#      x y z
#    x 1.739880 0.000000 0.000000 
#    y 0.000000 1.724840 0.000000 
#    z 0.000000 0.000000 1.763540 
# 
# From -- ./inp_files/3467.got.cif
#   From: 2010.05.17/outbox.cif.g08.bks.cpg/sg18_2_cif.got.tgz:3467.got - 2010.06.03 22:40:56.
