data_PCOD9311237
_publ_section_title
;
Structure prediction by ZEFSAII (Michael W. Deem and Ramdas Pophale) SiO2 
 PCOD9311237
Probable space group: P 2 2 21
;
_chemical_formula_sum "Si O2"
_cell_formula_units_Z 30
_cell_length_a 11.071311
_cell_length_b 14.129298
_cell_length_c 9.566361
_cell_angle_alpha 90.000000
_cell_angle_beta 90.000000
_cell_angle_gamma 90.000000
_cell_volume 1496.464439
_symmetry_space_group_name_H-M "P 2 2 21"
_symmetry_group_IT_number 17
_symmetry_cell_setting 'orthorhombic'
loop_
_space_group_symop_operation_xyz
x,y,z
-x,-y,1/2+z
x,-y,-z
-x,y,1/2-z
loop_
_atom_site_type_symbol
_atom_site_label
_atom_site_fract_x
_atom_site_fract_y
_atom_site_fract_z
Si Si1 0.726134 0.611513 0.990751
Si Si2 0.339427 0.236034 0.919358
Si Si3 0.864810 0.752683 0.194027
Si Si4 0.079202 0.051790 0.617656
Si Si5 0.326912 0.954530 0.645746
Si Si6 0.500000 0.100780 0.750000
Si Si7 0.641458 0.742476 0.750216
Si Si8 0.462763 0.427257 0.894185
O O1 0.805418 0.670152 0.101740
O O2 0.586173 0.611072 0.038859
O O3 0.761335 0.500000 0.000000
O O4 0.718971 0.666225 0.840578
O O5 0.221187 0.216024 0.824467
O O6 0.453866 0.170767 0.873432
O O7 0.376723 0.340345 0.869088
O O8 0.321982 0.241162 0.086990
O O9 0.868649 0.844263 0.091594
O O10 0.000000 0.729864 0.250000
O O11 0.000000 0.066312 0.750000
O O12 0.002503 0.000000 0.500000
O O13 0.185786 0.977826 0.645919
O O14 0.352254 0.845526 0.674547
O O15 0.373322 0.000000 0.500000
O O16 0.389970 0.026509 0.750541
O O17 0.500000 0.713834 0.750000
O O18 0.500000 0.475483 0.750000
O O19 0.404773 0.500000 0.000000
#
# Coordination Sequence:
#
# PCOD9311237 Si02
#       8
#     4   4   4   4   4   2   4   4
#     4  11  24  43  68  97 134 171 216 278 341 403
#     4  12  24  40  63  97 131 174 222 273 325 411
#     4  11  24  47  69  92 129 181 229 273 330 390
#     4  10  22  41  67  92 127 173 223 274 321 385
#     4  11  23  38  61  92 133 173 208 259 326 402
#     4  12  22  38  62  92 138 174 212 260 348 398
#     4  12  25  40  64 102 137 169 214 271 339 410
#     4  11  23  37  65  97 131 168 213 279 339 397
#
# _framework density 20.047253999999999
#
# number of rings (size 3 to 8) (size 9 to 14) (size 15 to 20)
#    0.000    0.800    5.333    2.400    3.733    2.133 
#    0.000    2.667    0.000    0.000    0.000    0.000 
#    0.000    0.000    0.000    0.000    0.000    0.000 
#
# Total GULP energy -167166.243178 kJ/mol
# GULP energy per Si atom -5572.208106 kJ/mol
# Density = 2.000163 g / cm^3
# Si number density = 20.047254 Si / 1000 Ang^3
#
#
#
# Elastic Constant Matrix: (Units=GPa)
#
#
# Indices 1 2 3 4 5 6 
#
# 1 48.2072 22.8626 6.9293 0.0000 0.0000 0.0000
# 2 22.8626 148.2940 58.0913 0.0000 0.0000 0.0000
# 3 6.9293 58.0913 105.4358 0.0000 0.0000 0.0000
# 4 0.0000 0.0000 0.0000 34.8768 0.0000 0.0000
# 5 0.0000 0.0000 0.0000 0.0000 18.7687 0.0000
# 6 0.0000 0.0000 0.0000 0.0000 0.0000 18.0463
#
#
#
# Elastic Compliance Matrix: (Units=1/GPa)
#
#
# Indices 1 2 3 4 5 6 
#
# 1 0.022405 -0.003669 0.000549 0.000000 0.000000 0.000000
# 2 -0.003669 0.009200 -0.004828 0.000000 0.000000 0.000000
# 3 0.000549 -0.004828 0.012108 0.000000 0.000000 0.000000
# 4 0.000000 0.000000 0.000000 0.028672 0.000000 0.000000
# 5 0.000000 0.000000 0.000000 0.000000 0.053280 0.000000
# 6 0.000000 0.000000 0.000000 0.000000 0.000000 0.055413
#
#
# Mechanical properties :
#
#
# Convention : Reuss Voigt Hill
#
# Bulk Modulus (GPa) = 35.94840 53.07814 44.51327
# Shear Modulus (GPa) = 24.24270 28.60863 26.42566
#
# Velocity S-wave (km/s) = 3.48124 3.78174 3.63460
# Velocity P-wave (km/s) = 5.84204 6.75298 6.31396
#
# Compressibility (1/GPa) = 0.02781765
#
# Stress axis : x y z
#
# Youngs Moduli (GPa) = 44.63278 108.69220 82.58771
#
# Poissons Ratio (x) = 0.39883 -0.04536
# Poissons Ratio (y) = 0.16377 0.39872
# Poissons Ratio (z) = -0.02451 0.52475
#
# Static dielectric constant tensor:
#      x y z
#    x 1.717460 0.000000 0.000000 
#    y 0.000000 1.854290 0.000000 
#    z 0.000000 0.000000 1.974540 
# 
# From -- ./inp_files/4918.got.cif
#   From: 2010.05.17/outbox.cif.g08.bks.cpg/sg17_3_cif.got.tgz:4918.got - 2010.06.03 22:34:06.
