data_PCOD9311331
_publ_section_title
;
Structure prediction by ZEFSAII (Michael W. Deem and Ramdas Pophale) SiO2 
 PCOD9311331
Probable space group: P 2 2 21
;
_chemical_formula_sum "Si O2"
_cell_formula_units_Z 18
_cell_length_a 13.548319
_cell_length_b 11.176416
_cell_length_c 5.515304
_cell_angle_alpha 90.000000
_cell_angle_beta 90.000000
_cell_angle_gamma 90.000000
_cell_volume 835.136428
_symmetry_space_group_name_H-M "P 2 2 21"
_symmetry_group_IT_number 17
_symmetry_cell_setting 'orthorhombic'
loop_
_space_group_symop_operation_xyz
x,y,z
-x,-y,1/2+z
x,-y,-z
-x,y,1/2-z
loop_
_atom_site_type_symbol
_atom_site_label
_atom_site_fract_x
_atom_site_fract_y
_atom_site_fract_z
Si Si1 0.941280 0.144282 0.000249
Si Si2 0.249436 0.781749 0.312696
Si Si3 0.605042 0.851667 0.802626
Si Si4 0.401833 0.363844 0.917109
Si Si5 0.752371 0.000000 0.500000
O O1 0.839240 0.219443 0.002881
O O2 0.000000 0.171923 0.750000
O O3 0.000000 0.166620 0.250000
O O4 0.921061 0.000000 0.000000
O O5 0.352721 0.826158 0.432504
O O6 0.293552 0.661362 0.200411
O O7 0.205093 0.881461 0.126818
O O8 0.500000 0.909623 0.750000
O O9 0.599224 0.730585 0.640542
O O10 0.685784 0.939956 0.700597
O O11 0.500000 0.343705 0.750000
O O12 0.408655 0.500000 0.000000
#
# Coordination Sequence:
#
# PCOD9311331 Si02
#       5
#     4   4   4   4   2
#     4  10  23  40  67  98 137 179 224 278 340 407
#     4  11  24  41  61  97 133 175 217 278 334 401
#     4  11  22  36  57  88 126 173 214 261 331 399
#     4  11  24  41  63  93 129 173 231 281 329 397
#     4  10  24  32  60  86 138 170 212 258 324 414
#
# _framework density 21.553366
#
# number of rings (size 3 to 8) (size 9 to 14) (size 15 to 20)
#    0.000    1.333    2.222    2.667   14.000    0.000 
#    0.000    0.000    0.000    0.000    5.778    0.000 
#    0.000    0.000    0.000    0.000    0.000    0.000 
#
# Total GULP energy -100251.652882 kJ/mol
# GULP energy per Si atom -5569.536271 kJ/mol
# Density = 2.150431 g / cm^3
# Si number density = 21.553366 Si / 1000 Ang^3
#
#
#
# Elastic Constant Matrix: (Units=GPa)
#
#
# Indices 1 2 3 4 5 6 
#
# 1 138.5785 28.0547 39.3876 0.0000 0.0000 0.0000
# 2 28.0547 94.1463 29.5794 0.0000 0.0000 0.0000
# 3 39.3876 29.5794 75.5814 0.0000 0.0000 0.0000
# 4 0.0000 0.0000 0.0000 30.4756 0.0000 0.0000
# 5 0.0000 0.0000 0.0000 0.0000 30.7224 0.0000
# 6 0.0000 0.0000 0.0000 0.0000 0.0000 24.3218
#
#
#
# Elastic Compliance Matrix: (Units=1/GPa)
#
#
# Indices 1 2 3 4 5 6 
#
# 1 0.008612 -0.001318 -0.003972 0.000000 0.000000 0.000000
# 2 -0.001318 0.012313 -0.004132 0.000000 0.000000 0.000000
# 3 -0.003972 -0.004132 0.016918 0.000000 0.000000 0.000000
# 4 0.000000 0.000000 0.000000 0.032813 0.000000 0.000000
# 5 0.000000 0.000000 0.000000 0.000000 0.032550 0.000000
# 6 0.000000 0.000000 0.000000 0.000000 0.000000 0.041115
#
#
# Mechanical properties :
#
#
# Convention : Reuss Voigt Hill
#
# Bulk Modulus (GPa) = 52.63620 55.81665 54.22643
# Shear Modulus (GPa) = 29.49901 31.18958 30.34429
#
# Velocity S-wave (km/s) = 3.70354 3.80819 3.75623
# Velocity P-wave (km/s) = 6.53931 6.72975 6.63522
#
# Compressibility (1/GPa) = 0.01899833
#
# Stress axis : x y z
#
# Youngs Moduli (GPa) = 116.11754 81.21679 59.10989
#
# Poissons Ratio (x) = 0.10707 0.23478
# Poissons Ratio (y) = 0.15308 0.24422
# Poissons Ratio (z) = 0.46122 0.33556
#
# Static dielectric constant tensor:
#      x y z
#    x 1.882210 0.000000 0.000000 
#    y 0.000000 1.797090 0.000000 
#    z 0.000000 0.000000 1.641200 
# 
# From -- ./inp_files/1993.got.cif
#   From: 2010.05.17/outbox.cif.g08.bks.cpg/sg17_1_cif.got.tgz:1993.got - 2010.06.03 22:34:06.
