data_PCOD9311348
_publ_section_title
;
Structure prediction by ZEFSAII (Michael W. Deem and Ramdas Pophale) SiO2 
 PCOD9311348
Probable space group: P 2 2 21
;
_chemical_formula_sum "Si O2"
_cell_formula_units_Z 18
_cell_length_a 5.836727
_cell_length_b 5.067495
_cell_length_c 23.028971
_cell_angle_alpha 90.000000
_cell_angle_beta 90.000000
_cell_angle_gamma 90.000000
_cell_volume 681.141345
_symmetry_space_group_name_H-M "P 2 2 21"
_symmetry_group_IT_number 17
_symmetry_cell_setting 'orthorhombic'
loop_
_space_group_symop_operation_xyz
x,y,z
-x,-y,1/2+z
x,-y,-z
-x,y,1/2-z
loop_
_atom_site_type_symbol
_atom_site_label
_atom_site_fract_x
_atom_site_fract_y
_atom_site_fract_z
Si Si1 0.851700 0.343382 0.660179
Si Si2 0.553931 0.376225 0.436971
Si Si3 0.174305 0.000000 0.000000
Si Si4 0.117312 0.147178 0.312681
Si Si5 0.133571 0.500000 0.500000
Si Si6 0.500000 0.120727 0.750000
O O1 0.680927 0.470659 0.613210
O O2 0.690497 0.293946 0.716866
O O3 0.985789 0.070212 0.648854
O O4 0.049585 0.559588 0.670200
O O5 0.610872 0.500000 0.500000
O O6 0.282917 0.408718 0.443740
O O7 0.656667 0.086416 0.447322
O O8 0.006332 0.760114 0.015051
O O9 0.378100 0.061432 0.299466
O O10 0.000000 0.117346 0.250000
#
# Coordination Sequence:
#
# PCOD9311348 Si02
#       6
#     4   4   2   4   2   2
#     4  11  25  42  73 105 139 187 237 294 362 420
#     4  10  26  45  69 104 147 182 242 297 345 436
#     4  12  22  44  70  92 140 190 228 290 354 410
#     4  10  23  43  69 103 135 178 233 286 351 426
#     4  10  24  42  70 100 138 190 236 280 350 426
#     4  10  24  48  74 102 146 186 234 302 360 422
#
# _framework density 26.42623
#
# number of rings (size 3 to 8) (size 9 to 14) (size 15 to 20)
#    0.667    0.889    1.111    2.667    3.111   11.556 
#    0.000    0.000    0.000    0.000    0.000    0.000 
#    0.000    0.000    0.000    0.000    0.000    0.000 
#
# Total GULP energy -100618.235312 kJ/mol
# GULP energy per Si atom -5589.901962 kJ/mol
# Density = 2.636608 g / cm^3
# Si number density = 26.426230 Si / 1000 Ang^3
#
#
#
# Elastic Constant Matrix: (Units=GPa)
#
#
# Indices 1 2 3 4 5 6 
#
# 1 121.4506 60.4743 30.3963 0.0000 0.0000 0.0000
# 2 60.4743 149.8858 4.5782 0.0000 0.0000 0.0000
# 3 30.3963 4.5782 62.3735 0.0000 0.0000 0.0000
# 4 0.0000 0.0000 0.0000 21.0430 0.0000 0.0000
# 5 0.0000 0.0000 0.0000 0.0000 50.5989 0.0000
# 6 0.0000 0.0000 0.0000 0.0000 0.0000 26.4500
#
#
#
# Elastic Compliance Matrix: (Units=1/GPa)
#
#
# Indices 1 2 3 4 5 6 
#
# 1 0.011911 -0.004639 -0.005464 0.000000 0.000000 0.000000
# 2 -0.004639 0.008493 0.001637 0.000000 0.000000 0.000000
# 3 -0.005464 0.001637 0.018575 0.000000 0.000000 0.000000
# 4 0.000000 0.000000 0.000000 0.047522 0.000000 0.000000
# 5 0.000000 0.000000 0.000000 0.000000 0.019763 0.000000
# 6 0.000000 0.000000 0.000000 0.000000 0.000000 0.037807
#
#
# Mechanical properties :
#
#
# Convention : Reuss Voigt Hill
#
# Bulk Modulus (GPa) = 45.35545 58.28973 51.82259
# Shear Modulus (GPa) = 29.69949 35.50243 32.60096
#
# Velocity S-wave (km/s) = 3.35605 3.66929 3.51616
# Velocity P-wave (km/s) = 5.67606 6.32906 6.01144
#
# Compressibility (1/GPa) = 0.02204807
#
# Stress axis : x y z
#
# Youngs Moduli (GPa) = 83.95443 117.73854 53.83552
#
# Poissons Ratio (x) = 0.54618 0.29417
# Poissons Ratio (y) = 0.38946 -0.08814
# Poissons Ratio (z) = 0.45874 -0.19277
#
# Static dielectric constant tensor:
#      x y z
#    x 2.204990 0.000000 0.000000 
#    y 0.000000 2.306080 0.000000 
#    z 0.000000 0.000000 2.217720 
# 
# From -- ./inp_files/10350.got.cif
#   From: 2010.05.17/outbox.cif.g08.bks.cpg/sg17_6_cif.got.tgz:10350.got - 2010.06.03 22:34:06.
