data_PCOD9311370
_publ_section_title
;
Structure prediction by ZEFSAII (Michael W. Deem and Ramdas Pophale) SiO2 
 PCOD9311370
Probable space group: P 2 2 21
;
_chemical_formula_sum "Si O2"
_cell_formula_units_Z 14
_cell_length_a 8.140925
_cell_length_b 14.645113
_cell_length_c 5.381946
_cell_angle_alpha 90.000000
_cell_angle_beta 90.000000
_cell_angle_gamma 90.000000
_cell_volume 641.661255
_symmetry_space_group_name_H-M "P 2 2 21"
_symmetry_group_IT_number 17
_symmetry_cell_setting 'orthorhombic'
loop_
_space_group_symop_operation_xyz
x,y,z
-x,-y,1/2+z
x,-y,-z
-x,y,1/2-z
loop_
_atom_site_type_symbol
_atom_site_label
_atom_site_fract_x
_atom_site_fract_y
_atom_site_fract_z
Si Si1 0.371258 0.000000 0.000000
Si Si2 0.826335 0.730824 0.627512
Si Si3 0.000000 0.555967 0.750000
Si Si4 0.000000 0.162888 0.750000
Si Si5 0.500000 0.834551 0.750000
Si Si6 0.839375 0.000000 0.000000
O O1 0.474807 0.093398 0.023971
O O2 0.261448 0.004125 0.244849
O O3 0.848470 0.622152 0.663822
O O4 0.854250 0.772163 0.351371
O O5 0.663504 0.773141 0.746167
O O6 0.000000 0.758586 0.750000
O O7 0.042334 0.500000 0.500000
O O8 0.057163 0.091282 0.540649
#
# Coordination Sequence:
#
# PCOD9311370 Si02
#       6
#     2   4   2   2   2   2
#     4  12  26  46  66 103 163 206 265 323 366 429
#     4  10  25  45  77 104 149 200 258 322 387 481
#     4  10  23  51  80 114 146 186 244 335 425 472
#     4  12  23  43  70 112 152 220 274 313 397 442
#     4  12  24  50  64 112 148 214 258 308 368 440
#     4  12  26  42  68 103 155 210 267 325 358 449
#
# _framework density 21.818366000000001
#
# number of rings (size 3 to 8) (size 9 to 14) (size 15 to 20)
#    0.857    0.000    2.857    4.286    2.000    0.000 
#    5.143    1.429    0.000    0.000    0.000    0.000 
#    0.000    0.000    0.000    0.000    0.000    0.000 
#
# Total GULP energy -78006.131524 kJ/mol
# GULP energy per Si atom -5571.866537 kJ/mol
# Density = 2.176871 g / cm^3
# Si number density = 21.818366 Si / 1000 Ang^3
#
#
#
# Elastic Constant Matrix: (Units=GPa)
#
#
# Indices 1 2 3 4 5 6 
#
# 1 128.1853 53.6627 46.5014 0.0000 0.0000 0.0000
# 2 53.6627 157.3312 64.1338 0.0000 0.0000 0.0000
# 3 46.5014 64.1338 149.3492 0.0000 0.0000 0.0000
# 4 0.0000 0.0000 0.0000 28.0925 0.0000 0.0000
# 5 0.0000 0.0000 0.0000 0.0000 48.6081 0.0000
# 6 0.0000 0.0000 0.0000 0.0000 0.0000 49.6819
#
#
#
# Elastic Compliance Matrix: (Units=1/GPa)
#
#
# Indices 1 2 3 4 5 6 
#
# 1 0.009527 -0.002473 -0.001904 0.000000 0.000000 0.000000
# 2 -0.002473 0.008347 -0.002814 0.000000 0.000000 0.000000
# 3 -0.001904 -0.002814 0.008497 0.000000 0.000000 0.000000
# 4 0.000000 0.000000 0.000000 0.035597 0.000000 0.000000
# 5 0.000000 0.000000 0.000000 0.000000 0.020573 0.000000
# 6 0.000000 0.000000 0.000000 0.000000 0.000000 0.020128
#
#
# Mechanical properties :
#
#
# Convention : Reuss Voigt Hill
#
# Bulk Modulus (GPa) = 83.41964 84.82906 84.12435
# Shear Modulus (GPa) = 41.30574 43.31436 42.31005
#
# Velocity S-wave (km/s) = 4.35577 4.46042 4.40841
# Velocity P-wave (km/s) = 7.97582 8.09266 8.03445
#
# Compressibility (1/GPa) = 0.01198759
#
# Stress axis : x y z
#
# Youngs Moduli (GPa) = 104.95957 119.80635 117.68674
#
# Poissons Ratio (x) = 0.29632 0.22412
# Poissons Ratio (y) = 0.25960 0.33119
# Poissons Ratio (z) = 0.19988 0.33716
#
# Static dielectric constant tensor:
#      x y z
#    x 1.954290 0.000000 0.000000 
#    y 0.000000 1.846070 0.000000 
#    z 0.000000 0.000000 1.960860 
# 
# From -- ./inp_files/682.got.cif
#   From: 2010.05.17/outbox.cif.g08.bks.cpg/sg17_1_cif.got.tgz:682.got - 2010.06.03 22:34:06.
