data_PCOD9311452
_publ_section_title
;
Structure prediction by ZEFSAII (Michael W. Deem and Ramdas Pophale) SiO2 
 PCOD9311452
Probable space group: P 2 2 21
;
_chemical_formula_sum "Si O2"
_cell_formula_units_Z 18
_cell_length_a 14.982462
_cell_length_b 11.786877
_cell_length_c 4.857801
_cell_angle_alpha 90.000000
_cell_angle_beta 90.000000
_cell_angle_gamma 90.000000
_cell_volume 857.870347
_symmetry_space_group_name_H-M "P 2 2 21"
_symmetry_group_IT_number 17
_symmetry_cell_setting 'orthorhombic'
loop_
_space_group_symop_operation_xyz
x,y,z
-x,-y,1/2+z
x,-y,-z
-x,y,1/2-z
loop_
_atom_site_type_symbol
_atom_site_label
_atom_site_fract_x
_atom_site_fract_y
_atom_site_fract_z
Si Si1 0.757267 0.424097 0.234083
Si Si2 0.714668 0.171350 0.329117
Si Si3 0.939965 0.672264 0.014678
Si Si4 0.168065 0.111938 0.663012
Si Si5 0.563131 0.000000 0.500000
O O1 0.775086 0.500000 0.500000
O O2 0.711496 0.307629 0.336739
O O3 0.849711 0.386537 0.089165
O O4 0.709085 0.500000 0.000000
O O5 0.793663 0.122873 0.527782
O O6 0.626724 0.103283 0.407812
O O7 0.744950 0.143113 0.019882
O O8 0.000000 0.691119 0.750000
O O9 0.905285 0.790813 0.136549
O O10 0.000000 0.612927 0.250000
O O11 0.134867 0.000000 0.500000
O O12 0.500000 0.965186 0.250000
#
# Coordination Sequence:
#
# PCOD9311452 Si02
#       5
#     4   4   4   4   2
#     4  11  23  41  64  87 118 174 224 260 311 369
#     4  11  22  41  63  94 128 157 208 254 300 391
#     4  11  23  37  54  86 122 158 215 277 320 355
#     4  11  20  37  61  82 121 174 209 250 316 377
#     4  12  24  40  70 106 132 154 186 252 334 382
#
# _framework density 20.982192999999999
#
# number of rings (size 3 to 8) (size 9 to 14) (size 15 to 20)
#    0.000    0.889    2.222    8.000    0.000    2.667 
#    0.000    2.222    0.000    2.667    0.000    0.000 
#    0.000    0.000    0.000    0.000    0.000    0.000 
#
# Total GULP energy -100558.425653 kJ/mol
# GULP energy per Si atom -5586.579203 kJ/mol
# Density = 2.093444 g / cm^3
# Si number density = 20.982193 Si / 1000 Ang^3
#
#
#
# Elastic Constant Matrix: (Units=GPa)
#
#
# Indices 1 2 3 4 5 6 
#
# 1 81.6974 33.4638 21.0771 0.0000 0.0000 0.0000
# 2 33.4638 141.7120 14.1539 0.0000 0.0000 0.0000
# 3 21.0771 14.1539 103.0401 0.0000 0.0000 0.0000
# 4 0.0000 0.0000 0.0000 33.0188 0.0000 0.0000
# 5 0.0000 0.0000 0.0000 0.0000 27.0013 0.0000
# 6 0.0000 0.0000 0.0000 0.0000 0.0000 -28.3384
#
#
#
# Elastic Compliance Matrix: (Units=1/GPa)
#
#
# Indices 1 2 3 4 5 6 
#
# 1 0.014144 -0.003093 -0.002468 0.000000 0.000000 0.000000
# 2 -0.003093 0.007831 -0.000443 0.000000 0.000000 0.000000
# 3 -0.002468 -0.000443 0.010271 0.000000 0.000000 0.000000
# 4 0.000000 0.000000 0.000000 0.030286 0.000000 0.000000
# 5 0.000000 0.000000 0.000000 0.000000 0.037035 0.000000
# 6 0.000000 0.000000 0.000000 0.000000 0.000000 -0.035288
#
#
# Mechanical properties :
#
#
# Convention : Reuss Voigt Hill
#
# Bulk Modulus (GPa) = 49.41508 51.53768 50.47638
# Shear Modulus (GPa) = 60.21592 23.51998 41.86795
#
# Velocity S-wave (km/s) = 5.36292 3.35169 4.47184
# Velocity P-wave (km/s) = 7.87083 6.29240 7.12546
#
# Compressibility (1/GPa) = 0.02023674
#
# Stress axis : x y z
#
# Youngs Moduli (GPa) = 70.70033 127.69273 97.36433
#
# Poissons Ratio (x) = 0.39501 0.24032
# Poissons Ratio (y) = 0.21871 0.04313
# Poissons Ratio (z) = 0.17451 0.05656
#
# Static dielectric constant tensor:
#      x y z
#    x 1.711340 0.000000 0.000000 
#    y 0.000000 1.847070 0.000000 
#    z 0.000000 0.000000 1.832220 
# 
# From -- ./inp_files/1346.got.cif
#   From: 2010.05.17/outbox.cif.g08.bks.cpg/sg17_1_cif.got.tgz:1346.got - 2010.06.03 22:34:06.
