data_PCOD9311891
_publ_section_title
;
Structure prediction by ZEFSAII (Michael W. Deem and Ramdas Pophale) SiO2 
 PCOD9311891
Probable space group: P 21 21 2
;
_chemical_formula_sum "Si O2"
_cell_formula_units_Z 30
_cell_length_a 8.345060
_cell_length_b 18.263394
_cell_length_c 9.291558
_cell_angle_alpha 90.000000
_cell_angle_beta 90.000000
_cell_angle_gamma 90.000000
_cell_volume 1416.118166
_symmetry_space_group_name_H-M "P 21 21 2"
_symmetry_group_IT_number 18
_symmetry_cell_setting 'orthorhombic'
loop_
_space_group_symop_operation_xyz
x,y,z
-x,-y,z
1/2+x,1/2-y,-z
1/2-x,1/2+y,-z
loop_
_atom_site_type_symbol
_atom_site_label
_atom_site_fract_x
_atom_site_fract_y
_atom_site_fract_z
Si Si1 0.743362 0.286401 0.149288
Si Si2 0.263984 0.071568 0.393441
Si Si3 0.370052 0.360488 0.812972
Si Si4 0.579358 0.692756 0.324927
Si Si5 0.000000 0.000000 0.203556
Si Si6 0.742985 0.319438 0.831212
Si Si7 0.584420 0.815226 0.565041
Si Si8 0.727221 0.090501 0.494735
O O1 0.753690 0.199229 0.118023
O O2 0.575876 0.307860 0.223361
O O3 0.875936 0.299266 0.271420
O O4 0.776204 0.325448 0.999716
O O5 0.339619 0.117239 0.258238
O O6 0.264160 0.136839 0.507592
O O7 0.103660 0.046812 0.314734
O O8 0.312172 0.995030 0.467036
O O9 0.393404 0.441616 0.881248
O O10 0.550752 0.328231 0.816027
O O11 0.294981 0.377777 0.656126
O O12 0.706638 0.741703 0.235268
O O13 0.557641 0.743351 0.468285
O O14 0.646002 0.615287 0.382687
O O15 0.434136 0.867207 0.536266
#
# Coordination Sequence:
#
# PCOD9311891 Si02
#       8
#     4   4   4   4   2   4   4   4
#     4  12  23  37  64  98 144 170 220 284 346 415
#     4   9  21  37  66  87 126 171 228 272 337 405
#     4  10  19  37  63  92 129 172 221 277 328 404
#     4  11  22  36  62 100 126 172 226 279 340 395
#     4   8  18  34  62  92 120 172 220 268 330 406
#     4  10  23  41  62  94 136 181 215 275 346 424
#     4  11  21  37  62  97 127 170 219 288 332 396
#     4  11  21  38  66  93 123 168 232 283 331 391
#
# _framework density 21.184674999999999
#
# number of rings (size 3 to 8) (size 9 to 14) (size 15 to 20)
#    0.000    1.600    2.667    2.000    7.467    0.000 
#    0.000    0.000   26.400    3.200    0.000    0.000 
#    0.000    0.000    0.000    0.000    0.000    0.000 
#
# Total GULP energy -167039.341197 kJ/mol
# GULP energy per Si atom -5567.978040 kJ/mol
# Density = 2.113646 g / cm^3
# Si number density = 21.184675 Si / 1000 Ang^3
#
#
#
# Elastic Constant Matrix: (Units=GPa)
#
#
# Indices 1 2 3 4 5 6 
#
# 1 38.2682 15.7654 19.3264 0.0000 0.0000 0.0000
# 2 15.7654 108.0799 55.6689 0.0000 0.0000 0.0000
# 3 19.3264 55.6689 122.3160 0.0000 0.0000 0.0000
# 4 0.0000 0.0000 0.0000 16.1802 0.0000 0.0000
# 5 0.0000 0.0000 0.0000 0.0000 16.7631 0.0000
# 6 0.0000 0.0000 0.0000 0.0000 0.0000 35.3915
#
#
#
# Elastic Compliance Matrix: (Units=1/GPa)
#
#
# Indices 1 2 3 4 5 6 
#
# 1 0.028879 -0.002432 -0.003456 0.000000 0.000000 0.000000
# 2 -0.002432 0.012290 -0.005209 0.000000 0.000000 0.000000
# 3 -0.003456 -0.005209 0.011092 0.000000 0.000000 0.000000
# 4 0.000000 0.000000 0.000000 0.061804 0.000000 0.000000
# 5 0.000000 0.000000 0.000000 0.000000 0.059655 0.000000
# 6 0.000000 0.000000 0.000000 0.000000 0.000000 0.028255
#
#
# Mechanical properties :
#
#
# Convention : Reuss Voigt Hill
#
# Bulk Modulus (GPa) = 33.25980 50.02063 41.64021
# Shear Modulus (GPa) = 21.34991 25.52720 23.43856
#
# Velocity S-wave (km/s) = 3.17803 3.47505 3.32986
# Velocity P-wave (km/s) = 5.40375 6.30589 5.87217
#
# Compressibility (1/GPa) = 0.03006632
#
# Stress axis : x y z
#
# Youngs Moduli (GPa) = 34.62748 81.36434 90.15120
#
# Poissons Ratio (x) = 0.19792 0.31155
# Poissons Ratio (y) = 0.08423 0.46963
# Poissons Ratio (z) = 0.11967 0.42385
#
# Static dielectric constant tensor:
#      x y z
#    x 1.856140 0.000000 0.000000 
#    y 0.000000 1.898590 0.000000 
#    z 0.000000 0.000000 1.748540 
# 
# From -- ./inp_files/3489.got.cif
#   From: 2010.05.17/outbox.cif.g08.bks.cpg/sg18_2_cif.got.tgz:3489.got - 2010.06.03 22:40:56.
