data_PCOD9311637
_publ_section_title
;
Structure prediction by ZEFSAII (Michael W. Deem and Ramdas Pophale) SiO2 
 PCOD9311637
Probable space group: P 21 21 2
;
_chemical_formula_sum "Si O2"
_cell_formula_units_Z 24
_cell_length_a 9.781502
_cell_length_b 14.612087
_cell_length_c 6.962449
_cell_angle_alpha 90.000000
_cell_angle_beta 90.000000
_cell_angle_gamma 90.000000
_cell_volume 995.130012
_symmetry_space_group_name_H-M "P 21 21 2"
_symmetry_group_IT_number 18
_symmetry_cell_setting 'orthorhombic'
loop_
_space_group_symop_operation_xyz
x,y,z
-x,-y,z
1/2+x,1/2-y,-z
1/2-x,1/2+y,-z
loop_
_atom_site_type_symbol
_atom_site_label
_atom_site_fract_x
_atom_site_fract_y
_atom_site_fract_z
Si Si1 0.000000 0.000000 0.501520
Si Si2 0.391909 0.322170 0.457348
Si Si3 0.781112 0.942962 0.182030
Si Si4 0.679990 0.643964 0.903380
Si Si5 0.000000 0.500000 0.637215
Si Si6 0.414418 0.824673 0.584676
Si Si7 0.924910 0.759728 0.024363
O O1 0.059003 0.917888 0.625263
O O2 0.878065 0.957743 0.369864
O O3 0.375784 0.347222 0.685823
O O4 0.501356 0.243036 0.449766
O O5 0.241873 0.294551 0.398313
O O6 0.621713 0.950915 0.243119
O O7 0.834903 0.849500 0.086321
O O8 0.806591 0.035894 0.058981
O O9 0.570230 0.697002 0.035038
O O10 0.824239 0.695758 0.904105
O O11 0.928180 0.575133 0.501620
O O12 0.466615 0.808003 0.799438
#
# Coordination Sequence:
#
# PCOD9311637 Si02
#       7
#     2   4   4   4   2   4   4
#     4  10  16  40  62  82 110 168 206 244 302 384
#     4  10  21  38  64  89 120 161 213 251 319 379
#     4  11  20  42  67  86 121 175 209 250 316 396
#     4  10  22  40  63  91 119 170 211 253 315 382
#     4  12  24  36  66  98 128 160 214 258 328 390
#     4  11  22  38  61  95 125 157 205 268 310 373
#     4  11  23  41  65  91 127 162 216 266 310 371
#
# _framework density 24.117452
#
# number of rings (size 3 to 8) (size 9 to 14) (size 15 to 20)
#    0.000    1.333    8.333    1.000    2.333    1.333 
#    6.000    0.000    3.667    0.000    0.000    0.000 
#    0.000    0.000    0.000    0.000    0.000    0.000 
#
# Total GULP energy -134122.219139 kJ/mol
# GULP energy per Si atom -5588.425797 kJ/mol
# Density = 2.406256 g / cm^3
# Si number density = 24.117452 Si / 1000 Ang^3
#
#
#
# Elastic Constant Matrix: (Units=GPa)
#
#
# Indices 1 2 3 4 5 6 
#
# 1 140.8119 18.4894 9.3674 0.0000 0.0000 0.0000
# 2 18.4894 108.6520 13.0014 0.0000 0.0000 0.0000
# 3 9.3674 13.0014 30.5846 0.0000 0.0000 0.0000
# 4 0.0000 0.0000 0.0000 26.8902 0.0000 0.0000
# 5 0.0000 0.0000 0.0000 0.0000 22.5933 0.0000
# 6 0.0000 0.0000 0.0000 0.0000 0.0000 46.9901
#
#
#
# Elastic Compliance Matrix: (Units=1/GPa)
#
#
# Indices 1 2 3 4 5 6 
#
# 1 0.007358 -0.001035 -0.001814 0.000000 0.000000 0.000000
# 2 -0.001035 0.009843 -0.003867 0.000000 0.000000 0.000000
# 3 -0.001814 -0.003867 0.034896 0.000000 0.000000 0.000000
# 4 0.000000 0.000000 0.000000 0.037188 0.000000 0.000000
# 5 0.000000 0.000000 0.000000 0.000000 0.044261 0.000000
# 6 0.000000 0.000000 0.000000 0.000000 0.000000 0.021281
#
#
# Mechanical properties :
#
#
# Convention : Reuss Voigt Hill
#
# Bulk Modulus (GPa) = 25.86332 40.19610 33.02971
# Shear Modulus (GPa) = 27.60199 35.24075 31.42137
#
# Velocity S-wave (km/s) = 3.38669 3.82673 3.61341
# Velocity P-wave (km/s) = 5.10295 6.01898 5.57979
#
# Compressibility (1/GPa) = 0.03866480
#
# Stress axis : x y z
#
# Youngs Moduli (GPa) = 135.90198 101.59945 28.65696
#
# Poissons Ratio (x) = 0.10517 0.05197
# Poissons Ratio (y) = 0.14068 0.11082
# Poissons Ratio (z) = 0.24648 0.39289
#
# Static dielectric constant tensor:
#      x y z
#    x 1.941940 0.000000 0.000000 
#    y 0.000000 1.971710 0.000000 
#    z 0.000000 0.000000 2.026250 
# 
# From -- ./inp_files/3188.got.cif
#   From: 2010.05.17/outbox.cif.g08.bks.cpg/sg18_2_cif.got.tgz:3188.got - 2010.06.03 22:40:56.
