data_PCOD9311983
_publ_section_title
;
Structure prediction by ZEFSAII (Michael W. Deem and Ramdas Pophale) SiO2 
 PCOD9311983
Probable space group: P 21 21 2
;
_chemical_formula_sum "Si O2"
_cell_formula_units_Z 28
_cell_length_a 25.611989
_cell_length_b 5.321429
_cell_length_c 9.932526
_cell_angle_alpha 90.000000
_cell_angle_beta 90.000000
_cell_angle_gamma 90.000000
_cell_volume 1353.727618
_symmetry_space_group_name_H-M "P 21 21 2"
_symmetry_group_IT_number 18
_symmetry_cell_setting 'orthorhombic'
loop_
_space_group_symop_operation_xyz
x,y,z
-x,-y,z
1/2+x,1/2-y,-z
1/2-x,1/2+y,-z
loop_
_atom_site_type_symbol
_atom_site_label
_atom_site_fract_x
_atom_site_fract_y
_atom_site_fract_z
Si Si1 0.000000 0.000000 0.518889
Si Si2 0.611523 0.528446 0.468853
Si Si3 0.323684 0.482399 0.896241
Si Si4 0.607053 0.816198 0.742469
Si Si5 0.702887 0.733102 0.309468
Si Si6 0.500000 0.000000 0.664244
Si Si7 0.314531 0.791117 0.623588
Si Si8 0.286061 0.769183 0.130667
O O1 0.944972 0.002161 0.597945
O O2 0.005236 0.253661 0.429515
O O3 0.597821 0.625555 0.618664
O O4 0.649385 0.714392 0.390589
O O5 0.648670 0.291334 0.500684
O O6 0.375992 0.321899 0.878767
O O7 0.315614 0.593606 0.747048
O O8 0.272976 0.310376 0.923646
O O9 0.322575 0.706569 0.003219
O O10 0.553785 0.974050 0.747741
O O11 0.657541 0.971035 0.691095
O O12 0.753175 0.709150 0.408476
O O13 0.709569 0.483234 0.218930
O O14 0.702462 0.983216 0.218357
#
# Coordination Sequence:
#
# PCOD9311983 Si02
#       8
#     2   4   4   4   4   2   4   4
#     4  10  20  38  58  86 116 170 206 246 296 368
#     4  10  23  36  58  86 129 161 203 251 305 379
#     4  10  21  37  57  87 119 160 204 251 306 357
#     4  10  20  36  58  90 121 162 196 258 314 370
#     4  11  25  36  56  91 125 166 203 241 313 367
#     4  10  20  36  58  88 126 148 206 250 312 378
#     4  10  20  34  56  86 123 157 193 251 313 370
#     4  11  23  38  58  85 123 162 206 249 292 376
#
# _framework density 20.683630000000001
#
# number of rings (size 3 to 8) (size 9 to 14) (size 15 to 20)
#    0.000    1.714    2.857    1.714    6.000    0.000 
#    0.000    0.000    0.000    0.000    3.714    1.000 
#    4.286    0.000    0.000    0.000    0.000    0.000 
#
# Total GULP energy -156115.364613 kJ/mol
# GULP energy per Si atom -5575.548736 kJ/mol
# Density = 2.063655 g / cm^3
# Si number density = 20.683630 Si / 1000 Ang^3
#
#
#
# Elastic Constant Matrix: (Units=GPa)
#
#
# Indices 1 2 3 4 5 6 
#
# 1 159.3192 31.5976 27.6045 0.0000 0.0000 0.0000
# 2 31.5976 118.3057 23.9912 0.0000 0.0000 0.0000
# 3 27.6045 23.9912 28.5005 0.0000 0.0000 0.0000
# 4 0.0000 0.0000 0.0000 39.0320 0.0000 0.0000
# 5 0.0000 0.0000 0.0000 0.0000 15.5663 0.0000
# 6 0.0000 0.0000 0.0000 0.0000 0.0000 28.4398
#
#
#
# Elastic Compliance Matrix: (Units=1/GPa)
#
#
# Indices 1 2 3 4 5 6 
#
# 1 0.007583 -0.000646 -0.006801 0.000000 0.000000 0.000000
# 2 -0.000646 0.010248 -0.008000 0.000000 0.000000 0.000000
# 3 -0.006801 -0.008000 0.048409 0.000000 0.000000 0.000000
# 4 0.000000 0.000000 0.000000 0.025620 0.000000 0.000000
# 5 0.000000 0.000000 0.000000 0.000000 0.064242 0.000000
# 6 0.000000 0.000000 0.000000 0.000000 0.000000 0.035162
#
#
# Mechanical properties :
#
#
# Convention : Reuss Voigt Hill
#
# Bulk Modulus (GPa) = 28.29277 52.50133 40.39705
# Shear Modulus (GPa) = 21.37303 31.46974 26.42138
#
# Velocity S-wave (km/s) = 3.21803 3.90485 3.57796
# Velocity P-wave (km/s) = 5.24559 6.76525 6.05329
#
# Compressibility (1/GPa) = 0.03534472
#
# Stress axis : x y z
#
# Youngs Moduli (GPa) = 131.87010 97.58309 20.65742
#
# Poissons Ratio (x) = 0.06306 0.14049
# Poissons Ratio (y) = 0.08522 0.16527
# Poissons Ratio (z) = 0.89683 0.78070
#
# Static dielectric constant tensor:
#      x y z
#    x 1.846460 0.000000 0.000000 
#    y 0.000000 1.843750 0.000000 
#    z 0.000000 0.000000 1.757880 
# 
# From -- ./inp_files/6319.got.cif
#   From: 2010.05.17/outbox.cif.g08.bks.cpg/sg18_4_cif.got.tgz:6319.got - 2010.06.03 22:40:56.
