data_PCOD9311832
_publ_section_title
;
Structure prediction by ZEFSAII (Michael W. Deem and Ramdas Pophale) SiO2 
 PCOD9311832
Probable space group: P 21 21 2
;
_chemical_formula_sum "Si O2"
_cell_formula_units_Z 30
_cell_length_a 11.391741
_cell_length_b 22.561807
_cell_length_c 5.025961
_cell_angle_alpha 90.000000
_cell_angle_beta 90.000000
_cell_angle_gamma 90.000000
_cell_volume 1291.763760
_symmetry_space_group_name_H-M "P 21 21 2"
_symmetry_group_IT_number 18
_symmetry_cell_setting 'orthorhombic'
loop_
_space_group_symop_operation_xyz
x,y,z
-x,-y,z
1/2+x,1/2-y,-z
1/2-x,1/2+y,-z
loop_
_atom_site_type_symbol
_atom_site_label
_atom_site_fract_x
_atom_site_fract_y
_atom_site_fract_z
Si Si1 0.500000 0.000000 0.057602
Si Si2 0.628550 0.661804 0.116171
Si Si3 0.828331 0.409862 0.686771
Si Si4 0.902325 0.297651 0.046999
Si Si5 0.904614 0.855030 0.204047
Si Si6 0.667523 0.283652 0.297591
Si Si7 0.287208 0.848074 0.371677
Si Si8 0.979323 0.606913 0.302069
O O1 0.552550 0.052733 0.881951
O O2 0.394515 0.032450 0.208670
O O3 0.597388 0.732368 0.082648
O O4 0.519980 0.628677 0.966087
O O5 0.734233 0.645840 0.918452
O O6 0.680887 0.650676 0.410098
O O7 0.689404 0.407150 0.739895
O O8 0.885900 0.404539 0.395293
O O9 0.868323 0.349730 0.840342
O O10 0.809159 0.290548 0.290456
O O11 0.018022 0.328001 0.169678
O O12 0.905648 0.823280 0.493737
O O13 0.855187 0.804705 0.003081
O O14 0.650714 0.216034 0.366451
O O15 0.389062 0.892467 0.456236
#
# Coordination Sequence:
#
# PCOD9311832 Si02
#       8
#     2   4   4   4   4   4   4   4
#     4  10  24  42  62  98 110 152 210 284 342 356
#     4  11  24  38  56  94 133 177 201 241 293 396
#     4  10  21  38  63  91 116 157 208 272 322 365
#     4   9  20  32  58  89 131 158 208 243 308 365
#     4  11  21  37  62  87 128 165 212 246 305 368
#     4  10  19  35  55  92 123 169 204 247 294 369
#     4  11  24  37  58  89 132 171 209 244 314 376
#     4  11  22  39  65  91 124 162 210 274 326 374
#
# _framework density 23.224060000000001
#
# number of rings (size 3 to 8) (size 9 to 14) (size 15 to 20)
#    0.000    1.600    1.333    4.400    7.467    0.000 
#    0.000    0.000    0.000    0.800    0.000    0.000 
#    0.000    0.000    0.000    0.000    0.000    0.000 
#
# Total GULP energy -167281.958993 kJ/mol
# GULP energy per Si atom -5576.065300 kJ/mol
# Density = 2.317120 g / cm^3
# Si number density = 23.224060 Si / 1000 Ang^3
#
#
#
# Elastic Constant Matrix: (Units=GPa)
#
#
# Indices 1 2 3 4 5 6 
#
# 1 71.3588 2.6257 -0.8541 0.0000 0.0000 0.0000
# 2 2.6257 48.4716 12.4258 0.0000 0.0000 0.0000
# 3 -0.8541 12.4258 92.6559 0.0000 0.0000 0.0000
# 4 0.0000 0.0000 0.0000 32.9240 0.0000 0.0000
# 5 0.0000 0.0000 0.0000 0.0000 40.0960 0.0000
# 6 0.0000 0.0000 0.0000 0.0000 0.0000 17.9435
#
#
#
# Elastic Compliance Matrix: (Units=1/GPa)
#
#
# Indices 1 2 3 4 5 6 
#
# 1 0.014047 -0.000822 0.000240 0.000000 0.000000 0.000000
# 2 -0.000822 0.021413 -0.002879 0.000000 0.000000 0.000000
# 3 0.000240 -0.002879 0.011181 0.000000 0.000000 0.000000
# 4 0.000000 0.000000 0.000000 0.030373 0.000000 0.000000
# 5 0.000000 0.000000 0.000000 0.000000 0.024940 0.000000
# 6 0.000000 0.000000 0.000000 0.000000 0.000000 0.055731
#
#
# Mechanical properties :
#
#
# Convention : Reuss Voigt Hill
#
# Bulk Modulus (GPa) = 25.17791 26.76455 25.97123
# Shear Modulus (GPa) = 28.11395 31.41194 29.76295
#
# Velocity S-wave (km/s) = 3.48307 3.68171 3.58377
# Velocity P-wave (km/s) = 5.20006 5.44268 5.32275
#
# Compressibility (1/GPa) = 0.03971735
#
# Stress axis : x y z
#
# Youngs Moduli (GPa) = 71.19054 46.69998 89.43774
#
# Poissons Ratio (x) = 0.03841 -0.02145
# Poissons Ratio (y) = 0.05855 0.25751
# Poissons Ratio (z) = -0.01707 0.13446
#
# Static dielectric constant tensor:
#      x y z
#    x 2.061210 0.000000 0.000000 
#    y 0.000000 1.841240 0.000000 
#    z 0.000000 0.000000 1.923830 
# 
# From -- ./inp_files/1271.got.cif
#   From: 2010.05.17/outbox.cif.g08.bks.cpg/sg18_1_cif.got.tgz:1271.got - 2010.06.03 22:40:56.
