data_PCOD9311406
_publ_section_title
;
Structure prediction by ZEFSAII (Michael W. Deem and Ramdas Pophale) SiO2 
 PCOD9311406
Probable space group: P 2 2 21
;
_chemical_formula_sum "Si O2"
_cell_formula_units_Z 32
_cell_length_a 13.941886
_cell_length_b 12.358875
_cell_length_c 8.561427
_cell_angle_alpha 90.000000
_cell_angle_beta 90.000000
_cell_angle_gamma 90.000000
_cell_volume 1475.185466
_symmetry_space_group_name_H-M "P 2 2 21"
_symmetry_group_IT_number 17
_symmetry_cell_setting 'orthorhombic'
loop_
_space_group_symop_operation_xyz
x,y,z
-x,-y,1/2+z
x,-y,-z
-x,y,1/2-z
loop_
_atom_site_type_symbol
_atom_site_label
_atom_site_fract_x
_atom_site_fract_y
_atom_site_fract_z
Si Si1 0.050285 0.585794 0.893489
Si Si2 0.938051 0.084572 0.111896
Si Si3 0.598806 0.073715 0.661627
Si Si4 0.284444 0.698734 0.204035
Si Si5 0.607191 0.484236 0.311685
Si Si6 0.229959 0.949956 0.823120
Si Si7 0.081991 0.273626 0.618939
Si Si8 0.762050 0.306795 0.347883
O O1 0.128796 0.661355 0.813580
O O2 0.000000 0.527089 0.750000
O O3 0.104090 0.500000 0.000000
O O4 0.972060 0.640733 0.005745
O O5 0.857084 0.023294 0.209835
O O6 0.000000 0.134610 0.250000
O O7 0.900448 0.173978 0.996596
O O8 0.992209 0.000000 0.000000
O O9 0.500000 0.083725 0.750000
O O10 0.651754 0.191953 0.671026
O O11 0.585563 0.000000 0.500000
O O12 0.675369 0.000231 0.749947
O O13 0.350314 0.597355 0.254824
O O14 0.186633 0.704214 0.306356
O O15 0.246950 0.674298 0.031784
O O16 0.601642 0.500000 0.500000
O O17 0.500000 0.463103 0.250000
O O18 0.681214 0.385391 0.275275
O O19 0.244930 0.821399 0.824900
O O20 0.218316 0.000000 0.000000
O O21 0.000000 0.248081 0.750000
#
# Coordination Sequence:
#
# PCOD9311406 Si02
#       8
#     4   4   4   4   4   4   4   4
#     4  12  26  44  67 105 146 190 243 290 356 431
#     4  12  26  41  64 101 139 186 232 288 350 422
#     4  11  24  43  69  99 134 183 234 297 364 437
#     4  11  22  45  72 100 138 191 233 288 368 421
#     4  10  24  46  71 102 138 186 236 294 361 428
#     4  11  23  45  70  97 137 183 232 289 354 430
#     4  12  25  42  70 102 141 189 238 292 353 434
#     4  11  22  43  75  96 143 187 233 293 360 422
#
# _framework density 21.692187000000001
#
# number of rings (size 3 to 8) (size 9 to 14) (size 15 to 20)
#    0.000    0.750    3.750    5.250    1.750    2.000 
#    4.500    0.000    0.000    0.000    0.000    0.000 
#    0.000    0.000    0.000    0.000    0.000    0.000 
#
# Total GULP energy -178338.441826 kJ/mol
# GULP energy per Si atom -5573.076307 kJ/mol
# Density = 2.164281 g / cm^3
# Si number density = 21.692187 Si / 1000 Ang^3
#
#
#
# Elastic Constant Matrix: (Units=GPa)
#
#
# Indices 1 2 3 4 5 6 
#
# 1 166.7614 64.5239 61.0333 0.0000 0.0000 0.0000
# 2 64.5239 150.2124 36.5770 0.0000 0.0000 0.0000
# 3 61.0333 36.5770 80.6031 0.0000 0.0000 0.0000
# 4 0.0000 0.0000 0.0000 24.7848 0.0000 0.0000
# 5 0.0000 0.0000 0.0000 0.0000 28.5386 0.0000
# 6 0.0000 0.0000 0.0000 0.0000 0.0000 38.7744
#
#
#
# Elastic Compliance Matrix: (Units=1/GPa)
#
#
# Indices 1 2 3 4 5 6 
#
# 1 0.009058 -0.002497 -0.005726 0.000000 0.000000 0.000000
# 2 -0.002497 0.008172 -0.001818 0.000000 0.000000 0.000000
# 3 -0.005726 -0.001818 0.017567 0.000000 0.000000 0.000000
# 4 0.000000 0.000000 0.000000 0.040347 0.000000 0.000000
# 5 0.000000 0.000000 0.000000 0.000000 0.035040 0.000000
# 6 0.000000 0.000000 0.000000 0.000000 0.000000 0.025790
#
#
# Mechanical properties :
#
#
# Convention : Reuss Voigt Hill
#
# Bulk Modulus (GPa) = 67.95131 80.20506 74.07819
# Shear Modulus (GPa) = 31.06306 34.11573 32.58940
#
# Velocity S-wave (km/s) = 3.78827 3.97006 3.88023
# Velocity P-wave (km/s) = 7.10830 7.62034 7.36877
#
# Compressibility (1/GPa) = 0.01471642
#
# Stress axis : x y z
#
# Youngs Moduli (GPa) = 110.39587 122.36306 56.92398
#
# Poissons Ratio (x) = 0.30550 0.32595
# Poissons Ratio (y) = 0.27563 0.10349
# Poissons Ratio (z) = 0.63213 0.22246
#
# Static dielectric constant tensor:
#      x y z
#    x 1.824500 0.000000 0.000000 
#    y 0.000000 1.896830 0.000000 
#    z 0.000000 0.000000 1.779830 
# 
# From -- ./inp_files/5252.got.cif
#   From: 2010.05.17/outbox.cif.g08.bks.cpg/sg17_3_cif.got.tgz:5252.got - 2010.06.03 22:34:06.
