data_PCOD9311292
_publ_section_title
;
Structure prediction by ZEFSAII (Michael W. Deem and Ramdas Pophale) SiO2 
 PCOD9311292
Probable space group: P 2 2 21
;
_chemical_formula_sum "Si O2"
_cell_formula_units_Z 18
_cell_length_a 4.856601
_cell_length_b 8.393832
_cell_length_c 16.663213
_cell_angle_alpha 90.000000
_cell_angle_beta 90.000000
_cell_angle_gamma 90.000000
_cell_volume 679.284091
_symmetry_space_group_name_H-M "P 2 2 21"
_symmetry_group_IT_number 17
_symmetry_cell_setting 'orthorhombic'
loop_
_space_group_symop_operation_xyz
x,y,z
-x,-y,1/2+z
x,-y,-z
-x,y,1/2-z
loop_
_atom_site_type_symbol
_atom_site_label
_atom_site_fract_x
_atom_site_fract_y
_atom_site_fract_z
Si Si1 0.500000 0.357070 0.750000
Si Si2 0.167463 0.602830 0.667286
Si Si3 0.856130 0.500000 0.000000
Si Si4 0.853656 0.116106 0.655605
Si Si5 0.640761 0.844565 0.051647
Si Si6 0.500000 0.865233 0.750000
O O1 0.392826 0.466283 0.678567
O O2 0.741297 0.255336 0.711606
O O3 0.009650 0.555400 0.585500
O O4 0.342612 0.763909 0.680757
O O5 0.000000 0.595582 0.750000
O O6 0.699565 0.668534 0.017032
O O7 0.677985 0.138487 0.574510
O O8 0.169093 0.130323 0.630819
O O9 0.733483 0.962156 0.701285
O O10 0.714711 0.000000 0.000000
#
# Coordination Sequence:
#
# PCOD9311292 Si02
#       6
#     2   4   2   4   4   2
#     4  10  22  44  70 102 142 194 254 312 388 476
#     4  11  24  46  72 113 153 203 268 324 403 469
#     4  12  26  48  80 114 162 208 264 338 394 484
#     4  11  25  47  72 106 149 205 254 321 394 464
#     4  12  27  47  74 114 153 203 260 320 395 471
#     4  10  26  42  78 104 148 212 260 336 390 486
#
# _framework density 26.498483
#
# number of rings (size 3 to 8) (size 9 to 14) (size 15 to 20)
#    0.000    0.889    2.222    3.333    6.222    2.667 
#    4.000    0.000    0.000    0.000    0.000    0.000 
#    0.000    0.000    0.000    0.000    0.000    0.000 
#
# Total GULP energy -100646.157432 kJ/mol
# GULP energy per Si atom -5591.453191 kJ/mol
# Density = 2.643817 g / cm^3
# Si number density = 26.498483 Si / 1000 Ang^3
#
#
#
# Elastic Constant Matrix: (Units=GPa)
#
#
# Indices 1 2 3 4 5 6 
#
# 1 77.5436 9.3664 9.7101 0.0000 0.0000 0.0000
# 2 9.3664 175.7600 39.6763 0.0000 0.0000 0.0000
# 3 9.7101 39.6763 128.5601 0.0000 0.0000 0.0000
# 4 0.0000 0.0000 0.0000 36.6353 0.0000 0.0000
# 5 0.0000 0.0000 0.0000 0.0000 49.6415 0.0000
# 6 0.0000 0.0000 0.0000 0.0000 0.0000 7.1763
#
#
#
# Elastic Compliance Matrix: (Units=1/GPa)
#
#
# Indices 1 2 3 4 5 6 
#
# 1 0.013061 -0.000509 -0.000829 0.000000 0.000000 0.000000
# 2 -0.000509 0.006135 -0.001855 0.000000 0.000000 0.000000
# 3 -0.000829 -0.001855 0.008414 0.000000 0.000000 0.000000
# 4 0.000000 0.000000 0.000000 0.027296 0.000000 0.000000
# 5 0.000000 0.000000 0.000000 0.000000 0.020144 0.000000
# 6 0.000000 0.000000 0.000000 0.000000 0.000000 0.139347
#
#
# Mechanical properties :
#
#
# Convention : Reuss Voigt Hill
#
# Bulk Modulus (GPa) = 47.11730 55.48547 51.30139
# Shear Modulus (GPa) = 21.94339 40.23136 31.08737
#
# Velocity S-wave (km/s) = 2.88079 3.90070 3.42888
# Velocity P-wave (km/s) = 5.37448 6.42432 5.92271
#
# Compressibility (1/GPa) = 0.02122363
#
# Stress axis : x y z
#
# Youngs Moduli (GPa) = 76.56205 162.98687 118.85463
#
# Poissons Ratio (x) = 0.08293 0.09859
# Poissons Ratio (y) = 0.03895 0.22049
# Poissons Ratio (z) = 0.06351 0.30236
#
# Static dielectric constant tensor:
#      x y z
#    x 2.069110 0.000000 0.000000 
#    y 0.000000 2.128670 0.000000 
#    z 0.000000 0.000000 2.179690 
# 
# From -- ./inp_files/8898.got.cif
#   From: 2010.05.17/outbox.cif.g08.bks.cpg/sg17_5_cif.got.tgz:8898.got - 2010.06.03 22:34:06.
