data_PCOD9311120
_publ_section_title
;
Structure prediction by ZEFSAII (Michael W. Deem and Ramdas Pophale) SiO2 
 PCOD9311120
Probable space group: P 2 2 21
;
_chemical_formula_sum "Si O2"
_cell_formula_units_Z 26
_cell_length_a 9.405372
_cell_length_b 11.249053
_cell_length_c 13.223744
_cell_angle_alpha 90.000000
_cell_angle_beta 90.000000
_cell_angle_gamma 90.000000
_cell_volume 1399.092323
_symmetry_space_group_name_H-M "P 2 2 21"
_symmetry_group_IT_number 17
_symmetry_cell_setting 'orthorhombic'
loop_
_space_group_symop_operation_xyz
x,y,z
-x,-y,1/2+z
x,-y,-z
-x,y,1/2-z
loop_
_atom_site_type_symbol
_atom_site_label
_atom_site_fract_x
_atom_site_fract_y
_atom_site_fract_z
Si Si1 0.756078 0.000000 0.000000
Si Si2 0.448782 0.588707 0.640921
Si Si3 0.929279 0.324996 0.527587
Si Si4 0.377258 0.860667 0.685053
Si Si5 0.694121 0.500000 0.500000
Si Si6 0.883139 0.829910 0.664537
Si Si7 0.805658 0.500000 0.000000
Si Si8 0.990075 0.084474 0.629172
O O1 0.669045 0.927597 0.916397
O O2 0.860739 0.079718 0.930857
O O3 0.500000 0.540478 0.750000
O O4 0.421840 0.728637 0.652839
O O5 0.585307 0.571165 0.569985
O O6 0.305311 0.532524 0.591015
O O7 0.804418 0.415028 0.558364
O O8 0.892096 0.275824 0.415530
O O9 0.082793 0.392146 0.524829
O O10 0.922431 0.207495 0.595176
O O11 0.500000 0.923257 0.750000
O O12 0.255886 0.844516 0.768782
O O13 0.000000 0.808654 0.750000
O O14 0.916696 0.955928 0.609654
O O15 0.000000 0.085892 0.750000
#
# Coordination Sequence:
#
# PCOD9311120 Si02
#       8
#     2   4   4   4   2   4   2   4
#     4  12  20  42  60  92 136 158 192 282 314 376
#     4  10  21  42  61  81 120 167 204 261 298 370
#     4  11  21  37  61  92 126 157 202 272 303 372
#     4  11  23  40  64  94 122 168 219 250 315 385
#     4  10  24  40  58  90 120 158 214 244 310 362
#     4  11  19  38  65  94 117 161 214 255 316 385
#     4  10  22  36  62  94 114 164 224 246 324 368
#     4  11  21  36  62  91 125 159 199 250 330 374
#
# _framework density 18.583476000000001
#
# number of rings (size 3 to 8) (size 9 to 14) (size 15 to 20)
#    0.000    1.231    4.615    3.692    0.000    1.231 
#    5.538    3.077    0.000    0.000    0.000    0.000 
#    0.000    0.000    0.000    0.000    0.000    0.000 
#
# Total GULP energy -144862.596416 kJ/mol
# GULP energy per Si atom -5571.638324 kJ/mol
# Density = 1.854118 g / cm^3
# Si number density = 18.583476 Si / 1000 Ang^3
#
#
#
# Elastic Constant Matrix: (Units=GPa)
#
#
# Indices 1 2 3 4 5 6 
#
# 1 125.7261 35.1366 39.6876 0.0000 0.0000 0.0000
# 2 35.1366 78.6671 26.9290 0.0000 0.0000 0.0000
# 3 39.6876 26.9290 92.0985 0.0000 0.0000 0.0000
# 4 0.0000 0.0000 0.0000 30.5968 0.0000 0.0000
# 5 0.0000 0.0000 0.0000 0.0000 -26.4998 0.0000
# 6 0.0000 0.0000 0.0000 0.0000 0.0000 47.6905
#
#
#
# Elastic Compliance Matrix: (Units=1/GPa)
#
#
# Indices 1 2 3 4 5 6 
#
# 1 0.009920 -0.003298 -0.003311 0.000000 0.000000 0.000000
# 2 -0.003298 0.015222 -0.003030 0.000000 0.000000 0.000000
# 3 -0.003311 -0.003030 0.013171 0.000000 0.000000 0.000000
# 4 0.000000 0.000000 0.000000 0.032683 0.000000 0.000000
# 5 0.000000 0.000000 0.000000 0.000000 -0.037736 0.000000
# 6 0.000000 0.000000 0.000000 0.000000 0.000000 0.020969
#
#
# Mechanical properties :
#
#
# Convention : Reuss Voigt Hill
#
# Bulk Modulus (GPa) = 52.53061 55.55534 54.04297
# Shear Modulus (GPa) = 62.61734 23.34008 42.97871
#
# Velocity S-wave (km/s) = 5.81105 3.54780 4.81431
# Velocity P-wave (km/s) = 8.56465 6.83684 7.74905
#
# Compressibility (1/GPa) = 0.01903652
#
# Stress axis : x y z
#
# Youngs Moduli (GPa) = 100.80138 65.69523 75.92723
#
# Poissons Ratio (x) = 0.21664 0.25138
# Poissons Ratio (y) = 0.33241 0.23004
# Poissons Ratio (z) = 0.33373 0.19904
#
# Static dielectric constant tensor:
#      x y z
#    x 1.648440 0.000000 0.000000 
#    y 0.000000 1.701420 0.000000 
#    z 0.000000 0.000000 1.672280 
# 
# From -- ./inp_files/8228.got.cif
#   From: 2010.05.17/outbox.cif.g08.bks.cpg/sg17_5_cif.got.tgz:8228.got - 2010.06.03 22:34:06.
