data_PCOD9311857
_publ_section_title
;
Structure prediction by ZEFSAII (Michael W. Deem and Ramdas Pophale) SiO2 
 PCOD9311857
Probable space group: P 21 21 2
;
_chemical_formula_sum "Si O2"
_cell_formula_units_Z 30
_cell_length_a 20.483867
_cell_length_b 7.826266
_cell_length_c 9.677786
_cell_angle_alpha 90.000000
_cell_angle_beta 90.000000
_cell_angle_gamma 90.000000
_cell_volume 1551.467086
_symmetry_space_group_name_H-M "P 21 21 2"
_symmetry_group_IT_number 18
_symmetry_cell_setting 'orthorhombic'
loop_
_space_group_symop_operation_xyz
x,y,z
-x,-y,z
1/2+x,1/2-y,-z
1/2-x,1/2+y,-z
loop_
_atom_site_type_symbol
_atom_site_label
_atom_site_fract_x
_atom_site_fract_y
_atom_site_fract_z
Si Si1 0.000000 0.000000 0.062965
Si Si2 0.039049 0.661495 0.933849
Si Si3 0.267630 0.520474 0.035596
Si Si4 0.730337 0.302356 0.599921
Si Si5 0.626418 0.372766 0.808535
Si Si6 0.573700 0.987018 0.767389
Si Si7 0.788946 0.407023 0.321736
Si Si8 0.322210 0.166623 0.160132
O O1 0.935529 0.990944 0.157806
O O2 0.999872 0.833240 0.966022
O O3 0.101405 0.692282 0.840505
O O4 0.000000 0.500000 0.878165
O O5 0.064134 0.602947 0.085064
O O6 0.244564 0.620363 0.172883
O O7 0.291847 0.337559 0.090172
O O8 0.323344 0.600002 0.936355
O O9 0.203418 0.515912 0.939179
O O10 0.668399 0.401054 0.667955
O O11 0.749271 0.312843 0.441025
O O12 0.792151 0.361127 0.690217
O O13 0.719379 0.105995 0.639282
O O14 0.599036 0.179629 0.797010
O O15 0.632481 0.887821 0.690180
O O16 0.500000 0.000000 0.705462
#
# Coordination Sequence:
#
# PCOD9311857 Si02
#       8
#     2   4   4   4   4   4   4   4
#     4  12  20  34  60  88 120 152 192 240 302 356
#     4  11  21  34  56  89 118 152 190 243 294 352
#     4  10  20  33  58  83 115 144 190 238 296 341
#     4   9  22  37  55  81 120 147 197 240 288 350
#     4  10  20  36  56  89 115 146 193 248 289 353
#     4  10  19  36  58  84 117 149 192 246 289 347
#     4  10  20  38  56  82 115 158 188 242 290 345
#     4  10  20  35  54  86 113 146 188 243 289 347
#
# _framework density 19.336537
#
# number of rings (size 3 to 8) (size 9 to 14) (size 15 to 20)
#    0.000    1.867    5.333    0.800    0.000    3.200 
#    0.000    0.667    0.000    2.400    0.000    0.000 
#    0.000    0.000    0.000    0.000    0.000    0.000 
#
# Total GULP energy -167213.369155 kJ/mol
# GULP energy per Si atom -5573.778972 kJ/mol
# Density = 1.929253 g / cm^3
# Si number density = 19.336537 Si / 1000 Ang^3
#
#
#
# Elastic Constant Matrix: (Units=GPa)
#
#
# Indices 1 2 3 4 5 6 
#
# 1 110.9715 8.0037 21.8176 0.0000 0.0000 0.0000
# 2 8.0037 43.8378 -7.2367 0.0000 0.0000 0.0000
# 3 21.8176 -7.2367 59.2761 0.0000 0.0000 0.0000
# 4 0.0000 0.0000 0.0000 13.8315 0.0000 0.0000
# 5 0.0000 0.0000 0.0000 0.0000 18.1105 0.0000
# 6 0.0000 0.0000 0.0000 0.0000 0.0000 29.3214
#
#
#
# Elastic Compliance Matrix: (Units=1/GPa)
#
#
# Indices 1 2 3 4 5 6 
#
# 1 0.009971 -0.002476 -0.003972 0.000000 0.000000 0.000000
# 2 -0.002476 0.023896 0.003829 0.000000 0.000000 0.000000
# 3 -0.003972 0.003829 0.018800 0.000000 0.000000 0.000000
# 4 0.000000 0.000000 0.000000 0.072299 0.000000 0.000000
# 5 0.000000 0.000000 0.000000 0.000000 0.055217 0.000000
# 6 0.000000 0.000000 0.000000 0.000000 0.000000 0.034105
#
#
# Mechanical properties :
#
#
# Convention : Reuss Voigt Hill
#
# Bulk Modulus (GPa) = 21.08526 28.80606 24.94566
# Shear Modulus (GPa) = 21.24635 25.01939 23.13287
#
# Velocity S-wave (km/s) = 3.31836 3.60097 3.46255
# Velocity P-wave (km/s) = 5.06064 5.67617 5.37722
#
# Compressibility (1/GPa) = 0.04742650
#
# Stress axis : x y z
#
# Youngs Moduli (GPa) = 100.29202 41.84888 53.19244
#
# Poissons Ratio (x) = 0.10362 0.21129
# Poissons Ratio (y) = 0.24834 -0.20366
# Poissons Ratio (z) = 0.39839 -0.16022
#
# Static dielectric constant tensor:
#      x y z
#    x 1.729340 0.000000 0.000000 
#    y 0.000000 1.751840 0.000000 
#    z 0.000000 0.000000 1.670770 
# 
# From -- ./inp_files/4699.got.cif
#   From: 2010.05.17/outbox.cif.g08.bks.cpg/sg18_3_cif.got.tgz:4699.got - 2010.06.03 22:40:56.
