data_PCOD9311992
_publ_section_title
;
Structure prediction by ZEFSAII (Michael W. Deem and Ramdas Pophale) SiO2 
 PCOD9311992
Probable space group: P 21 21 2
;
_chemical_formula_sum "Si O2"
_cell_formula_units_Z 26
_cell_length_a 10.833394
_cell_length_b 7.935841
_cell_length_c 14.181708
_cell_angle_alpha 90.000000
_cell_angle_beta 90.000000
_cell_angle_gamma 90.000000
_cell_volume 1219.231109
_symmetry_space_group_name_H-M "P 21 21 2"
_symmetry_group_IT_number 18
_symmetry_cell_setting 'orthorhombic'
loop_
_space_group_symop_operation_xyz
x,y,z
-x,-y,z
1/2+x,1/2-y,-z
1/2-x,1/2+y,-z
loop_
_atom_site_type_symbol
_atom_site_label
_atom_site_fract_x
_atom_site_fract_y
_atom_site_fract_z
Si Si1 0.500000 0.000000 0.105299
Si Si2 0.355142 0.460954 0.225231
Si Si3 0.328196 0.355051 0.425385
Si Si4 0.857256 0.999726 0.127883
Si Si5 0.174880 0.333290 0.749336
Si Si6 0.195513 0.755151 0.960987
Si Si7 0.403153 0.747499 0.454535
O O1 0.432391 0.870716 0.175308
O O2 0.597858 0.897129 0.045157
O O3 0.500000 0.500000 0.237494
O O4 0.322967 0.338235 0.311854
O O5 0.285365 0.638987 0.236460
O O6 0.334059 0.383705 0.123273
O O7 0.364240 0.551230 0.441572
O O8 0.447444 0.253011 0.466801
O O9 0.195140 0.316035 0.469782
O O10 0.778756 0.032410 0.221962
O O11 0.822825 0.832368 0.069188
O O12 0.816567 0.151571 0.058934
O O13 0.000000 0.000000 0.147700
O O14 0.126569 0.343034 0.643332
#
# Coordination Sequence:
#
# PCOD9311992 Si02
#       7
#     2   4   4   4   4   4   4
#     4  10  20  34  66  94 112 168 214 248 296 374
#     4  11  18  40  68  89 118 161 212 263 294 372
#     4  10  21  39  64  94 123 160 212 259 319 370
#     4  11  26  42  58  95 130 160 205 259 318 370
#     4  10  21  41  62  90 123 162 211 251 312 368
#     4  11  23  38  66  89 120 164 206 258 307 365
#     4  10  21  40  62  92 126 163 206 265 311 381
#
# _framework density 21.324915000000001
#
# number of rings (size 3 to 8) (size 9 to 14) (size 15 to 20)
#    0.000    1.538    4.615    1.385    4.308    4.308 
#    5.538    0.000    0.000    0.000    0.000    0.000 
#    0.000    0.000    0.000    0.000    0.000    0.000 
#
# Total GULP energy -145234.007385 kJ/mol
# GULP energy per Si atom -5585.923361 kJ/mol
# Density = 2.127638 g / cm^3
# Si number density = 21.324915 Si / 1000 Ang^3
#
#
#
# Elastic Constant Matrix: (Units=GPa)
#
#
# Indices 1 2 3 4 5 6 
#
# 1 75.4010 13.6129 14.4038 0.0000 0.0000 0.0000
# 2 13.6129 46.7844 15.7430 0.0000 0.0000 0.0000
# 3 14.4038 15.7430 65.8040 0.0000 0.0000 0.0000
# 4 0.0000 0.0000 0.0000 32.1466 0.0000 0.0000
# 5 0.0000 0.0000 0.0000 0.0000 11.8146 0.0000
# 6 0.0000 0.0000 0.0000 0.0000 0.0000 28.5054
#
#
#
# Elastic Compliance Matrix: (Units=1/GPa)
#
#
# Indices 1 2 3 4 5 6 
#
# 1 0.014317 -0.003384 -0.002324 0.000000 0.000000 0.000000
# 2 -0.003384 0.024046 -0.005012 0.000000 0.000000 0.000000
# 3 -0.002324 -0.005012 0.016904 0.000000 0.000000 0.000000
# 4 0.000000 0.000000 0.000000 0.031108 0.000000 0.000000
# 5 0.000000 0.000000 0.000000 0.000000 0.084641 0.000000
# 6 0.000000 0.000000 0.000000 0.000000 0.000000 0.035081
#
#
# Mechanical properties :
#
#
# Convention : Reuss Voigt Hill
#
# Bulk Modulus (GPa) = 29.56200 30.61211 30.08705
# Shear Modulus (GPa) = 20.93683 24.10863 22.52273
#
# Velocity S-wave (km/s) = 3.13677 3.36600 3.25340
# Velocity P-wave (km/s) = 5.19729 5.43073 5.31529
#
# Compressibility (1/GPa) = 0.03382721
#
# Stress axis : x y z
#
# Youngs Moduli (GPa) = 69.84529 41.58735 59.15585
#
# Poissons Ratio (x) = 0.14072 0.13750
# Poissons Ratio (y) = 0.23634 0.29649
# Poissons Ratio (z) = 0.16235 0.20844
#
# Static dielectric constant tensor:
#      x y z
#    x 1.787800 0.000000 0.000000 
#    y 0.000000 1.851150 0.000000 
#    z 0.000000 0.000000 1.750210 
# 
# From -- ./inp_files/6874.got.cif
#   From: 2010.05.17/outbox.cif.g08.bks.cpg/sg18_4_cif.got.tgz:6874.got - 2010.06.03 22:40:56.
