data_PCOD9311147
_publ_section_title
;
Structure prediction by ZEFSAII (Michael W. Deem and Ramdas Pophale) SiO2 
 PCOD9311147
Probable space group: P 2 2 21
;
_chemical_formula_sum "Si O2"
_cell_formula_units_Z 20
_cell_length_a 17.932387
_cell_length_b 5.439081
_cell_length_c 8.119402
_cell_angle_alpha 90.000000
_cell_angle_beta 90.000000
_cell_angle_gamma 90.000000
_cell_volume 791.931602
_symmetry_space_group_name_H-M "P 2 2 21"
_symmetry_group_IT_number 17
_symmetry_cell_setting 'orthorhombic'
loop_
_space_group_symop_operation_xyz
x,y,z
-x,-y,1/2+z
x,-y,-z
-x,y,1/2-z
loop_
_atom_site_type_symbol
_atom_site_label
_atom_site_fract_x
_atom_site_fract_y
_atom_site_fract_z
Si Si1 0.862768 0.283295 0.787126
Si Si2 0.519637 0.500000 0.500000
Si Si3 0.646559 0.717480 0.720873
Si Si4 0.763736 0.500000 0.500000
Si Si5 0.575360 0.000000 0.000000
Si Si6 0.000000 0.645604 0.750000
Si Si7 0.034949 0.000000 0.500000
Si Si8 0.745496 0.500000 0.000000
O O1 0.815323 0.348469 0.626517
O O2 0.913395 0.053995 0.840670
O O3 0.926294 0.490957 0.789847
O O4 0.802219 0.296809 0.933729
O O5 0.574536 0.579804 0.648863
O O6 0.472085 0.250432 0.525663
O O7 0.708008 0.707535 0.576706
O O8 0.621070 0.951777 0.829740
O O9 0.691198 0.564188 0.854570
O O10 0.985892 0.785219 0.575668
#
# Coordination Sequence:
#
# PCOD9311147 Si02
#       8
#     4   2   4   2   2   2   2   2
#     4  11  24  47  74 106 155 203 260 330 389 468
#     4  11  27  50  80 123 157 210 272 336 399 479
#     4  10  24  47  78 113 159 212 261 322 396 483
#     4   9  24  49  79 106 161 208 260 324 393 474
#     4  12  26  47  86 119 166 210 264 336 410 480
#     4  12  26  44  74 116 154 202 260 344 384 482
#     4  12  26  43  76 111 152 198 258 324 422 454
#     4  10  21  47  71 103 158 210 248 314 398 471
#
# _framework density 25.254705999999999
#
# number of rings (size 3 to 8) (size 9 to 14) (size 15 to 20)
#    0.000    1.200    2.000    1.800    5.600    7.200 
#    0.000    4.000    8.800    0.000    0.000    0.000 
#    0.000    0.000    0.000    0.000    0.000    0.000 
#
# Total GULP energy -111634.606815 kJ/mol
# GULP energy per Si atom -5581.730341 kJ/mol
# Density = 2.519723 g / cm^3
# Si number density = 25.254706 Si / 1000 Ang^3
#
#
#
# Elastic Constant Matrix: (Units=GPa)
#
#
# Indices 1 2 3 4 5 6 
#
# 1 131.9616 50.6807 66.0758 0.0000 0.0000 0.0000
# 2 50.6807 110.7116 48.0847 0.0000 0.0000 0.0000
# 3 66.0758 48.0847 126.3134 0.0000 0.0000 0.0000
# 4 0.0000 0.0000 0.0000 46.3448 0.0000 0.0000
# 5 0.0000 0.0000 0.0000 0.0000 52.3065 0.0000
# 6 0.0000 0.0000 0.0000 0.0000 0.0000 40.8663
#
#
#
# Elastic Compliance Matrix: (Units=1/GPa)
#
#
# Indices 1 2 3 4 5 6 
#
# 1 0.011069 -0.003058 -0.004626 0.000000 0.000000 0.000000
# 2 -0.003058 0.011666 -0.002842 0.000000 0.000000 0.000000
# 3 -0.004626 -0.002842 0.011419 0.000000 0.000000 0.000000
# 4 0.000000 0.000000 0.000000 0.021577 0.000000 0.000000
# 5 0.000000 0.000000 0.000000 0.000000 0.019118 0.000000
# 6 0.000000 0.000000 0.000000 0.000000 0.000000 0.024470
#
#
# Mechanical properties :
#
#
# Convention : Reuss Voigt Hill
#
# Bulk Modulus (GPa) = 76.32019 77.62989 76.97504
# Shear Modulus (GPa) = 40.08413 41.51322 40.79867
#
# Velocity S-wave (km/s) = 3.98828 4.05876 4.02367
# Velocity P-wave (km/s) = 7.17595 7.26431 7.22027
#
# Compressibility (1/GPa) = 0.01310269
#
# Stress axis : x y z
#
# Youngs Moduli (GPa) = 90.34486 85.71635 87.57673
#
# Poissons Ratio (x) = 0.26209 0.40514
# Poissons Ratio (y) = 0.27625 0.24886
# Poissons Ratio (z) = 0.41795 0.24357
#
# Static dielectric constant tensor:
#      x y z
#    x 1.977350 0.000000 0.000000 
#    y 0.000000 2.314330 0.000000 
#    z 0.000000 0.000000 2.158450 
# 
# From -- ./inp_files/5410.got.cif
#   From: 2010.05.17/outbox.cif.g08.bks.cpg/sg17_3_cif.got.tgz:5410.got - 2010.06.03 22:34:06.
