data_PCOD9311821
_publ_section_title
;
Structure prediction by ZEFSAII (Michael W. Deem and Ramdas Pophale) SiO2 
 PCOD9311821
Probable space group: P 21 21 2
;
_chemical_formula_sum "Si O2"
_cell_formula_units_Z 30
_cell_length_a 7.389617
_cell_length_b 13.098961
_cell_length_c 12.972263
_cell_angle_alpha 90.000000
_cell_angle_beta 90.000000
_cell_angle_gamma 90.000000
_cell_volume 1255.667124
_symmetry_space_group_name_H-M "P 21 21 2"
_symmetry_group_IT_number 18
_symmetry_cell_setting 'orthorhombic'
loop_
_space_group_symop_operation_xyz
x,y,z
-x,-y,z
1/2+x,1/2-y,-z
1/2-x,1/2+y,-z
loop_
_atom_site_type_symbol
_atom_site_label
_atom_site_fract_x
_atom_site_fract_y
_atom_site_fract_z
Si Si1 0.641643 0.406028 0.556013
Si Si2 0.547841 0.684210 0.120294
Si Si3 0.471790 0.822222 0.820003
Si Si4 0.981100 0.890413 0.097115
Si Si5 0.070945 0.607127 0.967034
Si Si6 0.465159 0.617317 0.334194
Si Si7 0.000000 0.500000 0.553384
Si Si8 0.870615 0.672151 0.395905
O O1 0.500000 0.500000 0.564336
O O2 0.667843 0.385164 0.432353
O O3 0.587656 0.293111 0.593345
O O4 0.827675 0.446625 0.606838
O O5 0.754630 0.682927 0.159681
O O6 0.428128 0.663333 0.221727
O O7 0.561557 0.612491 0.018956
O O8 0.475701 0.790860 0.073639
O O9 0.540964 0.706496 0.837155
O O10 0.560344 0.888283 0.909702
O O11 0.481174 0.862462 0.705068
O O12 0.771140 0.879539 0.072562
O O13 0.000000 0.000000 0.148561
O O14 0.000000 0.500000 0.928611
O O15 0.500000 0.500000 0.309109
O O16 0.653830 0.663988 0.377455
O O17 0.082788 0.405983 0.486891
#
# Coordination Sequence:
#
# PCOD9311821 Si02
#       8
#     4   4   4   4   4   4   2   4
#     4  11  24  45  69  98 132 173 214 276 336 398
#     4   9  19  35  59  83 112 160 199 251 311 360
#     4   9  21  37  58  86 117 157 203 261 302 372
#     4  10  19  34  56  80 119 164 200 248 312 370
#     4  10  20  34  55  84 120 155 207 250 304 373
#     4  10  19  40  64  90 123 164 208 267 323 383
#     4  12  24  40  72  98 124 172 220 264 338 390
#     4  11  23  42  67  94 134 164 222 277 328 400
#
# _framework density 23.891683
#
# number of rings (size 3 to 8) (size 9 to 14) (size 15 to 20)
#    0.000    1.867    2.667    2.000    0.933    3.733 
#    0.000    0.000   23.467    0.000    0.000    0.000 
#    0.000    0.000    0.000    0.000    0.000    0.000 
#
# Total GULP energy -167463.076932 kJ/mol
# GULP energy per Si atom -5582.102564 kJ/mol
# Density = 2.383730 g / cm^3
# Si number density = 23.891683 Si / 1000 Ang^3
#
#
#
# Elastic Constant Matrix: (Units=GPa)
#
#
# Indices 1 2 3 4 5 6 
#
# 1 49.9544 -10.5148 -4.6281 0.0000 0.0000 0.0000
# 2 -10.5148 105.2839 -9.0828 0.0000 0.0000 0.0000
# 3 -4.6281 -9.0828 27.2466 0.0000 0.0000 0.0000
# 4 0.0000 0.0000 0.0000 -53.1980 0.0000 0.0000
# 5 0.0000 0.0000 0.0000 0.0000 7.8483 0.0000
# 6 0.0000 0.0000 0.0000 0.0000 0.0000 29.4969
#
#
#
# Elastic Compliance Matrix: (Units=1/GPa)
#
#
# Indices 1 2 3 4 5 6 
#
# 1 0.020944 0.002470 0.004381 0.000000 0.000000 0.000000
# 2 0.002470 0.010071 0.003777 0.000000 0.000000 0.000000
# 3 0.004381 0.003777 0.038705 0.000000 0.000000 0.000000
# 4 0.000000 0.000000 0.000000 -0.018798 0.000000 0.000000
# 5 0.000000 0.000000 0.000000 0.000000 0.127415 0.000000
# 6 0.000000 0.000000 0.000000 0.000000 0.000000 0.033902
#
#
# Mechanical properties :
#
#
# Convention : Reuss Voigt Hill
#
# Bulk Modulus (GPa) = 10.99222 14.89261 12.94241
# Shear Modulus (GPa) = 22.59280 10.61015 16.60147
#
# Velocity S-wave (km/s) = 3.07845 2.10964 2.63889
# Velocity P-wave (km/s) = 4.15291 3.49013 3.83586
#
# Compressibility (1/GPa) = 0.09097342
#
# Stress axis : x y z
#
# Youngs Moduli (GPa) = 47.74654 99.29913 25.83651
#
# Poissons Ratio (x) = -0.24523 -0.11318
# Poissons Ratio (y) = -0.11792 -0.09757
# Poissons Ratio (z) = -0.20917 -0.37501
#
# Static dielectric constant tensor:
#      x y z
#    x 1.946280 0.000000 0.000000 
#    y 0.000000 1.943670 0.000000 
#    z 0.000000 0.000000 1.940930 
# 
# From -- ./inp_files/6735.got.cif
#   From: 2010.05.17/outbox.cif.g08.bks.cpg/sg18_4_cif.got.tgz:6735.got - 2010.06.03 22:40:56.
