data_PCOD9311805
_publ_section_title
;
Structure prediction by ZEFSAII (Michael W. Deem and Ramdas Pophale) SiO2 
 PCOD9311805
Probable space group: P 21 21 2
;
_chemical_formula_sum "Si O2"
_cell_formula_units_Z 24
_cell_length_a 24.968841
_cell_length_b 7.684663
_cell_length_c 5.322723
_cell_angle_alpha 90.000000
_cell_angle_beta 90.000000
_cell_angle_gamma 90.000000
_cell_volume 1021.308805
_symmetry_space_group_name_H-M "P 21 21 2"
_symmetry_group_IT_number 18
_symmetry_cell_setting 'orthorhombic'
loop_
_space_group_symop_operation_xyz
x,y,z
-x,-y,z
1/2+x,1/2-y,-z
1/2-x,1/2+y,-z
loop_
_atom_site_type_symbol
_atom_site_label
_atom_site_fract_x
_atom_site_fract_y
_atom_site_fract_z
Si Si1 0.025871 0.720893 0.750000
Si Si2 0.140604 0.005907 0.250000
Si Si3 0.254163 0.139883 0.250000
Si Si4 0.917512 0.371040 0.250000
Si Si5 0.084017 0.099333 0.750000
Si Si6 0.806133 0.492184 0.250000
O O1 0.046932 0.629432 0.499220
O O2 0.962738 0.758433 0.750000
O O3 0.053799 0.912161 0.750000
O O4 0.046932 0.629432 0.000780
O O5 0.114406 0.814422 0.250000
O O6 0.204429 0.006159 0.250000
O O7 0.119792 0.100145 0.501192
O O8 0.119792 0.100145 0.998808
O O9 0.225976 0.327139 0.250000
O O10 0.288922 0.108004 0.497629
O O11 0.288922 0.108004 0.002371
O O12 0.870147 0.510593 0.250000
#
# Coordination Sequence:
#
# PCOD9311805 Si02
#       6
#     4   4   4   4   4   4
#     4   9  17  30  52  82 113 147 190 237 281 334
#     4  10  19  33  55  82 113 149 192 239 287 340
#     4  12  25  42  63  88 120 157 200 247 300 358
#     4  10  19  33  55  82 113 149 192 239 287 340
#     4   9  17  30  52  82 113 147 190 237 281 334
#     4  12  25  42  63  88 120 157 200 247 300 358
#
# _framework density 23.499258000000001
#
# number of rings (size 3 to 8) (size 9 to 14) (size 15 to 20)
#    0.000    1.667    0.000    6.000    0.000    6.667 
#    0.000    0.000    0.000    6.000    0.000    0.000 
#    0.000    0.000    0.000    0.000    0.000    0.000 
#
# Total GULP energy -134498.341461 kJ/mol
# GULP energy per Si atom -5604.097561 kJ/mol
# Density = 2.344577 g / cm^3
# Si number density = 23.499258 Si / 1000 Ang^3
#
#
#
# Elastic Constant Matrix: (Units=GPa)
#
#
# Indices 1 2 3 4 5 6 
#
# 1 90.6498 5.0508 46.0990 0.0000 0.0000 0.0000
# 2 5.0508 95.6788 31.0377 0.0000 0.0000 0.0000
# 3 46.0990 31.0377 207.5460 0.0000 0.0000 0.0000
# 4 0.0000 0.0000 0.0000 33.1375 0.0000 0.0000
# 5 0.0000 0.0000 0.0000 0.0000 50.5241 0.0000
# 6 0.0000 0.0000 0.0000 0.0000 0.0000 34.0697
#
#
#
# Elastic Compliance Matrix: (Units=1/GPa)
#
#
# Indices 1 2 3 4 5 6 
#
# 1 0.012442 0.000252 -0.002801 0.000000 0.000000 0.000000
# 2 0.000252 0.010990 -0.001699 0.000000 0.000000 0.000000
# 3 -0.002801 -0.001699 0.005695 0.000000 0.000000 0.000000
# 4 0.000000 0.000000 0.000000 0.030177 0.000000 0.000000
# 5 0.000000 0.000000 0.000000 0.000000 0.019793 0.000000
# 6 0.000000 0.000000 0.000000 0.000000 0.000000 0.029352
#
#
# Mechanical properties :
#
#
# Convention : Reuss Voigt Hill
#
# Bulk Modulus (GPa) = 48.47624 62.02775 55.25200
# Shear Modulus (GPa) = 40.38079 44.32538 42.35308
#
# Velocity S-wave (km/s) = 4.14984 4.34780 4.24997
# Velocity P-wave (km/s) = 6.60569 7.18731 6.90263
#
# Compressibility (1/GPa) = 0.02062866
#
# Stress axis : x y z
#
# Youngs Moduli (GPa) = 80.37325 90.99499 175.60683
#
# Poissons Ratio (x) = -0.02292 0.49191
# Poissons Ratio (y) = -0.02025 0.29843
# Poissons Ratio (z) = 0.22514 0.15464
#
# Static dielectric constant tensor:
#      x y z
#    x 1.816970 0.000000 0.000000 
#    y 0.000000 1.935610 0.000000 
#    z 0.000000 0.000000 1.804910 
# 
# From -- ./inp_files/2070.got.cif
#   From: 2010.05.17/outbox.cif.g08.bks.cpg/sg18_2_cif.got.tgz:2070.got - 2010.06.03 22:40:56.
