data_PCOD9311862
_publ_section_title
;
Structure prediction by ZEFSAII (Michael W. Deem and Ramdas Pophale) SiO2 
 PCOD9311862
Probable space group: P 21 21 2
;
_chemical_formula_sum "Si O2"
_cell_formula_units_Z 32
_cell_length_a 8.061419
_cell_length_b 12.899138
_cell_length_c 14.043126
_cell_angle_alpha 90.000000
_cell_angle_beta 90.000000
_cell_angle_gamma 90.000000
_cell_volume 1460.279459
_symmetry_space_group_name_H-M "P 21 21 2"
_symmetry_group_IT_number 18
_symmetry_cell_setting 'orthorhombic'
loop_
_space_group_symop_operation_xyz
x,y,z
-x,-y,z
1/2+x,1/2-y,-z
1/2-x,1/2+y,-z
loop_
_atom_site_type_symbol
_atom_site_label
_atom_site_fract_x
_atom_site_fract_y
_atom_site_fract_z
Si Si1 0.841415 0.955185 0.611221
Si Si2 0.717364 0.670746 0.756542
Si Si3 0.391286 0.628334 0.181023
Si Si4 0.846215 0.766116 0.179566
Si Si5 0.300685 0.512915 0.882472
Si Si6 0.727064 0.178218 0.626198
Si Si7 0.239855 0.933902 0.911924
Si Si8 0.138319 0.739129 0.440853
O O1 0.912542 0.905010 0.708675
O O2 0.738132 0.868619 0.558363
O O3 0.731101 0.054588 0.638093
O O4 0.000000 0.000000 0.555977
O O5 0.829003 0.754667 0.812239
O O6 0.529023 0.698706 0.787968
O O7 0.754292 0.554992 0.791738
O O8 0.719654 0.691069 0.643199
O O9 0.554939 0.609754 0.117134
O O10 0.257344 0.544730 0.141799
O O11 0.767250 0.864969 0.127182
O O12 0.744747 0.735170 0.274167
O O13 0.855785 0.659879 0.120607
O O14 0.500000 0.500000 0.889689
O O15 0.235810 0.460342 0.978239
O O16 0.852782 0.210596 0.543891
O O17 0.547630 0.213372 0.589449
#
# Coordination Sequence:
#
# PCOD9311862 Si02
#       8
#     4   4   4   4   4   4   4   4
#     4  11  19  36  60  86 114 155 197 247 303 351
#     4   9  22  38  59  85 121 156 200 245 300 353
#     4  10  19  36  59  87 113 152 198 249 290 346
#     4  10  22  39  60  87 119 159 201 248 298 358
#     4  10  21  38  59  83 121 162 193 238 304 362
#     4  11  21  39  59  89 120 154 203 250 303 362
#     4  11  20  35  61  87 115 153 201 244 295 353
#     4  10  23  37  59  90 119 155 199 251 299 365
#
# _framework density 21.913615
#
# number of rings (size 3 to 8) (size 9 to 14) (size 15 to 20)
#    0.000    1.750    3.750    1.125    1.750    2.500 
#    0.000    3.125    2.750    0.000    0.000    0.000 
#    0.000    0.000    0.000    0.000    0.000    0.000 
#
# Total GULP energy -178736.985054 kJ/mol
# GULP energy per Si atom -5585.530783 kJ/mol
# Density = 2.186374 g / cm^3
# Si number density = 21.913615 Si / 1000 Ang^3
#
#
#
# Elastic Constant Matrix: (Units=GPa)
#
#
# Indices 1 2 3 4 5 6 
#
# 1 23.6372 9.2801 9.2399 0.0000 0.0000 0.0000
# 2 9.2801 64.0306 29.0720 0.0000 0.0000 0.0000
# 3 9.2399 29.0720 93.6756 0.0000 0.0000 0.0000
# 4 0.0000 0.0000 0.0000 32.3916 0.0000 0.0000
# 5 0.0000 0.0000 0.0000 0.0000 12.2140 0.0000
# 6 0.0000 0.0000 0.0000 0.0000 0.0000 33.4747
#
#
#
# Elastic Compliance Matrix: (Units=1/GPa)
#
#
# Indices 1 2 3 4 5 6 
#
# 1 0.045499 -0.005304 -0.002842 0.000000 0.000000 0.000000
# 2 -0.005304 0.018797 -0.005311 0.000000 0.000000 0.000000
# 3 -0.002842 -0.005311 0.012604 0.000000 0.000000 0.000000
# 4 0.000000 0.000000 0.000000 0.030872 0.000000 0.000000
# 5 0.000000 0.000000 0.000000 0.000000 0.081873 0.000000
# 6 0.000000 0.000000 0.000000 0.000000 0.000000 0.029873
#
#
# Mechanical properties :
#
#
# Convention : Reuss Voigt Hill
#
# Bulk Modulus (GPa) = 20.00497 30.72528 25.36512
# Shear Modulus (GPa) = 19.00457 24.53283 21.76870
#
# Velocity S-wave (km/s) = 2.94810 3.34956 3.15522
# Velocity P-wave (km/s) = 4.55382 5.38618 4.98739
#
# Compressibility (1/GPa) = 0.04998757
#
# Stress axis : x y z
#
# Youngs Moduli (GPa) = 21.97827 53.19879 79.34259
#
# Poissons Ratio (x) = 0.28217 0.22548
# Poissons Ratio (y) = 0.11657 0.42135
# Poissons Ratio (z) = 0.06246 0.28252
#
# Static dielectric constant tensor:
#      x y z
#    x 1.868000 0.000000 0.000000 
#    y 0.000000 1.814210 0.000000 
#    z 0.000000 0.000000 1.799980 
# 
# From -- ./inp_files/6803.got.cif
#   From: 2010.05.17/outbox.cif.g08.bks.cpg/sg18_4_cif.got.tgz:6803.got - 2010.06.03 22:40:56.
