data_PCOD9311185
_publ_section_title
;
Structure prediction by ZEFSAII (Michael W. Deem and Ramdas Pophale) SiO2 
 PCOD9311185
Probable space group: P 2 2 21
;
_chemical_formula_sum "Si O2"
_cell_formula_units_Z 22
_cell_length_a 5.784466
_cell_length_b 5.025171
_cell_length_c 30.168123
_cell_angle_alpha 90.000000
_cell_angle_beta 90.000000
_cell_angle_gamma 90.000000
_cell_volume 876.924912
_symmetry_space_group_name_H-M "P 2 2 21"
_symmetry_group_IT_number 17
_symmetry_cell_setting 'orthorhombic'
loop_
_space_group_symop_operation_xyz
x,y,z
-x,-y,1/2+z
x,-y,-z
-x,y,1/2-z
loop_
_atom_site_type_symbol
_atom_site_label
_atom_site_fract_x
_atom_site_fract_y
_atom_site_fract_z
Si Si1 0.751186 0.024158 0.049566
Si Si2 0.517597 0.457426 0.580606
Si Si3 0.733030 0.446498 0.832295
Si Si4 0.111313 0.955101 0.206026
Si Si5 0.500000 0.585749 0.250000
Si Si6 0.090722 0.191376 0.117173
O O1 0.542342 0.811259 0.054390
O O2 0.648983 0.315605 0.059965
O O3 0.958000 0.982935 0.085289
O O4 0.843143 0.000000 0.000000
O O5 0.451520 0.371571 0.630695
O O6 0.758834 0.610730 0.586930
O O7 0.613903 0.574151 0.789587
O O8 0.897880 0.213770 0.814468
O O9 0.892283 0.649167 0.857813
O O10 0.306397 0.764644 0.226315
O O11 0.000000 0.098525 0.250000
O O12 0.218354 0.087875 0.161597
#
# Coordination Sequence:
#
# PCOD9311185 Si02
#       6
#     4   4   4   4   2   4
#     4  11  26  50  75 111 148 192 249 319 388 464
#     4  11  25  43  79 108 145 194 250 306 383 455
#     4  10  22  42  63 102 144 191 249 304 369 445
#     4  10  22  40  63 101 144 192 250 305 368 450
#     4  10  22  38  70  96 150 192 244 304 370 440
#     4  11  25  43  76 102 150 197 249 314 382 453
#
# _framework density 25.087665999999999
#
# number of rings (size 3 to 8) (size 9 to 14) (size 15 to 20)
#    0.000    1.455    1.818    1.636    5.091    5.818 
#    0.000    5.455    0.000    0.000    0.000    0.000 
#    0.000    0.000    0.000    0.000    0.000    0.000 
#
# Total GULP energy -122882.221888 kJ/mol
# GULP energy per Si atom -5585.555540 kJ/mol
# Density = 2.503057 g / cm^3
# Si number density = 25.087666 Si / 1000 Ang^3
#
#
#
# Elastic Constant Matrix: (Units=GPa)
#
#
# Indices 1 2 3 4 5 6 
#
# 1 58.9456 11.0313 18.8687 0.0000 0.0000 0.0000
# 2 11.0313 78.4823 26.4347 0.0000 0.0000 0.0000
# 3 18.8687 26.4347 157.2292 0.0000 0.0000 0.0000
# 4 0.0000 0.0000 0.0000 28.4762 0.0000 0.0000
# 5 0.0000 0.0000 0.0000 0.0000 23.8273 0.0000
# 6 0.0000 0.0000 0.0000 0.0000 0.0000 128.1394
#
#
#
# Elastic Compliance Matrix: (Units=1/GPa)
#
#
# Indices 1 2 3 4 5 6 
#
# 1 0.017906 -0.001901 -0.001829 0.000000 0.000000 0.000000
# 2 -0.001901 0.013708 -0.002077 0.000000 0.000000 0.000000
# 3 -0.001829 -0.002077 0.006929 0.000000 0.000000 0.000000
# 4 0.000000 0.000000 0.000000 0.035117 0.000000 0.000000
# 5 0.000000 0.000000 0.000000 0.000000 0.041969 0.000000
# 6 0.000000 0.000000 0.000000 0.000000 0.000000 0.007804
#
#
# Mechanical properties :
#
#
# Convention : Reuss Voigt Hill
#
# Bulk Modulus (GPa) = 37.13341 45.25850 41.19596
# Shear Modulus (GPa) = 34.71668 51.97673 43.34670
#
# Velocity S-wave (km/s) = 3.72400 4.55665 4.16120
# Velocity P-wave (km/s) = 5.77274 6.76486 6.28840
#
# Compressibility (1/GPa) = 0.02692992
#
# Stress axis : x y z
#
# Youngs Moduli (GPa) = 55.84696 72.94821 144.32474
#
# Poissons Ratio (x) = 0.13865 0.26401
# Poissons Ratio (y) = 0.10615 0.29971
# Poissons Ratio (z) = 0.10216 0.15149
#
# Static dielectric constant tensor:
#      x y z
#    x 2.249120 0.000000 0.000000 
#    y 0.000000 2.034080 0.000000 
#    z 0.000000 0.000000 2.076610 
# 
# From -- ./inp_files/11085.got.cif
#   From: 2010.05.17/outbox.cif.g08.bks.cpg/sg17_6_cif.got.tgz:11085.got - 2010.06.03 22:34:06.
