data_PCOD9311766
_publ_section_title
;
Structure prediction by ZEFSAII (Michael W. Deem and Ramdas Pophale) SiO2 
 PCOD9311766
Probable space group: P 21 21 2
;
_chemical_formula_sum "Si O2"
_cell_formula_units_Z 16
_cell_length_a 13.268940
_cell_length_b 9.190584
_cell_length_c 5.133945
_cell_angle_alpha 90.000000
_cell_angle_beta 90.000000
_cell_angle_gamma 90.000000
_cell_volume 626.081038
_symmetry_space_group_name_H-M "P 21 21 2"
_symmetry_group_IT_number 18
_symmetry_cell_setting 'orthorhombic'
loop_
_space_group_symop_operation_xyz
x,y,z
-x,-y,z
1/2+x,1/2-y,-z
1/2-x,1/2+y,-z
loop_
_atom_site_type_symbol
_atom_site_label
_atom_site_fract_x
_atom_site_fract_y
_atom_site_fract_z
Si Si1 0.000000 0.000000 0.566513
Si Si2 0.181106 0.980851 0.857287
Si Si3 0.386924 0.259866 0.786440
Si Si4 0.500000 0.000000 0.527218
Si Si5 0.205269 0.410575 0.654815
O O1 0.942969 0.113456 0.379493
O O2 0.912720 0.929864 0.746053
O O3 0.123140 0.826279 0.925886
O O4 0.241153 0.012071 0.124315
O O5 0.260049 0.949917 0.633682
O O6 0.267675 0.261683 0.707619
O O7 0.446482 0.117884 0.711995
O O8 0.413664 0.926645 0.349057
#
# Coordination Sequence:
#
# PCOD9311766 Si02
#       5
#     2   4   4   2   4
#     4  10  18  44  74 104 152 210 240 310 384 442
#     4   9  20  45  64 105 143 196 240 307 359 443
#     4   9  23  44  72 110 150 190 254 307 372 455
#     4  12  24  50  78 120 144 212 240 322 382 446
#     4   9  23  44  65 102 153 183 248 295 365 448
#
# _framework density 25.555795
#
# number of rings (size 3 to 8) (size 9 to 14) (size 15 to 20)
#    1.500    1.000    0.000    0.750    0.000    5.000 
#   18.000    0.000    0.000    0.000    0.000    0.000 
#    0.000    0.000    0.000    0.000    0.000    0.000 
#
# Total GULP energy -89215.615509 kJ/mol
# GULP energy per Si atom -5575.975969 kJ/mol
# Density = 2.549763 g / cm^3
# Si number density = 25.555795 Si / 1000 Ang^3
#
#
#
# Elastic Constant Matrix: (Units=GPa)
#
#
# Indices 1 2 3 4 5 6 
#
# 1 211.5396 40.3582 44.8661 0.0000 0.0000 0.0000
# 2 40.3582 78.5239 10.8770 0.0000 0.0000 0.0000
# 3 44.8661 10.8770 139.6430 0.0000 0.0000 0.0000
# 4 0.0000 0.0000 0.0000 7.4783 0.0000 0.0000
# 5 0.0000 0.0000 0.0000 0.0000 19.1668 0.0000
# 6 0.0000 0.0000 0.0000 0.0000 0.0000 45.8898
#
#
#
# Elastic Compliance Matrix: (Units=1/GPa)
#
#
# Indices 1 2 3 4 5 6 
#
# 1 0.005567 -0.002642 -0.001583 0.000000 0.000000 0.000000
# 2 -0.002642 0.014128 -0.000252 0.000000 0.000000 0.000000
# 3 -0.001583 -0.000252 0.007689 0.000000 0.000000 0.000000
# 4 0.000000 0.000000 0.000000 0.133719 0.000000 0.000000
# 5 0.000000 0.000000 0.000000 0.000000 0.052174 0.000000
# 6 0.000000 0.000000 0.000000 0.000000 0.000000 0.021791
#
#
# Mechanical properties :
#
#
# Convention : Reuss Voigt Hill
#
# Bulk Modulus (GPa) = 54.25593 69.10102 61.67847
# Shear Modulus (GPa) = 19.98683 36.74735 28.36709
#
# Velocity S-wave (km/s) = 2.79961 3.79611 3.33529
# Velocity P-wave (km/s) = 5.63267 6.80529 6.24655
#
# Compressibility (1/GPa) = 0.01843116
#
# Stress axis : x y z
#
# Youngs Moduli (GPa) = 179.62997 70.78299 130.05141
#
# Poissons Ratio (x) = 0.18701 0.20585
# Poissons Ratio (y) = 0.47458 0.03272
# Poissons Ratio (z) = 0.28433 0.01781
#
# Static dielectric constant tensor:
#      x y z
#    x 2.047450 0.000000 0.000000 
#    y 0.000000 2.153620 0.000000 
#    z 0.000000 0.000000 1.992720 
# 
# From -- ./inp_files/1373.got.cif
#   From: 2010.05.17/outbox.cif.g08.bks.cpg/sg18_1_cif.got.tgz:1373.got - 2010.06.03 22:40:56.
