data_PCOD9311143
_publ_section_title
;
Structure prediction by ZEFSAII (Michael W. Deem and Ramdas Pophale) SiO2 
 PCOD9311143
Probable space group: P 2 2 21
;
_chemical_formula_sum "Si O2"
_cell_formula_units_Z 22
_cell_length_a 5.264587
_cell_length_b 5.224456
_cell_length_c 29.045752
_cell_angle_alpha 90.000000
_cell_angle_beta 90.000000
_cell_angle_gamma 90.000000
_cell_volume 798.891882
_symmetry_space_group_name_H-M "P 2 2 21"
_symmetry_group_IT_number 17
_symmetry_cell_setting 'orthorhombic'
loop_
_space_group_symop_operation_xyz
x,y,z
-x,-y,1/2+z
x,-y,-z
-x,y,1/2-z
loop_
_atom_site_type_symbol
_atom_site_label
_atom_site_fract_x
_atom_site_fract_y
_atom_site_fract_z
Si Si1 0.735025 0.822318 0.625697
Si Si2 0.579955 0.756023 0.030471
Si Si3 0.225878 0.052731 0.658302
Si Si4 0.918531 0.586485 0.446854
Si Si5 0.601377 0.561044 0.297189
Si Si6 0.000000 0.947119 0.250000
O O1 0.442217 0.911495 0.628197
O O2 0.816354 0.646114 0.583116
O O3 0.952410 0.034077 0.633983
O O4 0.742596 0.633380 0.669828
O O5 0.304042 0.797368 0.052299
O O6 0.802193 0.685295 0.065550
O O7 0.542608 0.500000 0.000000
O O8 0.653054 0.000000 0.000000
O O9 0.369997 0.311567 0.673977
O O10 0.162594 0.928046 0.708771
O O11 0.956689 0.500000 0.500000
O O12 0.500000 0.444197 0.250000
O O13 0.796755 0.775391 0.278334
#
# Coordination Sequence:
#
# PCOD9311143 Si02
#       6
#     4   4   4   4   4   2
#     4  12  26  44  73 105 140 199 247 296 386 452
#     4  10  21  44  72 102 138 190 244 302 379 448
#     4  11  25  44  68 102 140 185 238 300 363 446
#     4  10  23  47  67 104 144 183 251 311 375 452
#     4  10  25  45  67 103 146 183 242 306 369 455
#     4  10  22  48  64 104 140 182 236 304 370 438
#
# _framework density 27.538143999999999
#
# number of rings (size 3 to 8) (size 9 to 14) (size 15 to 20)
#    0.000    1.455    1.818    1.636    7.636    0.000 
#   19.636    0.000    0.000    0.000    0.000    0.000 
#    0.000    0.000    0.000    0.000    0.000    0.000 
#
# Total GULP energy -123208.914773 kJ/mol
# GULP energy per Si atom -5600.405217 kJ/mol
# Density = 2.747547 g / cm^3
# Si number density = 27.538144 Si / 1000 Ang^3
#
#
#
# Elastic Constant Matrix: (Units=GPa)
#
#
# Indices 1 2 3 4 5 6 
#
# 1 208.6629 28.2111 42.7826 0.0000 0.0000 0.0000
# 2 28.2111 82.2695 29.1598 0.0000 0.0000 0.0000
# 3 42.7826 29.1598 128.6044 0.0000 0.0000 0.0000
# 4 0.0000 0.0000 0.0000 40.5870 0.0000 0.0000
# 5 0.0000 0.0000 0.0000 0.0000 57.0918 0.0000
# 6 0.0000 0.0000 0.0000 0.0000 0.0000 282.6442
#
#
#
# Elastic Compliance Matrix: (Units=1/GPa)
#
#
# Indices 1 2 3 4 5 6 
#
# 1 0.005266 -0.001288 -0.001460 0.000000 0.000000 0.000000
# 2 -0.001288 0.013533 -0.002640 0.000000 0.000000 0.000000
# 3 -0.001460 -0.002640 0.008860 0.000000 0.000000 0.000000
# 4 0.000000 0.000000 0.000000 0.024638 0.000000 0.000000
# 5 0.000000 0.000000 0.000000 0.000000 0.017516 0.000000
# 6 0.000000 0.000000 0.000000 0.000000 0.000000 0.003538
#
#
# Mechanical properties :
#
#
# Convention : Reuss Voigt Hill
#
# Bulk Modulus (GPa) = 59.23198 68.87153 64.05176
# Shear Modulus (GPa) = 55.70796 97.35680 76.53238
#
# Velocity S-wave (km/s) = 4.50259 5.95233 5.27747
# Velocity P-wave (km/s) = 6.97042 8.50318 7.77467
#
# Compressibility (1/GPa) = 0.01688277
#
# Stress axis : x y z
#
# Youngs Moduli (GPa) = 189.90163 73.89555 112.86781
#
# Poissons Ratio (x) = 0.09520 0.16475
# Poissons Ratio (y) = 0.24466 0.29795
# Poissons Ratio (z) = 0.27719 0.19507
#
# Static dielectric constant tensor:
#      x y z
#    x 2.167560 0.000000 0.000000 
#    y 0.000000 2.338200 0.000000 
#    z 0.000000 0.000000 2.327870 
# 
# From -- ./inp_files/11074.got.cif
#   From: 2010.05.17/outbox.cif.g08.bks.cpg/sg17_6_cif.got.tgz:11074.got - 2010.06.03 22:34:06.
