data_PCOD9311444
_publ_section_title
;
Structure prediction by ZEFSAII (Michael W. Deem and Ramdas Pophale) SiO2 
 PCOD9311444
Probable space group: P 2 2 21
;
_chemical_formula_sum "Si O2"
_cell_formula_units_Z 18
_cell_length_a 6.119720
_cell_length_b 9.919046
_cell_length_c 13.061997
_cell_angle_alpha 90.000000
_cell_angle_beta 90.000000
_cell_angle_gamma 90.000000
_cell_volume 792.886523
_symmetry_space_group_name_H-M "P 2 2 21"
_symmetry_group_IT_number 17
_symmetry_cell_setting 'orthorhombic'
loop_
_space_group_symop_operation_xyz
x,y,z
-x,-y,1/2+z
x,-y,-z
-x,y,1/2-z
loop_
_atom_site_type_symbol
_atom_site_label
_atom_site_fract_x
_atom_site_fract_y
_atom_site_fract_z
Si Si1 0.934764 0.291525 0.968338
Si Si2 0.425467 0.500000 0.500000
Si Si3 0.000000 0.399098 0.750000
Si Si4 0.076174 0.000000 0.000000
Si Si5 0.244003 0.377688 0.156747
Si Si6 0.745184 0.930866 0.710683
O O1 0.028178 0.314389 0.853762
O O2 0.713774 0.373520 0.962383
O O3 0.930386 0.133589 0.991041
O O4 0.064214 0.356939 0.064827
O O5 0.560571 0.563705 0.591627
O O6 0.808265 0.509858 0.741042
O O7 0.232963 0.985255 0.903529
O O8 0.265020 0.232136 0.208012
O O9 0.500000 0.974922 0.750000
O O10 0.000000 0.962402 0.750000
#
# Coordination Sequence:
#
# PCOD9311444 Si02
#       6
#     4   2   2   2   4   4
#     4  11  25  47  69 105 152 193 247 320 383 453
#     4  12  22  44  74 104 148 200 242 322 388 436
#     4  12  20  44  70 104 144 186 256 312 382 460
#     4  10  28  54  72 110 166 200 256 322 380 476
#     4  11  24  43  68 110 149 188 252 326 381 449
#     4  11  27  49  80 113 151 211 259 311 396 465
#
# _framework density 22.70186
#
# number of rings (size 3 to 8) (size 9 to 14) (size 15 to 20)
#    0.000    0.889    5.556    0.000   10.889    0.889 
#    4.000    0.000    0.000    0.000    0.000    0.000 
#    0.000    0.000    0.000    0.000    0.000    0.000 
#
# Total GULP energy -100306.421271 kJ/mol
# GULP energy per Si atom -5572.578959 kJ/mol
# Density = 2.265019 g / cm^3
# Si number density = 22.701860 Si / 1000 Ang^3
#
#
#
# Elastic Constant Matrix: (Units=GPa)
#
#
# Indices 1 2 3 4 5 6 
#
# 1 106.4774 30.1537 45.9514 0.0000 0.0000 0.0000
# 2 30.1537 114.7718 20.7734 0.0000 0.0000 0.0000
# 3 45.9514 20.7734 114.9903 0.0000 0.0000 0.0000
# 4 0.0000 0.0000 0.0000 33.7245 0.0000 0.0000
# 5 0.0000 0.0000 0.0000 0.0000 33.7778 0.0000
# 6 0.0000 0.0000 0.0000 0.0000 0.0000 94.5847
#
#
#
# Elastic Compliance Matrix: (Units=1/GPa)
#
#
# Indices 1 2 3 4 5 6 
#
# 1 0.011931 -0.002348 -0.004344 0.000000 0.000000 0.000000
# 2 -0.002348 0.009470 -0.000772 0.000000 0.000000 0.000000
# 3 -0.004344 -0.000772 0.010572 0.000000 0.000000 0.000000
# 4 0.000000 0.000000 0.000000 0.029652 0.000000 0.000000
# 5 0.000000 0.000000 0.000000 0.000000 0.029605 0.000000
# 6 0.000000 0.000000 0.000000 0.000000 0.000000 0.010573
#
#
# Mechanical properties :
#
#
# Convention : Reuss Voigt Hill
#
# Bulk Modulus (GPa) = 58.67188 58.88852 58.78020
# Shear Modulus (GPa) = 40.84551 48.37481 44.61016
#
# Velocity S-wave (km/s) = 4.24632 4.62115 4.43769
# Velocity P-wave (km/s) = 7.06698 7.38035 7.22537
#
# Compressibility (1/GPa) = 0.01704394
#
# Stress axis : x y z
#
# Youngs Moduli (GPa) = 83.81338 105.59957 94.59263
#
# Poissons Ratio (x) = 0.24800 0.41087
# Poissons Ratio (y) = 0.19684 0.07305
# Poissons Ratio (z) = 0.36405 0.08155
#
# Static dielectric constant tensor:
#      x y z
#    x 2.088130 0.000000 0.000000 
#    y 0.000000 1.869680 0.000000 
#    z 0.000000 0.000000 1.653160 
# 
# From -- ./inp_files/5868.got.cif
#   From: 2010.05.17/outbox.cif.g08.bks.cpg/sg17_3_cif.got.tgz:5868.got - 2010.06.03 22:34:06.
