data_PCOD9311200
_publ_section_title
;
Structure prediction by ZEFSAII (Michael W. Deem and Ramdas Pophale) SiO2 
 PCOD9311200
Probable space group: P 2 2 21
;
_chemical_formula_sum "Si O2"
_cell_formula_units_Z 18
_cell_length_a 25.879204
_cell_length_b 5.212615
_cell_length_c 5.267543
_cell_angle_alpha 90.000000
_cell_angle_beta 90.000000
_cell_angle_gamma 90.000000
_cell_volume 710.582738
_symmetry_space_group_name_H-M "P 2 2 21"
_symmetry_group_IT_number 17
_symmetry_cell_setting 'orthorhombic'
loop_
_space_group_symop_operation_xyz
x,y,z
-x,-y,1/2+z
x,-y,-z
-x,y,1/2-z
loop_
_atom_site_type_symbol
_atom_site_label
_atom_site_fract_x
_atom_site_fract_y
_atom_site_fract_z
Si Si1 0.609623 0.325175 0.754247
Si Si2 0.722433 0.250010 0.664633
Si Si3 0.500000 0.681459 0.250000
Si Si4 0.835242 0.174819 0.754254
Si Si5 0.944885 0.819025 0.250198
O O1 0.609867 0.500000 0.500000
O O2 0.666199 0.200313 0.786744
O O3 0.555157 0.171948 0.747045
O O4 0.605738 0.500000 0.000000
O O5 0.714333 0.500000 0.500000
O O6 0.778673 0.299749 0.786633
O O7 0.730535 0.000000 0.500000
O O8 0.500657 0.500000 0.500000
O O9 0.889726 0.327640 0.746850
O O10 0.835074 0.000000 0.500000
O O11 0.839072 0.000000 0.000000
O O12 0.000000 0.673951 0.250000
O O13 0.944688 0.000000 0.500000
O O14 0.945508 0.000000 0.000000
#
# Coordination Sequence:
#
# PCOD9311200 Si02
#       5
#     4   4   2   4   4
#     4   9  18  33  56  84 114 149 189 234 284 338
#     4  10  22  40  61  87 118 154 194 238 288 342
#     4   8  14  28  52  80 110 144 184 230 280 334
#     4   9  18  32  51  78 111 147 187 232 282 336
#     4   8  13  23  42  70 102 137 178 224 274 328
#
# _framework density 25.331323000000001
#
# number of rings (size 3 to 8) (size 9 to 14) (size 15 to 20)
#    0.000    3.111    0.000    0.000    0.000    7.111 
#    0.000    0.000    0.000   18.667    0.000   31.111 
#    0.000    0.000    0.000    0.000    0.000    0.000 
#
# Total GULP energy -100224.715385 kJ/mol
# GULP energy per Si atom -5568.039744 kJ/mol
# Density = 2.527367 g / cm^3
# Si number density = 25.331323 Si / 1000 Ang^3
#
#
#
# Elastic Constant Matrix: (Units=GPa)
#
#
# Indices 1 2 3 4 5 6 
#
# 1 409.7294 8.5247 -5.1802 0.0000 0.0000 0.0000
# 2 8.5247 54.0876 31.6272 0.0000 0.0000 0.0000
# 3 -5.1802 31.6272 184.6945 0.0000 0.0000 0.0000
# 4 0.0000 0.0000 0.0000 48.0357 0.0000 0.0000
# 5 0.0000 0.0000 0.0000 0.0000 14.8246 0.0000
# 6 0.0000 0.0000 0.0000 0.0000 0.0000 -1.3853
#
#
#
# Elastic Compliance Matrix: (Units=1/GPa)
#
#
# Indices 1 2 3 4 5 6 
#
# 1 0.002452 -0.000474 0.000150 0.000000 0.000000 0.000000
# 2 -0.000474 0.020638 -0.003547 0.000000 0.000000 0.000000
# 3 0.000150 -0.003547 0.006026 0.000000 0.000000 0.000000
# 4 0.000000 0.000000 0.000000 0.020818 0.000000 0.000000
# 5 0.000000 0.000000 0.000000 0.000000 0.067456 0.000000
# 6 0.000000 0.000000 0.000000 0.000000 0.000000 -0.721878
#
#
# Mechanical properties :
#
#
# Convention : Reuss Voigt Hill
#
# Bulk Modulus (GPa) = 46.78828 79.82830 63.30829
# Shear Modulus (GPa) = -8.48002 53.19764 22.35881
#
# Velocity S-wave (km/s) = -1.83164 4.58763 2.97417
# Velocity P-wave (km/s) = 3.74665 7.72294 6.06965
#
# Compressibility (1/GPa) = 0.02137288
#
# Stress axis : x y z
#
# Youngs Moduli (GPa) = 407.76407 48.45545 165.94781
#
# Poissons Ratio (x) = 0.02298 -0.02489
# Poissons Ratio (y) = 0.19337 0.58866
# Poissons Ratio (z) = -0.06116 0.17188
#
# Static dielectric constant tensor:
#      x y z
#    x 2.288230 0.000000 0.000000 
#    y 0.000000 2.035100 0.000000 
#    z 0.000000 0.000000 1.969700 
# 
# From -- ./inp_files/3156.got.cif
#   From: 2010.05.17/outbox.cif.g08.bks.cpg/sg17_2_cif.got.tgz:3156.got - 2010.06.03 22:34:06.
