data_PCOD9311509
_publ_section_title
;
Structure prediction by ZEFSAII (Michael W. Deem and Ramdas Pophale) SiO2 
 PCOD9311509
Probable space group: P 2 2 21
;
_chemical_formula_sum "Si O2"
_cell_formula_units_Z 18
_cell_length_a 4.980230
_cell_length_b 12.222383
_cell_length_c 13.261959
_cell_angle_alpha 90.000000
_cell_angle_beta 90.000000
_cell_angle_gamma 90.000000
_cell_volume 807.259138
_symmetry_space_group_name_H-M "P 2 2 21"
_symmetry_group_IT_number 17
_symmetry_cell_setting 'orthorhombic'
loop_
_space_group_symop_operation_xyz
x,y,z
-x,-y,1/2+z
x,-y,-z
-x,y,1/2-z
loop_
_atom_site_type_symbol
_atom_site_label
_atom_site_fract_x
_atom_site_fract_y
_atom_site_fract_z
Si Si1 0.500000 0.420661 0.750000
Si Si2 0.000000 0.884391 0.750000
Si Si3 0.296226 0.421157 0.408274
Si Si4 0.795631 0.222036 0.654235
Si Si5 0.194038 0.274083 0.072658
Si Si6 0.500000 0.033973 0.750000
O O1 0.685988 0.502584 0.811026
O O2 0.648968 0.337244 0.675248
O O3 0.111744 0.810336 0.840487
O O4 0.249343 0.960356 0.717423
O O5 0.368401 0.500000 0.500000
O O6 0.503070 0.318743 0.411471
O O7 0.996940 0.378313 0.416849
O O8 0.877866 0.226944 0.538030
O O9 0.600581 0.118065 0.664788
O O10 0.000000 0.211751 0.750000
#
# Coordination Sequence:
#
# PCOD9311509 Si02
#       6
#     2   2   4   4   4   2
#     4  11  24  41  72 102 154 187 240 291 338 430
#     4  12  26  52  72 106 148 184 236 312 360 428
#     4  12  24  43  68 108 142 192 233 278 350 425
#     4  11  25  48  72 107 140 188 244 302 346 428
#     4  12  27  46  73 107 148 188 238 290 359 427
#     4  11  26  51  74 104 136 189 254 291 378 412
#
# _framework density 22.297671000000001
#
# number of rings (size 3 to 8) (size 9 to 14) (size 15 to 20)
#    0.000    0.444    3.333    4.667    6.222    0.889 
#    4.000    0.000    0.000    0.000    0.000    0.000 
#    0.000    0.000    0.000    0.000    0.000    0.000 
#
# Total GULP energy -100681.837299 kJ/mol
# GULP energy per Si atom -5593.435405 kJ/mol
# Density = 2.224692 g / cm^3
# Si number density = 22.297671 Si / 1000 Ang^3
#
#
#
# Elastic Constant Matrix: (Units=GPa)
#
#
# Indices 1 2 3 4 5 6 
#
# 1 52.6133 0.2310 -6.6432 0.0000 0.0000 0.0000
# 2 0.2310 85.7245 38.2660 0.0000 0.0000 0.0000
# 3 -6.6432 38.2660 119.8774 0.0000 0.0000 0.0000
# 4 0.0000 0.0000 0.0000 -5.9215 0.0000 0.0000
# 5 0.0000 0.0000 0.0000 0.0000 28.3434 0.0000
# 6 0.0000 0.0000 0.0000 0.0000 0.0000 120.9209
#
#
#
# Elastic Compliance Matrix: (Units=1/GPa)
#
#
# Indices 1 2 3 4 5 6 
#
# 1 0.019168 -0.000613 0.001258 0.000000 0.000000 0.000000
# 2 -0.000613 0.013623 -0.004383 0.000000 0.000000 0.000000
# 3 0.001258 -0.004383 0.009811 0.000000 0.000000 0.000000
# 4 0.000000 0.000000 0.000000 -0.168875 0.000000 0.000000
# 5 0.000000 0.000000 0.000000 0.000000 0.035282 0.000000
# 6 0.000000 0.000000 0.000000 0.000000 0.000000 0.008270
#
#
# Mechanical properties :
#
#
# Convention : Reuss Voigt Hill
#
# Bulk Modulus (GPa) = 28.46880 35.76921 32.11901
# Shear Modulus (GPa) = -78.69435 43.75931 -17.46752
#
# Velocity S-wave (km/s) = -5.94721 4.43482 -2.80193
# Velocity P-wave (km/s) = 5.86205 6.50385 1.99203
#
# Compressibility (1/GPa) = 0.03512618
#
# Stress axis : x y z
#
# Youngs Moduli (GPa) = 52.16995 73.40375 101.93100
#
# Poissons Ratio (x) = 0.04501 -0.12823
# Poissons Ratio (y) = 0.03199 0.44673
# Poissons Ratio (z) = -0.06563 0.32170
#
# Static dielectric constant tensor:
#      x y z
#    x 1.854140 0.000000 0.000000 
#    y 0.000000 1.784720 0.000000 
#    z 0.000000 0.000000 1.868700 
# 
# From -- ./inp_files/5853.got.cif
#   From: 2010.05.17/outbox.cif.g08.bks.cpg/sg17_3_cif.got.tgz:5853.got - 2010.06.03 22:34:06.
