data_PCOD9311084
_publ_section_title
;
Structure prediction by ZEFSAII (Michael W. Deem and Ramdas Pophale) SiO2 
 PCOD9311084
Probable space group: P 2 2 21
;
_chemical_formula_sum "Si O2"
_cell_formula_units_Z 24
_cell_length_a 5.230532
_cell_length_b 9.759058
_cell_length_c 21.045487
_cell_angle_alpha 90.000000
_cell_angle_beta 90.000000
_cell_angle_gamma 90.000000
_cell_volume 1074.268255
_symmetry_space_group_name_H-M "P 2 2 21"
_symmetry_group_IT_number 17
_symmetry_cell_setting 'orthorhombic'
loop_
_space_group_symop_operation_xyz
x,y,z
-x,-y,1/2+z
x,-y,-z
-x,y,1/2-z
loop_
_atom_site_type_symbol
_atom_site_label
_atom_site_fract_x
_atom_site_fract_y
_atom_site_fract_z
Si Si1 0.819283 0.321877 0.601462
Si Si2 0.312261 0.343109 0.519261
Si Si3 0.745493 0.248487 0.730725
Si Si4 0.431815 0.749557 0.619161
Si Si5 0.743523 0.951861 0.787090
Si Si6 0.057840 0.605486 0.825775
O O1 0.558044 0.342984 0.564316
O O2 0.766662 0.211238 0.657189
O O3 0.871492 0.460655 0.641367
O O4 0.059700 0.291139 0.556250
O O5 0.252437 0.500000 0.500000
O O6 0.404729 0.263301 0.456470
O O7 0.500000 0.333984 0.750000
O O8 0.000000 0.321842 0.750000
O O9 0.736164 0.115394 0.776546
O O10 0.316347 0.895102 0.643621
O O11 0.710089 0.705008 0.647573
O O12 0.216435 0.646901 0.645683
O O13 0.500000 0.894248 0.750000
O O14 0.000000 0.909193 0.750000
O O15 0.000000 0.609875 0.750000
#
# Coordination Sequence:
#
# PCOD9311084 Si02
#       6
#     4   4   4   4   4   4
#     4  12  23  40  63  92 131 174 214 258 323 391
#     4  12  23  41  61  90 137 183 208 254 313 406
#     4  10  22  41  66  90 120 165 216 272 329 371
#     4  12  23  38  61  91 130 171 211 258 325 387
#     4  10  21  40  64  88 118 162 212 271 329 366
#     4  12  23  35  58  93 129 162 212 260 320 394
#
# _framework density 22.340790999999999
#
# number of rings (size 3 to 8) (size 9 to 14) (size 15 to 20)
#    0.000    0.667    3.333    6.000    0.000    1.333 
#    0.000    0.000    0.000   24.000    0.000    0.000 
#    0.000    0.000    0.000    0.000    0.000    0.000 
#
# Total GULP energy -133864.740325 kJ/mol
# GULP energy per Si atom -5577.697514 kJ/mol
# Density = 2.228994 g / cm^3
# Si number density = 22.340791 Si / 1000 Ang^3
#
#
#
# Elastic Constant Matrix: (Units=GPa)
#
#
# Indices 1 2 3 4 5 6 
#
# 1 179.8900 -3.2392 53.2110 0.0000 0.0000 0.0000
# 2 -3.2392 44.4080 14.9533 0.0000 0.0000 0.0000
# 3 53.2110 14.9533 143.1405 0.0000 0.0000 0.0000
# 4 0.0000 0.0000 0.0000 26.5093 0.0000 0.0000
# 5 0.0000 0.0000 0.0000 0.0000 51.9338 0.0000
# 6 0.0000 0.0000 0.0000 0.0000 0.0000 -23.5519
#
#
#
# Elastic Compliance Matrix: (Units=1/GPa)
#
#
# Indices 1 2 3 4 5 6 
#
# 1 0.006317 0.001297 -0.002484 0.000000 0.000000 0.000000
# 2 0.001297 0.023606 -0.002948 0.000000 0.000000 0.000000
# 3 -0.002484 -0.002948 0.008217 0.000000 0.000000 0.000000
# 4 0.000000 0.000000 0.000000 0.037723 0.000000 0.000000
# 5 0.000000 0.000000 0.000000 0.000000 0.019255 0.000000
# 6 0.000000 0.000000 0.000000 0.000000 0.000000 -0.042459
#
#
# Mechanical properties :
#
#
# Convention : Reuss Voigt Hill
#
# Bulk Modulus (GPa) = 33.47776 55.25430 44.36603
# Shear Modulus (GPa) = 70.53638 31.14579 50.84109
#
# Velocity S-wave (km/s) = 5.62507 3.73785 4.77561
# Velocity P-wave (km/s) = 7.56348 6.58899 7.09299
#
# Compressibility (1/GPa) = 0.02987057
#
# Stress axis : x y z
#
# Youngs Moduli (GPa) = 158.30282 42.36240 121.69226
#
# Poissons Ratio (x) = -0.05495 0.30226
# Poissons Ratio (y) = -0.20534 0.35877
# Poissons Ratio (z) = 0.39319 0.12489
#
# Static dielectric constant tensor:
#      x y z
#    x 1.918990 0.000000 0.000000 
#    y 0.000000 1.904720 0.000000 
#    z 0.000000 0.000000 1.896160 
# 
# From -- ./inp_files/9035.got.cif
#   From: 2010.05.17/outbox.cif.g08.bks.cpg/sg17_5_cif.got.tgz:9035.got - 2010.06.03 22:34:06.
