data_PCOD9311865
_publ_section_title
;
Structure prediction by ZEFSAII (Michael W. Deem and Ramdas Pophale) SiO2 
 PCOD9311865
Probable space group: P 21 21 2
;
_chemical_formula_sum "Si O2"
_cell_formula_units_Z 28
_cell_length_a 16.114094
_cell_length_b 8.893568
_cell_length_c 10.196192
_cell_angle_alpha 90.000000
_cell_angle_beta 90.000000
_cell_angle_gamma 90.000000
_cell_volume 1461.234534
_symmetry_space_group_name_H-M "P 21 21 2"
_symmetry_group_IT_number 18
_symmetry_cell_setting 'orthorhombic'
loop_
_space_group_symop_operation_xyz
x,y,z
-x,-y,z
1/2+x,1/2-y,-z
1/2-x,1/2+y,-z
loop_
_atom_site_type_symbol
_atom_site_label
_atom_site_fract_x
_atom_site_fract_y
_atom_site_fract_z
Si Si1 0.578074 0.803842 0.933518
Si Si2 0.740843 0.285576 0.819052
Si Si3 0.000000 0.500000 0.837496
Si Si4 0.665525 0.528400 0.015050
Si Si5 0.246185 0.159438 0.792684
Si Si6 0.674066 0.059621 0.605710
Si Si7 0.335323 0.949589 0.298298
Si Si8 0.500000 0.000000 0.725199
O O1 0.669262 0.858698 0.880072
O O2 0.514626 0.857240 0.821273
O O3 0.589522 0.628688 0.965030
O O4 0.548006 0.887947 0.063673
O O5 0.772812 0.158670 0.922678
O O6 0.694388 0.198626 0.702298
O O7 0.811867 0.381970 0.746258
O O8 0.691831 0.411773 0.901508
O O9 0.070344 0.424299 0.747891
O O10 0.666873 0.418280 0.139964
O O11 0.224753 0.332199 0.774575
O O12 0.267222 0.074614 0.658271
O O13 0.680346 0.078321 0.451238
O O14 0.580252 0.015751 0.637731
#
# Coordination Sequence:
#
# PCOD9311865 Si02
#       8
#     4   4   2   4   4   4   4   2
#     4  10  19  36  59  88 119 150 198 254 310 359
#     4  11  21  35  64  93 118 156 208 259 305 358
#     4  11  23  36  62  94 123 161 196 258 328 377
#     4  11  18  35  60  92 117 144 196 263 311 344
#     4  10  21  36  63  90 119 157 206 261 300 364
#     4  10  23  39  61  88 121 170 211 246 298 375
#     4  12  21  40  61  88 125 164 208 250 304 376
#     4   9  21  40  58  86 123 161 204 246 314 373
#
# _framework density 19.161878999999999
#
# number of rings (size 3 to 8) (size 9 to 14) (size 15 to 20)
#    0.000    1.429    4.286    1.286    0.000    2.286 
#    0.000    2.857    0.000    1.714    0.000    0.000 
#    0.000    0.000    0.000    0.000    0.000    0.000 
#
# Total GULP energy -155932.066254 kJ/mol
# GULP energy per Si atom -5569.002366 kJ/mol
# Density = 1.911827 g / cm^3
# Si number density = 19.161879 Si / 1000 Ang^3
#
#
#
# Elastic Constant Matrix: (Units=GPa)
#
#
# Indices 1 2 3 4 5 6 
#
# 1 43.3098 16.9882 20.3375 0.0000 0.0000 0.0000
# 2 16.9882 96.6995 32.6456 0.0000 0.0000 0.0000
# 3 20.3375 32.6456 97.5668 0.0000 0.0000 0.0000
# 4 0.0000 0.0000 0.0000 20.8937 0.0000 0.0000
# 5 0.0000 0.0000 0.0000 0.0000 22.3504 0.0000
# 6 0.0000 0.0000 0.0000 0.0000 0.0000 25.6362
#
#
#
# Elastic Compliance Matrix: (Units=1/GPa)
#
#
# Indices 1 2 3 4 5 6 
#
# 1 0.026412 -0.003136 -0.004456 0.000000 0.000000 0.000000
# 2 -0.003136 0.012030 -0.003372 0.000000 0.000000 0.000000
# 3 -0.004456 -0.003372 0.012306 0.000000 0.000000 0.000000
# 4 0.000000 0.000000 0.000000 0.047861 0.000000 0.000000
# 5 0.000000 0.000000 0.000000 0.000000 0.044742 0.000000
# 6 0.000000 0.000000 0.000000 0.000000 0.000000 0.039007
#
#
# Mechanical properties :
#
#
# Convention : Reuss Voigt Hill
#
# Bulk Modulus (GPa) = 34.69625 41.94651 38.32138
# Shear Modulus (GPa) = 23.37603 24.94970 24.16287
#
# Velocity S-wave (km/s) = 3.49653 3.61231 3.55489
# Velocity P-wave (km/s) = 5.86917 6.27188 6.07386
#
# Compressibility (1/GPa) = 0.02882156
#
# Stress axis : x y z
#
# Youngs Moduli (GPa) = 37.86156 83.12217 81.25798
#
# Poissons Ratio (x) = 0.26064 0.36211
# Poissons Ratio (y) = 0.11872 0.27398
# Poissons Ratio (z) = 0.16872 0.28027
#
# Static dielectric constant tensor:
#      x y z
#    x 1.710300 0.000000 0.000000 
#    y 0.000000 1.684730 0.000000 
#    z 0.000000 0.000000 1.678700 
# 
# From -- ./inp_files/4554.got.cif
#   From: 2010.05.17/outbox.cif.g08.bks.cpg/sg18_3_cif.got.tgz:4554.got - 2010.06.03 22:40:56.
