data_PCOD9311483
_publ_section_title
;
Structure prediction by ZEFSAII (Michael W. Deem and Ramdas Pophale) SiO2 
 PCOD9311483
Probable space group: P 2 2 21
;
_chemical_formula_sum "Si O2"
_cell_formula_units_Z 32
_cell_length_a 15.269804
_cell_length_b 9.672306
_cell_length_c 10.427878
_cell_angle_alpha 90.000000
_cell_angle_beta 90.000000
_cell_angle_gamma 90.000000
_cell_volume 1540.137275
_symmetry_space_group_name_H-M "P 2 2 21"
_symmetry_group_IT_number 17
_symmetry_cell_setting 'orthorhombic'
loop_
_space_group_symop_operation_xyz
x,y,z
-x,-y,1/2+z
x,-y,-z
-x,y,1/2-z
loop_
_atom_site_type_symbol
_atom_site_label
_atom_site_fract_x
_atom_site_fract_y
_atom_site_fract_z
Si Si1 0.961033 0.909708 0.112095
Si Si2 0.697307 0.208936 0.920748
Si Si3 0.774602 0.958512 0.838162
Si Si4 0.209346 0.418079 0.748688
Si Si5 0.643278 0.648832 0.463306
Si Si6 0.059385 0.646485 0.054567
Si Si7 0.205769 0.713598 0.844046
Si Si8 0.495188 0.869668 0.400718
O O1 0.000000 0.937824 0.250000
O O2 0.981465 0.752792 0.075425
O O3 0.861887 0.959035 0.123117
O O4 0.003896 0.000000 0.000000
O O5 0.756124 0.337784 0.876034
O O6 0.593107 0.220877 0.926713
O O7 0.709256 0.085161 0.815782
O O8 0.733275 0.139950 0.051921
O O9 0.797466 0.859952 0.722682
O O10 0.118915 0.367525 0.816559
O O11 0.200465 0.584075 0.745720
O O12 0.286439 0.383944 0.851265
O O13 0.602044 0.500000 0.500000
O O14 0.703040 0.697865 0.581546
O O15 0.575545 0.766440 0.426751
O O16 0.027943 0.500000 0.000000
O O17 0.127942 0.696895 0.946410
O O18 0.500000 0.912304 0.250000
O O19 0.494526 0.000000 0.500000
#
# Coordination Sequence:
#
# PCOD9311483 Si02
#       8
#     4   4   4   4   4   4   4   4
#     4  12  24  42  67  96 132 172 219 274 331 395
#     4  11  22  41  59  84 133 171 212 260 334 387
#     4  11  23  41  60  91 132 171 213 267 324 402
#     4   9  18  39  66  91 125 168 210 271 320 389
#     4   9  20  40  66  97 127 166 222 273 322 382
#     4   9  20  40  67  96 124 163 219 273 320 386
#     4   9  20  40  67  96 125 164 225 267 320 396
#     4  12  25  42  64  97 136 177 223 275 330 395
#
# _framework density 20.777367999999999
#
# number of rings (size 3 to 8) (size 9 to 14) (size 15 to 20)
#    0.000    1.750    3.750    3.000    1.750    0.500 
#    2.250    7.500    0.000    0.000    0.000    0.000 
#    0.000    0.000    0.000    0.000    0.000    0.000 
#
# Total GULP energy -178534.584724 kJ/mol
# GULP energy per Si atom -5579.205773 kJ/mol
# Density = 2.073008 g / cm^3
# Si number density = 20.777368 Si / 1000 Ang^3
#
#
#
# Elastic Constant Matrix: (Units=GPa)
#
#
# Indices 1 2 3 4 5 6 
#
# 1 78.5990 50.1963 25.3555 0.0000 0.0000 0.0000
# 2 50.1963 89.2665 34.1073 0.0000 0.0000 0.0000
# 3 25.3555 34.1073 67.3095 0.0000 0.0000 0.0000
# 4 0.0000 0.0000 0.0000 38.7977 0.0000 0.0000
# 5 0.0000 0.0000 0.0000 0.0000 15.0226 0.0000
# 6 0.0000 0.0000 0.0000 0.0000 0.0000 74.2234
#
#
#
# Elastic Compliance Matrix: (Units=1/GPa)
#
#
# Indices 1 2 3 4 5 6 
#
# 1 0.020133 -0.010446 -0.002291 0.000000 0.000000 0.000000
# 2 -0.010446 0.019312 -0.005851 0.000000 0.000000 0.000000
# 3 -0.002291 -0.005851 0.018684 0.000000 0.000000 0.000000
# 4 0.000000 0.000000 0.000000 0.025775 0.000000 0.000000
# 5 0.000000 0.000000 0.000000 0.000000 0.066567 0.000000
# 6 0.000000 0.000000 0.000000 0.000000 0.000000 0.013473
#
#
# Mechanical properties :
#
#
# Convention : Reuss Voigt Hill
#
# Bulk Modulus (GPa) = 47.72337 50.49924 49.11130
# Shear Modulus (GPa) = 24.02656 33.97646 29.00151
#
# Velocity S-wave (km/s) = 3.40425 4.04823 3.74012
# Velocity P-wave (km/s) = 6.20247 6.79769 6.50689
#
# Compressibility (1/GPa) = 0.02095409
#
# Stress axis : x y z
#
# Youngs Moduli (GPa) = 49.66983 51.78188 53.52041
#
# Poissons Ratio (x) = 0.54090 0.12261
# Poissons Ratio (y) = 0.51884 0.31314
# Poissons Ratio (z) = 0.11379 0.30296
#
# Static dielectric constant tensor:
#      x y z
#    x 1.784070 0.000000 0.000000 
#    y 0.000000 1.748820 0.000000 
#    z 0.000000 0.000000 1.765370 
# 
# From -- ./inp_files/7304.got.cif
#   From: 2010.05.17/outbox.cif.g08.bks.cpg/sg17_4_cif.got.tgz:7304.got - 2010.06.03 22:34:06.
