data_PCOD9311492
_publ_section_title
;
Structure prediction by ZEFSAII (Michael W. Deem and Ramdas Pophale) SiO2 
 PCOD9311492
Probable space group: P 2 2 21
;
_chemical_formula_sum "Si O2"
_cell_formula_units_Z 20
_cell_length_a 6.421870
_cell_length_b 10.095750
_cell_length_c 11.066010
_cell_angle_alpha 90.000000
_cell_angle_beta 90.000000
_cell_angle_gamma 90.000000
_cell_volume 717.449200
_symmetry_space_group_name_H-M "P 2 2 21"
_symmetry_group_IT_number 17
_symmetry_cell_setting 'orthorhombic'
loop_
_space_group_symop_operation_xyz
x,y,z
-x,-y,1/2+z
x,-y,-z
-x,y,1/2-z
loop_
_atom_site_type_symbol
_atom_site_label
_atom_site_fract_x
_atom_site_fract_y
_atom_site_fract_z
Si Si1 0.637683 0.964842 0.147492
Si Si2 0.728877 0.675419 0.082807
Si Si3 0.865728 0.952343 0.642932
Si Si4 0.499900 0.591595 0.872891
Si Si5 0.920067 0.646549 0.614987
O O1 0.707934 0.807489 0.157903
O O2 0.378924 0.987541 0.175932
O O3 0.871123 0.033489 0.182998
O O4 0.633883 0.000000 0.000000
O O5 0.652145 0.534817 0.136294
O O6 0.562522 0.689650 0.976309
O O7 0.935612 0.651502 0.003714
O O8 0.839335 0.795534 0.627430
O O9 0.885485 0.000000 0.500000
O O10 0.500000 0.668926 0.750000
O O11 0.268800 0.545562 0.892142
O O12 0.000000 0.618852 0.750000
#
# Coordination Sequence:
#
# PCOD9311492 Si02
#       5
#     4   4   4   4   4
#     4   9  19  40  68 102 147 179 237 308 356 445
#     4  11  25  42  69 106 137 192 256 289 382 440
#     4   7  20  38  66 100 137 185 234 282 385 416
#     4  11  25  44  69 101 142 193 250 301 372 445
#     4  11  22  47  70  93 147 194 242 313 362 445
#
# _framework density 27.876535000000001
#
# number of rings (size 3 to 8) (size 9 to 14) (size 15 to 20)
#    1.200    0.800    2.000    0.600    0.000    9.600 
#    0.000    8.000    0.000    0.000    0.000    0.000 
#    0.000    0.000    0.000    0.000    0.000    0.000 
#
# Total GULP energy -111378.718141 kJ/mol
# GULP energy per Si atom -5568.935907 kJ/mol
# Density = 2.781309 g / cm^3
# Si number density = 27.876535 Si / 1000 Ang^3
#
#
#
# Elastic Constant Matrix: (Units=GPa)
#
#
# Indices 1 2 3 4 5 6 
#
# 1 223.5264 64.1087 129.9930 0.0000 0.0000 0.0000
# 2 64.1087 124.1086 25.8330 0.0000 0.0000 0.0000
# 3 129.9930 25.8330 153.5611 0.0000 0.0000 0.0000
# 4 0.0000 0.0000 0.0000 -2.7135 0.0000 0.0000
# 5 0.0000 0.0000 0.0000 0.0000 89.7207 0.0000
# 6 0.0000 0.0000 0.0000 0.0000 0.0000 39.5997
#
#
#
# Elastic Compliance Matrix: (Units=1/GPa)
#
#
# Indices 1 2 3 4 5 6 
#
# 1 0.010143 -0.003578 -0.007985 0.000000 0.000000 0.000000
# 2 -0.003578 0.009612 0.001412 0.000000 0.000000 0.000000
# 3 -0.007985 0.001412 0.013034 0.000000 0.000000 0.000000
# 4 0.000000 0.000000 0.000000 -0.368529 0.000000 0.000000
# 5 0.000000 0.000000 0.000000 0.000000 0.011146 0.000000
# 6 0.000000 0.000000 0.000000 0.000000 0.000000 0.025253
#
#
# Mechanical properties :
#
#
# Convention : Reuss Voigt Hill
#
# Bulk Modulus (GPa) = 80.08086 104.56285 92.32185
# Shear Modulus (GPa) = -18.18991 44.07215 12.94112
#
# Velocity S-wave (km/s) = -2.55721 3.98046 2.15694
# Velocity P-wave (km/s) = 4.47998 7.66265 6.27640
#
# Compressibility (1/GPa) = 0.01248738
#
# Stress axis : x y z
#
# Youngs Moduli (GPa) = 98.58609 104.04034 76.72294
#
# Poissons Ratio (x) = 0.37221 0.61262
# Poissons Ratio (y) = 0.35270 -0.10830
# Poissons Ratio (z) = 0.78719 -0.14686
#
# Static dielectric constant tensor:
#      x y z
#    x 2.404230 0.000000 0.000000 
#    y 0.000000 2.061450 0.000000 
#    z 0.000000 0.000000 2.522580 
# 
# From -- ./inp_files/7540.got.cif
#   From: 2010.05.17/outbox.cif.g08.bks.cpg/sg17_4_cif.got.tgz:7540.got - 2010.06.03 22:34:06.
