data_PCOD9311873
_publ_section_title
;
Structure prediction by ZEFSAII (Michael W. Deem and Ramdas Pophale) SiO2 
 PCOD9311873
Probable space group: P 21 21 2
;
_chemical_formula_sum "Si O2"
_cell_formula_units_Z 26
_cell_length_a 9.013288
_cell_length_b 9.513106
_cell_length_c 14.381794
_cell_angle_alpha 90.000000
_cell_angle_beta 90.000000
_cell_angle_gamma 90.000000
_cell_volume 1233.157782
_symmetry_space_group_name_H-M "P 21 21 2"
_symmetry_group_IT_number 18
_symmetry_cell_setting 'orthorhombic'
loop_
_space_group_symop_operation_xyz
x,y,z
-x,-y,z
1/2+x,1/2-y,-z
1/2-x,1/2+y,-z
loop_
_atom_site_type_symbol
_atom_site_label
_atom_site_fract_x
_atom_site_fract_y
_atom_site_fract_z
Si Si1 0.055216 0.157151 0.234264
Si Si2 0.726709 0.919981 0.926675
Si Si3 0.366889 0.790003 0.435911
Si Si4 0.598038 0.210441 0.958171
Si Si5 0.212744 0.632562 0.288554
Si Si6 0.665854 0.439056 0.584730
Si Si7 0.000000 0.500000 0.431263
O O1 0.122931 0.227199 0.144159
O O2 0.171616 0.138281 0.316854
O O3 0.916869 0.249755 0.272091
O O4 0.000000 0.000000 0.210841
O O5 0.572933 0.840141 0.954616
O O6 0.737911 0.927320 0.814562
O O7 0.702943 0.074397 0.968891
O O8 0.860206 0.828952 0.967920
O O9 0.355398 0.706401 0.337544
O O10 0.307767 0.673249 0.505814
O O11 0.491948 0.864645 0.500296
O O12 0.267720 0.926339 0.419480
O O13 0.138386 0.521005 0.360151
O O14 0.500000 0.500000 0.574334
#
# Coordination Sequence:
#
# PCOD9311873 Si02
#       7
#     4   4   4   4   4   4   2
#     4  10  19  36  64  90 119 160 216 255 304 378
#     4  10  24  42  68  96 126 165 208 264 316 383
#     4  12  22  36  61  88 126 162 205 264 298 365
#     4  10  23  41  68  99 124 163 211 260 318 383
#     4  11  21  39  61  89 124 163 209 255 307 370
#     4  11  22  38  58  92 120 161 212 255 307 362
#     4  12  22  36  62  88 122 170 210 250 310 360
#
# _framework density 21.084083
#
# number of rings (size 3 to 8) (size 9 to 14) (size 15 to 20)
#    0.000    1.231    6.154    1.846    4.308    0.000 
#    0.000    3.077    3.385    0.000    0.000    0.000 
#    0.000    0.000    0.000    0.000    0.000    0.000 
#
# Total GULP energy -144953.991991 kJ/mol
# GULP energy per Si atom -5575.153538 kJ/mol
# Density = 2.103609 g / cm^3
# Si number density = 21.084083 Si / 1000 Ang^3
#
#
#
# Elastic Constant Matrix: (Units=GPa)
#
#
# Indices 1 2 3 4 5 6 
#
# 1 22.1721 -5.6411 22.8687 0.0000 0.0000 0.0000
# 2 -5.6411 57.1349 9.1383 0.0000 0.0000 0.0000
# 3 22.8687 9.1383 76.5172 0.0000 0.0000 0.0000
# 4 0.0000 0.0000 0.0000 -1.4599 0.0000 0.0000
# 5 0.0000 0.0000 0.0000 0.0000 33.6187 0.0000
# 6 0.0000 0.0000 0.0000 0.0000 0.0000 26.0604
#
#
#
# Elastic Compliance Matrix: (Units=1/GPa)
#
#
# Indices 1 2 3 4 5 6 
#
# 1 0.070989 0.010605 -0.022483 0.000000 0.000000 0.000000
# 2 0.010605 0.019428 -0.005490 0.000000 0.000000 0.000000
# 3 -0.022483 -0.005490 0.020444 0.000000 0.000000 0.000000
# 4 0.000000 0.000000 0.000000 -0.684973 0.000000 0.000000
# 5 0.000000 0.000000 0.000000 0.000000 0.029745 0.000000
# 6 0.000000 0.000000 0.000000 0.000000 0.000000 0.038372
#
#
# Mechanical properties :
#
#
# Convention : Reuss Voigt Hill
#
# Bulk Modulus (GPa) = 13.13623 23.17289 18.15456
# Shear Modulus (GPa) = -11.21369 20.27439 4.53035
#
# Velocity S-wave (km/s) = -2.30870 3.10433 1.46744
# Velocity P-wave (km/s) = 0.92891 4.88505 3.39122
#
# Compressibility (1/GPa) = 0.07612536
#
# Stress axis : x y z
#
# Youngs Moduli (GPa) = 14.08663 51.47327 48.91381
#
# Poissons Ratio (x) = -0.54588 1.09974
# Poissons Ratio (y) = -0.14939 0.26852
# Poissons Ratio (z) = 0.31671 0.28257
#
# Static dielectric constant tensor:
#      x y z
#    x 1.880600 0.000000 0.000000 
#    y 0.000000 1.761590 0.000000 
#    z 0.000000 0.000000 1.764290 
# 
# From -- ./inp_files/5883.got.cif
#   From: 2010.05.17/outbox.cif.g08.bks.cpg/sg18_3_cif.got.tgz:5883.got - 2010.06.03 22:40:56.
