data_PCOD9311612
_publ_section_title
;
Structure prediction by ZEFSAII (Michael W. Deem and Ramdas Pophale) SiO2 
 PCOD9311612
Probable space group: P 21 21 2
;
_chemical_formula_sum "Si O2"
_cell_formula_units_Z 22
_cell_length_a 12.384483
_cell_length_b 8.664758
_cell_length_c 8.634746
_cell_angle_alpha 90.000000
_cell_angle_beta 90.000000
_cell_angle_gamma 90.000000
_cell_volume 926.582057
_symmetry_space_group_name_H-M "P 21 21 2"
_symmetry_group_IT_number 18
_symmetry_cell_setting 'orthorhombic'
loop_
_space_group_symop_operation_xyz
x,y,z
-x,-y,z
1/2+x,1/2-y,-z
1/2-x,1/2+y,-z
loop_
_atom_site_type_symbol
_atom_site_label
_atom_site_fract_x
_atom_site_fract_y
_atom_site_fract_z
Si Si1 0.000000 0.000000 0.806185
Si Si2 0.507434 0.727069 0.450709
Si Si3 0.849091 0.592548 0.750177
Si Si4 0.158786 0.108182 0.299189
Si Si5 0.131216 0.762623 0.246933
Si Si6 0.558301 0.220017 0.967962
O O1 0.058235 0.887088 0.679086
O O2 0.949303 0.871901 0.920681
O O3 0.445545 0.858216 0.358482
O O4 0.408656 0.646854 0.547891
O O5 0.588046 0.781681 0.584126
O O6 0.783510 0.443363 0.692047
O O7 0.760110 0.732984 0.755354
O O8 0.893388 0.588237 0.923456
O O9 0.110127 0.947181 0.235303
O O10 0.137201 0.240147 0.174489
O O11 0.057515 0.691781 0.113554
#
# Coordination Sequence:
#
# PCOD9311612 Si02
#       6
#     2   4   4   4   4   4
#     4  10  12  22  44  78  84 112 160 192 244 278
#     4  10  16  29  54  71  98 127 159 213 242 283
#     4   9  20  28  50  83  92 124 172 203 238 304
#     4   9  17  34  47  72 102 125 154 214 248 276
#     4   9  17  34  47  72 102 125 154 214 248 276
#     4  10  16  29  54  71  98 127 159 213 242 283
#
# _framework density 23.743172000000001
#
# number of rings (size 3 to 8) (size 9 to 14) (size 15 to 20)
#    1.091    1.455    3.636    1.091    0.000    0.000 
#    0.000   21.818    0.000    6.545    0.000    0.000 
#    0.000    0.000    0.000    0.000    0.000    0.000 
#
# Total GULP energy -122510.614831 kJ/mol
# GULP energy per Si atom -5568.664311 kJ/mol
# Density = 2.368913 g / cm^3
# Si number density = 23.743172 Si / 1000 Ang^3
#
#
#
# Elastic Constant Matrix: (Units=GPa)
#
#
# Indices 1 2 3 4 5 6 
#
# 1 87.0254 22.1565 35.1404 0.0000 0.0000 0.0000
# 2 22.1565 27.1991 24.0762 0.0000 0.0000 0.0000
# 3 35.1404 24.0762 124.3223 0.0000 0.0000 0.0000
# 4 0.0000 0.0000 0.0000 -9.6143 0.0000 0.0000
# 5 0.0000 0.0000 0.0000 0.0000 24.1179 0.0000
# 6 0.0000 0.0000 0.0000 0.0000 0.0000 30.8997
#
#
#
# Elastic Compliance Matrix: (Units=1/GPa)
#
#
# Indices 1 2 3 4 5 6 
#
# 1 0.015007 -0.010222 -0.002262 0.000000 0.000000 0.000000
# 2 -0.010222 0.051335 -0.007052 0.000000 0.000000 0.000000
# 3 -0.002262 -0.007052 0.010049 0.000000 0.000000 0.000000
# 4 0.000000 0.000000 0.000000 -0.104012 0.000000 0.000000
# 5 0.000000 0.000000 0.000000 0.000000 0.041463 0.000000
# 6 0.000000 0.000000 0.000000 0.000000 0.000000 0.032363
#
#
# Mechanical properties :
#
#
# Convention : Reuss Voigt Hill
#
# Bulk Modulus (GPa) = 26.79681 44.58812 35.69247
# Shear Modulus (GPa) = 51.16790 19.55890 35.36340
#
# Velocity S-wave (km/s) = 4.64730 2.87325 3.86348
# Velocity P-wave (km/s) = 6.33302 5.46146 5.91332
#
# Compressibility (1/GPa) = 0.03731787
#
# Stress axis : x y z
#
# Youngs Moduli (GPa) = 66.63595 19.47971 99.51488
#
# Poissons Ratio (x) = 0.19913 0.22512
# Poissons Ratio (y) = 0.68117 0.70180
# Poissons Ratio (z) = 0.15074 0.13738
#
# Static dielectric constant tensor:
#      x y z
#    x 1.938160 0.000000 0.000000 
#    y 0.000000 1.988390 0.000000 
#    z 0.000000 0.000000 1.884070 
# 
# From -- ./inp_files/4213.got.cif
#   From: 2010.05.17/outbox.cif.g08.bks.cpg/sg18_3_cif.got.tgz:4213.got - 2010.06.03 22:40:56.
