data_PCOD9311617
_publ_section_title
;
Structure prediction by ZEFSAII (Michael W. Deem and Ramdas Pophale) SiO2 
 PCOD9311617
Probable space group: P 21 21 2
;
_chemical_formula_sum "Si O2"
_cell_formula_units_Z 32
_cell_length_a 21.487200
_cell_length_b 8.546749
_cell_length_c 7.700882
_cell_angle_alpha 90.000000
_cell_angle_beta 90.000000
_cell_angle_gamma 90.000000
_cell_volume 1414.233905
_symmetry_space_group_name_H-M "P 21 21 2"
_symmetry_group_IT_number 18
_symmetry_cell_setting 'orthorhombic'
loop_
_space_group_symop_operation_xyz
x,y,z
-x,-y,z
1/2+x,1/2-y,-z
1/2-x,1/2+y,-z
loop_
_atom_site_type_symbol
_atom_site_label
_atom_site_fract_x
_atom_site_fract_y
_atom_site_fract_z
Si Si1 0.631749 0.618796 0.704331
Si Si2 0.364582 0.668519 0.952039
Si Si3 0.931881 0.538146 0.916146
Si Si4 0.783299 0.919623 0.530851
Si Si5 0.434663 0.077803 0.687382
Si Si6 0.807498 0.415059 0.797867
Si Si7 0.319622 0.874726 0.622488
Si Si8 0.743733 0.726360 0.912978
O O1 0.618132 0.496250 0.862089
O O2 0.658848 0.519893 0.543289
O O3 0.576216 0.737346 0.661976
O O4 0.691046 0.724092 0.764422
O O5 0.416465 0.779088 0.041307
O O6 0.338079 0.767990 0.787368
O O7 0.305395 0.664195 0.081140
O O8 0.927835 0.454188 0.105229
O O9 0.000000 0.500000 0.847310
O O10 0.878896 0.463107 0.797036
O O11 0.730892 0.901411 0.377754
O O12 0.742342 0.025556 0.657243
O O13 0.807352 0.741484 0.540623
O O14 0.500000 0.000000 0.636635
O O15 0.378549 0.985294 0.598245
O O16 0.774250 0.556320 0.901670
O O17 0.795662 0.265874 0.916794
#
# Coordination Sequence:
#
# PCOD9311617 Si02
#       8
#     4   4   4   4   4   4   4   4
#     4  10  18  30  52  78 106 134 171 215 265 315
#     4   9  18  31  49  76 107 138 171 214 264 313
#     4   9  18  32  49  73 103 137 172 213 255 316
#     4  10  20  33  52  80 102 136 177 218 271 300
#     4  10  20  33  52  75 101 141 176 208 262 311
#     4  10  18  29  51  72 105 130 169 209 264 317
#     4  10  19  34  49  72 107 130 175 224 249 307
#     4  10  15  28  47  76 103 127 160 211 263 314
#
# _framework density 22.627091
#
# number of rings (size 3 to 8) (size 9 to 14) (size 15 to 20)
#    0.000    2.250    5.000    0.750    0.000    0.000 
#    0.000   10.625    0.000    0.000    0.000    0.000 
#    0.000    0.000    0.000    0.000    0.000    0.000 
#
# Total GULP energy -178568.799629 kJ/mol
# GULP energy per Si atom -5580.274988 kJ/mol
# Density = 2.257559 g / cm^3
# Si number density = 22.627091 Si / 1000 Ang^3
#
#
#
# Elastic Constant Matrix: (Units=GPa)
#
#
# Indices 1 2 3 4 5 6 
#
# 1 123.6161 51.9095 10.2758 0.0000 0.0000 0.0000
# 2 51.9095 127.3765 15.9234 0.0000 0.0000 0.0000
# 3 10.2758 15.9234 44.6837 0.0000 0.0000 0.0000
# 4 0.0000 0.0000 0.0000 23.8185 0.0000 0.0000
# 5 0.0000 0.0000 0.0000 0.0000 21.8743 0.0000
# 6 0.0000 0.0000 0.0000 0.0000 0.0000 35.1099
#
#
#
# Elastic Compliance Matrix: (Units=1/GPa)
#
#
# Indices 1 2 3 4 5 6 
#
# 1 0.009792 -0.003882 -0.000868 0.000000 0.000000 0.000000
# 2 -0.003882 0.009756 -0.002584 0.000000 0.000000 0.000000
# 3 -0.000868 -0.002584 0.023500 0.000000 0.000000 0.000000
# 4 0.000000 0.000000 0.000000 0.041984 0.000000 0.000000
# 5 0.000000 0.000000 0.000000 0.000000 0.045716 0.000000
# 6 0.000000 0.000000 0.000000 0.000000 0.000000 0.028482
#
#
# Mechanical properties :
#
#
# Convention : Reuss Voigt Hill
#
# Bulk Modulus (GPa) = 35.23701 50.21041 42.72371
# Shear Modulus (GPa) = 27.26910 30.66503 28.96707
#
# Velocity S-wave (km/s) = 3.47530 3.68535 3.58186
# Velocity P-wave (km/s) = 5.63119 6.35198 6.00241
#
# Compressibility (1/GPa) = 0.02837925
#
# Stress axis : x y z
#
# Youngs Moduli (GPa) = 102.12562 102.50392 42.55314
#
# Poissons Ratio (x) = 0.39791 0.03696
# Poissons Ratio (y) = 0.39644 0.10995
# Poissons Ratio (z) = 0.08869 0.26485
#
# Static dielectric constant tensor:
#      x y z
#    x 1.841550 0.000000 0.000000 
#    y 0.000000 1.934430 0.000000 
#    z 0.000000 0.000000 2.007380 
# 
# From -- ./inp_files/6297.got.cif
#   From: 2010.05.17/outbox.cif.g08.bks.cpg/sg18_4_cif.got.tgz:6297.got - 2010.06.03 22:40:56.
