data_PCOD9311118
_publ_section_title
;
Structure prediction by ZEFSAII (Michael W. Deem and Ramdas Pophale) SiO2 
 PCOD9311118
Probable space group: P 2 2 21
;
_chemical_formula_sum "Si O2"
_cell_formula_units_Z 24
_cell_length_a 5.242936
_cell_length_b 26.722020
_cell_length_c 7.597145
_cell_angle_alpha 90.000000
_cell_angle_beta 90.000000
_cell_angle_gamma 90.000000
_cell_volume 1064.373998
_symmetry_space_group_name_H-M "P 2 2 21"
_symmetry_group_IT_number 17
_symmetry_cell_setting 'orthorhombic'
loop_
_space_group_symop_operation_xyz
x,y,z
-x,-y,1/2+z
x,-y,-z
-x,y,1/2-z
loop_
_atom_site_type_symbol
_atom_site_label
_atom_site_fract_x
_atom_site_fract_y
_atom_site_fract_z
Si Si1 0.365927 0.397203 0.941602
Si Si2 0.619793 0.500000 0.000000
Si Si3 0.457590 0.850048 0.461182
Si Si4 0.957185 0.199283 0.539914
Si Si5 0.251420 0.045065 0.631269
Si Si6 0.000000 0.454082 0.750000
Si Si7 0.255380 0.296311 0.139241
O O1 0.500000 0.390161 0.750000
O O2 0.482845 0.447018 0.026080
O O3 0.081818 0.416756 0.903354
O O4 0.357375 0.346107 0.044465
O O5 0.784197 0.489005 0.826486
O O6 0.500000 0.842344 0.250000
O O7 0.742419 0.839708 0.528169
O O8 0.341308 0.905384 0.473375
O O9 0.238985 0.812922 0.531700
O O10 0.842715 0.253033 0.491530
O O11 0.000000 0.195540 0.750000
O O12 0.500000 0.032110 0.750000
O O13 0.000000 0.055994 0.750000
O O14 0.192167 0.000000 0.500000
O O15 0.500000 0.278240 0.250000
O O16 0.000000 0.308643 0.250000
#
# Coordination Sequence:
#
# PCOD9311118 Si02
#       7
#     4   2   4   4   4   2   4
#     4  10  25  45  68  95 128 173 223 261 319 397
#     4  10  22  44  66  98 122 164 214 268 318 382
#     4   9  18  37  66  95 120 169 227 274 313 388
#     4  10  21  41  70  91 120 171 226 270 324 389
#     4  11  22  39  62  95 138 176 227 275 330 394
#     4  10  22  42  70  92 126 164 218 266 316 382
#     4  12  29  46  66 102 139 171 211 277 344 392
#
# _framework density 22.548463999999999
#
# number of rings (size 3 to 8) (size 9 to 14) (size 15 to 20)
#    0.000    1.667    0.000    4.500    5.833    5.333 
#    1.500    5.000    0.000    0.000    0.000    0.000 
#    0.000    0.000    0.000    0.000    0.000    0.000 
#
# Total GULP energy -133968.710368 kJ/mol
# GULP energy per Si atom -5582.029599 kJ/mol
# Density = 2.249714 g / cm^3
# Si number density = 22.548464 Si / 1000 Ang^3
#
#
#
# Elastic Constant Matrix: (Units=GPa)
#
#
# Indices 1 2 3 4 5 6 
#
# 1 125.6312 65.0166 33.4648 0.0000 0.0000 0.0000
# 2 65.0166 155.2057 36.1627 0.0000 0.0000 0.0000
# 3 33.4648 36.1627 41.7580 0.0000 0.0000 0.0000
# 4 0.0000 0.0000 0.0000 29.9866 0.0000 0.0000
# 5 0.0000 0.0000 0.0000 0.0000 25.5284 0.0000
# 6 0.0000 0.0000 0.0000 0.0000 0.0000 -9.0953
#
#
#
# Elastic Compliance Matrix: (Units=1/GPa)
#
#
# Indices 1 2 3 4 5 6 
#
# 1 0.011321 -0.003293 -0.006221 0.000000 0.000000 0.000000
# 2 -0.003293 0.009030 -0.005181 0.000000 0.000000 0.000000
# 3 -0.006221 -0.005181 0.033420 0.000000 0.000000 0.000000
# 4 0.000000 0.000000 0.000000 0.033348 0.000000 0.000000
# 5 0.000000 0.000000 0.000000 0.000000 0.039172 0.000000
# 6 0.000000 0.000000 0.000000 0.000000 0.000000 -0.109947
#
#
# Mechanical properties :
#
#
# Convention : Reuss Voigt Hill
#
# Bulk Modulus (GPa) = 41.01568 65.76476 53.39022
# Shear Modulus (GPa) = 92.83393 21.81400 57.32396
#
# Velocity S-wave (km/s) = 6.42341 3.11372 5.04755
# Velocity P-wave (km/s) = 8.55822 6.49279 7.59603
#
# Compressibility (1/GPa) = 0.02438092
#
# Stress axis : x y z
#
# Youngs Moduli (GPa) = 88.33068 110.74673 29.92263
#
# Poissons Ratio (x) = 0.36469 0.18615
# Poissons Ratio (y) = 0.29087 0.15502
# Poissons Ratio (z) = 0.54950 0.57375
#
# Static dielectric constant tensor:
#      x y z
#    x 1.906000 0.000000 0.000000 
#    y 0.000000 1.820700 0.000000 
#    z 0.000000 0.000000 1.869290 
# 
# From -- ./inp_files/3577.got.cif
#   From: 2010.05.17/outbox.cif.g08.bks.cpg/sg17_2_cif.got.tgz:3577.got - 2010.06.03 22:34:06.
