data_PCOD9311453
_publ_section_title
;
Structure prediction by ZEFSAII (Michael W. Deem and Ramdas Pophale) SiO2 
 PCOD9311453
Probable space group: P 2 2 21
;
_chemical_formula_sum "Si O2"
_cell_formula_units_Z 28
_cell_length_a 9.196795
_cell_length_b 10.291705
_cell_length_c 14.383787
_cell_angle_alpha 90.000000
_cell_angle_beta 90.000000
_cell_angle_gamma 90.000000
_cell_volume 1361.435524
_symmetry_space_group_name_H-M "P 2 2 21"
_symmetry_group_IT_number 17
_symmetry_cell_setting 'orthorhombic'
loop_
_space_group_symop_operation_xyz
x,y,z
-x,-y,1/2+z
x,-y,-z
-x,y,1/2-z
loop_
_atom_site_type_symbol
_atom_site_label
_atom_site_fract_x
_atom_site_fract_y
_atom_site_fract_z
Si Si1 0.737760 0.811507 0.012000
Si Si2 0.491719 0.396917 0.583065
Si Si3 0.254054 0.463360 0.310030
Si Si4 0.345118 0.831667 0.695965
Si Si5 0.838171 0.079245 0.794203
Si Si6 0.213686 0.323223 0.828150
Si Si7 0.962273 0.613243 0.050422
O O1 0.616372 0.719352 0.057444
O O2 0.808738 0.900226 0.094165
O O3 0.871129 0.713700 0.988779
O O4 0.660117 0.143546 0.083433
O O5 0.507978 0.500000 0.500000
O O6 0.412017 0.479668 0.663027
O O7 0.642735 0.333809 0.611455
O O8 0.270900 0.310413 0.295680
O O9 0.197983 0.536449 0.219381
O O10 0.151279 0.525659 0.390249
O O11 0.500000 0.829006 0.750000
O O12 0.250486 0.950964 0.734667
O O13 0.774963 0.210481 0.747843
O O14 0.000000 0.066504 0.750000
O O15 0.067683 0.303482 0.885853
O O16 0.052305 0.500000 0.000000
#
# Coordination Sequence:
#
# PCOD9311453 Si02
#       7
#     4   4   4   4   4   4   4
#     4  11  22  45  71  95 137 186 229 286 355 416
#     4  11  21  37  67 102 140 171 232 294 353 412
#     4  11  21  40  66  95 132 178 230 287 350 410
#     4  12  27  45  70  99 140 186 241 287 351 422
#     4  12  26  47  70 101 136 188 238 287 350 434
#     4  12  23  38  68 105 135 177 230 291 346 421
#     4  11  20  40  70 100 136 177 230 280 357 424
#
# _framework density 20.566526
#
# number of rings (size 3 to 8) (size 9 to 14) (size 15 to 20)
#    0.000    0.571    7.143    3.429    2.000    1.143 
#    0.000    0.000    0.000    0.000    0.000    0.000 
#    0.000    0.000    0.000    0.000    0.000    0.000 
#
# Total GULP energy -156052.213038 kJ/mol
# GULP energy per Si atom -5573.293323 kJ/mol
# Density = 2.051972 g / cm^3
# Si number density = 20.566526 Si / 1000 Ang^3
#
#
#
# Elastic Constant Matrix: (Units=GPa)
#
#
# Indices 1 2 3 4 5 6 
#
# 1 85.4670 38.2430 37.3764 0.0000 0.0000 0.0000
# 2 38.2430 104.1757 14.1423 0.0000 0.0000 0.0000
# 3 37.3764 14.1423 80.5361 0.0000 0.0000 0.0000
# 4 0.0000 0.0000 0.0000 6.8818 0.0000 0.0000
# 5 0.0000 0.0000 0.0000 0.0000 33.8708 0.0000
# 6 0.0000 0.0000 0.0000 0.0000 0.0000 -126.8144
#
#
#
# Elastic Compliance Matrix: (Units=1/GPa)
#
#
# Indices 1 2 3 4 5 6 
#
# 1 0.017167 -0.005348 -0.007028 0.000000 0.000000 0.000000
# 2 -0.005348 0.011500 0.000463 0.000000 0.000000 0.000000
# 3 -0.007028 0.000463 0.015597 0.000000 0.000000 0.000000
# 4 0.000000 0.000000 0.000000 0.145311 0.000000 0.000000
# 5 0.000000 0.000000 0.000000 0.000000 0.029524 0.000000
# 6 0.000000 0.000000 0.000000 0.000000 0.000000 -0.007886
#
#
# Mechanical properties :
#
#
# Convention : Reuss Voigt Hill
#
# Bulk Modulus (GPa) = 48.93060 49.96692 49.44876
# Shear Modulus (GPa) = 20.67379 -5.18456 7.74462
#
# Velocity S-wave (km/s) = 3.17395 -1.58945 1.94263
# Velocity P-wave (km/s) = 6.10533 4.58034 5.39697
#
# Compressibility (1/GPa) = 0.02043711
#
# Stress axis : x y z
#
# Youngs Moduli (GPa) = 58.25181 86.95968 64.11405
#
# Poissons Ratio (x) = 0.46505 0.45059
# Poissons Ratio (y) = 0.31152 -0.02966
# Poissons Ratio (z) = 0.40939 -0.04023
#
# Static dielectric constant tensor:
#      x y z
#    x 1.810440 0.000000 0.000000 
#    y 0.000000 1.737350 0.000000 
#    z 0.000000 0.000000 2.212220 
# 
# From -- ./inp_files/9483.got.cif
#   From: 2010.05.17/outbox.cif.g08.bks.cpg/sg17_5_cif.got.tgz:9483.got - 2010.06.03 22:34:06.
