data_PCOD9311698
_publ_section_title
;
Structure prediction by ZEFSAII (Michael W. Deem and Ramdas Pophale) SiO2 
 PCOD9311698
Probable space group: P 21 21 2
;
_chemical_formula_sum "Si O2"
_cell_formula_units_Z 26
_cell_length_a 19.879261
_cell_length_b 5.613007
_cell_length_c 9.137686
_cell_angle_alpha 90.000000
_cell_angle_beta 90.000000
_cell_angle_gamma 90.000000
_cell_volume 1019.605219
_symmetry_space_group_name_H-M "P 21 21 2"
_symmetry_group_IT_number 18
_symmetry_cell_setting 'orthorhombic'
loop_
_space_group_symop_operation_xyz
x,y,z
-x,-y,z
1/2+x,1/2-y,-z
1/2-x,1/2+y,-z
loop_
_atom_site_type_symbol
_atom_site_label
_atom_site_fract_x
_atom_site_fract_y
_atom_site_fract_z
Si Si1 0.394021 0.850809 0.603529
Si Si2 0.781785 0.388625 0.558515
Si Si3 0.537710 0.253127 0.324434
Si Si4 0.881741 0.707796 0.928956
Si Si5 0.798594 0.943136 0.190731
Si Si6 0.389055 0.171534 0.859654
Si Si7 0.000000 0.000000 0.061294
O O1 0.448627 0.746119 0.497687
O O2 0.342994 0.662235 0.675363
O O3 0.354902 0.051401 0.507702
O O4 0.416431 0.976095 0.751072
O O5 0.741908 0.628039 0.499480
O O6 0.773445 0.393705 0.736499
O O7 0.500000 0.500000 0.291779
O O8 0.500000 0.000000 0.291192
O O9 0.611029 0.255692 0.242394
O O10 0.824761 0.825406 0.037037
O O11 0.884150 0.435388 0.979286
O O12 0.955798 0.809755 0.973193
O O13 0.816349 0.221318 0.178083
O O14 0.442124 0.378036 0.848436
#
# Coordination Sequence:
#
# PCOD9311698 Si02
#       7
#     4   4   4   4   4   4   2
#     4  10  23  40  61  93 129 160 206 258 320 382
#     4  10  19  37  67  94 127 160 201 257 326 372
#     4  12  28  44  62  87 132 178 206 248 320 383
#     4  10  21  39  60  84 120 166 212 254 300 370
#     4   9  20  37  66  92 118 153 214 262 305 365
#     4  10  19  35  58  92 115 159 205 263 302 356
#     4  10  18  32  58  84 120 150 216 254 296 348
#
# _framework density 25.500066
#
# number of rings (size 3 to 8) (size 9 to 14) (size 15 to 20)
#    0.000    1.846    2.308    1.385    4.308    3.692 
#    5.538    0.000    3.385    0.000    0.000    0.000 
#    0.000    0.000    0.000    0.000    0.000    0.000 
#
# Total GULP energy -144953.039101 kJ/mol
# GULP energy per Si atom -5575.116888 kJ/mol
# Density = 2.544203 g / cm^3
# Si number density = 25.500066 Si / 1000 Ang^3
#
#
#
# Elastic Constant Matrix: (Units=GPa)
#
#
# Indices 1 2 3 4 5 6 
#
# 1 40.2249 19.1195 15.1590 0.0000 0.0000 0.0000
# 2 19.1195 116.2128 33.6335 0.0000 0.0000 0.0000
# 3 15.1590 33.6335 102.8597 0.0000 0.0000 0.0000
# 4 0.0000 0.0000 0.0000 7.4919 0.0000 0.0000
# 5 0.0000 0.0000 0.0000 0.0000 50.9862 0.0000
# 6 0.0000 0.0000 0.0000 0.0000 0.0000 31.9948
#
#
#
# Elastic Compliance Matrix: (Units=1/GPa)
#
#
# Indices 1 2 3 4 5 6 
#
# 1 0.027713 -0.003730 -0.002864 0.000000 0.000000 0.000000
# 2 -0.003730 0.010006 -0.002722 0.000000 0.000000 0.000000
# 3 -0.002864 -0.002722 0.011034 0.000000 0.000000 0.000000
# 4 0.000000 0.000000 0.000000 0.133477 0.000000 0.000000
# 5 0.000000 0.000000 0.000000 0.000000 0.019613 0.000000
# 6 0.000000 0.000000 0.000000 0.000000 0.000000 0.031255
#
#
# Mechanical properties :
#
#
# Convention : Reuss Voigt Hill
#
# Bulk Modulus (GPa) = 33.20100 43.90239 38.55170
# Shear Modulus (GPa) = 19.10053 30.85361 24.97707
#
# Velocity S-wave (km/s) = 2.73983 3.48220 3.13308
# Velocity P-wave (km/s) = 4.80178 5.78114 5.31407
#
# Compressibility (1/GPa) = 0.03011957
#
# Stress axis : x y z
#
# Youngs Moduli (GPa) = 36.08441 99.93537 90.62698
#
# Poissons Ratio (x) = 0.37280 0.25959
# Poissons Ratio (y) = 0.13461 0.24670
# Poissons Ratio (z) = 0.10336 0.27204
#
# Static dielectric constant tensor:
#      x y z
#    x 2.182570 0.000000 0.000000 
#    y 0.000000 2.048160 0.000000 
#    z 0.000000 0.000000 2.090130 
# 
# From -- ./inp_files/4803.got.cif
#   From: 2010.05.17/outbox.cif.g08.bks.cpg/sg18_3_cif.got.tgz:4803.got - 2010.06.03 22:40:56.
