data_PCOD9311016
_publ_section_title
;
Structure prediction by ZEFSAII (Michael W. Deem and Ramdas Pophale) SiO2 
 PCOD9311016
Probable space group: P 2 2 21
;
_chemical_formula_sum "Si O2"
_cell_formula_units_Z 32
_cell_length_a 14.107708
_cell_length_b 13.594100
_cell_length_c 8.237371
_cell_angle_alpha 90.000000
_cell_angle_beta 90.000000
_cell_angle_gamma 90.000000
_cell_volume 1579.776135
_symmetry_space_group_name_H-M "P 2 2 21"
_symmetry_group_IT_number 17
_symmetry_cell_setting 'orthorhombic'
loop_
_space_group_symop_operation_xyz
x,y,z
-x,-y,1/2+z
x,-y,-z
-x,y,1/2-z
loop_
_atom_site_type_symbol
_atom_site_label
_atom_site_fract_x
_atom_site_fract_y
_atom_site_fract_z
Si Si1 0.894616 0.794798 0.581831
Si Si2 0.559080 0.899285 0.922484
Si Si3 0.779899 0.218574 0.755534
Si Si4 0.363366 0.881554 0.041986
Si Si5 0.016031 0.587287 0.919320
Si Si6 0.274490 0.215996 0.274388
Si Si7 0.939595 0.096185 0.916901
Si Si8 0.203246 0.614885 0.497889
O O1 0.837995 0.781317 0.413224
O O2 0.827155 0.831223 0.726049
O O3 0.929777 0.685929 0.616122
O O4 0.983936 0.860583 0.541924
O O5 0.500000 0.912991 0.750000
O O6 0.649748 0.831641 0.895137
O O7 0.475604 0.865841 0.042520
O O8 0.593776 0.000000 0.000000
O O9 0.689838 0.152546 0.704598
O O10 0.852475 0.166762 0.878559
O O11 0.764342 0.324721 0.837365
O O12 0.326797 0.808206 0.898044
O O13 0.345892 0.000000 0.000000
O O14 0.913066 0.612763 0.995503
O O15 0.000000 0.535885 0.750000
O O16 0.074380 0.500000 0.000000
O O17 0.246267 0.322046 0.350347
O O18 0.000000 0.080142 0.750000
O O19 0.900703 0.000000 0.000000
O O20 0.231481 0.500000 0.500000
#
# Coordination Sequence:
#
# PCOD9311016 Si02
#       8
#     4   4   4   4   4   4   4   4
#     4  10  21  38  55  77 117 162 208 249 311 375
#     4   9  19  38  66  96 124 155 202 264 328 397
#     4  10  22  37  58  83 119 165 207 260 310 374
#     4   9  20  40  64  93 124 158 203 258 320 392
#     4  11  23  36  59  84 113 159 211 270 319 354
#     4  10  21  37  60  87 121 160 199 256 323 378
#     4  10  22  36  52  78 119 172 215 252 302 378
#     4  11  24  38  56  89 123 157 215 273 307 364
#
# _framework density 20.256034
#
# number of rings (size 3 to 8) (size 9 to 14) (size 15 to 20)
#    0.000    2.000    2.500    0.000    3.500   10.000 
#    0.000    1.875    0.000    4.500    0.000    0.875 
#    0.000    0.000    0.000    0.000    0.000    0.000 
#
# Total GULP energy -178155.039560 kJ/mol
# GULP energy per Si atom -5567.344986 kJ/mol
# Density = 2.020993 g / cm^3
# Si number density = 20.256034 Si / 1000 Ang^3
#
#
#
# Elastic Constant Matrix: (Units=GPa)
#
#
# Indices 1 2 3 4 5 6 
#
# 1 112.4387 57.5945 38.2753 0.0000 0.0000 0.0000
# 2 57.5945 104.6123 35.2401 0.0000 0.0000 0.0000
# 3 38.2753 35.2401 62.3893 0.0000 0.0000 0.0000
# 4 0.0000 0.0000 0.0000 32.3634 0.0000 0.0000
# 5 0.0000 0.0000 0.0000 0.0000 27.9120 0.0000
# 6 0.0000 0.0000 0.0000 0.0000 0.0000 29.4022
#
#
#
# Elastic Compliance Matrix: (Units=1/GPa)
#
#
# Indices 1 2 3 4 5 6 
#
# 1 0.013572 -0.005764 -0.005071 0.000000 0.000000 0.000000
# 2 -0.005764 0.014253 -0.004515 0.000000 0.000000 0.000000
# 3 -0.005071 -0.004515 0.021689 0.000000 0.000000 0.000000
# 4 0.000000 0.000000 0.000000 0.030899 0.000000 0.000000
# 5 0.000000 0.000000 0.000000 0.000000 0.035827 0.000000
# 6 0.000000 0.000000 0.000000 0.000000 0.000000 0.034011
#
#
# Mechanical properties :
#
#
# Convention : Reuss Voigt Hill
#
# Bulk Modulus (GPa) = 53.14616 60.18445 56.66530
# Shear Modulus (GPa) = 26.70608 27.82422 27.26515
#
# Velocity S-wave (km/s) = 3.63495 3.71027 3.67280
# Velocity P-wave (km/s) = 6.62656 6.93766 6.78390
#
# Compressibility (1/GPa) = 0.01881604
#
# Stress axis : x y z
#
# Youngs Moduli (GPa) = 73.67870 70.15872 46.10576
#
# Poissons Ratio (x) = 0.40441 0.23379
# Poissons Ratio (y) = 0.42470 0.20815
# Poissons Ratio (z) = 0.37360 0.31674
#
# Static dielectric constant tensor:
#      x y z
#    x 1.771370 0.000000 0.000000 
#    y 0.000000 1.726860 0.000000 
#    z 0.000000 0.000000 1.791980 
# 
# From -- ./inp_files/5273.got.cif
#   From: 2010.05.17/outbox.cif.g08.bks.cpg/sg17_3_cif.got.tgz:5273.got - 2010.06.03 22:34:06.
