data_PCOD9311767
_publ_section_title
;
Structure prediction by ZEFSAII (Michael W. Deem and Ramdas Pophale) SiO2 
 PCOD9311767
Probable space group: P 21 21 2
;
_chemical_formula_sum "Si O2"
_cell_formula_units_Z 18
_cell_length_a 6.341637
_cell_length_b 7.090787
_cell_length_c 16.182346
_cell_angle_alpha 90.000000
_cell_angle_beta 90.000000
_cell_angle_gamma 90.000000
_cell_volume 727.674744
_symmetry_space_group_name_H-M "P 21 21 2"
_symmetry_group_IT_number 18
_symmetry_cell_setting 'orthorhombic'
loop_
_space_group_symop_operation_xyz
x,y,z
-x,-y,z
1/2+x,1/2-y,-z
1/2-x,1/2+y,-z
loop_
_atom_site_type_symbol
_atom_site_label
_atom_site_fract_x
_atom_site_fract_y
_atom_site_fract_z
Si Si1 0.000000 0.500000 0.693739
Si Si2 0.661311 0.228165 0.609254
Si Si3 0.903880 0.800725 0.076741
Si Si4 0.116665 0.798139 0.238737
Si Si5 0.000000 0.500000 0.942061
Si Si6 0.500000 0.500000 0.472863
O O1 0.833254 0.383552 0.639319
O O2 0.859157 0.653041 0.743575
O O3 0.499622 0.203025 0.684392
O O4 0.543061 0.321773 0.531851
O O5 0.796364 0.049220 0.581279
O O6 0.672687 0.873690 0.105402
O O7 0.051140 0.718459 0.149728
O O8 0.892770 0.653002 0.003025
O O9 0.000000 0.000000 0.048057
O O10 0.000000 0.000000 0.234478
#
# Coordination Sequence:
#
# PCOD9311767 Si02
#       6
#     2   4   4   4   2   2
#     4  10  18  45  70  95 136 182 244 282 351 424
#     4  11  23  43  63 103 135 188 236 288 353 422
#     4  11  24  44  72 105 145 188 234 296 348 432
#     4   9  21  42  69 101 134 186 238 284 355 419
#     4  12  24  47  70 109 146 188 238 284 363 426
#     4  12  24  42  68  98 146 182 234 302 348 416
#
# _framework density 24.736328
#
# number of rings (size 3 to 8) (size 9 to 14) (size 15 to 20)
#    0.000    1.333    5.556    1.333    0.000    8.000 
#    4.000    0.000    0.000    0.000    0.000    0.000 
#    0.000    0.000    0.000    0.000    0.000    0.000 
#
# Total GULP energy -100655.394740 kJ/mol
# GULP energy per Si atom -5591.966374 kJ/mol
# Density = 2.468003 g / cm^3
# Si number density = 24.736328 Si / 1000 Ang^3
#
#
#
# Elastic Constant Matrix: (Units=GPa)
#
#
# Indices 1 2 3 4 5 6 
#
# 1 135.1819 17.9413 62.1157 0.0000 0.0000 0.0000
# 2 17.9413 83.4150 29.2720 0.0000 0.0000 0.0000
# 3 62.1157 29.2720 115.5328 0.0000 0.0000 0.0000
# 4 0.0000 0.0000 0.0000 5.0371 0.0000 0.0000
# 5 0.0000 0.0000 0.0000 0.0000 45.3791 0.0000
# 6 0.0000 0.0000 0.0000 0.0000 0.0000 48.8260
#
#
#
# Elastic Compliance Matrix: (Units=1/GPa)
#
#
# Indices 1 2 3 4 5 6 
#
# 1 0.009831 -0.000285 -0.005213 0.000000 0.000000 0.000000
# 2 -0.000285 0.013166 -0.003183 0.000000 0.000000 0.000000
# 3 -0.005213 -0.003183 0.012265 0.000000 0.000000 0.000000
# 4 0.000000 0.000000 0.000000 0.198528 0.000000 0.000000
# 5 0.000000 0.000000 0.000000 0.000000 0.022037 0.000000
# 6 0.000000 0.000000 0.000000 0.000000 0.000000 0.020481
#
#
# Mechanical properties :
#
#
# Convention : Reuss Voigt Hill
#
# Bulk Modulus (GPa) = 55.86559 61.42084 58.64322
# Shear Modulus (GPa) = 16.68691 34.83514 25.76102
#
# Velocity S-wave (km/s) = 2.60011 3.75675 3.23061
# Velocity P-wave (km/s) = 5.62561 6.61072 6.13796
#
# Compressibility (1/GPa) = 0.01790011
#
# Stress axis : x y z
#
# Youngs Moduli (GPa) = 101.72178 75.95081 81.53408
#
# Poissons Ratio (x) = 0.02165 0.42506
# Poissons Ratio (y) = 0.02899 0.25950
# Poissons Ratio (z) = 0.53030 0.24173
#
# Static dielectric constant tensor:
#      x y z
#    x 2.026290 0.000000 0.000000 
#    y 0.000000 1.952480 0.000000 
#    z 0.000000 0.000000 2.011670 
# 
# From -- ./inp_files/7068.got.cif
#   From: 2010.05.17/outbox.cif.g08.bks.cpg/sg18_4_cif.got.tgz:7068.got - 2010.06.03 22:40:56.
