data_PCOD9311886
_publ_section_title
;
Structure prediction by ZEFSAII (Michael W. Deem and Ramdas Pophale) SiO2 
 PCOD9311886
Probable space group: P 21 21 2
;
_chemical_formula_sum "Si O2"
_cell_formula_units_Z 20
_cell_length_a 13.611546
_cell_length_b 4.928378
_cell_length_c 14.281117
_cell_angle_alpha 90.000000
_cell_angle_beta 90.000000
_cell_angle_gamma 90.000000
_cell_volume 958.017942
_symmetry_space_group_name_H-M "P 21 21 2"
_symmetry_group_IT_number 18
_symmetry_cell_setting 'orthorhombic'
loop_
_space_group_symop_operation_xyz
x,y,z
-x,-y,z
1/2+x,1/2-y,-z
1/2-x,1/2+y,-z
loop_
_atom_site_type_symbol
_atom_site_label
_atom_site_fract_x
_atom_site_fract_y
_atom_site_fract_z
Si Si1 0.500000 0.500000 0.171119
Si Si2 0.153426 0.251002 0.685919
Si Si3 0.285480 0.751409 0.707353
Si Si4 0.682066 0.380439 0.510542
Si Si5 0.066357 0.265016 0.131962
Si Si6 0.000000 0.500000 0.954472
O O1 0.578238 0.353692 0.237645
O O2 0.462680 0.252893 0.106118
O O3 0.190322 0.555999 0.700431
O O4 0.117777 0.201549 0.579096
O O5 0.248780 0.058275 0.697313
O O6 0.351152 0.674018 0.616420
O O7 0.340673 0.710769 0.804323
O O8 0.721680 0.685065 0.500124
O O9 0.000000 0.500000 0.179590
O O10 0.000000 0.000000 0.122630
O O11 0.081461 0.383654 0.027287
#
# Coordination Sequence:
#
# PCOD9311886 Si02
#       6
#     2   4   4   4   4   2
#     4  12  22  40  60  80 118 162 194 234 294 344
#     4  10  21  35  59  87 117 156 191 230 281 358
#     4  10  19  37  62  86 117 148 190 240 291 342
#     4   8  16  32  54  81 115 148 174 225 290 332
#     4  10  20  38  62  82 111 149 191 240 304 346
#     4  10  22  40  60  74 118 160 180 254 308 322
#
# _framework density 20.876438
#
# number of rings (size 3 to 8) (size 9 to 14) (size 15 to 20)
#    0.600    1.600    1.000    2.400    0.000    0.000 
#    1.800    4.000    2.200    0.000    0.000    0.000 
#    0.000    0.000    0.000    0.000    0.000    0.000 
#
# Total GULP energy -111445.670914 kJ/mol
# GULP energy per Si atom -5572.283546 kJ/mol
# Density = 2.082892 g / cm^3
# Si number density = 20.876438 Si / 1000 Ang^3
#
#
#
# Elastic Constant Matrix: (Units=GPa)
#
#
# Indices 1 2 3 4 5 6 
#
# 1 13.8378 2.0422 29.5476 0.0000 0.0000 0.0000
# 2 2.0422 98.4969 20.2242 0.0000 0.0000 0.0000
# 3 29.5476 20.2242 149.3849 0.0000 0.0000 0.0000
# 4 0.0000 0.0000 0.0000 -10.3303 0.0000 0.0000
# 5 0.0000 0.0000 0.0000 0.0000 22.1561 0.0000
# 6 0.0000 0.0000 0.0000 0.0000 0.0000 15.6338
#
#
#
# Elastic Compliance Matrix: (Units=1/GPa)
#
#
# Indices 1 2 3 4 5 6 
#
# 1 0.125733 0.002571 -0.025217 0.000000 0.000000 0.000000
# 2 0.002571 0.010495 -0.001929 0.000000 0.000000 0.000000
# 3 -0.025217 -0.001929 0.011943 0.000000 0.000000 0.000000
# 4 0.000000 0.000000 0.000000 -0.096803 0.000000 0.000000
# 5 0.000000 0.000000 0.000000 0.000000 0.045134 0.000000
# 6 0.000000 0.000000 0.000000 0.000000 0.000000 0.063964
#
#
# Mechanical properties :
#
#
# Convention : Reuss Voigt Hill
#
# Bulk Modulus (GPa) = 10.09897 40.59417 25.34657
# Shear Modulus (GPa) = 20.60787 19.48562 20.04675
#
# Velocity S-wave (km/s) = 3.14528 3.05844 3.10216
# Velocity P-wave (km/s) = 4.24716 5.65325 4.99988
#
# Compressibility (1/GPa) = 0.09901997
#
# Stress axis : x y z
#
# Youngs Moduli (GPa) = 7.95336 95.27919 83.72947
#
# Poissons Ratio (x) = -0.24496 2.11145
# Poissons Ratio (y) = -0.02045 0.16155
# Poissons Ratio (z) = 0.20056 0.18384
#
# Static dielectric constant tensor:
#      x y z
#    x 1.762780 0.000000 0.000000 
#    y 0.000000 1.738170 0.000000 
#    z 0.000000 0.000000 1.828650 
# 
# From -- ./inp_files/5996.got.cif
#   From: 2010.05.17/outbox.cif.g08.bks.cpg/sg18_3_cif.got.tgz:5996.got - 2010.06.03 22:40:56.
