data_PCOD9311071
_publ_section_title
;
Structure prediction by ZEFSAII (Michael W. Deem and Ramdas Pophale) SiO2 
 PCOD9311071
Probable space group: P 2 2 21
;
_chemical_formula_sum "Si O2"
_cell_formula_units_Z 12
_cell_length_a 13.540805
_cell_length_b 7.745350
_cell_length_c 5.038219
_cell_angle_alpha 90.000000
_cell_angle_beta 90.000000
_cell_angle_gamma 90.000000
_cell_volume 528.399713
_symmetry_space_group_name_H-M "P 2 2 21"
_symmetry_group_IT_number 17
_symmetry_cell_setting 'orthorhombic'
loop_
_space_group_symop_operation_xyz
x,y,z
-x,-y,1/2+z
x,-y,-z
-x,y,1/2-z
loop_
_atom_site_type_symbol
_atom_site_label
_atom_site_fract_x
_atom_site_fract_y
_atom_site_fract_z
Si Si1 0.597805 0.186601 0.615448
Si Si2 0.067255 0.208104 0.495630
Si Si3 0.709225 0.308231 0.089634
O O1 0.500000 0.268914 0.750000
O O2 0.657387 0.274575 0.373163
O O3 0.568766 0.000000 0.500000
O O4 0.670007 0.177965 0.865152
O O5 0.173074 0.291281 0.435753
O O6 0.000000 0.254113 0.750000
O O7 0.082558 0.000000 0.500000
O O8 0.000000 0.253441 0.250000
O O9 0.680912 0.500000 0.000000
#
# Coordination Sequence:
#
# PCOD9311071 Si02
#       3
#     4   4   4
#     4  12  25  46  71  96 129 177 233 280 329 399
#     4  10  21  39  65  96 131 175 224 271 323 393
#     4  12  26  43  68 102 140 176 216 279 347 402
#
# _framework density 22.710079
#
# number of rings (size 3 to 8) (size 9 to 14) (size 15 to 20)
#    0.000    0.667    0.000    9.000    0.000    6.667 
#    0.000    1.667    0.000    0.000    0.000    0.000 
#    0.000    0.000    0.000    0.000    0.000    0.000 
#
# Total GULP energy -67049.739327 kJ/mol
# GULP energy per Si atom -5587.478277 kJ/mol
# Density = 2.265839 g / cm^3
# Si number density = 22.710079 Si / 1000 Ang^3
#
#
#
# Elastic Constant Matrix: (Units=GPa)
#
#
# Indices 1 2 3 4 5 6 
#
# 1 193.5687 36.5620 103.2722 0.0000 0.0000 0.0000
# 2 36.5620 62.1103 49.2531 0.0000 0.0000 0.0000
# 3 103.2722 49.2531 228.2422 0.0000 0.0000 0.0000
# 4 0.0000 0.0000 0.0000 16.6528 0.0000 0.0000
# 5 0.0000 0.0000 0.0000 0.0000 -26.2285 0.0000
# 6 0.0000 0.0000 0.0000 0.0000 0.0000 -1.5566
#
#
#
# Elastic Compliance Matrix: (Units=1/GPa)
#
#
# Indices 1 2 3 4 5 6 
#
# 1 0.006999 -0.001941 -0.002748 0.000000 0.000000 0.000000
# 2 -0.001941 0.019963 -0.003430 0.000000 0.000000 0.000000
# 3 -0.002748 -0.003430 0.006365 0.000000 0.000000 0.000000
# 4 0.000000 0.000000 0.000000 0.060050 0.000000 0.000000
# 5 0.000000 0.000000 0.000000 0.000000 -0.038126 0.000000
# 6 0.000000 0.000000 0.000000 0.000000 0.000000 -0.642434
#
#
# Mechanical properties :
#
#
# Convention : Reuss Voigt Hill
#
# Bulk Modulus (GPa) = 58.51596 95.78841 77.15219
# Shear Modulus (GPa) = -8.84562 17.42914 4.29176
#
# Velocity S-wave (km/s) = -1.97572 2.77332 1.37619
# Velocity P-wave (km/s) = 4.54068 7.24744 6.04745
#
# Compressibility (1/GPa) = 0.01708935
#
# Stress axis : x y z
#
# Youngs Moduli (GPa) = 142.88239 50.09378 157.11586
#
# Poissons Ratio (x) = 0.09722 0.43174
# Poissons Ratio (y) = 0.27731 0.53885
# Poissons Ratio (z) = 0.39263 0.17180
#
# Static dielectric constant tensor:
#      x y z
#    x 1.712970 0.000000 0.000000 
#    y 0.000000 1.929140 0.000000 
#    z 0.000000 0.000000 1.798690 
# 
# From -- ./inp_files/445.got.cif
#   From: 2010.05.17/outbox.cif.g08.bks.cpg/sg17_1_cif.got.tgz:445.got - 2010.06.03 22:34:06.
