data_PCOD9311133
_publ_section_title
;
Structure prediction by ZEFSAII (Michael W. Deem and Ramdas Pophale) SiO2 
 PCOD9311133
Probable space group: P 2 2 21
;
_chemical_formula_sum "Si O2"
_cell_formula_units_Z 22
_cell_length_a 8.588398
_cell_length_b 7.458784
_cell_length_c 13.426969
_cell_angle_alpha 90.000000
_cell_angle_beta 90.000000
_cell_angle_gamma 90.000000
_cell_volume 860.118282
_symmetry_space_group_name_H-M "P 2 2 21"
_symmetry_group_IT_number 17
_symmetry_cell_setting 'orthorhombic'
loop_
_space_group_symop_operation_xyz
x,y,z
-x,-y,1/2+z
x,-y,-z
-x,y,1/2-z
loop_
_atom_site_type_symbol
_atom_site_label
_atom_site_fract_x
_atom_site_fract_y
_atom_site_fract_z
Si Si1 0.193018 0.854136 0.088259
Si Si2 0.475012 0.692790 0.354536
Si Si3 0.737928 0.178164 0.305237
Si Si4 0.963287 0.505603 0.636628
Si Si5 0.762844 0.500000 0.000000
Si Si6 0.403514 0.067604 0.384968
O O1 0.361350 0.755791 0.098744
O O2 0.082283 0.682867 0.085818
O O3 0.167573 0.993236 0.178543
O O4 0.182660 0.000000 0.000000
O O5 0.500000 0.589963 0.250000
O O6 0.576717 0.147632 0.367374
O O7 0.394008 0.879570 0.326990
O O8 0.828355 0.345783 0.352297
O O9 0.698454 0.191916 0.187997
O O10 0.000000 0.458589 0.750000
O O11 0.113696 0.577808 0.579160
O O12 0.641330 0.609770 0.066591
O O13 0.376391 0.000000 0.500000
#
# Coordination Sequence:
#
# PCOD9311133 Si02
#       6
#     4   4   4   4   2   4
#     4  11  24  50  85 111 158 219 274 349 425 496
#     4  11  22  48  80 120 156 208 290 361 421 498
#     4  10  22  47  76 117 163 218 275 356 424 493
#     4  12  29  52  78 124 176 226 282 339 439 545
#     4  12  30  48  76 126 170 218 280 354 436 528
#     4  10  21  42  80 121 152 208 289 351 419 490
#
# _framework density 25.577876
#
# number of rings (size 3 to 8) (size 9 to 14) (size 15 to 20)
#    0.000    1.091    3.636    4.364    2.545    4.364 
#    6.545    1.818    0.000    0.000    0.000    0.000 
#    0.000    0.000    0.000    0.000    0.000    0.000 
#
# Total GULP energy -122741.438097 kJ/mol
# GULP energy per Si atom -5579.156277 kJ/mol
# Density = 2.551966 g / cm^3
# Si number density = 25.577876 Si / 1000 Ang^3
#
#
#
# Elastic Constant Matrix: (Units=GPa)
#
#
# Indices 1 2 3 4 5 6 
#
# 1 91.2313 83.7502 83.3937 0.0000 0.0000 0.0000
# 2 83.7502 154.1902 72.5915 0.0000 0.0000 0.0000
# 3 83.3937 72.5915 216.5046 0.0000 0.0000 0.0000
# 4 0.0000 0.0000 0.0000 27.5290 0.0000 0.0000
# 5 0.0000 0.0000 0.0000 0.0000 51.0893 0.0000
# 6 0.0000 0.0000 0.0000 0.0000 0.0000 64.5241
#
#
#
# Elastic Compliance Matrix: (Units=1/GPa)
#
#
# Indices 1 2 3 4 5 6 
#
# 1 0.028457 -0.012226 -0.006862 0.000000 0.000000 0.000000
# 2 -0.012226 0.012954 0.000366 0.000000 0.000000 0.000000
# 3 -0.006862 0.000366 0.007139 0.000000 0.000000 0.000000
# 4 0.000000 0.000000 0.000000 0.036325 0.000000 0.000000
# 5 0.000000 0.000000 0.000000 0.000000 0.019574 0.000000
# 6 0.000000 0.000000 0.000000 0.000000 0.000000 0.015498
#
#
# Mechanical properties :
#
#
# Convention : Reuss Voigt Hill
#
# Bulk Modulus (GPa) = 90.04059 104.59965 97.32012
# Shear Modulus (GPa) = 31.03774 43.44119 37.23947
#
# Velocity S-wave (km/s) = 3.48725 4.12562 3.81980
# Velocity P-wave (km/s) = 7.17590 7.97983 7.58852
#
# Compressibility (1/GPa) = 0.01110610
#
# Stress axis : x y z
#
# Youngs Moduli (GPa) = 35.14030 77.19570 140.07206
#
# Poissons Ratio (x) = 0.94383 0.96116
# Poissons Ratio (y) = 0.42964 -0.05127
# Poissons Ratio (z) = 0.24113 -0.02826
#
# Static dielectric constant tensor:
#      x y z
#    x 2.040510 0.000000 0.000000 
#    y 0.000000 2.058850 0.000000 
#    z 0.000000 0.000000 2.175040 
# 
# From -- ./inp_files/8418.got.cif
#   From: 2010.05.17/outbox.cif.g08.bks.cpg/sg17_5_cif.got.tgz:8418.got - 2010.06.03 22:34:06.
