data_PCOD9311469
_publ_section_title
;
Structure prediction by ZEFSAII (Michael W. Deem and Ramdas Pophale) SiO2 
 PCOD9311469
Probable space group: P 2 2 21
;
_chemical_formula_sum "Si O2"
_cell_formula_units_Z 24
_cell_length_a 17.936135
_cell_length_b 4.871492
_cell_length_c 11.123171
_cell_angle_alpha 90.000000
_cell_angle_beta 90.000000
_cell_angle_gamma 90.000000
_cell_volume 971.895277
_symmetry_space_group_name_H-M "P 2 2 21"
_symmetry_group_IT_number 17
_symmetry_cell_setting 'orthorhombic'
loop_
_space_group_symop_operation_xyz
x,y,z
-x,-y,1/2+z
x,-y,-z
-x,y,1/2-z
loop_
_atom_site_type_symbol
_atom_site_label
_atom_site_fract_x
_atom_site_fract_y
_atom_site_fract_z
Si Si1 0.972223 0.884763 0.373009
Si Si2 0.628410 0.613662 0.880649
Si Si3 0.694849 0.225350 0.419559
Si Si4 0.877945 0.652248 0.175683
Si Si5 0.221438 0.833696 0.669817
Si Si6 0.582858 0.888379 0.260349
O O1 0.909292 0.694662 0.311716
O O2 0.000000 0.053763 0.250000
O O3 0.049523 0.730999 0.399964
O O4 0.946235 0.000000 0.500000
O O5 0.708733 0.744615 0.910340
O O6 0.581071 0.866337 0.834766
O O7 0.633207 0.366415 0.783905
O O8 0.592866 0.500000 0.000000
O O9 0.681547 0.500000 0.500000
O O10 0.745745 0.247302 0.301117
O O11 0.621318 0.053891 0.370763
O O12 0.735438 0.000000 0.500000
O O13 0.849021 0.354561 0.146929
O O14 0.808635 0.859770 0.160281
O O15 0.500000 0.769644 0.250000
#
# Coordination Sequence:
#
# PCOD9311469 Si02
#       6
#     4   4   4   4   4   4
#     4   8  20  40  62  93 130 166 218 269 320 387
#     4  11  24  41  64  93 126 163 212 265 320 387
#     4  11  23  39  62  92 126 163 206 263 318 385
#     4   9  22  36  65  86 128 164 210 256 321 384
#     4  11  21  42  59  96 121 164 203 257 318 376
#     4  11  24  43  63  88 128 164 213 266 318 385
#
# _framework density 24.694016999999999
#
# number of rings (size 3 to 8) (size 9 to 14) (size 15 to 20)
#    1.000    0.667    0.000    6.000    0.000    8.000 
#    0.000    1.667    0.000    0.000    0.000    0.000 
#    0.000    0.000    0.000    0.000    0.000    0.000 
#
# Total GULP energy -133821.258431 kJ/mol
# GULP energy per Si atom -5575.885768 kJ/mol
# Density = 2.463781 g / cm^3
# Si number density = 24.694017 Si / 1000 Ang^3
#
#
#
# Elastic Constant Matrix: (Units=GPa)
#
#
# Indices 1 2 3 4 5 6 
#
# 1 65.8552 19.3629 -7.8147 0.0000 0.0000 0.0000
# 2 19.3629 103.6399 26.8382 0.0000 0.0000 0.0000
# 3 -7.8147 26.8382 70.0315 0.0000 0.0000 0.0000
# 4 0.0000 0.0000 0.0000 39.9251 0.0000 0.0000
# 5 0.0000 0.0000 0.0000 0.0000 -29.0671 0.0000
# 6 0.0000 0.0000 0.0000 0.0000 0.0000 -25.0979
#
#
#
# Elastic Compliance Matrix: (Units=1/GPa)
#
#
# Indices 1 2 3 4 5 6 
#
# 1 0.016770 -0.004016 0.003411 0.000000 0.000000 0.000000
# 2 -0.004016 0.011674 -0.004922 0.000000 0.000000 0.000000
# 3 0.003411 -0.004922 0.016546 0.000000 0.000000 0.000000
# 4 0.000000 0.000000 0.000000 0.025047 0.000000 0.000000
# 5 0.000000 0.000000 0.000000 0.000000 -0.034403 0.000000
# 6 0.000000 0.000000 0.000000 0.000000 0.000000 -0.039844
#
#
# Mechanical properties :
#
#
# Convention : Reuss Voigt Hill
#
# Bulk Modulus (GPa) = 29.46821 35.14438 32.30630
# Shear Modulus (GPa) = 275.37451 10.56137 142.96794
#
# Velocity S-wave (km/s) = 10.57151 2.07031 7.61718
# Velocity P-wave (km/s) = 12.68733 4.46965 9.51173
#
# Compressibility (1/GPa) = 0.03393487
#
# Stress axis : x y z
#
# Youngs Moduli (GPa) = 59.62866 85.66244 60.43718
#
# Poissons Ratio (x) = 0.34405 -0.20613
# Poissons Ratio (y) = 0.23949 0.29747
# Poissons Ratio (z) = -0.20337 0.42162
#
# Static dielectric constant tensor:
#      x y z
#    x 1.933200 0.000000 0.000000 
#    y 0.000000 1.929000 0.000000 
#    z 0.000000 0.000000 2.306850 
# 
# From -- ./inp_files/7340.got.cif
#   From: 2010.05.17/outbox.cif.g08.bks.cpg/sg17_4_cif.got.tgz:7340.got - 2010.06.03 22:34:06.
