data_PCOD9311357
_publ_section_title
;
Structure prediction by ZEFSAII (Michael W. Deem and Ramdas Pophale) SiO2 
 PCOD9311357
Probable space group: P 2 2 21
;
_chemical_formula_sum "Si O2"
_cell_formula_units_Z 12
_cell_length_a 5.672002
_cell_length_b 17.368881
_cell_length_c 5.094128
_cell_angle_alpha 90.000000
_cell_angle_beta 90.000000
_cell_angle_gamma 90.000000
_cell_volume 501.854784
_symmetry_space_group_name_H-M "P 2 2 21"
_symmetry_group_IT_number 17
_symmetry_cell_setting 'orthorhombic'
loop_
_space_group_symop_operation_xyz
x,y,z
-x,-y,1/2+z
x,-y,-z
-x,y,1/2-z
loop_
_atom_site_type_symbol
_atom_site_label
_atom_site_fract_x
_atom_site_fract_y
_atom_site_fract_z
Si Si1 0.655006 0.667935 0.008391
Si Si2 0.159387 0.000000 0.500000
Si Si3 0.252265 0.166982 0.407589
Si Si4 0.000000 0.453184 0.250000
O O1 0.500000 0.678000 0.750000
O O2 0.752356 0.753640 0.072848
O O3 0.835687 0.603576 0.918159
O O4 0.500000 0.641155 0.250000
O O5 0.275237 0.083396 0.545224
O O6 0.000000 0.012119 0.250000
O O7 0.500000 0.168640 0.250000
O O8 0.000000 0.169816 0.250000
O O9 0.888314 0.500000 0.500000
#
# Coordination Sequence:
#
# PCOD9311357 Si02
#       4
#     4   2   4   2
#     4  11  25  46  73 108 148 198 248 317 388 466
#     4  10  24  44  70 108 152 202 254 312 370 444
#     4  10  23  45  72 107 155 198 257 315 378 455
#     4  12  26  48  76 110 148 194 256 328 398 480
#
# _framework density 23.911301999999999
#
# number of rings (size 3 to 8) (size 9 to 14) (size 15 to 20)
#    0.000    1.333    1.667    2.000    0.000   20.000 
#    3.000    0.000    0.000    0.000    0.000    0.000 
#    0.000    0.000    0.000    0.000    0.000    0.000 
#
# Total GULP energy -66861.047901 kJ/mol
# GULP energy per Si atom -5571.753992 kJ/mol
# Density = 2.385688 g / cm^3
# Si number density = 23.911302 Si / 1000 Ang^3
#
#
#
# Elastic Constant Matrix: (Units=GPa)
#
#
# Indices 1 2 3 4 5 6 
#
# 1 115.5082 47.8481 42.7919 0.0000 0.0000 0.0000
# 2 47.8481 183.7205 50.5528 0.0000 0.0000 0.0000
# 3 42.7919 50.5528 135.5011 0.0000 0.0000 0.0000
# 4 0.0000 0.0000 0.0000 -143.0866 0.0000 0.0000
# 5 0.0000 0.0000 0.0000 0.0000 55.4045 0.0000
# 6 0.0000 0.0000 0.0000 0.0000 0.0000 45.7888
#
#
#
# Elastic Compliance Matrix: (Units=1/GPa)
#
#
# Indices 1 2 3 4 5 6 
#
# 1 0.010435 -0.002018 -0.002543 0.000000 0.000000 0.000000
# 2 -0.002018 0.006456 -0.001771 0.000000 0.000000 0.000000
# 3 -0.002543 -0.001771 0.008844 0.000000 0.000000 0.000000
# 4 0.000000 0.000000 0.000000 -0.006989 0.000000 0.000000
# 5 0.000000 0.000000 0.000000 0.000000 0.018049 0.000000
# 6 0.000000 0.000000 0.000000 0.000000 0.000000 0.021839
#
#
# Mechanical properties :
#
#
# Convention : Reuss Voigt Hill
#
# Bulk Modulus (GPa) = 76.50445 79.67947 78.09196
# Shear Modulus (GPa) = 66.08864 11.19048 38.63956
#
# Velocity S-wave (km/s) = 5.26299 2.16568 4.02425
# Velocity P-wave (km/s) = 8.30642 6.29673 7.37040
#
# Compressibility (1/GPa) = 0.01307114
#
# Stress axis : x y z
#
# Youngs Moduli (GPa) = 95.82820 154.89365 113.07351
#
# Poissons Ratio (x) = 0.31260 0.28750
# Poissons Ratio (y) = 0.19340 0.20028
# Poissons Ratio (z) = 0.24365 0.27436
#
# Static dielectric constant tensor:
#      x y z
#    x 1.987250 0.000000 0.000000 
#    y 0.000000 2.117810 0.000000 
#    z 0.000000 0.000000 1.875970 
# 
# From -- ./inp_files/154.got.cif
#   From: 2010.05.17/outbox.cif.g08.bks.cpg/sg17_1_cif.got.tgz:154.got - 2010.06.03 22:34:06.
