data_PCOD9311088
_publ_section_title
;
Structure prediction by ZEFSAII (Michael W. Deem and Ramdas Pophale) SiO2 
 PCOD9311088
Probable space group: P 2 2 21
;
_chemical_formula_sum "Si O2"
_cell_formula_units_Z 18
_cell_length_a 7.185646
_cell_length_b 21.956644
_cell_length_c 5.025935
_cell_angle_alpha 90.000000
_cell_angle_beta 90.000000
_cell_angle_gamma 90.000000
_cell_volume 792.955190
_symmetry_space_group_name_H-M "P 2 2 21"
_symmetry_group_IT_number 17
_symmetry_cell_setting 'orthorhombic'
loop_
_space_group_symop_operation_xyz
x,y,z
-x,-y,1/2+z
x,-y,-z
-x,y,1/2-z
loop_
_atom_site_type_symbol
_atom_site_label
_atom_site_fract_x
_atom_site_fract_y
_atom_site_fract_z
Si Si1 0.776805 0.959491 0.246279
Si Si2 0.000000 0.542110 0.250000
Si Si3 0.619603 0.836326 0.012586
Si Si4 0.724219 0.648963 0.253565
Si Si5 0.273810 0.723413 0.744717
O O1 0.700333 0.892874 0.178265
O O2 0.000000 0.954144 0.250000
O O3 0.722031 0.000000 0.500000
O O4 0.719102 0.000000 0.000000
O O5 0.828150 0.586691 0.317355
O O6 0.045622 0.500000 0.500000
O O7 0.500000 0.803928 0.250000
O O8 0.500000 0.856086 0.750000
O O9 0.767799 0.789501 0.882036
O O10 0.500000 0.642034 0.250000
O O11 0.781047 0.701132 0.465351
O O12 0.782664 0.672063 0.963533
O O13 0.500000 0.725338 0.750000
#
# Coordination Sequence:
#
# PCOD9311088 Si02
#       5
#     4   2   4   4   4
#     4  10  22  40  59  81 125 172 210 261 323 392
#     4  12  26  42  64  96 132 164 214 264 296 366
#     4  11  21  36  63  94 123 155 212 273 322 382
#     4  10  21  40  65  88 127 168 205 250 320 369
#     4   9  18  36  62  89 120 161 196 253 316 374
#
# _framework density 22.699895000000001
#
# number of rings (size 3 to 8) (size 9 to 14) (size 15 to 20)
#    0.000    1.778    0.000    6.000    0.000    2.667 
#    2.000    0.000   14.667    0.000    0.000    0.000 
#    0.000    0.000    0.000    0.000    0.000    0.000 
#
# Total GULP energy -100494.852636 kJ/mol
# GULP energy per Si atom -5583.047369 kJ/mol
# Density = 2.264823 g / cm^3
# Si number density = 22.699895 Si / 1000 Ang^3
#
#
#
# Elastic Constant Matrix: (Units=GPa)
#
#
# Indices 1 2 3 4 5 6 
#
# 1 85.6975 26.6544 15.1294 0.0000 0.0000 0.0000
# 2 26.6544 140.4017 47.9002 0.0000 0.0000 0.0000
# 3 15.1294 47.9002 169.1667 0.0000 0.0000 0.0000
# 4 0.0000 0.0000 0.0000 50.9896 0.0000 0.0000
# 5 0.0000 0.0000 0.0000 0.0000 35.4341 0.0000
# 6 0.0000 0.0000 0.0000 0.0000 0.0000 21.8924
#
#
#
# Elastic Compliance Matrix: (Units=1/GPa)
#
#
# Indices 1 2 3 4 5 6 
#
# 1 0.012438 -0.002194 -0.000491 0.000000 0.000000 0.000000
# 2 -0.002194 0.008271 -0.002146 0.000000 0.000000 0.000000
# 3 -0.000491 -0.002146 0.006563 0.000000 0.000000 0.000000
# 4 0.000000 0.000000 0.000000 0.019612 0.000000 0.000000
# 5 0.000000 0.000000 0.000000 0.000000 0.028221 0.000000
# 6 0.000000 0.000000 0.000000 0.000000 0.000000 0.045678
#
#
# Mechanical properties :
#
#
# Convention : Reuss Voigt Hill
#
# Bulk Modulus (GPa) = 56.78463 63.84821 60.31642
# Shear Modulus (GPa) = 36.67991 42.03534 39.35763
#
# Velocity S-wave (km/s) = 4.02414 4.30791 4.16844
# Velocity P-wave (km/s) = 6.83091 7.27545 7.05668
#
# Compressibility (1/GPa) = 0.01761040
#
# Stress axis : x y z
#
# Youngs Moduli (GPa) = 80.39896 120.90525 152.37295
#
# Poissons Ratio (x) = 0.26523 0.07485
# Poissons Ratio (y) = 0.17637 0.32696
# Poissons Ratio (z) = 0.03950 0.25943
#
# Static dielectric constant tensor:
#      x y z
#    x 1.968220 0.000000 0.000000 
#    y 0.000000 1.764630 0.000000 
#    z 0.000000 0.000000 1.820970 
# 
# From -- ./inp_files/861.got.cif
#   From: 2010.05.17/outbox.cif.g08.bks.cpg/sg17_1_cif.got.tgz:861.got - 2010.06.03 22:34:06.
