data_PCOD9311712
_publ_section_title
;
Structure prediction by ZEFSAII (Michael W. Deem and Ramdas Pophale) SiO2 
 PCOD9311712
Probable space group: P 21 21 2
;
_chemical_formula_sum "Si O2"
_cell_formula_units_Z 20
_cell_length_a 23.300874
_cell_length_b 4.931704
_cell_length_c 7.888918
_cell_angle_alpha 90.000000
_cell_angle_beta 90.000000
_cell_angle_gamma 90.000000
_cell_volume 906.539341
_symmetry_space_group_name_H-M "P 21 21 2"
_symmetry_group_IT_number 18
_symmetry_cell_setting 'orthorhombic'
loop_
_space_group_symop_operation_xyz
x,y,z
-x,-y,z
1/2+x,1/2-y,-z
1/2-x,1/2+y,-z
loop_
_atom_site_type_symbol
_atom_site_label
_atom_site_fract_x
_atom_site_fract_y
_atom_site_fract_z
Si Si1 0.173399 0.253463 0.017160
Si Si2 0.157298 0.936570 0.516419
Si Si3 0.963013 0.269313 0.480265
Si Si4 0.621487 0.030000 0.288303
Si Si5 0.789604 0.244460 0.199149
O O1 0.122404 0.358659 0.900520
O O2 0.227396 0.272757 0.887371
O O3 0.187700 0.452397 0.172993
O O4 0.170822 0.953348 0.086901
O O5 0.099506 0.833014 0.416888
O O6 0.160504 0.736281 0.678574
O O7 0.208194 0.870480 0.388547
O O8 0.144058 0.234015 0.585365
O O9 0.940035 0.427220 0.647308
O O10 0.000000 0.500000 0.385202
O O11 0.000000 0.000000 0.508337
#
# Coordination Sequence:
#
# PCOD9311712 Si02
#       5
#     4   4   4   4   4
#     4  10  21  36  54  79 115 150 172 208 270 326
#     4  10  20  33  56  85 101 142 182 226 257 311
#     4  10  18  34  56  80 104 136 178 228 276 308
#     4  10  20  33  56  85 101 142 182 226 257 311
#     4  10  21  36  54  79 115 150 172 208 270 326
#
# _framework density 22.061921999999999
#
# number of rings (size 3 to 8) (size 9 to 14) (size 15 to 20)
#    1.200    0.800    2.000    2.400    0.000    1.600 
#    0.000    0.000    0.000    4.800    0.000    0.000 
#    0.000    0.000    0.000    0.000    0.000    0.000 
#
# Total GULP energy -111413.038714 kJ/mol
# GULP energy per Si atom -5570.651936 kJ/mol
# Density = 2.201171 g / cm^3
# Si number density = 22.061922 Si / 1000 Ang^3
#
#
#
# Elastic Constant Matrix: (Units=GPa)
#
#
# Indices 1 2 3 4 5 6 
#
# 1 38.9347 14.4694 6.6460 0.0000 0.0000 0.0000
# 2 14.4694 106.4431 2.6102 0.0000 0.0000 0.0000
# 3 6.6460 2.6102 38.3793 0.0000 0.0000 0.0000
# 4 0.0000 0.0000 0.0000 20.6400 0.0000 0.0000
# 5 0.0000 0.0000 0.0000 0.0000 11.9086 0.0000
# 6 0.0000 0.0000 0.0000 0.0000 0.0000 26.1543
#
#
#
# Elastic Compliance Matrix: (Units=1/GPa)
#
#
# Indices 1 2 3 4 5 6 
#
# 1 0.027828 -0.003671 -0.004569 0.000000 0.000000 0.000000
# 2 -0.003671 0.009895 -0.000037 0.000000 0.000000 0.000000
# 3 -0.004569 -0.000037 0.026850 0.000000 0.000000 0.000000
# 4 0.000000 0.000000 0.000000 0.048449 0.000000 0.000000
# 5 0.000000 0.000000 0.000000 0.000000 0.083973 0.000000
# 6 0.000000 0.000000 0.000000 0.000000 0.000000 0.038235
#
#
# Mechanical properties :
#
#
# Convention : Reuss Voigt Hill
#
# Bulk Modulus (GPa) = 20.82569 25.68981 23.25775
# Shear Modulus (GPa) = 18.67135 22.40935 20.54035
#
# Velocity S-wave (km/s) = 2.91231 3.19054 3.05459
# Velocity P-wave (km/s) = 4.55729 5.02418 4.79642
#
# Compressibility (1/GPa) = 0.04801762
#
# Stress axis : x y z
#
# Youngs Moduli (GPa) = 35.93485 101.06528 37.24462
#
# Poissons Ratio (x) = 0.37099 0.17018
# Poissons Ratio (y) = 0.13191 0.00139
# Poissons Ratio (z) = 0.16420 0.00377
#
# Static dielectric constant tensor:
#      x y z
#    x 1.946440 0.000000 0.000000 
#    y 0.000000 1.819870 0.000000 
#    z 0.000000 0.000000 1.835510 
# 
# From -- ./inp_files/2240.got.cif
#   From: 2010.05.17/outbox.cif.g08.bks.cpg/sg18_2_cif.got.tgz:2240.got - 2010.06.03 22:40:56.
