data_PCOD9311160
_publ_section_title
;
Structure prediction by ZEFSAII (Michael W. Deem and Ramdas Pophale) SiO2 
 PCOD9311160
Probable space group: P 2 2 21
;
_chemical_formula_sum "Si O2"
_cell_formula_units_Z 18
_cell_length_a 5.098367
_cell_length_b 11.491705
_cell_length_c 12.991228
_cell_angle_alpha 90.000000
_cell_angle_beta 90.000000
_cell_angle_gamma 90.000000
_cell_volume 761.142142
_symmetry_space_group_name_H-M "P 2 2 21"
_symmetry_group_IT_number 17
_symmetry_cell_setting 'orthorhombic'
loop_
_space_group_symop_operation_xyz
x,y,z
-x,-y,1/2+z
x,-y,-z
-x,y,1/2-z
loop_
_atom_site_type_symbol
_atom_site_label
_atom_site_fract_x
_atom_site_fract_y
_atom_site_fract_z
Si Si1 0.916477 0.500000 0.000000
Si Si2 0.479039 0.149587 0.374139
Si Si3 0.751959 0.080449 0.821544
Si Si4 0.019639 0.712785 0.874940
Si Si5 0.753356 0.342277 0.822399
O O1 0.080744 0.595029 0.935557
O O2 0.747832 0.431444 0.915609
O O3 0.500000 0.152234 0.250000
O O4 0.269785 0.245687 0.405180
O O5 0.768617 0.188326 0.406653
O O6 0.346580 0.024284 0.393040
O O7 0.500000 0.099098 0.750000
O O8 0.803933 0.209767 0.862618
O O9 0.000000 0.044521 0.750000
O O10 0.000000 0.698187 0.750000
O O11 0.500000 0.348415 0.750000
O O12 0.000000 0.370321 0.750000
#
# Coordination Sequence:
#
# PCOD9311160 Si02
#       5
#     2   4   4   4   4
#     4  12  26  44  66  94 136 182 226 272 328 396
#     4   9  17  34  60  89 119 158 205 260 325 381
#     4   9  16  33  63  94 125 163 209 265 331 392
#     4  10  22  37  60  91 123 163 210 261 318 384
#     4  10  24  43  67  99 133 176 226 276 333 399
#
# _framework density 23.648669999999999
#
# number of rings (size 3 to 8) (size 9 to 14) (size 15 to 20)
#    0.000    2.222    0.000    4.000    0.000    8.000 
#    0.000    1.111    0.000   13.333    0.000    3.111 
#    0.000    0.000    0.000    0.000    0.000    0.000 
#
# Total GULP energy -100491.736620 kJ/mol
# GULP energy per Si atom -5582.874257 kJ/mol
# Density = 2.359484 g / cm^3
# Si number density = 23.648670 Si / 1000 Ang^3
#
#
#
# Elastic Constant Matrix: (Units=GPa)
#
#
# Indices 1 2 3 4 5 6 
#
# 1 140.9876 31.7400 41.0149 0.0000 0.0000 0.0000
# 2 31.7400 153.9935 59.8614 0.0000 0.0000 0.0000
# 3 41.0149 59.8614 113.5563 0.0000 0.0000 0.0000
# 4 0.0000 0.0000 0.0000 10.6021 0.0000 0.0000
# 5 0.0000 0.0000 0.0000 0.0000 2.4200 0.0000
# 6 0.0000 0.0000 0.0000 0.0000 0.0000 8.2593
#
#
#
# Elastic Compliance Matrix: (Units=1/GPa)
#
#
# Indices 1 2 3 4 5 6 
#
# 1 0.007978 -0.000659 -0.002534 0.000000 0.000000 0.000000
# 2 -0.000659 0.008222 -0.004096 0.000000 0.000000 0.000000
# 3 -0.002534 -0.004096 0.011881 0.000000 0.000000 0.000000
# 4 0.000000 0.000000 0.000000 0.094321 0.000000 0.000000
# 5 0.000000 0.000000 0.000000 0.000000 0.413215 0.000000
# 6 0.000000 0.000000 0.000000 0.000000 0.000000 0.121076
#
#
# Mechanical properties :
#
#
# Convention : Reuss Voigt Hill
#
# Bulk Modulus (GPa) = 74.06289 74.86335 74.46312
# Shear Modulus (GPa) = 7.39894 22.65103 15.02499
#
# Velocity S-wave (km/s) = 1.77073 3.09821 2.52333
# Velocity P-wave (km/s) = 5.96378 6.67261 6.32813
#
# Compressibility (1/GPa) = 0.01350204
#
# Stress axis : x y z
#
# Youngs Moduli (GPa) = 125.33737 121.62591 84.16993
#
# Poissons Ratio (x) = 0.08020 0.21330
# Poissons Ratio (y) = 0.08265 0.34476
# Poissons Ratio (z) = 0.31762 0.49819
#
# Static dielectric constant tensor:
#      x y z
#    x 1.822360 0.000000 0.000000 
#    y 0.000000 2.001620 0.000000 
#    z 0.000000 0.000000 1.935320 
# 
# From -- ./inp_files/5832.got.cif
#   From: 2010.05.17/outbox.cif.g08.bks.cpg/sg17_3_cif.got.tgz:5832.got - 2010.06.03 22:34:06.
