data_PCOD9311660
_publ_section_title
;
Structure prediction by ZEFSAII (Michael W. Deem and Ramdas Pophale) SiO2 
 PCOD9311660
Probable space group: P 21 21 2
;
_chemical_formula_sum "Si O2"
_cell_formula_units_Z 32
_cell_length_a 14.220749
_cell_length_b 13.281010
_cell_length_c 7.128905
_cell_angle_alpha 90.000000
_cell_angle_beta 90.000000
_cell_angle_gamma 90.000000
_cell_volume 1346.407128
_symmetry_space_group_name_H-M "P 21 21 2"
_symmetry_group_IT_number 18
_symmetry_cell_setting 'orthorhombic'
loop_
_space_group_symop_operation_xyz
x,y,z
-x,-y,z
1/2+x,1/2-y,-z
1/2-x,1/2+y,-z
loop_
_atom_site_type_symbol
_atom_site_label
_atom_site_fract_x
_atom_site_fract_y
_atom_site_fract_z
Si Si1 0.159076 0.981057 0.119367
Si Si2 0.963471 0.338745 0.061234
Si Si3 0.709908 0.546706 0.440758
Si Si4 0.603086 0.962219 0.454701
Si Si5 0.636301 0.025644 0.020117
Si Si6 0.443276 0.595385 0.374439
Si Si7 0.977509 0.863080 0.191945
Si Si8 0.404272 0.256274 0.309458
O O1 0.184828 0.957783 0.336617
O O2 0.252280 0.957576 0.001966
O O3 0.066011 0.915037 0.090230
O O4 0.119205 0.095565 0.100347
O O5 0.902545 0.436049 0.111920
O O6 0.899634 0.286000 0.900924
O O7 0.064011 0.382883 0.995248
O O8 0.996059 0.252700 0.200417
O O9 0.820388 0.529008 0.436007
O O10 0.661924 0.444837 0.357941
O O11 0.663914 0.649941 0.362103
O O12 0.610497 0.839822 0.446867
O O13 0.500000 0.000000 0.504430
O O14 0.619857 0.988717 0.234154
O O15 0.500000 0.500000 0.295331
O O16 0.467550 0.600986 0.595244
O O17 0.488977 0.698168 0.305895
#
# Coordination Sequence:
#
# PCOD9311660 Si02
#       8
#     4   4   4   4   4   4   4   4
#     4   9  17  34  58  73 106 145 187 214 265 340
#     4  10  20  33  57  83 107 137 183 234 272 320
#     4   9  18  33  56  79 106 146 186 223 265 337
#     4  10  18  33  55  79 108 145 186 226 268 334
#     4   9  18  37  53  75 111 150 178 220 281 338
#     4   9  16  35  53  77 106 145 179 216 269 333
#     4  10  17  33  56  83  98 142 186 223 265 325
#     4  10  18  34  56  81 108 146 181 224 284 322
#
# _framework density 23.766957000000001
#
# number of rings (size 3 to 8) (size 9 to 14) (size 15 to 20)
#    0.000    2.500    6.250    0.000    0.000    2.000 
#    6.750    0.000    5.500    0.000    0.000    0.000 
#    0.000    0.000    0.000    0.000    0.000    0.000 
#
# Total GULP energy -178428.702471 kJ/mol
# GULP energy per Si atom -5575.896952 kJ/mol
# Density = 2.371286 g / cm^3
# Si number density = 23.766957 Si / 1000 Ang^3
#
#
#
# Elastic Constant Matrix: (Units=GPa)
#
#
# Indices 1 2 3 4 5 6 
#
# 1 165.0357 48.7952 23.9189 0.0000 0.0000 0.0000
# 2 48.7952 121.6392 40.5559 0.0000 0.0000 0.0000
# 3 23.9189 40.5559 56.5488 0.0000 0.0000 0.0000
# 4 0.0000 0.0000 0.0000 30.1879 0.0000 0.0000
# 5 0.0000 0.0000 0.0000 0.0000 21.2031 0.0000
# 6 0.0000 0.0000 0.0000 0.0000 0.0000 23.2789
#
#
#
# Elastic Compliance Matrix: (Units=1/GPa)
#
#
# Indices 1 2 3 4 5 6 
#
# 1 0.006940 -0.002372 -0.001234 0.000000 0.000000 0.000000
# 2 -0.002372 0.011616 -0.007327 0.000000 0.000000 0.000000
# 3 -0.001234 -0.007327 0.023461 0.000000 0.000000 0.000000
# 4 0.000000 0.000000 0.000000 0.033126 0.000000 0.000000
# 5 0.000000 0.000000 0.000000 0.000000 0.047163 0.000000
# 6 0.000000 0.000000 0.000000 0.000000 0.000000 0.042957
#
#
# Mechanical properties :
#
#
# Convention : Reuss Voigt Hill
#
# Bulk Modulus (GPa) = 49.62984 63.30707 56.46846
# Shear Modulus (GPa) = 25.79380 30.26422 28.02901
#
# Velocity S-wave (km/s) = 3.29793 3.57231 3.43786
# Velocity P-wave (km/s) = 5.95223 6.61132 6.29041
#
# Compressibility (1/GPa) = 0.02014917
#
# Stress axis : x y z
#
# Youngs Moduli (GPa) = 144.10153 86.09073 42.62463
#
# Poissons Ratio (x) = 0.20424 0.05259
# Poissons Ratio (y) = 0.34187 0.31231
# Poissons Ratio (z) = 0.17780 0.63079
#
# Static dielectric constant tensor:
#      x y z
#    x 1.905190 0.000000 0.000000 
#    y 0.000000 1.940360 0.000000 
#    z 0.000000 0.000000 2.011380 
# 
# From -- ./inp_files/4315.got.cif
#   From: 2010.05.17/outbox.cif.g08.bks.cpg/sg18_3_cif.got.tgz:4315.got - 2010.06.03 22:40:56.
