data_PCOD9311258
_publ_section_title
;
Structure prediction by ZEFSAII (Michael W. Deem and Ramdas Pophale) SiO2 
 PCOD9311258
Probable space group: P 2 2 21
;
_chemical_formula_sum "Si O2"
_cell_formula_units_Z 18
_cell_length_a 5.520563
_cell_length_b 5.158772
_cell_length_c 23.666158
_cell_angle_alpha 90.000000
_cell_angle_beta 90.000000
_cell_angle_gamma 90.000000
_cell_volume 673.996225
_symmetry_space_group_name_H-M "P 2 2 21"
_symmetry_group_IT_number 17
_symmetry_cell_setting 'orthorhombic'
loop_
_space_group_symop_operation_xyz
x,y,z
-x,-y,1/2+z
x,-y,-z
-x,y,1/2-z
loop_
_atom_site_type_symbol
_atom_site_label
_atom_site_fract_x
_atom_site_fract_y
_atom_site_fract_z
Si Si1 0.379663 0.686334 0.687676
Si Si2 0.073848 0.089439 0.064823
Si Si3 0.664389 0.807272 0.341104
Si Si4 0.000000 0.022954 0.250000
Si Si5 0.575198 0.743315 0.960756
O O1 0.500000 0.661734 0.750000
O O2 0.503794 0.936316 0.660958
O O3 0.109930 0.781610 0.703099
O O4 0.474731 0.427834 0.657380
O O5 0.151772 0.856524 0.106781
O O6 0.304307 0.280777 0.063940
O O7 0.814465 0.218043 0.077668
O O8 0.048269 0.000000 0.000000
O O9 0.814987 0.834442 0.282704
O O10 0.625659 0.500000 0.000000
O O11 0.556014 0.000000 0.000000
#
# Coordination Sequence:
#
# PCOD9311258 Si02
#       5
#     4   4   4   2   4
#     4  10  23  44  67 104 138 185 244 299 373 449
#     4  10  24  46  69 108 144 192 244 309 376 456
#     4  11  25  42  72 105 144 191 250 310 380 454
#     4  10  24  48  74 104 150 198 250 322 382 456
#     4  10  22  42  68  93 138 184 235 293 357 435
#
# _framework density 26.706382999999999
#
# number of rings (size 3 to 8) (size 9 to 14) (size 15 to 20)
#    0.000    1.778    0.000    2.667    3.111   15.111 
#    0.000    0.000    4.889    0.000    0.000    0.000 
#    0.000    0.000    0.000    0.000    0.000    0.000 
#
# Total GULP energy -100675.282264 kJ/mol
# GULP energy per Si atom -5593.071237 kJ/mol
# Density = 2.664560 g / cm^3
# Si number density = 26.706383 Si / 1000 Ang^3
#
#
#
# Elastic Constant Matrix: (Units=GPa)
#
#
# Indices 1 2 3 4 5 6 
#
# 1 197.2302 48.3493 26.8292 0.0000 0.0000 0.0000
# 2 48.3493 176.3479 25.0365 0.0000 0.0000 0.0000
# 3 26.8292 25.0365 76.1331 0.0000 0.0000 0.0000
# 4 0.0000 0.0000 0.0000 31.1618 0.0000 0.0000
# 5 0.0000 0.0000 0.0000 0.0000 53.1871 0.0000
# 6 0.0000 0.0000 0.0000 0.0000 0.0000 38.5374
#
#
#
# Elastic Compliance Matrix: (Units=1/GPa)
#
#
# Indices 1 2 3 4 5 6 
#
# 1 0.005603 -0.001317 -0.001541 0.000000 0.000000 0.000000
# 2 -0.001317 0.006258 -0.001594 0.000000 0.000000 0.000000
# 3 -0.001541 -0.001594 0.014202 0.000000 0.000000 0.000000
# 4 0.000000 0.000000 0.000000 0.032091 0.000000 0.000000
# 5 0.000000 0.000000 0.000000 0.000000 0.018802 0.000000
# 6 0.000000 0.000000 0.000000 0.000000 0.000000 0.025949
#
#
# Mechanical properties :
#
#
# Convention : Reuss Voigt Hill
#
# Bulk Modulus (GPa) = 58.28048 72.23790 65.25919
# Shear Modulus (GPa) = 42.54309 47.87702 45.21006
#
# Velocity S-wave (km/s) = 3.99556 4.23864 4.11890
# Velocity P-wave (km/s) = 6.56933 7.14580 6.86362
#
# Compressibility (1/GPa) = 0.01715840
#
# Stress axis : x y z
#
# Youngs Moduli (GPa) = 178.48227 159.79440 70.41204
#
# Poissons Ratio (x) = 0.21050 0.10852
# Poissons Ratio (y) = 0.23512 0.11222
# Poissons Ratio (z) = 0.27508 0.25467
#
# Static dielectric constant tensor:
#      x y z
#    x 2.171250 0.000000 0.000000 
#    y 0.000000 1.997350 0.000000 
#    z 0.000000 0.000000 2.316310 
# 
# From -- ./inp_files/10331.got.cif
#   From: 2010.05.17/outbox.cif.g08.bks.cpg/sg17_6_cif.got.tgz:10331.got - 2010.06.03 22:34:06.
