data_PCOD9311846
_publ_section_title
;
Structure prediction by ZEFSAII (Michael W. Deem and Ramdas Pophale) SiO2 
 PCOD9311846
Probable space group: P 21 21 2
;
_chemical_formula_sum "Si O2"
_cell_formula_units_Z 24
_cell_length_a 5.270104
_cell_length_b 12.932481
_cell_length_c 13.563078
_cell_angle_alpha 90.000000
_cell_angle_beta 90.000000
_cell_angle_gamma 90.000000
_cell_volume 924.398632
_symmetry_space_group_name_H-M "P 21 21 2"
_symmetry_group_IT_number 18
_symmetry_cell_setting 'orthorhombic'
loop_
_space_group_symop_operation_xyz
x,y,z
-x,-y,z
1/2+x,1/2-y,-z
1/2-x,1/2+y,-z
loop_
_atom_site_type_symbol
_atom_site_label
_atom_site_fract_x
_atom_site_fract_y
_atom_site_fract_z
Si Si1 0.447847 0.712393 0.040728
Si Si2 0.848565 0.358246 0.205453
Si Si3 0.217942 0.718099 0.749812
Si Si4 0.138715 0.173934 0.595772
Si Si5 0.000000 0.500000 0.712552
Si Si6 0.000000 0.000000 0.913331
Si Si7 0.907378 0.119698 0.406938
O O1 0.375509 0.717827 0.157588
O O2 0.563093 0.599096 0.022121
O O3 0.669666 0.787016 0.007742
O O4 0.824871 0.374608 0.321868
O O5 0.738661 0.461421 0.152372
O O6 0.110237 0.298272 0.182753
O O7 0.087931 0.790872 0.667362
O O8 0.450322 0.667317 0.686521
O O9 0.074927 0.606143 0.770204
O O10 0.078168 0.103957 0.503288
O O11 0.236592 0.283748 0.556215
O O12 0.771450 0.533169 0.639851
#
# Coordination Sequence:
#
# PCOD9311846 Si02
#       7
#     4   4   4   4   2   2   4
#     4  10  23  46  79 109 151 192 235 307 391 476
#     4   9  22  40  68 103 141 184 239 316 383 455
#     4  10  20  38  60  87 136 187 249 307 380 436
#     4  10  19  35  60  90 131 186 244 306 371 437
#     4  10  22  34  58  88 128 200 260 312 366 458
#     4   8  22  46  70 120 140 184 244 306 388 466
#     4  10  19  36  55  86 127 189 249 298 364 431
#
# _framework density 25.962824999999999
#
# number of rings (size 3 to 8) (size 9 to 14) (size 15 to 20)
#    1.000    1.333    1.667    0.500    2.333    0.667 
#    9.000    0.000   11.000    0.000    0.000    0.000 
#    0.000    0.000    0.000    0.000    0.000    0.000 
#
# Total GULP energy -133607.450202 kJ/mol
# GULP energy per Si atom -5566.977092 kJ/mol
# Density = 2.590373 g / cm^3
# Si number density = 25.962825 Si / 1000 Ang^3
#
#
#
# Elastic Constant Matrix: (Units=GPa)
#
#
# Indices 1 2 3 4 5 6 
#
# 1 64.3328 35.7069 1.8615 0.0000 0.0000 0.0000
# 2 35.7069 131.5987 0.1721 0.0000 0.0000 0.0000
# 3 1.8615 0.1721 62.3425 0.0000 0.0000 0.0000
# 4 0.0000 0.0000 0.0000 30.4968 0.0000 0.0000
# 5 0.0000 0.0000 0.0000 0.0000 30.5104 0.0000
# 6 0.0000 0.0000 0.0000 0.0000 0.0000 52.1131
#
#
#
# Elastic Compliance Matrix: (Units=1/GPa)
#
#
# Indices 1 2 3 4 5 6 
#
# 1 0.018318 -0.004970 -0.000533 0.000000 0.000000 0.000000
# 2 -0.004970 0.008947 0.000124 0.000000 0.000000 0.000000
# 3 -0.000533 0.000124 0.016056 0.000000 0.000000 0.000000
# 4 0.000000 0.000000 0.000000 0.032790 0.000000 0.000000
# 5 0.000000 0.000000 0.000000 0.000000 0.032776 0.000000
# 6 0.000000 0.000000 0.000000 0.000000 0.000000 0.019189
#
#
# Mechanical properties :
#
#
# Convention : Reuss Voigt Hill
#
# Bulk Modulus (GPa) = 30.70987 37.08389 33.89688
# Shear Modulus (GPa) = 33.40272 37.32629 35.36451
#
# Velocity S-wave (km/s) = 3.59076 3.79579 3.69470
# Velocity P-wave (km/s) = 5.38938 5.79009 5.59333
#
# Compressibility (1/GPa) = 0.03256282
#
# Stress axis : x y z
#
# Youngs Moduli (GPa) = 54.59153 111.76819 62.28201
#
# Poissons Ratio (x) = 0.55543 0.03321
# Poissons Ratio (y) = 0.27129 -0.00770
# Poissons Ratio (z) = 0.02911 -0.01382
#
# Static dielectric constant tensor:
#      x y z
#    x 2.409310 0.000000 0.000000 
#    y 0.000000 2.306850 0.000000 
#    z 0.000000 0.000000 2.207320 
# 
# From -- ./inp_files/6475.got.cif
#   From: 2010.05.17/outbox.cif.g08.bks.cpg/sg18_4_cif.got.tgz:6475.got - 2010.06.03 22:40:56.
