data_PCOD9311737
_publ_section_title
;
Structure prediction by ZEFSAII (Michael W. Deem and Ramdas Pophale) SiO2 
 PCOD9311737
Probable space group: P 21 21 2
;
_chemical_formula_sum "Si O2"
_cell_formula_units_Z 32
_cell_length_a 7.430649
_cell_length_b 14.332385
_cell_length_c 10.671938
_cell_angle_alpha 90.000000
_cell_angle_beta 90.000000
_cell_angle_gamma 90.000000
_cell_volume 1136.549896
_symmetry_space_group_name_H-M "P 21 21 2"
_symmetry_group_IT_number 18
_symmetry_cell_setting 'orthorhombic'
loop_
_space_group_symop_operation_xyz
x,y,z
-x,-y,z
1/2+x,1/2-y,-z
1/2-x,1/2+y,-z
loop_
_atom_site_type_symbol
_atom_site_label
_atom_site_fract_x
_atom_site_fract_y
_atom_site_fract_z
Si Si1 0.712081 0.909743 0.785549
Si Si2 0.207108 0.475771 0.703265
Si Si3 0.787161 0.524973 0.968724
Si Si4 0.139406 0.768158 0.078621
Si Si5 0.801482 0.592689 0.317252
Si Si6 0.216871 0.806801 0.429953
Si Si7 0.768444 0.268684 0.816891
Si Si8 0.693301 0.363911 0.560122
O O1 0.746027 0.804177 0.830995
O O2 0.496456 0.906737 0.751979
O O3 0.771928 0.986951 0.682066
O O4 0.770525 0.969743 0.908849
O O5 0.286497 0.509793 0.834692
O O6 0.221516 0.364852 0.689528
O O7 0.295197 0.527428 0.586395
O O8 0.000000 0.500000 0.696600
O O9 0.732064 0.633998 0.961360
O O10 0.000000 0.500000 0.964464
O O11 0.941409 0.780240 0.139662
O O12 0.122662 0.714430 0.943952
O O13 0.814679 0.643193 0.451717
O O14 0.688466 0.664175 0.233041
O O15 0.232176 0.695615 0.443753
O O16 0.009892 0.831519 0.439793
O O17 0.789261 0.325425 0.687384
#
# Coordination Sequence:
#
# PCOD9311737 Si02
#       8
#     4   4   4   4   4   4   4   4
#     4  10  18  37  66 101 135 178 233 289 362 436
#     4  11  25  42  70 105 134 183 238 293 364 431
#     4  11  20  39  67 100 143 179 227 289 361 440
#     4  11  21  37  68 105 132 187 231 279 358 438
#     4   9  19  38  68  94 133 185 230 289 358 421
#     4  11  24  44  71 100 138 187 244 297 359 434
#     4  10  21  40  68 101 142 184 229 287 354 433
#     4  11  24  47  70 100 142 188 238 301 360 421
#
# _framework density 28.155384000000002
#
# number of rings (size 3 to 8) (size 9 to 14) (size 15 to 20)
#    0.000    1.500    2.500    3.375    1.750    1.000 
#    4.500    4.375    8.250    0.000    0.000    0.000 
#    0.000    0.000    0.000    0.000    0.000    0.000 
#
# Total GULP energy -178882.406256 kJ/mol
# GULP energy per Si atom -5590.075196 kJ/mol
# Density = 2.809130 g / cm^3
# Si number density = 28.155384 Si / 1000 Ang^3
#
#
#
# Elastic Constant Matrix: (Units=GPa)
#
#
# Indices 1 2 3 4 5 6 
#
# 1 83.6133 10.8523 -29.1936 0.0000 0.0000 0.0000
# 2 10.8523 189.2047 -1.5070 0.0000 0.0000 0.0000
# 3 -29.1936 -1.5070 117.2396 0.0000 0.0000 0.0000
# 4 0.0000 0.0000 0.0000 50.9925 0.0000 0.0000
# 5 0.0000 0.0000 0.0000 0.0000 17.8746 0.0000
# 6 0.0000 0.0000 0.0000 0.0000 0.0000 38.4222
#
#
#
# Elastic Compliance Matrix: (Units=1/GPa)
#
#
# Indices 1 2 3 4 5 6 
#
# 1 0.013199 -0.000731 0.003277 0.000000 0.000000 0.000000
# 2 -0.000731 0.005326 -0.000114 0.000000 0.000000 0.000000
# 3 0.003277 -0.000114 0.009344 0.000000 0.000000 0.000000
# 4 0.000000 0.000000 0.000000 0.019611 0.000000 0.000000
# 5 0.000000 0.000000 0.000000 0.000000 0.055945 0.000000
# 6 0.000000 0.000000 0.000000 0.000000 0.000000 0.026027
#
#
# Mechanical properties :
#
#
# Convention : Reuss Voigt Hill
#
# Bulk Modulus (GPa) = 30.54846 38.92900 34.73873
# Shear Modulus (GPa) = 36.90083 48.78490 42.84286
#
# Velocity S-wave (km/s) = 3.62417 4.16709 3.90508
# Velocity P-wave (km/s) = 5.32788 6.08353 5.71820
#
# Compressibility (1/GPa) = 0.03273487
#
# Stress axis : x y z
#
# Youngs Moduli (GPa) = 75.76361 187.74749 107.01890
#
# Poissons Ratio (x) = 0.13724 -0.35073
# Poissons Ratio (y) = 0.05538 0.01215
# Poissons Ratio (z) = -0.24830 0.02132
#
# Static dielectric constant tensor:
#      x y z
#    x 2.119220 0.000000 0.000000 
#    y 0.000000 2.355590 0.000000 
#    z 0.000000 0.000000 2.237290 
# 
# From -- ./inp_files/5662.got.cif
#   From: 2010.05.17/outbox.cif.g08.bks.cpg/sg18_3_cif.got.tgz:5662.got - 2010.06.03 22:40:56.
