data_PCOD9311956
_publ_section_title
;
Structure prediction by ZEFSAII (Michael W. Deem and Ramdas Pophale) SiO2 
 PCOD9311956
Probable space group: P 21 21 2
;
_chemical_formula_sum "Si O2"
_cell_formula_units_Z 32
_cell_length_a 8.484062
_cell_length_b 22.664672
_cell_length_c 8.032856
_cell_angle_alpha 90.000000
_cell_angle_beta 90.000000
_cell_angle_gamma 90.000000
_cell_volume 1544.625690
_symmetry_space_group_name_H-M "P 21 21 2"
_symmetry_group_IT_number 18
_symmetry_cell_setting 'orthorhombic'
loop_
_space_group_symop_operation_xyz
x,y,z
-x,-y,z
1/2+x,1/2-y,-z
1/2-x,1/2+y,-z
loop_
_atom_site_type_symbol
_atom_site_label
_atom_site_fract_x
_atom_site_fract_y
_atom_site_fract_z
Si Si1 0.284560 0.896406 0.105883
Si Si2 0.119114 0.947308 0.793885
Si Si3 0.293072 0.786563 0.678958
Si Si4 0.967713 0.349208 0.120422
Si Si5 0.862709 0.845642 0.812091
Si Si6 0.592363 0.717705 0.986884
Si Si7 0.011550 0.184123 0.476182
Si Si8 0.890592 0.056733 0.413250
O O1 0.242777 0.930279 0.275057
O O2 0.234466 0.937048 0.948152
O O3 0.456568 0.874627 0.048007
O O4 0.181649 0.835426 0.107091
O O5 0.174424 0.952538 0.601941
O O6 0.007633 0.890300 0.798087
O O7 0.000000 0.000000 0.828711
O O8 0.400917 0.842738 0.734411
O O9 0.407674 0.731860 0.641967
O O10 0.185418 0.775295 0.839594
O O11 0.166788 0.799304 0.533310
O O12 0.802653 0.378245 0.167200
O O13 0.917295 0.281277 0.093686
O O14 0.917699 0.804149 0.962793
O O15 0.874259 0.812499 0.637556
O O16 0.998515 0.116303 0.416935
O O17 0.000000 0.000000 0.373592
#
# Coordination Sequence:
#
# PCOD9311956 Si02
#       8
#     4   4   4   4   4   4   4   4
#     4  10  20  34  55  81 110 143 184 231 279 334
#     4   9  19  38  59  77 104 142 190 238 277 330
#     4  10  20  32  52  79 113 150 184 235 293 344
#     4  11  19  31  50  79 114 145 179 225 285 344
#     4   9  18  32  51  76 107 146 186 222 278 343
#     4   9  19  33  49  75 110 149 182 219 276 340
#     4  10  20  35  54  83 113 147 196 241 289 351
#     4  10  20  35  58  84 109 148 198 239 281 340
#
# _framework density 20.716995000000001
#
# number of rings (size 3 to 8) (size 9 to 14) (size 15 to 20)
#    0.000    2.250    0.000    5.625    0.000    3.000 
#    0.000    1.875    0.000    0.000    0.000   27.125 
#    0.000    0.000    0.000    0.000    0.000    0.000 
#
# Total GULP energy -178336.655497 kJ/mol
# GULP energy per Si atom -5573.020484 kJ/mol
# Density = 2.066984 g / cm^3
# Si number density = 20.716995 Si / 1000 Ang^3
#
#
#
# Elastic Constant Matrix: (Units=GPa)
#
#
# Indices 1 2 3 4 5 6 
#
# 1 88.8414 -19.7400 17.6891 0.0000 0.0000 0.0000
# 2 -19.7400 22.5569 1.6016 0.0000 0.0000 0.0000
# 3 17.6891 1.6016 60.1426 0.0000 0.0000 0.0000
# 4 0.0000 0.0000 0.0000 31.1808 0.0000 0.0000
# 5 0.0000 0.0000 0.0000 0.0000 17.7215 0.0000
# 6 0.0000 0.0000 0.0000 0.0000 0.0000 -1.1804
#
#
#
# Elastic Compliance Matrix: (Units=1/GPa)
#
#
# Indices 1 2 3 4 5 6 
#
# 1 0.015268 0.013706 -0.004856 0.000000 0.000000 0.000000
# 2 0.013706 0.056720 -0.005542 0.000000 0.000000 0.000000
# 3 -0.004856 -0.005542 0.018203 0.000000 0.000000 0.000000
# 4 0.000000 0.000000 0.000000 0.032071 0.000000 0.000000
# 5 0.000000 0.000000 0.000000 0.000000 0.056429 0.000000
# 6 0.000000 0.000000 0.000000 0.000000 0.000000 -0.847193
#
#
# Mechanical properties :
#
#
# Convention : Reuss Voigt Hill
#
# Bulk Modulus (GPa) = 10.32957 18.96025 14.64491
# Shear Modulus (GPa) = -7.77787 21.01039 6.61626
#
# Velocity S-wave (km/s) = -1.93972 3.18805 1.78901
# Velocity P-wave (km/s) = 0.14071 4.76691 3.36924
#
# Compressibility (1/GPa) = 0.09680945
#
# Stress axis : x y z
#
# Youngs Moduli (GPa) = 65.49525 17.63031 54.93633
#
# Poissons Ratio (x) = -0.24165 0.26675
# Poissons Ratio (y) = -0.89770 0.30444
# Poissons Ratio (z) = 0.31802 0.09770
#
# Static dielectric constant tensor:
#      x y z
#    x 1.805870 0.000000 0.000000 
#    y 0.000000 2.103760 0.000000 
#    z 0.000000 0.000000 1.816470 
# 
# From -- ./inp_files/3526.got.cif
#   From: 2010.05.17/outbox.cif.g08.bks.cpg/sg18_2_cif.got.tgz:3526.got - 2010.06.03 22:40:56.
