data_PCOD9311819
_publ_section_title
;
Structure prediction by ZEFSAII (Michael W. Deem and Ramdas Pophale) SiO2 
 PCOD9311819
Probable space group: P 21 21 2
;
_chemical_formula_sum "Si O2"
_cell_formula_units_Z 24
_cell_length_a 17.732927
_cell_length_b 9.506088
_cell_length_c 8.158528
_cell_angle_alpha 90.000000
_cell_angle_beta 90.000000
_cell_angle_gamma 90.000000
_cell_volume 1375.289303
_symmetry_space_group_name_H-M "P 21 21 2"
_symmetry_group_IT_number 18
_symmetry_cell_setting 'orthorhombic'
loop_
_space_group_symop_operation_xyz
x,y,z
-x,-y,z
1/2+x,1/2-y,-z
1/2-x,1/2+y,-z
loop_
_atom_site_type_symbol
_atom_site_label
_atom_site_fract_x
_atom_site_fract_y
_atom_site_fract_z
Si Si1 0.197739 0.179664 0.012861
Si Si2 0.572821 0.407535 0.233136
Si Si3 0.570396 0.102359 0.376432
Si Si4 0.729213 0.062031 0.203912
Si Si5 0.321355 0.832331 0.645880
Si Si6 0.297640 0.539984 0.478630
O O1 0.174885 0.270905 0.172324
O O2 0.254433 0.060276 0.074209
O O3 0.126187 0.108998 0.925008
O O4 0.232253 0.287160 0.881364
O O5 0.500000 0.500000 0.203301
O O6 0.551548 0.251097 0.292874
O O7 0.625126 0.470445 0.378562
O O8 0.646141 0.047014 0.284312
O O9 0.599479 0.129624 0.561502
O O10 0.500000 0.000000 0.367596
O O11 0.789980 0.040390 0.348445
O O12 0.288983 0.704063 0.530836
O O13 0.266897 0.967039 0.630878
#
# Coordination Sequence:
#
# PCOD9311819 Si02
#       6
#     4   4   4   4   4   4
#     4  10  19  34  54  81 109 134 171 221 268 307
#     4  10  21  35  53  76 106 140 175 218 263 311
#     4   9  19  36  54  76 104 139 180 214 254 311
#     4   9  19  34  56  80 107 138 174 217 257 310
#     4   9  18  33  55  79 105 135 173 219 258 309
#     4   9  18  34  54  76 101 136 179 211 250 310
#
# _framework density 17.450873000000001
#
# number of rings (size 3 to 8) (size 9 to 14) (size 15 to 20)
#    0.000    2.667    0.000    2.000    0.000    5.333 
#    0.000   10.833    0.000    4.000    0.000    0.000 
#    0.000    0.000    0.000    0.000    0.000    0.000 
#
# Total GULP energy -133733.155306 kJ/mol
# GULP energy per Si atom -5572.214804 kJ/mol
# Density = 1.741115 g / cm^3
# Si number density = 17.450873 Si / 1000 Ang^3
#
#
#
# Elastic Constant Matrix: (Units=GPa)
#
#
# Indices 1 2 3 4 5 6 
#
# 1 79.3742 69.4091 48.6372 0.0000 0.0000 0.0000
# 2 69.4091 79.6155 45.2012 0.0000 0.0000 0.0000
# 3 48.6372 45.2012 92.1935 0.0000 0.0000 0.0000
# 4 0.0000 0.0000 0.0000 26.7554 0.0000 0.0000
# 5 0.0000 0.0000 0.0000 0.0000 -9.5128 0.0000
# 6 0.0000 0.0000 0.0000 0.0000 0.0000 44.7089
#
#
#
# Elastic Compliance Matrix: (Units=1/GPa)
#
#
# Indices 1 2 3 4 5 6 
#
# 1 0.056875 -0.045104 -0.007891 0.000000 0.000000 0.000000
# 2 -0.045104 0.053174 -0.002276 0.000000 0.000000 0.000000
# 3 -0.007891 -0.002276 0.016125 0.000000 0.000000 0.000000
# 4 0.000000 0.000000 0.000000 0.037376 0.000000 0.000000
# 5 0.000000 0.000000 0.000000 0.000000 -0.105121 0.000000
# 6 0.000000 0.000000 0.000000 0.000000 0.000000 0.022367
#
#
# Mechanical properties :
#
#
# Convention : Reuss Voigt Hill
#
# Bulk Modulus (GPa) = 63.96520 64.18646 64.07583
# Shear Modulus (GPa) = 25.43914 18.25267 21.84590
#
# Velocity S-wave (km/s) = 3.82220 3.23762 3.54199
# Velocity P-wave (km/s) = 7.49753 7.13003 7.31609
#
# Compressibility (1/GPa) = 0.01563350
#
# Stress axis : x y z
#
# Youngs Moduli (GPa) = 17.58248 18.80619 62.01387
#
# Poissons Ratio (x) = 0.84823 0.48934
# Poissons Ratio (y) = 0.79303 0.14113
# Poissons Ratio (z) = 0.13874 0.04280
#
# Static dielectric constant tensor:
#      x y z
#    x 1.553900 0.000000 0.000000 
#    y 0.000000 1.610530 0.000000 
#    z 0.000000 0.000000 1.639980 
# 
# From -- ./inp_files/3301.got.cif
#   From: 2010.05.17/outbox.cif.g08.bks.cpg/sg18_2_cif.got.tgz:3301.got - 2010.06.03 22:40:56.
