data_PCOD9311596
_publ_section_title
;
Structure prediction by ZEFSAII (Michael W. Deem and Ramdas Pophale) SiO2 
 PCOD9311596
Probable space group: P 2 2 21
;
_chemical_formula_sum "Si O2"
_cell_formula_units_Z 10
_cell_length_a 7.661125
_cell_length_b 4.886337
_cell_length_c 11.159287
_cell_angle_alpha 90.000000
_cell_angle_beta 90.000000
_cell_angle_gamma 90.000000
_cell_volume 417.746107
_symmetry_space_group_name_H-M "P 2 2 21"
_symmetry_group_IT_number 17
_symmetry_cell_setting 'orthorhombic'
loop_
_space_group_symop_operation_xyz
x,y,z
-x,-y,1/2+z
x,-y,-z
-x,y,1/2-z
loop_
_atom_site_type_symbol
_atom_site_label
_atom_site_fract_x
_atom_site_fract_y
_atom_site_fract_z
Si Si1 0.199235 0.681382 0.258604
Si Si2 0.686608 0.841710 0.611053
Si Si3 0.375282 0.500000 0.500000
O O1 0.221342 0.417880 0.172096
O O2 0.258171 0.609610 0.392066
O O3 0.000000 0.774888 0.250000
O O4 0.319794 0.922624 0.209195
O O5 0.506253 0.722870 0.558592
O O6 0.777878 0.000000 0.500000
#
# Coordination Sequence:
#
# PCOD9311596 Si02
#       3
#     4   4   2
#     4  12  30  52  79 118 161 203 267 330 397 460
#     4  12  27  50  79 112 157 208 267 317 391 473
#     4  12  30  46  90 110 160 216 266 318 396 470
#
# _framework density 23.937984
#
# number of rings (size 3 to 8) (size 9 to 14) (size 15 to 20)
#    0.000    0.000    4.000    2.400   16.800    0.000 
#    0.000    0.000    0.000    0.000    0.000    0.000 
#    0.000    0.000    0.000    0.000    0.000    0.000 
#
# Total GULP energy -56033.124265 kJ/mol
# GULP energy per Si atom -5603.312426 kJ/mol
# Density = 2.388350 g / cm^3
# Si number density = 23.937984 Si / 1000 Ang^3
#
#
#
# Elastic Constant Matrix: (Units=GPa)
#
#
# Indices 1 2 3 4 5 6 
#
# 1 124.7492 45.4590 91.6735 0.0000 0.0000 0.0000
# 2 45.4590 152.6718 59.6613 0.0000 0.0000 0.0000
# 3 91.6735 59.6613 163.3228 0.0000 0.0000 0.0000
# 4 0.0000 0.0000 0.0000 46.3208 0.0000 0.0000
# 5 0.0000 0.0000 0.0000 0.0000 26.8144 0.0000
# 6 0.0000 0.0000 0.0000 0.0000 0.0000 18.7316
#
#
#
# Elastic Compliance Matrix: (Units=1/GPa)
#
#
# Indices 1 2 3 4 5 6 
#
# 1 0.013851 -0.001267 -0.007312 0.000000 0.000000 0.000000
# 2 -0.001267 0.007757 -0.002122 0.000000 0.000000 0.000000
# 3 -0.007312 -0.002122 0.011002 0.000000 0.000000 0.000000
# 4 0.000000 0.000000 0.000000 0.021589 0.000000 0.000000
# 5 0.000000 0.000000 0.000000 0.000000 0.037293 0.000000
# 6 0.000000 0.000000 0.000000 0.000000 0.000000 0.053386
#
#
# Mechanical properties :
#
#
# Convention : Reuss Voigt Hill
#
# Bulk Modulus (GPa) = 89.22411 92.70350 90.96381
# Shear Modulus (GPa) = 29.40911 34.63669 32.02290
#
# Velocity S-wave (km/s) = 3.50888 3.80799 3.66149
# Velocity P-wave (km/s) = 7.33282 7.62528 7.48048
#
# Compressibility (1/GPa) = 0.01120773
#
# Stress axis : x y z
#
# Youngs Moduli (GPa) = 72.19766 128.92253 90.89074
#
# Poissons Ratio (x) = 0.16333 0.66457
# Poissons Ratio (y) = 0.09147 0.19290
# Poissons Ratio (z) = 0.52789 0.27362
#
# Static dielectric constant tensor:
#      x y z
#    x 1.846750 0.000000 0.000000 
#    y 0.000000 1.929030 0.000000 
#    z 0.000000 0.000000 1.895160 
# 
# From -- ./inp_files/3302.got.cif
#   From: 2010.05.17/outbox.cif.g08.bks.cpg/sg17_2_cif.got.tgz:3302.got - 2010.06.03 22:34:06.
