data_PCOD9311526
_publ_section_title
;
Structure prediction by ZEFSAII (Michael W. Deem and Ramdas Pophale) SiO2 
 PCOD9311526
Probable space group: P 2 2 21
;
_chemical_formula_sum "Si O2"
_cell_formula_units_Z 16
_cell_length_a 5.092370
_cell_length_b 5.092375
_cell_length_c 26.771122
_cell_angle_alpha 90.000000
_cell_angle_beta 90.000000
_cell_angle_gamma 90.000000
_cell_volume 694.235634
_symmetry_space_group_name_H-M "P 2 2 21"
_symmetry_group_IT_number 17
_symmetry_cell_setting 'orthorhombic'
loop_
_space_group_symop_operation_xyz
x,y,z
-x,-y,1/2+z
x,-y,-z
-x,y,1/2-z
loop_
_atom_site_type_symbol
_atom_site_label
_atom_site_fract_x
_atom_site_fract_y
_atom_site_fract_z
Si Si1 0.352548 0.477719 0.058282
Si Si2 0.007188 0.394697 0.642201
Si Si3 0.394700 0.007184 0.607799
Si Si4 0.477715 0.352552 0.191718
O O1 0.088462 0.462078 0.091363
O O2 0.740402 0.484669 0.169644
O O3 0.484665 0.740406 0.080356
O O4 0.301461 0.500000 0.000000
O O5 0.765871 0.457883 0.678993
O O6 0.457886 0.765867 0.571007
O O7 0.106249 0.106246 0.625000
O O8 0.537925 0.911535 0.658638
O O9 0.500000 0.301466 0.250000
#
# Coordination Sequence:
#
# PCOD9311526 Si02
#       4
#     4   4   4   4
#     4  11  26  49  79 115 153 207 259 325 400 468
#     4  11  24  49  78 109 159 194 260 323 381 474
#     4  11  24  49  78 109 159 194 260 323 381 474
#     4  11  26  49  79 115 153 207 259 325 400 468
#
# _framework density 23.046928999999999
#
# number of rings (size 3 to 8) (size 9 to 14) (size 15 to 20)
#    0.000    1.000    5.000    1.500    7.000    2.000 
#    9.000    0.000    0.000    0.000    0.000    0.000 
#    0.000    0.000    0.000    0.000    0.000    0.000 
#
# Total GULP energy -89345.252788 kJ/mol
# GULP energy per Si atom -5584.078299 kJ/mol
# Density = 2.299447 g / cm^3
# Si number density = 23.046929 Si / 1000 Ang^3
#
#
#
# Elastic Constant Matrix: (Units=GPa)
#
#
# Indices 1 2 3 4 5 6 
#
# 1 158.7321 48.1487 32.4089 0.0000 0.0000 0.0000
# 2 48.1487 158.7338 32.4105 0.0000 0.0000 0.0000
# 3 32.4089 32.4105 206.7744 0.0000 0.0000 0.0000
# 4 0.0000 0.0000 0.0000 26.0046 0.0000 0.0000
# 5 0.0000 0.0000 0.0000 0.0000 26.0048 0.0000
# 6 0.0000 0.0000 0.0000 0.0000 0.0000 38.8624
#
#
#
# Elastic Compliance Matrix: (Units=1/GPa)
#
#
# Indices 1 2 3 4 5 6 
#
# 1 0.007063 -0.001980 -0.000797 0.000000 0.000000 0.000000
# 2 -0.001980 0.007063 -0.000797 0.000000 0.000000 0.000000
# 3 -0.000797 -0.000797 0.005086 0.000000 0.000000 0.000000
# 4 0.000000 0.000000 0.000000 0.038455 0.000000 0.000000
# 5 0.000000 0.000000 0.000000 0.000000 0.038454 0.000000
# 6 0.000000 0.000000 0.000000 0.000000 0.000000 0.025732
#
#
# Mechanical properties :
#
#
# Convention : Reuss Voigt Hill
#
# Bulk Modulus (GPa) = 82.88048 83.35294 83.11671
# Shear Modulus (GPa) = 37.58786 45.59249 41.59017
#
# Velocity S-wave (km/s) = 4.04286 4.45257 4.25265
# Velocity P-wave (km/s) = 7.60477 7.91701 7.76246
#
# Compressibility (1/GPa) = 0.01206557
#
# Stress axis : x y z
#
# Youngs Moduli (GPa) = 141.58033 141.58150 196.61989
#
# Poissons Ratio (x) = 0.28030 0.15665
# Poissons Ratio (y) = 0.28030 0.15666
# Poissons Ratio (z) = 0.11280 0.11281
#
# Static dielectric constant tensor:
#      x y z
#    x 1.946120 0.000000 0.000000 
#    y 0.000000 1.946120 0.000000 
#    z 0.000000 0.000000 1.803960 
# 
# From -- ./inp_files/10316.got.cif
#   From: 2010.05.17/outbox.cif.g08.bks.cpg/sg17_6_cif.got.tgz:10316.got - 2010.06.03 22:34:06.
