data_PCOD9311273
_publ_section_title
;
Structure prediction by ZEFSAII (Michael W. Deem and Ramdas Pophale) SiO2 
 PCOD9311273
Probable space group: P 2 2 21
;
_chemical_formula_sum "Si O2"
_cell_formula_units_Z 30
_cell_length_a 8.371723
_cell_length_b 4.756549
_cell_length_c 27.164896
_cell_angle_alpha 90.000000
_cell_angle_beta 90.000000
_cell_angle_gamma 90.000000
_cell_volume 1081.720031
_symmetry_space_group_name_H-M "P 2 2 21"
_symmetry_group_IT_number 17
_symmetry_cell_setting 'orthorhombic'
loop_
_space_group_symop_operation_xyz
x,y,z
-x,-y,1/2+z
x,-y,-z
-x,y,1/2-z
loop_
_atom_site_type_symbol
_atom_site_label
_atom_site_fract_x
_atom_site_fract_y
_atom_site_fract_z
Si Si1 0.302687 0.386061 0.378440
Si Si2 0.896629 0.909283 0.795865
Si Si3 0.306403 0.138532 0.550648
Si Si4 0.656964 0.236568 0.728825
Si Si5 0.633008 0.710385 0.662971
Si Si6 0.419251 0.500000 0.000000
Si Si7 0.111076 0.380550 0.049404
Si Si8 0.104937 0.080338 0.885114
O O1 0.196834 0.307109 0.331023
O O2 0.480487 0.449711 0.358780
O O3 0.465628 0.694757 0.467663
O O4 0.335207 0.114510 0.411974
O O5 0.775281 0.124384 0.770081
O O6 0.000000 0.793013 0.750000
O O7 0.009957 0.069103 0.834418
O O8 0.976841 0.881674 0.573548
O O9 0.228016 0.375502 0.586317
O O10 0.243307 0.000000 0.500000
O O11 0.500000 0.383761 0.750000
O O12 0.407520 0.959851 0.799046
O O13 0.729007 0.466933 0.691749
O O14 0.867377 0.373689 0.589177
O O15 0.738450 0.893012 0.625699
O O16 0.290191 0.312724 0.029566
O O17 0.028854 0.500000 0.000000
#
# Coordination Sequence:
#
# PCOD9311273 Si02
#       8
#     4   4   4   4   4   2   4   4
#     4  12  27  48  78 120 161 211 267 334 408 480
#     4  12  30  55  79 114 165 218 277 333 402 490
#     4  12  24  46  76 122 157 204 257 331 407 484
#     4  12  26  50  74 110 155 208 269 343 392 460
#     4  12  25  46  77 114 158 199 268 332 399 469
#     4  10  22  42  86 114 164 196 266 330 402 476
#     4  10  25  43  76 117 158 200 263 323 383 483
#     4  12  25  49  75 119 157 214 255 327 406 474
#
# _framework density 27.733612000000001
#
# number of rings (size 3 to 8) (size 9 to 14) (size 15 to 20)
#    0.400    0.000    4.000    4.000    1.867    2.133 
#    0.000    2.667    1.467    0.000    0.000    0.000 
#    0.000    0.000    0.000    0.000    0.000    0.000 
#
# Total GULP energy -168231.646223 kJ/mol
# GULP energy per Si atom -5607.721541 kJ/mol
# Density = 2.767049 g / cm^3
# Si number density = 27.733612 Si / 1000 Ang^3
#
#
#
# Elastic Constant Matrix: (Units=GPa)
#
#
# Indices 1 2 3 4 5 6 
#
# 1 109.0057 18.4190 57.4913 0.0000 0.0000 0.0000
# 2 18.4190 164.5282 64.1169 0.0000 0.0000 0.0000
# 3 57.4913 64.1169 206.5601 0.0000 0.0000 0.0000
# 4 0.0000 0.0000 0.0000 67.4258 0.0000 0.0000
# 5 0.0000 0.0000 0.0000 0.0000 48.5690 0.0000
# 6 0.0000 0.0000 0.0000 0.0000 0.0000 26.6189
#
#
#
# Elastic Compliance Matrix: (Units=1/GPa)
#
#
# Indices 1 2 3 4 5 6 
#
# 1 0.010752 -0.000043 -0.002979 0.000000 0.000000 0.000000
# 2 -0.000043 0.006915 -0.002134 0.000000 0.000000 0.000000
# 3 -0.002979 -0.002134 0.006333 0.000000 0.000000 0.000000
# 4 0.000000 0.000000 0.000000 0.014831 0.000000 0.000000
# 5 0.000000 0.000000 0.000000 0.000000 0.020589 0.000000
# 6 0.000000 0.000000 0.000000 0.000000 0.000000 0.037567
#
#
# Mechanical properties :
#
#
# Convention : Reuss Voigt Hill
#
# Bulk Modulus (GPa) = 73.06233 84.46092 78.76163
# Shear Modulus (GPa) = 44.69752 51.19387 47.94569
#
# Velocity S-wave (km/s) = 4.01892 4.30107 4.16239
# Velocity P-wave (km/s) = 6.92367 7.42873 7.18064
#
# Compressibility (1/GPa) = 0.01368694
#
# Stress axis : x y z
#
# Youngs Moduli (GPa) = 93.00202 144.62256 157.90288
#
# Poissons Ratio (x) = 0.00617 0.47047
# Poissons Ratio (y) = 0.00397 0.33703
# Poissons Ratio (z) = 0.27710 0.30869
#
# Static dielectric constant tensor:
#      x y z
#    x 2.220090 0.000000 0.000000 
#    y 0.000000 2.135290 0.000000 
#    z 0.000000 0.000000 2.285820 
# 
# From -- ./inp_files/11012.got.cif
#   From: 2010.05.17/outbox.cif.g08.bks.cpg/sg17_6_cif.got.tgz:11012.got - 2010.06.03 22:34:06.
