data_PCOD9311849
_publ_section_title
;
Structure prediction by ZEFSAII (Michael W. Deem and Ramdas Pophale) SiO2 
 PCOD9311849
Probable space group: P 21 21 2
;
_chemical_formula_sum "Si O2"
_cell_formula_units_Z 32
_cell_length_a 12.822709
_cell_length_b 13.865442
_cell_length_c 7.773889
_cell_angle_alpha 90.000000
_cell_angle_beta 90.000000
_cell_angle_gamma 90.000000
_cell_volume 1382.139377
_symmetry_space_group_name_H-M "P 21 21 2"
_symmetry_group_IT_number 18
_symmetry_cell_setting 'orthorhombic'
loop_
_space_group_symop_operation_xyz
x,y,z
-x,-y,z
1/2+x,1/2-y,-z
1/2-x,1/2+y,-z
loop_
_atom_site_type_symbol
_atom_site_label
_atom_site_fract_x
_atom_site_fract_y
_atom_site_fract_z
Si Si1 0.258341 0.338224 0.536820
Si Si2 0.957542 0.765821 0.933401
Si Si3 0.732835 0.828568 0.763285
Si Si4 0.060015 0.417598 0.720470
Si Si5 0.152811 0.191728 0.285485
Si Si6 0.851467 0.961671 0.548851
Si Si7 0.709849 0.953835 0.064784
Si Si8 0.406086 0.447206 0.086908
O O1 0.308946 0.267516 0.677866
O O2 0.144405 0.367647 0.601711
O O3 0.226697 0.274884 0.369056
O O4 0.323315 0.436283 0.532958
O O5 0.849310 0.803572 0.840322
O O6 0.987434 0.668197 0.834330
O O7 0.052784 0.839299 0.903296
O O8 0.922291 0.766533 0.134864
O O9 0.748343 0.905103 0.610775
O O10 0.674459 0.882951 0.913116
O O11 0.119145 0.485707 0.854984
O O12 0.000000 0.500000 0.615323
O O13 0.096963 0.122706 0.431607
O O14 0.229309 0.113764 0.197899
O O15 0.898796 0.997762 0.729883
O O16 0.795352 0.030868 0.996103
O O17 0.500000 0.500000 0.984987
#
# Coordination Sequence:
#
# PCOD9311849 Si02
#       8
#     4   4   4   4   4   4   4   4
#     4  10  21  38  62  94 131 170 214 272 334 390
#     4  10  21  42  63  93 133 170 215 273 321 391
#     4   8  18  36  61  88 129 165 212 266 319 385
#     4  11  25  46  65  90 136 182 220 266 333 403
#     4  10  20  38  66  96 127 165 215 276 327 387
#     4  10  19  35  62  93 124 170 212 266 338 379
#     4  10  20  41  70  90 127 175 220 274 323 395
#     4  11  20  40  65  99 132 166 218 277 336 384
#
# _framework density 23.152514
#
# number of rings (size 3 to 8) (size 9 to 14) (size 15 to 20)
#    0.000    2.000    5.000    0.000    3.500    1.000 
#    6.750    0.625    2.750    0.000    0.000    0.000 
#    0.000    0.000    0.000    0.000    0.000    0.000 
#
# Total GULP energy -178360.435903 kJ/mol
# GULP energy per Si atom -5573.763622 kJ/mol
# Density = 2.309982 g / cm^3
# Si number density = 23.152514 Si / 1000 Ang^3
#
#
#
# Elastic Constant Matrix: (Units=GPa)
#
#
# Indices 1 2 3 4 5 6 
#
# 1 6.6844 -9.9582 -23.6695 0.0000 0.0000 0.0000
# 2 -9.9582 95.1371 -6.7474 0.0000 0.0000 0.0000
# 3 -23.6695 -6.7474 36.8361 0.0000 0.0000 0.0000
# 4 0.0000 0.0000 0.0000 22.9398 0.0000 0.0000
# 5 0.0000 0.0000 0.0000 0.0000 3.1650 0.0000
# 6 0.0000 0.0000 0.0000 0.0000 0.0000 29.3320
#
#
#
# Elastic Compliance Matrix: (Units=1/GPa)
#
#
# Indices 1 2 3 4 5 6 
#
# 1 -0.093452 -0.014226 -0.062655 0.000000 0.000000 0.000000
# 2 -0.014226 0.008484 -0.007587 0.000000 0.000000 0.000000
# 3 -0.062655 -0.007587 -0.014502 0.000000 0.000000 0.000000
# 4 0.000000 0.000000 0.000000 0.043592 0.000000 0.000000
# 5 0.000000 0.000000 0.000000 0.000000 0.315960 0.000000
# 6 0.000000 0.000000 0.000000 0.000000 0.000000 0.034093
#
#
# Mechanical properties :
#
#
# Convention : Reuss Voigt Hill
#
# Bulk Modulus (GPa) = -3.72571 6.43415 1.35422
# Shear Modulus (GPa) = 13.38185 23.02286 18.20235
#
# Velocity S-wave (km/s) = 2.40674 3.15683 2.80696
# Velocity P-wave (km/s) = 2.47195 4.00905 3.33039
#
# Compressibility (1/GPa) = -0.26840513
#
# Stress axis : x y z
#
# Youngs Moduli (GPa) = -10.70062 117.86832 -68.95522
#
# Poissons Ratio (x) = 1.67674 -4.32038
# Poissons Ratio (y) = -0.15222 -0.52315
# Poissons Ratio (z) = -0.67045 0.89424
#
# Static dielectric constant tensor:
#      x y z
#    x 1.999450 0.000000 0.000000 
#    y 0.000000 2.056950 0.000000 
#    z 0.000000 0.000000 1.970890 
# 
# From -- ./inp_files/4297.got.cif
#   From: 2010.05.17/outbox.cif.g08.bks.cpg/sg18_3_cif.got.tgz:4297.got - 2010.06.03 22:40:56.
