data_PCOD9311311
_publ_section_title
;
Structure prediction by ZEFSAII (Michael W. Deem and Ramdas Pophale) SiO2 
 PCOD9311311
Probable space group: P 2 2 21
;
_chemical_formula_sum "Si O2"
_cell_formula_units_Z 16
_cell_length_a 6.228056
_cell_length_b 6.032292
_cell_length_c 19.177754
_cell_angle_alpha 90.000000
_cell_angle_beta 90.000000
_cell_angle_gamma 90.000000
_cell_volume 720.497716
_symmetry_space_group_name_H-M "P 2 2 21"
_symmetry_group_IT_number 17
_symmetry_cell_setting 'orthorhombic'
loop_
_space_group_symop_operation_xyz
x,y,z
-x,-y,1/2+z
x,-y,-z
-x,y,1/2-z
loop_
_atom_site_type_symbol
_atom_site_label
_atom_site_fract_x
_atom_site_fract_y
_atom_site_fract_z
Si Si1 0.343999 0.623474 0.068259
Si Si2 0.000000 0.953243 0.250000
Si Si3 0.000847 0.274852 0.372359
Si Si4 0.053250 0.000000 0.000000
Si Si5 0.340279 0.609815 0.311022
O O1 0.183063 0.447524 0.104815
O O2 0.522040 0.692680 0.123397
O O3 0.202918 0.828012 0.041646
O O4 0.436447 0.500000 0.000000
O O5 0.812928 0.798104 0.220219
O O6 0.920623 0.105852 0.313454
O O7 0.193832 0.410911 0.338534
O O8 0.070046 0.140353 0.441541
O O9 0.500000 0.536388 0.250000
#
# Coordination Sequence:
#
# PCOD9311311 Si02
#       5
#     4   2   4   2   4
#     4  10  24  45  69  99 133 170 218 273 328 391
#     4  12  26  42  68  98 132 178 220 268 328 388
#     4  11  24  45  68  97 135 173 219 274 327 390
#     4  10  22  46  72  96 132 174 216 270 334 390
#     4  12  25  43  67  99 134 174 222 272 326 388
#
# _framework density 22.206873000000002
#
# number of rings (size 3 to 8) (size 9 to 14) (size 15 to 20)
#    0.000    1.000    0.000    6.750    0.000   12.000 
#    0.000    5.000    0.000    0.000    0.000    0.000 
#    0.000    0.000    0.000    0.000    0.000    0.000 
#
# Total GULP energy -89632.987363 kJ/mol
# GULP energy per Si atom -5602.061710 kJ/mol
# Density = 2.215633 g / cm^3
# Si number density = 22.206873 Si / 1000 Ang^3
#
#
#
# Elastic Constant Matrix: (Units=GPa)
#
#
# Indices 1 2 3 4 5 6 
#
# 1 85.0646 56.4227 82.9372 0.0000 0.0000 0.0000
# 2 56.4227 139.0008 91.4019 0.0000 0.0000 0.0000
# 3 82.9372 91.4019 190.9735 0.0000 0.0000 0.0000
# 4 0.0000 0.0000 0.0000 67.5198 0.0000 0.0000
# 5 0.0000 0.0000 0.0000 0.0000 42.5259 0.0000
# 6 0.0000 0.0000 0.0000 0.0000 0.0000 21.5173
#
#
#
# Elastic Compliance Matrix: (Units=1/GPa)
#
#
# Indices 1 2 3 4 5 6 
#
# 1 0.021688 -0.003809 -0.007596 0.000000 0.000000 0.000000
# 2 -0.003809 0.011167 -0.003691 0.000000 0.000000 0.000000
# 3 -0.007596 -0.003691 0.010301 0.000000 0.000000 0.000000
# 4 0.000000 0.000000 0.000000 0.014810 0.000000 0.000000
# 5 0.000000 0.000000 0.000000 0.000000 0.023515 0.000000
# 6 0.000000 0.000000 0.000000 0.000000 0.000000 0.046474
#
#
# Mechanical properties :
#
#
# Convention : Reuss Voigt Hill
#
# Bulk Modulus (GPa) = 77.12429 97.39584 87.26007
# Shear Modulus (GPa) = 30.77514 38.59774 34.68644
#
# Velocity S-wave (km/s) = 3.72672 4.17357 3.95646
# Velocity P-wave (km/s) = 7.30228 8.19625 7.76215
#
# Compressibility (1/GPa) = 0.01296608
#
# Stress axis : x y z
#
# Youngs Moduli (GPa) = 46.10842 89.54938 97.07349
#
# Poissons Ratio (x) = 0.34107 0.73736
# Poissons Ratio (y) = 0.17561 0.35826
# Poissons Ratio (z) = 0.35024 0.33049
#
# Static dielectric constant tensor:
#      x y z
#    x 1.786450 0.000000 0.000000 
#    y 0.000000 1.806170 0.000000 
#    z 0.000000 0.000000 1.821010 
# 
# From -- ./inp_files/9813.got.cif
#   From: 2010.05.17/outbox.cif.g08.bks.cpg/sg17_5_cif.got.tgz:9813.got - 2010.06.03 22:34:06.
