data_PCOD9311113
_publ_section_title
;
Structure prediction by ZEFSAII (Michael W. Deem and Ramdas Pophale) SiO2 
 PCOD9311113
Probable space group: P 2 2 21
;
_chemical_formula_sum "Si O2"
_cell_formula_units_Z 16
_cell_length_a 5.274852
_cell_length_b 23.110999
_cell_length_c 5.205096
_cell_angle_alpha 90.000000
_cell_angle_beta 90.000000
_cell_angle_gamma 90.000000
_cell_volume 634.538155
_symmetry_space_group_name_H-M "P 2 2 21"
_symmetry_group_IT_number 17
_symmetry_cell_setting 'orthorhombic'
loop_
_space_group_symop_operation_xyz
x,y,z
-x,-y,1/2+z
x,-y,-z
-x,y,1/2-z
loop_
_atom_site_type_symbol
_atom_site_label
_atom_site_fract_x
_atom_site_fract_y
_atom_site_fract_z
Si Si1 0.322136 0.500000 0.000000
Si Si2 0.749374 0.933465 0.084435
Si Si3 0.321016 0.625806 0.002224
Si Si4 0.747996 0.190198 0.929402
Si Si5 0.000000 0.282392 0.250000
O O1 0.500000 0.500063 0.750000
O O2 0.188524 0.562254 0.005881
O O3 0.500000 0.927859 0.250000
O O4 0.746956 0.873127 0.928775
O O5 0.000000 0.929876 0.250000
O O6 0.745122 0.000000 0.000000
O O7 0.500000 0.627532 0.750000
O O8 0.119085 0.676130 0.964598
O O9 0.500000 0.632364 0.250000
O O10 0.500000 0.196670 0.750000
O O11 0.000000 0.192156 0.750000
O O12 0.786435 0.240999 0.131357
#
# Coordination Sequence:
#
# PCOD9311113 Si02
#       5
#     2   4   4   4   2
#     4   8  16  40  68 100 144 188 246 318 384 452
#     4  10  21  41  67  99 136 182 242 309 377 446
#     4  10  24  44  73 107 147 198 255 319 388 464
#     4  10  26  47  69 105 151 195 251 316 382 461
#     4  12  28  42  76 106 144 206 250 314 384 472
#
# _framework density 25.215185999999999
#
# number of rings (size 3 to 8) (size 9 to 14) (size 15 to 20)
#    0.000    2.000    0.000    0.750    8.750    0.000 
#    0.000    7.500    0.000    0.000    0.000    0.000 
#    0.000    0.000    0.000    0.000    0.000    0.000 
#
# Total GULP energy -89506.085838 kJ/mol
# GULP energy per Si atom -5594.130365 kJ/mol
# Density = 2.515779 g / cm^3
# Si number density = 25.215186 Si / 1000 Ang^3
#
#
#
# Elastic Constant Matrix: (Units=GPa)
#
#
# Indices 1 2 3 4 5 6 
#
# 1 147.1292 53.2474 43.7697 0.0000 0.0000 0.0000
# 2 53.2474 301.9865 55.1674 0.0000 0.0000 0.0000
# 3 43.7697 55.1674 120.3878 0.0000 0.0000 0.0000
# 4 0.0000 0.0000 0.0000 26.3008 0.0000 0.0000
# 5 0.0000 0.0000 0.0000 0.0000 52.1184 0.0000
# 6 0.0000 0.0000 0.0000 0.0000 0.0000 295.5293
#
#
#
# Elastic Compliance Matrix: (Units=1/GPa)
#
#
# Indices 1 2 3 4 5 6 
#
# 1 0.007859 -0.000943 -0.002425 0.000000 0.000000 0.000000
# 2 -0.000943 0.003727 -0.001365 0.000000 0.000000 0.000000
# 3 -0.002425 -0.001365 0.009814 0.000000 0.000000 0.000000
# 4 0.000000 0.000000 0.000000 0.038022 0.000000 0.000000
# 5 0.000000 0.000000 0.000000 0.000000 0.019187 0.000000
# 6 0.000000 0.000000 0.000000 0.000000 0.000000 0.003384
#
#
# Mechanical properties :
#
#
# Convention : Reuss Voigt Hill
#
# Bulk Modulus (GPa) = 83.79638 97.09692 90.44665
# Shear Modulus (GPa) = 52.39025 102.61096 77.50060
#
# Velocity S-wave (km/s) = 4.56315 6.38611 5.54999
# Velocity P-wave (km/s) = 7.81459 9.64197 8.77597
#
# Compressibility (1/GPa) = 0.01193369
#
# Stress axis : x y z
#
# Youngs Moduli (GPa) = 127.23472 268.31097 101.89617
#
# Poissons Ratio (x) = 0.25294 0.24715
# Poissons Ratio (y) = 0.11995 0.13910
# Poissons Ratio (z) = 0.30861 0.36628
#
# Static dielectric constant tensor:
#      x y z
#    x 1.955300 0.000000 0.000000 
#    y 0.000000 2.115500 0.000000 
#    z 0.000000 0.000000 2.001590 
# 
# From -- ./inp_files/254.got.cif
#   From: 2010.05.17/outbox.cif.g08.bks.cpg/sg17_1_cif.got.tgz:254.got - 2010.06.03 22:34:06.
