data_PCOD9311943
_publ_section_title
;
Structure prediction by ZEFSAII (Michael W. Deem and Ramdas Pophale) SiO2 
 PCOD9311943
Probable space group: P 21 21 2
;
_chemical_formula_sum "Si O2"
_cell_formula_units_Z 24
_cell_length_a 11.053184
_cell_length_b 7.958930
_cell_length_c 11.707638
_cell_angle_alpha 90.000000
_cell_angle_beta 90.000000
_cell_angle_gamma 90.000000
_cell_volume 1029.938684
_symmetry_space_group_name_H-M "P 21 21 2"
_symmetry_group_IT_number 18
_symmetry_cell_setting 'orthorhombic'
loop_
_space_group_symop_operation_xyz
x,y,z
-x,-y,z
1/2+x,1/2-y,-z
1/2-x,1/2+y,-z
loop_
_atom_site_type_symbol
_atom_site_label
_atom_site_fract_x
_atom_site_fract_y
_atom_site_fract_z
Si Si1 0.754952 0.032903 0.820001
Si Si2 0.523729 0.236323 0.825364
Si Si3 0.406469 0.347521 0.597495
Si Si4 0.676992 0.170265 0.265031
Si Si5 0.063660 0.813713 0.657277
Si Si6 0.174108 0.949976 0.077304
O O1 0.615978 0.083671 0.837041
O O2 0.826297 0.172606 0.745951
O O3 0.777331 0.862112 0.752173
O O4 0.813079 0.015225 0.944786
O O5 0.471611 0.240945 0.697009
O O6 0.608891 0.397819 0.856664
O O7 0.409129 0.283754 0.904936
O O8 0.500000 0.500000 0.585856
O O9 0.274695 0.400796 0.644890
O O10 0.394665 0.273370 0.471118
O O11 0.540360 0.185960 0.304285
O O12 0.701119 0.083997 0.143262
O O13 0.000000 0.000000 0.658745
#
# Coordination Sequence:
#
# PCOD9311943 Si02
#       6
#     4   4   4   4   4   4
#     4  11  23  36  63  93 124 153 206 260 302 355
#     4  10  21  38  61  85 119 163 197 243 313 355
#     4  10  19  41  63  85 118 163 204 249 310 373
#     4  10  21  40  64  92 115 163 207 247 307 369
#     4   9  22  37  62  91 122 157 201 257 313 361
#     4  10  21  38  63  85 121 163 195 243 305 380
#
# _framework density 23.302358000000002
#
# number of rings (size 3 to 8) (size 9 to 14) (size 15 to 20)
#    0.000    2.000    3.333    1.000   11.667    2.667 
#    0.000    0.833    3.667    0.000    0.000    0.000 
#    0.000    0.000    0.000    0.000    0.000    0.000 
#
# Total GULP energy -134042.645538 kJ/mol
# GULP energy per Si atom -5585.110231 kJ/mol
# Density = 2.324932 g / cm^3
# Si number density = 23.302358 Si / 1000 Ang^3
#
#
#
# Elastic Constant Matrix: (Units=GPa)
#
#
# Indices 1 2 3 4 5 6 
#
# 1 82.6157 8.4840 53.6832 0.0000 0.0000 0.0000
# 2 8.4840 51.8855 4.5572 0.0000 0.0000 0.0000
# 3 53.6832 4.5572 137.4966 0.0000 0.0000 0.0000
# 4 0.0000 0.0000 0.0000 7.1552 0.0000 0.0000
# 5 0.0000 0.0000 0.0000 0.0000 13.7427 0.0000
# 6 0.0000 0.0000 0.0000 0.0000 0.0000 39.5442
#
#
#
# Elastic Compliance Matrix: (Units=1/GPa)
#
#
# Indices 1 2 3 4 5 6 
#
# 1 0.016451 -0.002132 -0.006352 0.000000 0.000000 0.000000
# 2 -0.002132 0.019606 0.000183 0.000000 0.000000 0.000000
# 3 -0.006352 0.000183 0.009747 0.000000 0.000000 0.000000
# 4 0.000000 0.000000 0.000000 0.139758 0.000000 0.000000
# 5 0.000000 0.000000 0.000000 0.000000 0.072766 0.000000
# 6 0.000000 0.000000 0.000000 0.000000 0.000000 0.025288
#
#
# Mechanical properties :
#
#
# Convention : Reuss Voigt Hill
#
# Bulk Modulus (GPa) = 34.24630 45.04961 39.64795
# Shear Modulus (GPa) = 16.13147 25.77331 20.95239
#
# Velocity S-wave (km/s) = 2.63395 3.32932 3.00184
# Velocity P-wave (km/s) = 4.89680 5.84413 5.39131
#
# Compressibility (1/GPa) = 0.02920024
#
# Stress axis : x y z
#
# Youngs Moduli (GPa) = 60.78706 51.00534 102.59564
#
# Poissons Ratio (x) = 0.10874 0.65172
# Poissons Ratio (y) = 0.12960 -0.01873
# Poissons Ratio (z) = 0.38614 -0.00931
#
# Static dielectric constant tensor:
#      x y z
#    x 1.893430 0.000000 0.000000 
#    y 0.000000 2.023200 0.000000 
#    z 0.000000 0.000000 1.822060 
# 
# From -- ./inp_files/5834.got.cif
#   From: 2010.05.17/outbox.cif.g08.bks.cpg/sg18_3_cif.got.tgz:5834.got - 2010.06.03 22:40:56.
