data_PCOD9311242
_publ_section_title
;
Structure prediction by ZEFSAII (Michael W. Deem and Ramdas Pophale) SiO2 
 PCOD9311242
Probable space group: P 2 2 21
;
_chemical_formula_sum "Si O2"
_cell_formula_units_Z 28
_cell_length_a 20.907415
_cell_length_b 5.560068
_cell_length_c 11.015859
_cell_angle_alpha 90.000000
_cell_angle_beta 90.000000
_cell_angle_gamma 90.000000
_cell_volume 1280.556696
_symmetry_space_group_name_H-M "P 2 2 21"
_symmetry_group_IT_number 17
_symmetry_cell_setting 'orthorhombic'
loop_
_space_group_symop_operation_xyz
x,y,z
-x,-y,1/2+z
x,-y,-z
-x,y,1/2-z
loop_
_atom_site_type_symbol
_atom_site_label
_atom_site_fract_x
_atom_site_fract_y
_atom_site_fract_z
Si Si1 0.037295 0.415711 0.878703
Si Si2 0.606076 0.627647 0.372145
Si Si3 0.736299 0.500000 0.000000
Si Si4 0.071321 0.094111 0.193109
Si Si5 0.436982 0.782230 0.685483
Si Si6 0.514676 0.000000 0.500000
Si Si7 0.811461 0.123432 0.130923
Si Si8 0.314688 0.131888 0.687239
O O1 0.083030 0.647606 0.869346
O O2 0.000000 0.405900 0.750000
O O3 0.068964 0.152581 0.883428
O O4 0.998057 0.500000 0.000000
O O5 0.617949 0.500000 0.500000
O O6 0.576085 0.452816 0.267910
O O7 0.669574 0.716308 0.306052
O O8 0.561983 0.850951 0.412133
O O9 0.783638 0.613628 0.899922
O O10 0.692982 0.301441 0.932042
O O11 0.123817 0.086222 0.297631
O O12 0.000000 0.108848 0.250000
O O13 0.500000 0.891729 0.750000
O O14 0.466926 0.791640 0.550804
O O15 0.373200 0.942607 0.679619
O O16 0.752614 0.998219 0.198357
O O17 0.818489 0.000000 0.000000
#
# Coordination Sequence:
#
# PCOD9311242 Si02
#       8
#     4   4   2   4   4   2   4   4
#     4  10  22  41  70 108 154 194 243 298 367 444
#     4  12  25  46  69  99 144 194 244 306 380 452
#     4  10  24  46  74 100 146 188 250 302 374 440
#     4  10  23  42  72 109 148 189 243 305 372 439
#     4  12  26  44  69 106 139 189 246 309 373 439
#     4  12  28  44  70 104 146 190 248 310 384 456
#     4  10  24  45  71 105 143 192 246 304 367 448
#     4  11  25  45  68 106 142 186 247 305 371 442
#
# _framework density 21.865490000000001
#
# number of rings (size 3 to 8) (size 9 to 14) (size 15 to 20)
#    0.000    1.143    2.857    1.286   11.000    4.571 
#    1.286    0.714    9.429    0.000    0.000    0.000 
#    0.000    0.000    0.000    0.000    0.000    0.000 
#
# Total GULP energy -155948.935038 kJ/mol
# GULP energy per Si atom -5569.604823 kJ/mol
# Density = 2.181572 g / cm^3
# Si number density = 21.865490 Si / 1000 Ang^3
#
#
#
# Elastic Constant Matrix: (Units=GPa)
#
#
# Indices 1 2 3 4 5 6 
#
# 1 148.0953 45.7259 50.9642 0.0000 0.0000 0.0000
# 2 45.7259 152.7020 48.6997 0.0000 0.0000 0.0000
# 3 50.9642 48.6997 96.1219 0.0000 0.0000 0.0000
# 4 0.0000 0.0000 0.0000 43.6468 0.0000 0.0000
# 5 0.0000 0.0000 0.0000 0.0000 37.7962 0.0000
# 6 0.0000 0.0000 0.0000 0.0000 0.0000 6.5600
#
#
#
# Elastic Compliance Matrix: (Units=1/GPa)
#
#
# Indices 1 2 3 4 5 6 
#
# 1 0.008476 -0.001318 -0.003826 0.000000 0.000000 0.000000
# 2 -0.001318 0.008016 -0.003362 0.000000 0.000000 0.000000
# 3 -0.003826 -0.003362 0.014136 0.000000 0.000000 0.000000
# 4 0.000000 0.000000 0.000000 0.022911 0.000000 0.000000
# 5 0.000000 0.000000 0.000000 0.000000 0.026458 0.000000
# 6 0.000000 0.000000 0.000000 0.000000 0.000000 0.152440
#
#
# Mechanical properties :
#
#
# Convention : Reuss Voigt Hill
#
# Bulk Modulus (GPa) = 73.45206 76.41099 74.93153
# Shear Modulus (GPa) = 19.68603 34.36922 27.02763
#
# Velocity S-wave (km/s) = 3.00380 3.96895 3.51962
# Velocity P-wave (km/s) = 6.75988 7.48500 7.13166
#
# Compressibility (1/GPa) = 0.01361432
#
# Stress axis : x y z
#
# Youngs Moduli (GPa) = 117.97919 124.75605 70.74262
#
# Poissons Ratio (x) = 0.16440 0.27069
# Poissons Ratio (y) = 0.15547 0.23786
# Poissons Ratio (z) = 0.45143 0.41948
#
# Static dielectric constant tensor:
#      x y z
#    x 1.738470 0.000000 0.000000 
#    y 0.000000 1.919280 0.000000 
#    z 0.000000 0.000000 2.030300 
# 
# From -- ./inp_files/7402.got.cif
#   From: 2010.05.17/outbox.cif.g08.bks.cpg/sg17_4_cif.got.tgz:7402.got - 2010.06.03 22:34:06.
