data_PCOD9311067
_publ_section_title
;
Structure prediction by ZEFSAII (Michael W. Deem and Ramdas Pophale) SiO2 
 PCOD9311067
Probable space group: P 2 2 21
;
_chemical_formula_sum "Si O2"
_cell_formula_units_Z 32
_cell_length_a 13.182505
_cell_length_b 12.645592
_cell_length_c 8.817376
_cell_angle_alpha 90.000000
_cell_angle_beta 90.000000
_cell_angle_gamma 90.000000
_cell_volume 1469.861691
_symmetry_space_group_name_H-M "P 2 2 21"
_symmetry_group_IT_number 17
_symmetry_cell_setting 'orthorhombic'
loop_
_space_group_symop_operation_xyz
x,y,z
-x,-y,1/2+z
x,-y,-z
-x,y,1/2-z
loop_
_atom_site_type_symbol
_atom_site_label
_atom_site_fract_x
_atom_site_fract_y
_atom_site_fract_z
Si Si1 0.312625 0.936933 0.867902
Si Si2 0.943715 0.257136 0.610638
Si Si3 0.122850 0.618481 0.553462
Si Si4 0.240385 0.309622 0.703795
Si Si5 0.311493 0.911824 0.394942
Si Si6 0.501454 0.806251 0.932083
Si Si7 0.622028 0.622070 0.466407
Si Si8 0.799707 0.264708 0.343813
O O1 0.404218 0.880898 0.956896
O O2 0.252384 0.842472 0.783505
O O3 0.352437 0.018379 0.743750
O O4 0.253666 0.000000 0.000000
O O5 0.863222 0.332101 0.701147
O O6 0.871443 0.217908 0.476608
O O7 0.000000 0.196834 0.750000
O O8 0.033045 0.312257 0.517303
O O9 0.097453 0.500000 0.500000
O O10 0.226142 0.643029 0.461804
O O11 0.142941 0.659843 0.723980
O O12 0.248346 0.183605 0.678562
O O13 0.332503 0.354715 0.800266
O O14 0.400964 0.858424 0.492163
O O15 0.257108 0.000000 0.500000
O O16 0.500000 0.794589 0.750000
O O17 0.475997 0.693647 0.005170
O O18 0.605569 0.500000 0.500000
O O19 0.710059 0.666875 0.579164
#
# Coordination Sequence:
#
# PCOD9311067 Si02
#       8
#     4   4   4   4   4   4   4   4
#     4  11  23  39  66  95 125 168 216 271 339 392
#     4   9  20  38  61  90 130 163 207 266 318 380
#     4  11  22  37  64  98 128 169 216 267 327 389
#     4  10  23  40  60  94 127 163 219 265 319 399
#     4  12  23  41  66  90 126 170 212 277 336 380
#     4  11  24  40  61  96 128 157 226 282 318 390
#     4  10  22  42  62  85 130 183 209 262 335 396
#     4  10  21  39  64  95 134 166 220 271 322 394
#
# _framework density 21.770755999999999
#
# number of rings (size 3 to 8) (size 9 to 14) (size 15 to 20)
#    0.000    1.500    1.250    4.500    1.750    7.500 
#    2.250    0.000    0.000   28.500    0.000    0.000 
#    0.000    0.000    0.000    0.000    0.000    0.000 
#
# Total GULP energy -178338.747199 kJ/mol
# GULP energy per Si atom -5573.085850 kJ/mol
# Density = 2.172121 g / cm^3
# Si number density = 21.770756 Si / 1000 Ang^3
#
#
#
# Elastic Constant Matrix: (Units=GPa)
#
#
# Indices 1 2 3 4 5 6 
#
# 1 39.2815 13.5329 18.5465 0.0000 0.0000 0.0000
# 2 13.5329 74.5050 14.5152 0.0000 0.0000 0.0000
# 3 18.5465 14.5152 96.9765 0.0000 0.0000 0.0000
# 4 0.0000 0.0000 0.0000 30.0079 0.0000 0.0000
# 5 0.0000 0.0000 0.0000 0.0000 31.2048 0.0000
# 6 0.0000 0.0000 0.0000 0.0000 0.0000 5.5822
#
#
#
# Elastic Compliance Matrix: (Units=1/GPa)
#
#
# Indices 1 2 3 4 5 6 
#
# 1 0.029296 -0.004357 -0.004951 0.000000 0.000000 0.000000
# 2 -0.004357 0.014473 -0.001333 0.000000 0.000000 0.000000
# 3 -0.004951 -0.001333 0.011458 0.000000 0.000000 0.000000
# 4 0.000000 0.000000 0.000000 0.033325 0.000000 0.000000
# 5 0.000000 0.000000 0.000000 0.000000 0.032046 0.000000
# 6 0.000000 0.000000 0.000000 0.000000 0.000000 0.179142
#
#
# Mechanical properties :
#
#
# Convention : Reuss Voigt Hill
#
# Bulk Modulus (GPa) = 29.45861 33.77246 31.61554
# Shear Modulus (GPa) = 15.04503 24.30354 19.67428
#
# Velocity S-wave (km/s) = 2.63167 3.34479 3.00943
# Velocity P-wave (km/s) = 4.77440 5.51935 5.16034
#
# Compressibility (1/GPa) = 0.03394593
#
# Stress axis : x y z
#
# Youngs Moduli (GPa) = 34.13481 69.09438 87.27446
#
# Poissons Ratio (x) = 0.30102 0.43206
# Poissons Ratio (y) = 0.14871 0.11634
# Poissons Ratio (z) = 0.16899 0.09211
#
# Static dielectric constant tensor:
#      x y z
#    x 1.821960 0.000000 0.000000 
#    y 0.000000 1.833050 0.000000 
#    z 0.000000 0.000000 1.881930 
# 
# From -- ./inp_files/5250.got.cif
#   From: 2010.05.17/outbox.cif.g08.bks.cpg/sg17_3_cif.got.tgz:5250.got - 2010.06.03 22:34:06.
