data_PCOD9311013
_publ_section_title
;
Structure prediction by ZEFSAII (Michael W. Deem and Ramdas Pophale) SiO2 
 PCOD9311013
Probable space group: P 2 2 21
;
_chemical_formula_sum "Si O2"
_cell_formula_units_Z 24
_cell_length_a 5.421953
_cell_length_b 8.719535
_cell_length_c 23.634639
_cell_angle_alpha 90.000000
_cell_angle_beta 90.000000
_cell_angle_gamma 90.000000
_cell_volume 1117.372676
_symmetry_space_group_name_H-M "P 2 2 21"
_symmetry_group_IT_number 17
_symmetry_cell_setting 'orthorhombic'
loop_
_space_group_symop_operation_xyz
x,y,z
-x,-y,1/2+z
x,-y,-z
-x,y,1/2-z
loop_
_atom_site_type_symbol
_atom_site_label
_atom_site_fract_x
_atom_site_fract_y
_atom_site_fract_z
Si Si1 0.009121 0.009070 0.682620
Si Si2 0.224779 0.609008 0.601765
Si Si3 0.178341 0.819230 0.503819
Si Si4 0.506591 0.173707 0.317970
Si Si5 0.947577 0.688098 0.387316
Si Si6 0.565114 0.383010 0.536360
O O1 0.000000 0.021672 0.750000
O O2 0.989715 0.176007 0.655586
O O3 0.772745 0.900742 0.667302
O O4 0.278213 0.940748 0.668842
O O5 0.101582 0.743667 0.563650
O O6 0.421267 0.680233 0.645299
O O7 0.048157 0.480178 0.628808
O O8 0.364074 0.508169 0.554991
O O9 0.049284 0.745704 0.448780
O O10 0.463693 0.766063 0.495344
O O11 0.148042 0.000000 0.500000
O O12 0.500000 0.203824 0.250000
O O13 0.663961 0.670093 0.403273
O O14 0.737588 0.500000 0.500000
#
# Coordination Sequence:
#
# PCOD9311013 Si02
#       6
#     4   4   4   4   4   4
#     4  10  24  44  68  93 129 174 220 271 324 391
#     4  10  22  38  62  92 128 168 213 273 325 398
#     4  10  21  37  59  89 127 166 223 265 328 395
#     4  10  23  46  68  95 129 172 221 274 327 383
#     4  11  22  38  62  90 131 171 213 272 332 392
#     4   9  20  37  55  86 126 165 208 262 328 390
#
# _framework density 21.478957000000001
#
# number of rings (size 3 to 8) (size 9 to 14) (size 15 to 20)
#    0.000    2.000    0.000    3.500    9.333    0.667 
#    6.000    0.000    0.000    0.000    0.000    0.000 
#    0.000    0.000    0.000    0.000    0.000    0.000 
#
# Total GULP energy -133643.390152 kJ/mol
# GULP energy per Si atom -5568.474590 kJ/mol
# Density = 2.143007 g / cm^3
# Si number density = 21.478957 Si / 1000 Ang^3
#
#
#
# Elastic Constant Matrix: (Units=GPa)
#
#
# Indices 1 2 3 4 5 6 
#
# 1 51.2030 18.8585 18.2324 0.0000 0.0000 0.0000
# 2 18.8585 123.3284 35.4232 0.0000 0.0000 0.0000
# 3 18.2324 35.4232 34.1958 0.0000 0.0000 0.0000
# 4 0.0000 0.0000 0.0000 46.3691 0.0000 0.0000
# 5 0.0000 0.0000 0.0000 0.0000 19.7317 0.0000
# 6 0.0000 0.0000 0.0000 0.0000 0.0000 22.3339
#
#
#
# Elastic Compliance Matrix: (Units=1/GPa)
#
#
# Indices 1 2 3 4 5 6 
#
# 1 0.024107 0.000008 -0.012861 0.000000 0.000000 0.000000
# 2 0.000008 0.011543 -0.011961 0.000000 0.000000 0.000000
# 3 -0.012861 -0.011961 0.048491 0.000000 0.000000 0.000000
# 4 0.000000 0.000000 0.000000 0.021566 0.000000 0.000000
# 5 0.000000 0.000000 0.000000 0.000000 0.050680 0.000000
# 6 0.000000 0.000000 0.000000 0.000000 0.000000 0.044775
#
#
# Mechanical properties :
#
#
# Convention : Reuss Voigt Hill
#
# Bulk Modulus (GPa) = 28.97590 39.30615 34.14102
# Shear Modulus (GPa) = 19.06245 26.76781 22.91513
#
# Velocity S-wave (km/s) = 2.98232 3.53403 3.26983
# Velocity P-wave (km/s) = 5.03772 5.91541 5.49412
#
# Compressibility (1/GPa) = 0.03451144
#
# Stress axis : x y z
#
# Youngs Moduli (GPa) = 41.48187 86.63378 20.62219
#
# Poissons Ratio (x) = -0.00068 0.26523
# Poissons Ratio (y) = -0.00033 0.24667
# Poissons Ratio (z) = 0.53352 1.03626
#
# Static dielectric constant tensor:
#      x y z
#    x 2.046500 0.000000 0.000000 
#    y 0.000000 1.822810 0.000000 
#    z 0.000000 0.000000 1.857260 
# 
# From -- ./inp_files/10400.got.cif
#   From: 2010.05.17/outbox.cif.g08.bks.cpg/sg17_6_cif.got.tgz:10400.got - 2010.06.03 22:34:06.
