data_PCOD9311810
_publ_section_title
;
Structure prediction by ZEFSAII (Michael W. Deem and Ramdas Pophale) SiO2 
 PCOD9311810
Probable space group: P 21 21 2
;
_chemical_formula_sum "Si O2"
_cell_formula_units_Z 32
_cell_length_a 13.220928
_cell_length_b 5.126022
_cell_length_c 22.536720
_cell_angle_alpha 90.000000
_cell_angle_beta 90.000000
_cell_angle_gamma 90.000000
_cell_volume 1527.330818
_symmetry_space_group_name_H-M "P 21 21 2"
_symmetry_group_IT_number 18
_symmetry_cell_setting 'orthorhombic'
loop_
_space_group_symop_operation_xyz
x,y,z
-x,-y,z
1/2+x,1/2-y,-z
1/2-x,1/2+y,-z
loop_
_atom_site_type_symbol
_atom_site_label
_atom_site_fract_x
_atom_site_fract_y
_atom_site_fract_z
Si Si1 0.272379 0.111907 0.364550
Si Si2 0.809147 0.996015 0.483861
Si Si3 0.394479 0.612266 0.397568
Si Si4 0.107560 0.136042 0.986740
Si Si5 0.381271 0.974475 0.134744
Si Si6 0.730529 0.114441 0.922822
Si Si7 0.618542 0.994684 0.818018
Si Si8 0.283160 0.477622 0.768725
O O1 0.185881 0.049091 0.413612
O O2 0.310672 0.405689 0.374987
O O3 0.361415 0.902052 0.379419
O O4 0.241218 0.065497 0.297437
O O5 0.718228 0.796743 0.503105
O O6 0.892928 0.907076 0.530642
O O7 0.500000 0.500000 0.374723
O O8 0.115814 0.297455 0.925101
O O9 0.205953 0.955711 0.981051
O O10 0.127928 0.269321 0.049422
O O11 0.000000 0.000000 0.986265
O O12 0.318948 0.905563 0.194234
O O13 0.500000 0.000000 0.149705
O O14 0.316864 0.224005 0.112139
O O15 0.683670 0.911798 0.876290
O O16 0.658842 0.281453 0.800477
O O17 0.500000 0.000000 0.828696
O O18 0.647403 0.778598 0.769884
#
# Coordination Sequence:
#
# PCOD9311810 Si02
#       8
#     4   4   4   4   4   4   4   4
#     4  10  20  37  59  85 122 167 209 251 311 378
#     4   8  16  31  53  79 113 157 194 240 301 357
#     4  10  19  33  56  88 125 158 206 261 312 366
#     4  12  23  39  64  90 123 157 201 257 318 379
#     4  11  23  39  59  86 122 162 202 253 310 374
#     4  11  24  39  63  90 120 158 204 253 318 384
#     4  11  25  45  68  90 123 160 213 263 319 371
#     4  11  24  43  66  93 124 170 210 260 311 375
#
# _framework density 20.951584
#
# number of rings (size 3 to 8) (size 9 to 14) (size 15 to 20)
#    0.000    1.500    3.750    1.500    0.000    4.500 
#    0.000    1.875    0.000    0.000    0.000    0.000 
#    0.000    0.000    0.000    0.000    0.000    0.000 
#
# Total GULP energy -178223.827334 kJ/mol
# GULP energy per Si atom -5569.494604 kJ/mol
# Density = 2.090390 g / cm^3
# Si number density = 20.951584 Si / 1000 Ang^3
#
#
#
# Elastic Constant Matrix: (Units=GPa)
#
#
# Indices 1 2 3 4 5 6 
#
# 1 105.5521 18.5700 39.0667 0.0000 0.0000 0.0000
# 2 18.5700 54.8491 -7.0653 0.0000 0.0000 0.0000
# 3 39.0667 -7.0653 98.6574 0.0000 0.0000 0.0000
# 4 0.0000 0.0000 0.0000 25.3742 0.0000 0.0000
# 5 0.0000 0.0000 0.0000 0.0000 11.0634 0.0000
# 6 0.0000 0.0000 0.0000 0.0000 0.0000 22.4658
#
#
#
# Elastic Compliance Matrix: (Units=1/GPa)
#
#
# Indices 1 2 3 4 5 6 
#
# 1 0.012243 -0.004814 -0.005193 0.000000 0.000000 0.000000
# 2 -0.004814 0.020294 0.003360 0.000000 0.000000 0.000000
# 3 -0.005193 0.003360 0.012433 0.000000 0.000000 0.000000
# 4 0.000000 0.000000 0.000000 0.039410 0.000000 0.000000
# 5 0.000000 0.000000 0.000000 0.000000 0.090388 0.000000
# 6 0.000000 0.000000 0.000000 0.000000 0.000000 0.044512
#
#
# Mechanical properties :
#
#
# Convention : Reuss Voigt Hill
#
# Bulk Modulus (GPa) = 31.56950 40.02240 35.79595
# Shear Modulus (GPa) = 20.56487 25.67982 23.12235
#
# Velocity S-wave (km/s) = 3.13636 3.50476 3.32566
# Velocity P-wave (km/s) = 5.31189 5.96000 5.64525
#
# Compressibility (1/GPa) = 0.03167614
#
# Stress axis : x y z
#
# Youngs Moduli (GPa) = 81.68050 49.27465 80.43167
#
# Poissons Ratio (x) = 0.23720 0.41766
# Poissons Ratio (y) = 0.39320 -0.27022
# Poissons Ratio (z) = 0.42414 -0.16554
#
# Static dielectric constant tensor:
#      x y z
#    x 1.733900 0.000000 0.000000 
#    y 0.000000 1.812080 0.000000 
#    z 0.000000 0.000000 1.773570 
# 
# From -- ./inp_files/7646.got.cif
#   From: 2010.05.17/outbox.cif.g08.bks.cpg/sg18_4_cif.got.tgz:7646.got - 2010.06.03 22:40:56.
