data_PCOD9311997
_publ_section_title
;
Structure prediction by ZEFSAII (Michael W. Deem and Ramdas Pophale) SiO2 
 PCOD9311997
Probable space group: P 21 21 2
;
_chemical_formula_sum "Si O2"
_cell_formula_units_Z 30
_cell_length_a 8.503840
_cell_length_b 24.060349
_cell_length_c 6.180360
_cell_angle_alpha 90.000000
_cell_angle_beta 90.000000
_cell_angle_gamma 90.000000
_cell_volume 1264.534772
_symmetry_space_group_name_H-M "P 21 21 2"
_symmetry_group_IT_number 18
_symmetry_cell_setting 'orthorhombic'
loop_
_space_group_symop_operation_xyz
x,y,z
-x,-y,z
1/2+x,1/2-y,-z
1/2-x,1/2+y,-z
loop_
_atom_site_type_symbol
_atom_site_label
_atom_site_fract_x
_atom_site_fract_y
_atom_site_fract_z
Si Si1 0.062801 0.911432 0.149426
Si Si2 0.490421 0.254993 0.413875
Si Si3 0.794346 0.183648 0.896769
Si Si4 0.353428 0.936172 0.406156
Si Si5 0.500000 0.000000 0.775337
Si Si6 0.801520 0.288096 0.209073
Si Si7 0.236958 0.021310 0.101288
Si Si8 0.514428 0.852029 0.094701
O O1 0.077359 0.855755 0.012084
O O2 0.884087 0.931259 0.172922
O O3 0.141199 0.965102 0.031001
O O4 0.180942 0.907735 0.358703
O O5 0.352473 0.296610 0.335700
O O6 0.451337 0.231850 0.649417
O O7 0.488335 0.201729 0.254250
O O8 0.653229 0.287362 0.370519
O O9 0.774638 0.239129 0.037570
O O10 0.634318 0.150981 0.933552
O O11 0.418753 0.950790 0.638645
O O12 0.475408 0.902095 0.257133
O O13 0.323010 0.997578 0.311539
O O14 0.633518 0.970733 0.919801
O O15 0.839101 0.342008 0.065430
#
# Coordination Sequence:
#
# PCOD9311997 Si02
#       8
#     4   4   4   4   2   4   4   4
#     4   8  18  43  61  82 119 161 203 243 306 362
#     4  10  20  35  55  88 117 146 197 245 290 349
#     4   9  18  38  59  80 113 156 197 243 288 355
#     4   9  20  40  61  88 117 162 198 246 308 373
#     4  12  22  38  64  94 122 152 206 254 314 356
#     4  10  20  35  59  84 118 155 193 245 299 355
#     4   9  20  41  63  85 122 158 199 258 300 358
#     4   9  19  38  61  77 112 159 193 234 297 357
#
# _framework density 23.724139000000001
#
# number of rings (size 3 to 8) (size 9 to 14) (size 15 to 20)
#    0.800    1.867    0.000    1.200    0.000    2.133 
#   19.200    0.000    0.000    0.000    0.000    0.000 
#    0.000    0.000    0.000    0.000    0.000    0.000 
#
# Total GULP energy -167233.529083 kJ/mol
# GULP energy per Si atom -5574.450969 kJ/mol
# Density = 2.367014 g / cm^3
# Si number density = 23.724139 Si / 1000 Ang^3
#
#
#
# Elastic Constant Matrix: (Units=GPa)
#
#
# Indices 1 2 3 4 5 6 
#
# 1 77.8527 10.6729 36.0557 0.0000 0.0000 0.0000
# 2 10.6729 69.5061 9.9836 0.0000 0.0000 0.0000
# 3 36.0557 9.9836 61.9168 0.0000 0.0000 0.0000
# 4 0.0000 0.0000 0.0000 36.3468 0.0000 0.0000
# 5 0.0000 0.0000 0.0000 0.0000 15.4139 0.0000
# 6 0.0000 0.0000 0.0000 0.0000 0.0000 31.9713
#
#
#
# Elastic Compliance Matrix: (Units=1/GPa)
#
#
# Indices 1 2 3 4 5 6 
#
# 1 0.017696 -0.001266 -0.010101 0.000000 0.000000 0.000000
# 2 -0.001266 0.014819 -0.001652 0.000000 0.000000 0.000000
# 3 -0.010101 -0.001652 0.022299 0.000000 0.000000 0.000000
# 4 0.000000 0.000000 0.000000 0.027513 0.000000 0.000000
# 5 0.000000 0.000000 0.000000 0.000000 0.064877 0.000000
# 6 0.000000 0.000000 0.000000 0.000000 0.000000 0.031278
#
#
# Mechanical properties :
#
#
# Convention : Reuss Voigt Hill
#
# Bulk Modulus (GPa) = 34.75134 35.85555 35.30344
# Shear Modulus (GPa) = 23.35223 26.91729 25.13476
#
# Velocity S-wave (km/s) = 3.14080 3.37203 3.25846
# Velocity P-wave (km/s) = 5.27567 5.50519 5.39165
#
# Compressibility (1/GPa) = 0.02877587
#
# Stress axis : x y z
#
# Youngs Moduli (GPa) = 56.50880 67.48103 44.84497
#
# Poissons Ratio (x) = 0.08546 0.45297
# Poissons Ratio (y) = 0.07157 0.07408
# Poissons Ratio (z) = 0.57079 0.11148
#
# Static dielectric constant tensor:
#      x y z
#    x 2.001690 0.000000 0.000000 
#    y 0.000000 1.912930 0.000000 
#    z 0.000000 0.000000 1.865270 
# 
# From -- ./inp_files/760.got.cif
#   From: 2010.05.17/outbox.cif.g08.bks.cpg/sg18_1_cif.got.tgz:760.got - 2010.06.03 22:40:56.
