data_PCOD9311533
_publ_section_title
;
Structure prediction by ZEFSAII (Michael W. Deem and Ramdas Pophale) SiO2 
 PCOD9311533
Probable space group: P 2 2 21
;
_chemical_formula_sum "Si O2"
_cell_formula_units_Z 20
_cell_length_a 5.291285
_cell_length_b 8.484437
_cell_length_c 17.356495
_cell_angle_alpha 90.000000
_cell_angle_beta 90.000000
_cell_angle_gamma 90.000000
_cell_volume 779.195097
_symmetry_space_group_name_H-M "P 2 2 21"
_symmetry_group_IT_number 17
_symmetry_cell_setting 'orthorhombic'
loop_
_space_group_symop_operation_xyz
x,y,z
-x,-y,1/2+z
x,-y,-z
-x,y,1/2-z
loop_
_atom_site_type_symbol
_atom_site_label
_atom_site_fract_x
_atom_site_fract_y
_atom_site_fract_z
Si Si1 0.500000 0.650563 0.250000
Si Si2 0.811711 0.316570 0.114814
Si Si3 0.854719 0.174953 0.512862
Si Si4 0.525922 0.500000 0.500000
Si Si5 0.000000 0.458353 0.250000
Si Si6 0.178472 0.120813 0.820451
Si Si7 0.500000 0.850657 0.750000
O O1 0.256813 0.548748 0.265452
O O2 0.578489 0.765396 0.319115
O O3 0.659336 0.452648 0.070340
O O4 0.640081 0.237470 0.180641
O O5 0.043990 0.374429 0.168083
O O6 0.926218 0.201932 0.049985
O O7 0.691962 0.338527 0.510082
O O8 0.955190 0.150910 0.599424
O O9 0.727196 0.000000 0.500000
O O10 0.000000 0.165359 0.750000
O O11 0.291286 0.954427 0.795176
#
# Coordination Sequence:
#
# PCOD9311533 Si02
#       7
#     2   4   4   2   2   4   2
#     4  11  25  46  82 118 164 222 286 358 440 536
#     4  12  30  50  86 119 176 231 307 368 459 551
#     4  12  29  51  83 126 176 230 299 382 462 542
#     4  12  30  54  82 132 172 236 290 394 454 552
#     4  12  28  48  80 120 162 232 286 360 442 544
#     4  11  25  49  86 121 173 230 299 373 453 546
#     4  11  27  52  86 126 174 252 298 376 464 564
#
# _framework density 25.667513
#
# number of rings (size 3 to 8) (size 9 to 14) (size 15 to 20)
#    0.000    0.400    1.000    4.800   15.400    5.600 
#    0.000    0.000    0.000    0.000    0.000    0.000 
#    0.000    0.000    0.000    0.000    0.000    0.000 
#
# Total GULP energy -111803.390292 kJ/mol
# GULP energy per Si atom -5590.169515 kJ/mol
# Density = 2.560909 g / cm^3
# Si number density = 25.667513 Si / 1000 Ang^3
#
#
#
# Elastic Constant Matrix: (Units=GPa)
#
#
# Indices 1 2 3 4 5 6 
#
# 1 98.4500 72.6896 63.6233 0.0000 0.0000 0.0000
# 2 72.6896 182.5518 84.3871 0.0000 0.0000 0.0000
# 3 63.6233 84.3871 245.6778 0.0000 0.0000 0.0000
# 4 0.0000 0.0000 0.0000 34.7399 0.0000 0.0000
# 5 0.0000 0.0000 0.0000 0.0000 45.8809 0.0000
# 6 0.0000 0.0000 0.0000 0.0000 0.0000 44.4127
#
#
#
# Elastic Compliance Matrix: (Units=1/GPa)
#
#
# Indices 1 2 3 4 5 6 
#
# 1 0.015350 -0.005082 -0.002230 0.000000 0.000000 0.000000
# 2 -0.005082 0.008194 -0.001499 0.000000 0.000000 0.000000
# 3 -0.002230 -0.001499 0.005163 0.000000 0.000000 0.000000
# 4 0.000000 0.000000 0.000000 0.028785 0.000000 0.000000
# 5 0.000000 0.000000 0.000000 0.000000 0.021796 0.000000
# 6 0.000000 0.000000 0.000000 0.000000 0.000000 0.022516
#
#
# Mechanical properties :
#
#
# Convention : Reuss Voigt Hill
#
# Bulk Modulus (GPa) = 90.19515 107.56437 98.87976
# Shear Modulus (GPa) = 40.61093 45.40534 43.00813
#
# Velocity S-wave (km/s) = 3.98199 4.21049 4.09783
# Velocity P-wave (km/s) = 7.50718 8.10157 7.81003
#
# Compressibility (1/GPa) = 0.01108707
#
# Stress axis : x y z
#
# Youngs Moduli (GPa) = 65.14500 122.04009 193.70157
#
# Poissons Ratio (x) = 0.62015 0.43193
# Poissons Ratio (y) = 0.33104 0.29028
# Poissons Ratio (z) = 0.14526 0.18289
#
# Static dielectric constant tensor:
#      x y z
#    x 2.039030 0.000000 0.000000 
#    y 0.000000 2.314630 0.000000 
#    z 0.000000 0.000000 1.981190 
# 
# From -- ./inp_files/8991.got.cif
#   From: 2010.05.17/outbox.cif.g08.bks.cpg/sg17_5_cif.got.tgz:8991.got - 2010.06.03 22:34:06.
