data_PCOD9311951
_publ_section_title
;
Structure prediction by ZEFSAII (Michael W. Deem and Ramdas Pophale) SiO2 
 PCOD9311951
Probable space group: P 21 21 2
;
_chemical_formula_sum "Si O2"
_cell_formula_units_Z 32
_cell_length_a 8.946740
_cell_length_b 12.413338
_cell_length_c 13.882808
_cell_angle_alpha 90.000000
_cell_angle_beta 90.000000
_cell_angle_gamma 90.000000
_cell_volume 1541.809491
_symmetry_space_group_name_H-M "P 21 21 2"
_symmetry_group_IT_number 18
_symmetry_cell_setting 'orthorhombic'
loop_
_space_group_symop_operation_xyz
x,y,z
-x,-y,z
1/2+x,1/2-y,-z
1/2-x,1/2+y,-z
loop_
_atom_site_type_symbol
_atom_site_label
_atom_site_fract_x
_atom_site_fract_y
_atom_site_fract_z
Si Si1 0.584591 0.885779 0.110686
Si Si2 0.525930 0.203007 0.727859
Si Si3 0.520981 0.258472 0.276716
Si Si4 0.130577 0.590570 0.107277
Si Si5 0.305966 0.448730 0.242093
Si Si6 0.139971 0.067929 0.244371
Si Si7 0.857399 0.423666 0.599371
Si Si8 0.228462 0.628525 0.390892
O O1 0.483832 0.803477 0.173722
O O2 0.744300 0.898498 0.162108
O O3 0.500000 0.000000 0.114434
O O4 0.622089 0.862159 0.999527
O O5 0.411360 0.181994 0.815785
O O6 0.673931 0.139352 0.756788
O O7 0.567703 0.324941 0.711727
O O8 0.442870 0.152057 0.637227
O O9 0.452124 0.376163 0.253040
O O10 0.417026 0.181926 0.343474
O O11 0.668590 0.280455 0.340292
O O12 0.274206 0.525895 0.149510
O O13 0.000000 0.500000 0.111454
O O14 0.277303 0.520189 0.336413
O O15 0.244025 0.016584 0.327258
O O16 0.000000 0.000000 0.209266
O O17 0.769665 0.387397 0.504446
O O18 0.000000 0.500000 0.579112
#
# Coordination Sequence:
#
# PCOD9311951 Si02
#       8
#     4   4   4   4   4   4   4   4
#     4  10  21  44  64  89 130 175 212 263 329 401
#     4  10  20  41  63  88 123 167 207 266 326 388
#     4  11  23  40  64  96 129 166 217 272 324 383
#     4   8  18  38  67  89 120 168 212 256 328 388
#     4  10  19  43  63  90 126 162 212 265 323 382
#     4  11  24  40  61  95 129 166 214 275 318 387
#     4  11  25  44  65  91 129 179 218 266 337 400
#     4  11  25  38  65  93 125 168 213 272 325 393
#
# _framework density 20.754833000000001
#
# number of rings (size 3 to 8) (size 9 to 14) (size 15 to 20)
#    0.000    1.750    2.500    3.750    5.250    2.000 
#    6.750    0.000    0.000    0.000    0.000    0.000 
#    0.000    0.000    0.000    0.000    0.000    0.000 
#
# Total GULP energy -178454.948322 kJ/mol
# GULP energy per Si atom -5576.717135 kJ/mol
# Density = 2.070759 g / cm^3
# Si number density = 20.754833 Si / 1000 Ang^3
#
#
#
# Elastic Constant Matrix: (Units=GPa)
#
#
# Indices 1 2 3 4 5 6 
#
# 1 66.1812 6.9040 0.3059 0.0000 0.0000 0.0000
# 2 6.9040 56.1647 4.7830 0.0000 0.0000 0.0000
# 3 0.3059 4.7830 100.1683 0.0000 0.0000 0.0000
# 4 0.0000 0.0000 0.0000 16.2857 0.0000 0.0000
# 5 0.0000 0.0000 0.0000 0.0000 10.9483 0.0000
# 6 0.0000 0.0000 0.0000 0.0000 0.0000 38.1522
#
#
#
# Elastic Compliance Matrix: (Units=1/GPa)
#
#
# Indices 1 2 3 4 5 6 
#
# 1 0.015306 -0.001885 0.000043 0.000000 0.000000 0.000000
# 2 -0.001885 0.018110 -0.000859 0.000000 0.000000 0.000000
# 3 0.000043 -0.000859 0.010024 0.000000 0.000000 0.000000
# 4 0.000000 0.000000 0.000000 0.061404 0.000000 0.000000
# 5 0.000000 0.000000 0.000000 0.000000 0.091338 0.000000
# 6 0.000000 0.000000 0.000000 0.000000 0.000000 0.026211
#
#
# Mechanical properties :
#
#
# Convention : Reuss Voigt Hill
#
# Bulk Modulus (GPa) = 26.28921 27.38888 26.83904
# Shear Modulus (GPa) = 20.79228 27.11201 23.95215
#
# Velocity S-wave (km/s) = 3.16856 3.61820 3.40082
# Velocity P-wave (km/s) = 5.10690 5.53897 5.32732
#
# Compressibility (1/GPa) = 0.03803842
#
# Stress axis : x y z
#
# Youngs Moduli (GPa) = 65.33177 55.21917 99.75977
#
# Poissons Ratio (x) = 0.10410 -0.00432
# Poissons Ratio (y) = 0.12316 0.08569
# Poissons Ratio (z) = -0.00283 0.04743
#
# Static dielectric constant tensor:
#      x y z
#    x 1.820770 0.000000 0.000000 
#    y 0.000000 1.752120 0.000000 
#    z 0.000000 0.000000 1.725480 
# 
# From -- ./inp_files/6801.got.cif
#   From: 2010.05.17/outbox.cif.g08.bks.cpg/sg18_4_cif.got.tgz:6801.got - 2010.06.03 22:40:56.
