data_PCOD9311203
_publ_section_title
;
Structure prediction by ZEFSAII (Michael W. Deem and Ramdas Pophale) SiO2 
 PCOD9311203
Probable space group: P 2 2 21
;
_chemical_formula_sum "Si O2"
_cell_formula_units_Z 16
_cell_length_a 14.538828
_cell_length_b 10.141720
_cell_length_c 4.925885
_cell_angle_alpha 90.000000
_cell_angle_beta 90.000000
_cell_angle_gamma 90.000000
_cell_volume 726.315451
_symmetry_space_group_name_H-M "P 2 2 21"
_symmetry_group_IT_number 17
_symmetry_cell_setting 'orthorhombic'
loop_
_space_group_symop_operation_xyz
x,y,z
-x,-y,1/2+z
x,-y,-z
-x,y,1/2-z
loop_
_atom_site_type_symbol
_atom_site_label
_atom_site_fract_x
_atom_site_fract_y
_atom_site_fract_z
Si Si1 0.282136 0.353014 0.438234
Si Si2 0.410847 0.867270 0.378043
Si Si3 0.000000 0.411006 0.250000
Si Si4 0.170065 0.724772 0.038134
Si Si5 0.744739 0.000000 0.500000
O O1 0.314143 0.500000 0.500000
O O2 0.360396 0.241486 0.442625
O O3 0.241584 0.356773 0.140033
O O4 0.202079 0.304467 0.652527
O O5 0.500000 0.799460 0.250000
O O6 0.453274 0.000000 0.500000
O O7 0.326951 0.931803 0.207325
O O8 0.072780 0.325144 0.076941
O O9 0.041067 0.500000 0.500000
O O10 0.188683 0.875948 0.947067
#
# Coordination Sequence:
#
# PCOD9311203 Si02
#       5
#     4   4   2   4   2
#     4  11  23  41  65  94 129 169 212 262 318 374
#     4  11  21  39  64  93 126 169 215 261 313 377
#     4  12  24  42  66  94 126 166 212 260 318 382
#     4  11  23  41  67  92 127 166 212 263 315 379
#     4  10  22  40  62  94 124 166 214 258 322 372
#
# _framework density 22.028995999999999
#
# number of rings (size 3 to 8) (size 9 to 14) (size 15 to 20)
#    0.000    1.000    3.750    4.500    0.000    0.000 
#    0.000   12.500    0.000    0.000    0.000    0.000 
#    0.000    0.000    0.000    0.000    0.000    0.000 
#
# Total GULP energy -89101.156872 kJ/mol
# GULP energy per Si atom -5568.822305 kJ/mol
# Density = 2.197886 g / cm^3
# Si number density = 22.028996 Si / 1000 Ang^3
#
#
#
# Elastic Constant Matrix: (Units=GPa)
#
#
# Indices 1 2 3 4 5 6 
#
# 1 94.6479 23.9133 9.7013 0.0000 0.0000 0.0000
# 2 23.9133 115.2964 8.3562 0.0000 0.0000 0.0000
# 3 9.7013 8.3562 63.4955 0.0000 0.0000 0.0000
# 4 0.0000 0.0000 0.0000 27.4255 0.0000 0.0000
# 5 0.0000 0.0000 0.0000 0.0000 14.1994 0.0000
# 6 0.0000 0.0000 0.0000 0.0000 0.0000 96.8679
#
#
#
# Elastic Compliance Matrix: (Units=1/GPa)
#
#
# Indices 1 2 3 4 5 6 
#
# 1 0.011277 -0.002235 -0.001429 0.000000 0.000000 0.000000
# 2 -0.002235 0.009200 -0.000869 0.000000 0.000000 0.000000
# 3 -0.001429 -0.000869 0.016082 0.000000 0.000000 0.000000
# 4 0.000000 0.000000 0.000000 0.036462 0.000000 0.000000
# 5 0.000000 0.000000 0.000000 0.000000 0.070425 0.000000
# 6 0.000000 0.000000 0.000000 0.000000 0.000000 0.010323
#
#
# Mechanical properties :
#
#
# Convention : Reuss Voigt Hill
#
# Bulk Modulus (GPa) = 36.37440 39.70905 38.04173
# Shear Modulus (GPa) = 29.06975 43.12984 36.09980
#
# Velocity S-wave (km/s) = 3.63659 4.42958 4.05253
# Velocity P-wave (km/s) = 5.84645 6.65030 6.26129
#
# Compressibility (1/GPa) = 0.02749186
#
# Stress axis : x y z
#
# Youngs Moduli (GPa) = 88.67851 108.69666 62.18200
#
# Poissons Ratio (x) = 0.24297 0.08884
# Poissons Ratio (y) = 0.19822 0.05405
# Poissons Ratio (z) = 0.12670 0.09448
#
# Static dielectric constant tensor:
#      x y z
#    x 1.833130 0.000000 0.000000 
#    y 0.000000 1.827690 0.000000 
#    z 0.000000 0.000000 1.839110 
# 
# From -- ./inp_files/1335.got.cif
#   From: 2010.05.17/outbox.cif.g08.bks.cpg/sg17_1_cif.got.tgz:1335.got - 2010.06.03 22:34:06.
