data_PCOD9311226
_publ_section_title
;
Structure prediction by ZEFSAII (Michael W. Deem and Ramdas Pophale) SiO2 
 PCOD9311226
Probable space group: P 2 2 21
;
_chemical_formula_sum "Si O2"
_cell_formula_units_Z 16
_cell_length_a 4.913574
_cell_length_b 8.423379
_cell_length_c 14.903634
_cell_angle_alpha 90.000000
_cell_angle_beta 90.000000
_cell_angle_gamma 90.000000
_cell_volume 616.844958
_symmetry_space_group_name_H-M "P 2 2 21"
_symmetry_group_IT_number 17
_symmetry_cell_setting 'orthorhombic'
loop_
_space_group_symop_operation_xyz
x,y,z
-x,-y,1/2+z
x,-y,-z
-x,y,1/2-z
loop_
_atom_site_type_symbol
_atom_site_label
_atom_site_fract_x
_atom_site_fract_y
_atom_site_fract_z
Si Si1 0.130938 0.777076 0.883172
Si Si2 0.745319 0.000000 0.000000
Si Si3 0.382017 0.212076 0.648701
Si Si4 0.387287 0.424692 0.351759
Si Si5 0.000000 0.972113 0.250000
O O1 0.918574 0.639149 0.854377
O O2 0.410368 0.689983 0.906484
O O3 0.189383 0.899346 0.800915
O O4 0.947627 0.872545 0.954240
O O5 0.549981 0.913340 0.071993
O O6 0.500000 0.195387 0.750000
O O7 0.399520 0.392324 0.619170
O O8 0.080040 0.148215 0.671171
O O9 0.500000 0.421438 0.250000
#
# Coordination Sequence:
#
# PCOD9311226 Si02
#       5
#     4   2   4   4   2
#     4  11  24  44  74 104 151 192 253 308 385 453
#     4  10  26  50  72 114 154 210 262 322 388 462
#     4  10  25  45  77 109 156 204 266 318 392 456
#     4  11  23  44  75 110 144 200 250 322 383 459
#     4  10  22  40  72 106 140 192 248 314 374 458
#
# _framework density 25.938448000000001
#
# number of rings (size 3 to 8) (size 9 to 14) (size 15 to 20)
#    0.000    1.500    2.500    0.000   14.000    2.000 
#    4.500    2.500    0.000    0.000    0.000    0.000 
#    0.000    0.000    0.000    0.000    0.000    0.000 
#
# Total GULP energy -89379.438578 kJ/mol
# GULP energy per Si atom -5586.214911 kJ/mol
# Density = 2.587941 g / cm^3
# Si number density = 25.938448 Si / 1000 Ang^3
#
#
#
# Elastic Constant Matrix: (Units=GPa)
#
#
# Indices 1 2 3 4 5 6 
#
# 1 105.5238 43.2129 16.3282 0.0000 0.0000 0.0000
# 2 43.2129 187.1124 61.3213 0.0000 0.0000 0.0000
# 3 16.3282 61.3213 92.7838 0.0000 0.0000 0.0000
# 4 0.0000 0.0000 0.0000 40.0013 0.0000 0.0000
# 5 0.0000 0.0000 0.0000 0.0000 41.4994 0.0000
# 6 0.0000 0.0000 0.0000 0.0000 0.0000 34.9986
#
#
#
# Elastic Compliance Matrix: (Units=1/GPa)
#
#
# Indices 1 2 3 4 5 6 
#
# 1 0.010473 -0.002317 -0.000312 0.000000 0.000000 0.000000
# 2 -0.002317 0.007334 -0.004440 0.000000 0.000000 0.000000
# 3 -0.000312 -0.004440 0.013767 0.000000 0.000000 0.000000
# 4 0.000000 0.000000 0.000000 0.024999 0.000000 0.000000
# 5 0.000000 0.000000 0.000000 0.000000 0.024097 0.000000
# 6 0.000000 0.000000 0.000000 0.000000 0.000000 0.028573
#
#
# Mechanical properties :
#
#
# Convention : Reuss Voigt Hill
#
# Bulk Modulus (GPa) = 57.34575 69.68276 63.51425
# Shear Modulus (GPa) = 38.70195 40.93704 39.81950
#
# Velocity S-wave (km/s) = 3.86692 3.97701 3.92235
# Velocity P-wave (km/s) = 6.48798 6.92906 6.71214
#
# Compressibility (1/GPa) = 0.01743808
#
# Stress axis : x y z
#
# Youngs Moduli (GPa) = 95.47932 136.34471 72.63820
#
# Poissons Ratio (x) = 0.31584 0.02267
# Poissons Ratio (y) = 0.22118 0.32249
# Poissons Ratio (z) = 0.02980 0.60532
#
# Static dielectric constant tensor:
#      x y z
#    x 2.176780 0.000000 0.000000 
#    y 0.000000 1.973480 0.000000 
#    z 0.000000 0.000000 2.197000 
# 
# From -- ./inp_files/8841.got.cif
#   From: 2010.05.17/outbox.cif.g08.bks.cpg/sg17_5_cif.got.tgz:8841.got - 2010.06.03 22:34:06.
