data_PCOD9311104
_publ_section_title
;
Structure prediction by ZEFSAII (Michael W. Deem and Ramdas Pophale) SiO2 
 PCOD9311104
Probable space group: P 2 2 21
;
_chemical_formula_sum "Si O2"
_cell_formula_units_Z 18
_cell_length_a 9.231292
_cell_length_b 7.258327
_cell_length_c 11.522280
_cell_angle_alpha 90.000000
_cell_angle_beta 90.000000
_cell_angle_gamma 90.000000
_cell_volume 772.035807
_symmetry_space_group_name_H-M "P 2 2 21"
_symmetry_group_IT_number 17
_symmetry_cell_setting 'orthorhombic'
loop_
_space_group_symop_operation_xyz
x,y,z
-x,-y,1/2+z
x,-y,-z
-x,y,1/2-z
loop_
_atom_site_type_symbol
_atom_site_label
_atom_site_fract_x
_atom_site_fract_y
_atom_site_fract_z
Si Si1 0.765985 0.436544 0.802273
Si Si2 0.918524 0.871470 0.637591
Si Si3 0.375459 0.226291 0.170336
Si Si4 0.458685 0.500000 0.500000
Si Si5 0.055679 0.285242 0.900429
O O1 0.711959 0.631289 0.753064
O O2 0.642570 0.401784 0.901030
O O3 0.807728 0.329318 0.682265
O O4 0.918041 0.407371 0.866878
O O5 0.748073 0.917450 0.640800
O O6 0.918034 0.718998 0.536958
O O7 0.000000 0.798227 0.750000
O O8 0.991167 0.070485 0.617737
O O9 0.500000 0.142998 0.250000
O O10 0.445529 0.346699 0.067114
#
# Coordination Sequence:
#
# PCOD9311104 Si02
#       5
#     4   4   4   2   4
#     4  10  21  41  65  97 130 167 223 282 333 401
#     4  11  23  42  66  94 135 175 225 281 332 404
#     4  10  23  40  61  94 129 172 217 271 336 404
#     4  10  22  40  66  92 136 174 220 272 348 412
#     4  10  23  40  65  98 130 170 227 282 338 384
#
# _framework density 23.314979999999998
#
# number of rings (size 3 to 8) (size 9 to 14) (size 15 to 20)
#    0.000    1.778    2.222    1.333    9.333    0.000 
#    0.000    7.778    0.000    0.000    0.000    0.000 
#    0.000    0.000    0.000    0.000    0.000    0.000 
#
# Total GULP energy -100258.397276 kJ/mol
# GULP energy per Si atom -5569.910960 kJ/mol
# Density = 2.326191 g / cm^3
# Si number density = 23.314980 Si / 1000 Ang^3
#
#
#
# Elastic Constant Matrix: (Units=GPa)
#
#
# Indices 1 2 3 4 5 6 
#
# 1 124.8393 24.0731 57.8680 0.0000 0.0000 0.0000
# 2 24.0731 40.4854 8.2629 0.0000 0.0000 0.0000
# 3 57.8680 8.2629 132.7418 0.0000 0.0000 0.0000
# 4 0.0000 0.0000 0.0000 21.3870 0.0000 0.0000
# 5 0.0000 0.0000 0.0000 0.0000 40.1251 0.0000
# 6 0.0000 0.0000 0.0000 0.0000 0.0000 22.0643
#
#
#
# Elastic Compliance Matrix: (Units=1/GPa)
#
#
# Indices 1 2 3 4 5 6 
#
# 1 0.011220 -0.005746 -0.004534 0.000000 0.000000 0.000000
# 2 -0.005746 0.027961 0.000764 0.000000 0.000000 0.000000
# 3 -0.004534 0.000764 0.009462 0.000000 0.000000 0.000000
# 4 0.000000 0.000000 0.000000 0.046757 0.000000 0.000000
# 5 0.000000 0.000000 0.000000 0.000000 0.024922 0.000000
# 6 0.000000 0.000000 0.000000 0.000000 0.000000 0.045322
#
#
# Mechanical properties :
#
#
# Convention : Reuss Voigt Hill
#
# Bulk Modulus (GPa) = 33.76941 53.16383 43.46662
# Shear Modulus (GPa) = 25.70088 30.57277 28.13682
#
# Velocity S-wave (km/s) = 3.32374 3.62511 3.47769
# Velocity P-wave (km/s) = 5.40788 6.35404 5.89995
#
# Compressibility (1/GPa) = 0.02961260
#
# Stress axis : x y z
#
# Youngs Moduli (GPa) = 89.12798 35.76413 105.68370
#
# Poissons Ratio (x) = 0.20551 0.47912
# Poissons Ratio (y) = 0.51214 -0.08080
# Poissons Ratio (z) = 0.40406 -0.02734
#
# Static dielectric constant tensor:
#      x y z
#    x 1.919570 0.000000 0.000000 
#    y 0.000000 1.869090 0.000000 
#    z 0.000000 0.000000 2.052800 
# 
# From -- ./inp_files/6310.got.cif
#   From: 2010.05.17/outbox.cif.g08.bks.cpg/sg17_4_cif.got.tgz:6310.got - 2010.06.03 22:34:06.
