data_PCOD9311680
_publ_section_title
;
Structure prediction by ZEFSAII (Michael W. Deem and Ramdas Pophale) SiO2 
 PCOD9311680
Probable space group: P 21 21 2
;
_chemical_formula_sum "Si O2"
_cell_formula_units_Z 26
_cell_length_a 15.107598
_cell_length_b 13.075550
_cell_length_c 5.471718
_cell_angle_alpha 90.000000
_cell_angle_beta 90.000000
_cell_angle_gamma 90.000000
_cell_volume 1080.884011
_symmetry_space_group_name_H-M "P 21 21 2"
_symmetry_group_IT_number 18
_symmetry_cell_setting 'orthorhombic'
loop_
_space_group_symop_operation_xyz
x,y,z
-x,-y,z
1/2+x,1/2-y,-z
1/2-x,1/2+y,-z
loop_
_atom_site_type_symbol
_atom_site_label
_atom_site_fract_x
_atom_site_fract_y
_atom_site_fract_z
Si Si1 0.326725 0.099827 0.358244
Si Si2 0.441654 0.700923 0.090829
Si Si3 0.356301 0.334022 0.923446
Si Si4 0.500000 0.000000 0.489223
Si Si5 0.200241 0.841218 0.578926
Si Si6 0.244701 0.116289 0.863818
Si Si7 0.596130 0.188701 0.590790
O O1 0.332532 0.223376 0.376774
O O2 0.270160 0.070346 0.124096
O O3 0.421061 0.047041 0.333347
O O4 0.284203 0.069126 0.616969
O O5 0.541427 0.676167 0.006139
O O6 0.446502 0.764398 0.344576
O O7 0.361035 0.624945 0.158569
O O8 0.402344 0.748714 0.840461
O O9 0.312659 0.389576 0.154944
O O10 0.297806 0.228454 0.882270
O O11 0.351452 0.383288 0.654676
O O12 0.460179 0.910811 0.651191
O O13 0.303570 0.835495 0.519987
#
# Coordination Sequence:
#
# PCOD9311680 Si02
#       7
#     4   4   4   2   4   4   4
#     4  10  20  37  54  83 126 162 199 256 311 390
#     4  12  20  36  64  86 121 169 223 263 309 373
#     4  10  18  30  52  84 107 147 209 271 283 354
#     4  12  28  38  62 104 142 162 204 268 358 388
#     4  10  18  37  54  76 121 166 209 245 301 376
#     4  10  18  36  56  82 119 162 216 256 307 367
#     4  12  22  38  57  90 128 174 200 258 332 390
#
# _framework density 24.054383999999999
#
# number of rings (size 3 to 8) (size 9 to 14) (size 15 to 20)
#    0.000    1.231    6.154    4.615    0.000    2.462 
#    0.000    0.000    0.000    0.000    0.000    6.462 
#    0.000    0.000    0.000    0.000    0.000    0.000 
#
# Total GULP energy -145165.022580 kJ/mol
# GULP energy per Si atom -5583.270099 kJ/mol
# Density = 2.399964 g / cm^3
# Si number density = 24.054384 Si / 1000 Ang^3
#
#
#
# Elastic Constant Matrix: (Units=GPa)
#
#
# Indices 1 2 3 4 5 6 
#
# 1 116.2554 24.3348 32.9507 0.0000 0.0000 0.0000
# 2 24.3348 36.2844 34.1006 0.0000 0.0000 0.0000
# 3 32.9507 34.1006 211.7934 0.0000 0.0000 0.0000
# 4 0.0000 0.0000 0.0000 -0.6358 0.0000 0.0000
# 5 0.0000 0.0000 0.0000 0.0000 36.7331 0.0000
# 6 0.0000 0.0000 0.0000 0.0000 0.0000 21.7012
#
#
#
# Elastic Compliance Matrix: (Units=1/GPa)
#
#
# Indices 1 2 3 4 5 6 
#
# 1 0.010063 -0.006219 -0.000564 0.000000 0.000000 0.000000
# 2 -0.006219 0.036317 -0.004880 0.000000 0.000000 0.000000
# 3 -0.000564 -0.004880 0.005595 0.000000 0.000000 0.000000
# 4 0.000000 0.000000 0.000000 -1.572793 0.000000 0.000000
# 5 0.000000 0.000000 0.000000 0.000000 0.027223 0.000000
# 6 0.000000 0.000000 0.000000 0.000000 0.000000 0.046080
#
#
# Mechanical properties :
#
#
# Convention : Reuss Voigt Hill
#
# Bulk Modulus (GPa) = 34.90471 60.78951 47.84711
# Shear Modulus (GPa) = -3.53447 29.75616 13.11084
#
# Velocity S-wave (km/s) = -1.21349 3.52097 2.33716
# Velocity P-wave (km/s) = 3.54667 6.46964 5.21704
#
# Compressibility (1/GPa) = 0.02864943
#
# Stress axis : x y z
#
# Youngs Moduli (GPa) = 99.36947 27.53531 178.72831
#
# Poissons Ratio (x) = 0.17124 0.10087
# Poissons Ratio (y) = 0.61796 0.87217
# Poissons Ratio (z) = 0.05608 0.13437
#
# Static dielectric constant tensor:
#      x y z
#    x 1.913180 0.000000 0.000000 
#    y 0.000000 2.057640 0.000000 
#    z 0.000000 0.000000 1.954360 
# 
# From -- ./inp_files/1548.got.cif
#   From: 2010.05.17/outbox.cif.g08.bks.cpg/sg18_1_cif.got.tgz:1548.got - 2010.06.03 22:40:56.
