data_PCOD9311029
_publ_section_title
;
Structure prediction by ZEFSAII (Michael W. Deem and Ramdas Pophale) SiO2 
 PCOD9311029
Probable space group: P 2 2 21
;
_chemical_formula_sum "Si O2"
_cell_formula_units_Z 16
_cell_length_a 5.034592
_cell_length_b 5.217441
_cell_length_c 23.922500
_cell_angle_alpha 90.000000
_cell_angle_beta 90.000000
_cell_angle_gamma 90.000000
_cell_volume 628.388736
_symmetry_space_group_name_H-M "P 2 2 21"
_symmetry_group_IT_number 17
_symmetry_cell_setting 'orthorhombic'
loop_
_space_group_symop_operation_xyz
x,y,z
-x,-y,1/2+z
x,-y,-z
-x,y,1/2-z
loop_
_atom_site_type_symbol
_atom_site_label
_atom_site_fract_x
_atom_site_fract_y
_atom_site_fract_z
Si Si1 0.309226 0.813050 0.951782
Si Si2 0.596491 0.217310 0.646175
Si Si3 0.800837 0.377369 0.088993
Si Si4 0.101337 0.980210 0.309102
O O1 0.349215 0.990042 0.897443
O O2 0.613155 0.730605 0.960835
O O3 0.094341 0.591537 0.937566
O O4 0.209382 0.000000 0.000000
O O5 0.407386 0.418410 0.614138
O O6 0.395613 0.129425 0.694130
O O7 0.890310 0.243159 0.672380
O O8 0.865534 0.186445 0.140899
O O9 0.000000 0.085903 0.250000
#
# Coordination Sequence:
#
# PCOD9311029 Si02
#       4
#     4   4   4   4
#     4  10  21  38  59  87 122 159 204 256 306 365
#     4  10  21  38  59  87 121 157 203 255 307 368
#     4  10  21  38  60  86 120 159 202 254 308 366
#     4  10  21  38  59  86 120 157 202 255 306 365
#
# _framework density 25.461946000000001
#
# number of rings (size 3 to 8) (size 9 to 14) (size 15 to 20)
#    0.000    2.000    0.000    3.000    0.000    2.000 
#    0.000   10.000    0.000    0.000    0.000    0.000 
#    0.000    0.000    0.000    0.000    0.000    0.000 
#
# Total GULP energy -89094.118443 kJ/mol
# GULP energy per Si atom -5568.382403 kJ/mol
# Density = 2.540399 g / cm^3
# Si number density = 25.461946 Si / 1000 Ang^3
#
#
#
# Elastic Constant Matrix: (Units=GPa)
#
#
# Indices 1 2 3 4 5 6 
#
# 1 229.9451 52.3893 49.4334 0.0000 0.0000 0.0000
# 2 52.3893 68.4552 14.0458 0.0000 0.0000 0.0000
# 3 49.4334 14.0458 79.7272 0.0000 0.0000 0.0000
# 4 0.0000 0.0000 0.0000 11.5091 0.0000 0.0000
# 5 0.0000 0.0000 0.0000 0.0000 25.6731 0.0000
# 6 0.0000 0.0000 0.0000 0.0000 0.0000 40.2908
#
#
#
# Elastic Compliance Matrix: (Units=1/GPa)
#
#
# Indices 1 2 3 4 5 6 
#
# 1 0.005869 -0.003886 -0.002955 0.000000 0.000000 0.000000
# 2 -0.003886 0.017728 -0.000714 0.000000 0.000000 0.000000
# 3 -0.002955 -0.000714 0.014501 0.000000 0.000000 0.000000
# 4 0.000000 0.000000 0.000000 0.086888 0.000000 0.000000
# 5 0.000000 0.000000 0.000000 0.000000 0.038951 0.000000
# 6 0.000000 0.000000 0.000000 0.000000 0.000000 0.024820
#
#
# Mechanical properties :
#
#
# Convention : Reuss Voigt Hill
#
# Bulk Modulus (GPa) = 43.49795 67.76271 55.63033
# Shear Modulus (GPa) = 23.63750 32.97854 28.30802
#
# Velocity S-wave (km/s) = 3.05018 3.60281 3.33795
# Velocity P-wave (km/s) = 5.43373 6.63159 6.06232
#
# Compressibility (1/GPa) = 0.02298959
#
# Stress axis : x y z
#
# Youngs Moduli (GPa) = 170.37760 56.40704 68.96297
#
# Poissons Ratio (x) = 0.21918 0.20376
# Poissons Ratio (y) = 0.66202 0.04924
# Poissons Ratio (z) = 0.50340 0.04028
#
# Static dielectric constant tensor:
#      x y z
#    x 2.000150 0.000000 0.000000 
#    y 0.000000 2.129820 0.000000 
#    z 0.000000 0.000000 2.055700 
# 
# From -- ./inp_files/10288.got.cif
#   From: 2010.05.17/outbox.cif.g08.bks.cpg/sg17_6_cif.got.tgz:10288.got - 2010.06.03 22:34:06.
