data_PCOD9311647
_publ_section_title
;
Structure prediction by ZEFSAII (Michael W. Deem and Ramdas Pophale) SiO2 
 PCOD9311647
Probable space group: P 21 21 2
;
_chemical_formula_sum "Si O2"
_cell_formula_units_Z 32
_cell_length_a 5.570626
_cell_length_b 17.796265
_cell_length_c 16.841121
_cell_angle_alpha 90.000000
_cell_angle_beta 90.000000
_cell_angle_gamma 90.000000
_cell_volume 1669.567039
_symmetry_space_group_name_H-M "P 21 21 2"
_symmetry_group_IT_number 18
_symmetry_cell_setting 'orthorhombic'
loop_
_space_group_symop_operation_xyz
x,y,z
-x,-y,z
1/2+x,1/2-y,-z
1/2-x,1/2+y,-z
loop_
_atom_site_type_symbol
_atom_site_label
_atom_site_fract_x
_atom_site_fract_y
_atom_site_fract_z
Si Si1 0.640578 0.407585 0.417971
Si Si2 0.891759 0.741613 0.323965
Si Si3 0.113435 0.271782 0.605794
Si Si4 0.312163 0.303748 0.166822
Si Si5 0.866780 0.616487 0.457849
Si Si6 0.015167 0.584600 0.083492
Si Si7 0.683538 0.786119 0.024175
Si Si8 0.649957 0.425394 0.232638
O O1 0.617788 0.315726 0.420849
O O2 0.377267 0.430125 0.448274
O O3 0.688847 0.430191 0.326627
O O4 0.880463 0.425147 0.465565
O O5 0.642838 0.782530 0.350056
O O6 0.881135 0.720513 0.231878
O O7 0.886030 0.665028 0.376118
O O8 0.142255 0.781567 0.343947
O O9 0.140541 0.324395 0.529545
O O10 0.378827 0.230368 0.116246
O O11 0.512358 0.347167 0.216971
O O12 0.222107 0.367067 0.104184
O O13 0.135082 0.577097 0.170487
O O14 0.000000 0.500000 0.053081
O O15 0.160229 0.634504 0.020141
O O16 0.461700 0.739470 0.984208
O O17 0.500000 0.500000 0.211284
#
# Coordination Sequence:
#
# PCOD9311647 Si02
#       8
#     4   4   4   4   4   4   4   4
#     4  10  19  29  44  66 100 135 172 215 256 305
#     4  10  18  27  45  68 100 133 169 215 265 317
#     4  10  17  28  46  69  98 132 171 207 264 305
#     4  11  21  36  51  76 109 151 183 235 285 341
#     4  10  17  29  46  68  97 136 167 210 262 302
#     4  11  22  36  56  79 108 148 193 234 279 357
#     4  10  22  37  57  77 108 144 189 234 288 335
#     4  12  22  34  51  76 109 153 191 226 275 348
#
# _framework density 19.166647000000001
#
# number of rings (size 3 to 8) (size 9 to 14) (size 15 to 20)
#    0.000    1.500    5.000    5.250    0.000    0.000 
#    0.000    0.000    0.000    0.000    0.000    0.000 
#    0.000    6.000    0.000    1.750    0.000    0.000 
#
# Total GULP energy -178313.681921 kJ/mol
# GULP energy per Si atom -5572.302560 kJ/mol
# Density = 1.912302 g / cm^3
# Si number density = 19.166647 Si / 1000 Ang^3
#
#
#
# Elastic Constant Matrix: (Units=GPa)
#
#
# Indices 1 2 3 4 5 6 
#
# 1 119.3142 23.6060 10.6535 0.0000 0.0000 0.0000
# 2 23.6060 68.0340 37.5526 0.0000 0.0000 0.0000
# 3 10.6535 37.5526 55.8116 0.0000 0.0000 0.0000
# 4 0.0000 0.0000 0.0000 16.1200 0.0000 0.0000
# 5 0.0000 0.0000 0.0000 0.0000 27.9782 0.0000
# 6 0.0000 0.0000 0.0000 0.0000 0.0000 23.7668
#
#
#
# Elastic Compliance Matrix: (Units=1/GPa)
#
#
# Indices 1 2 3 4 5 6 
#
# 1 0.009012 -0.003464 0.000610 0.000000 0.000000 0.000000
# 2 -0.003464 0.024714 -0.015967 0.000000 0.000000 0.000000
# 3 0.000610 -0.015967 0.028545 0.000000 0.000000 0.000000
# 4 0.000000 0.000000 0.000000 0.062035 0.000000 0.000000
# 5 0.000000 0.000000 0.000000 0.000000 0.035742 0.000000
# 6 0.000000 0.000000 0.000000 0.000000 0.000000 0.042076
#
#
# Mechanical properties :
#
#
# Convention : Reuss Voigt Hill
#
# Bulk Modulus (GPa) = 40.60308 42.97598 41.78953
# Shear Modulus (GPa) = 20.16338 24.99618 22.57978
#
# Velocity S-wave (km/s) = 3.24698 3.61522 3.43604
# Velocity P-wave (km/s) = 5.94032 6.31644 6.13126
#
# Compressibility (1/GPa) = 0.02462867
#
# Stress axis : x y z
#
# Youngs Moduli (GPa) = 110.96259 40.46296 35.03291
#
# Poissons Ratio (x) = 0.14016 -0.02138
# Poissons Ratio (y) = 0.38436 0.55939
# Poissons Ratio (z) = -0.06773 0.64609
#
# Static dielectric constant tensor:
#      x y z
#    x 1.809870 0.000000 0.000000 
#    y 0.000000 1.715040 0.000000 
#    z 0.000000 0.000000 1.663130 
# 
# From -- ./inp_files/7199.got.cif
#   From: 2010.05.17/outbox.cif.g08.bks.cpg/sg18_4_cif.got.tgz:7199.got - 2010.06.03 22:40:56.
