data_PCOD9311651
_publ_section_title
;
Structure prediction by ZEFSAII (Michael W. Deem and Ramdas Pophale) SiO2 
 PCOD9311651
Probable space group: P 21 21 2
;
_chemical_formula_sum "Si O2"
_cell_formula_units_Z 32
_cell_length_a 14.553692
_cell_length_b 10.200250
_cell_length_c 8.949220
_cell_angle_alpha 90.000000
_cell_angle_beta 90.000000
_cell_angle_gamma 90.000000
_cell_volume 1328.523315
_symmetry_space_group_name_H-M "P 21 21 2"
_symmetry_group_IT_number 18
_symmetry_cell_setting 'orthorhombic'
loop_
_space_group_symop_operation_xyz
x,y,z
-x,-y,z
1/2+x,1/2-y,-z
1/2-x,1/2+y,-z
loop_
_atom_site_type_symbol
_atom_site_label
_atom_site_fract_x
_atom_site_fract_y
_atom_site_fract_z
Si Si1 0.712390 0.417572 0.595621
Si Si2 0.331303 0.311139 0.535016
Si Si3 0.889963 0.086544 0.905030
Si Si4 0.825638 0.567604 0.088242
Si Si5 0.371338 0.957790 0.253069
Si Si6 0.668870 0.788455 0.867128
Si Si7 0.975005 0.276470 0.683338
Si Si8 0.649498 0.341999 0.924543
O O1 0.657125 0.530968 0.507301
O O2 0.749268 0.275895 0.541487
O O3 0.803812 0.504035 0.615673
O O4 0.672252 0.399779 0.762049
O O5 0.426059 0.245030 0.475161
O O6 0.316947 0.281421 0.709918
O O7 0.780414 0.084689 0.858214
O O8 0.948543 0.147082 0.773144
O O9 0.894096 0.194547 0.035461
O O10 0.906650 0.945349 0.978297
O O11 0.865677 0.435905 0.157005
O O12 0.885515 0.696986 0.110937
O O13 0.824810 0.554258 0.907985
O O14 0.421048 0.823545 0.300766
O O15 0.429160 0.093517 0.241804
O O16 0.759816 0.814356 0.971234
#
# Coordination Sequence:
#
# PCOD9311651 Si02
#       8
#     4   4   4   4   4   4   4   4
#     4  11  21  38  58  88 118 156 207 244 307 347
#     4  11  23  34  56  91 120 158 197 253 302 356
#     4  10  17  34  56  85 113 151 189 249 283 347
#     4  10  17  30  60  87 108 144 200 241 284 334
#     4  10  18  39  61  85 115 157 195 248 285 367
#     4  10  17  31  55  81 112 144 196 240 286 338
#     4  10  22  36  61  86 125 152 198 240 310 351
#     4  10  19  32  57  88 118 143 193 261 281 340
#
# _framework density 24.086893
#
# number of rings (size 3 to 8) (size 9 to 14) (size 15 to 20)
#    0.000    1.750    5.000    3.000    5.250    0.000 
#    0.000    0.625   11.000    0.000    3.250    0.000 
#    0.000    0.000    0.000    0.000    0.000    0.000 
#
# Total GULP energy -178397.362168 kJ/mol
# GULP energy per Si atom -5574.917568 kJ/mol
# Density = 2.403207 g / cm^3
# Si number density = 24.086893 Si / 1000 Ang^3
#
#
#
# Elastic Constant Matrix: (Units=GPa)
#
#
# Indices 1 2 3 4 5 6 
#
# 1 26.1840 -3.7603 7.5835 0.0000 0.0000 0.0000
# 2 -3.7603 155.4877 8.6137 0.0000 0.0000 0.0000
# 3 7.5835 8.6137 81.1181 0.0000 0.0000 0.0000
# 4 0.0000 0.0000 0.0000 42.1974 0.0000 0.0000
# 5 0.0000 0.0000 0.0000 0.0000 10.5093 0.0000
# 6 0.0000 0.0000 0.0000 0.0000 0.0000 27.5605
#
#
#
# Elastic Compliance Matrix: (Units=1/GPa)
#
#
# Indices 1 2 3 4 5 6 
#
# 1 0.039463 0.001166 -0.003813 0.000000 0.000000 0.000000
# 2 0.001166 0.006504 -0.000800 0.000000 0.000000 0.000000
# 3 -0.003813 -0.000800 0.012769 0.000000 0.000000 0.000000
# 4 0.000000 0.000000 0.000000 0.023698 0.000000 0.000000
# 5 0.000000 0.000000 0.000000 0.000000 0.095154 0.000000
# 6 0.000000 0.000000 0.000000 0.000000 0.000000 0.036284
#
#
# Mechanical properties :
#
#
# Convention : Reuss Voigt Hill
#
# Bulk Modulus (GPa) = 19.28943 31.96263 25.62603
# Shear Modulus (GPa) = 21.00430 32.74363 26.87397
#
# Velocity S-wave (km/s) = 2.95621 3.69100 3.34385
# Velocity P-wave (km/s) = 4.43597 5.60920 5.05673
#
# Compressibility (1/GPa) = 0.05184185
#
# Stress axis : x y z
#
# Youngs Moduli (GPa) = 25.34016 153.75476 78.31411
#
# Poissons Ratio (x) = -0.17922 0.29862
# Poissons Ratio (y) = -0.02954 0.06262
# Poissons Ratio (z) = 0.09662 0.12294
#
# Static dielectric constant tensor:
#      x y z
#    x 2.096360 0.000000 0.000000 
#    y 0.000000 2.105870 0.000000 
#    z 0.000000 0.000000 1.879660 
# 
# From -- ./inp_files/4606.got.cif
#   From: 2010.05.17/outbox.cif.g08.bks.cpg/sg18_3_cif.got.tgz:4606.got - 2010.06.03 22:40:56.
