data_PCOD9311116
_publ_section_title
;
Structure prediction by ZEFSAII (Michael W. Deem and Ramdas Pophale) SiO2 
 PCOD9311116
Probable space group: P 2 2 21
;
_chemical_formula_sum "Si O2"
_cell_formula_units_Z 18
_cell_length_a 7.793682
_cell_length_b 9.033298
_cell_length_c 11.975109
_cell_angle_alpha 90.000000
_cell_angle_beta 90.000000
_cell_angle_gamma 90.000000
_cell_volume 843.079432
_symmetry_space_group_name_H-M "P 2 2 21"
_symmetry_group_IT_number 17
_symmetry_cell_setting 'orthorhombic'
loop_
_space_group_symop_operation_xyz
x,y,z
-x,-y,1/2+z
x,-y,-z
-x,y,1/2-z
loop_
_atom_site_type_symbol
_atom_site_label
_atom_site_fract_x
_atom_site_fract_y
_atom_site_fract_z
Si Si1 0.500000 0.079567 0.250000
Si Si2 0.804935 0.306323 0.216900
Si Si3 0.359901 0.871843 0.067896
Si Si4 0.795651 0.357570 0.743078
Si Si5 0.642559 0.666008 0.012578
O O1 0.669018 0.181174 0.248435
O O2 0.483071 0.968403 0.146655
O O3 0.754544 0.466723 0.269528
O O4 0.000000 0.272707 0.250000
O O5 0.787070 0.320407 0.082415
O O6 0.264065 0.753163 0.145866
O O7 0.485760 0.775335 0.991265
O O8 0.258514 0.000000 0.000000
O O9 0.713191 0.313953 0.862304
O O10 0.000000 0.349317 0.750000
O O11 0.575064 0.500000 0.000000
#
# Coordination Sequence:
#
# PCOD9311116 Si02
#       5
#     2   4   4   4   4
#     4  12  24  40  68 102 142 182 224 286 360 420
#     4  10  24  44  70 103 139 182 240 296 346 428
#     4  12  24  41  66 104 138 185 234 286 364 432
#     4  10  23  43  69 100 139 183 237 298 349 424
#     4  10  21  41  68  96 133 184 231 290 357 418
#
# _framework density 21.350301000000002
#
# number of rings (size 3 to 8) (size 9 to 14) (size 15 to 20)
#    0.000    1.333    4.444    0.000    6.222    2.667 
#    0.000    4.444    0.000    0.000    0.000    0.000 
#    0.000    0.000    0.000    0.000    0.000    0.000 
#
# Total GULP energy -100485.463039 kJ/mol
# GULP energy per Si atom -5582.525724 kJ/mol
# Density = 2.130171 g / cm^3
# Si number density = 21.350301 Si / 1000 Ang^3
#
#
#
# Elastic Constant Matrix: (Units=GPa)
#
#
# Indices 1 2 3 4 5 6 
#
# 1 79.4394 68.8271 15.4761 0.0000 0.0000 0.0000
# 2 68.8271 133.4841 40.3093 0.0000 0.0000 0.0000
# 3 15.4761 40.3093 66.2930 0.0000 0.0000 0.0000
# 4 0.0000 0.0000 0.0000 38.0932 0.0000 0.0000
# 5 0.0000 0.0000 0.0000 0.0000 32.0960 0.0000
# 6 0.0000 0.0000 0.0000 0.0000 0.0000 8.5127
#
#
#
# Elastic Compliance Matrix: (Units=1/GPa)
#
#
# Indices 1 2 3 4 5 6 
#
# 1 0.023025 -0.012554 0.002258 0.000000 0.000000 0.000000
# 2 -0.012554 0.016022 -0.006811 0.000000 0.000000 0.000000
# 3 0.002258 -0.006811 0.018699 0.000000 0.000000 0.000000
# 4 0.000000 0.000000 0.000000 0.026251 0.000000 0.000000
# 5 0.000000 0.000000 0.000000 0.000000 0.031157 0.000000
# 6 0.000000 0.000000 0.000000 0.000000 0.000000 0.117472
#
#
# Mechanical properties :
#
#
# Convention : Reuss Voigt Hill
#
# Bulk Modulus (GPa) = 42.49585 58.71572 50.60579
# Shear Modulus (GPa) = 18.20273 26.04729 22.12501
#
# Velocity S-wave (km/s) = 2.92306 3.49663 3.22263
# Velocity P-wave (km/s) = 5.59818 6.62290 6.13198
#
# Compressibility (1/GPa) = 0.02353171
#
# Stress axis : x y z
#
# Youngs Moduli (GPa) = 43.43014 62.41564 53.47934
#
# Poissons Ratio (x) = 0.78359 -0.12078
# Poissons Ratio (y) = 0.54524 0.36425
# Poissons Ratio (z) = -0.09808 0.42512
#
# Static dielectric constant tensor:
#      x y z
#    x 1.730400 0.000000 0.000000 
#    y 0.000000 1.786390 0.000000 
#    z 0.000000 0.000000 1.915840 
# 
# From -- ./inp_files/6312.got.cif
#   From: 2010.05.17/outbox.cif.g08.bks.cpg/sg17_4_cif.got.tgz:6312.got - 2010.06.03 22:34:06.
