data_PCOD9311976
_publ_section_title
;
Structure prediction by ZEFSAII (Michael W. Deem and Ramdas Pophale) SiO2 
 PCOD9311976
Probable space group: P 21 21 2
;
_chemical_formula_sum "Si O2"
_cell_formula_units_Z 32
_cell_length_a 9.087446
_cell_length_b 28.892948
_cell_length_c 7.134171
_cell_angle_alpha 90.000000
_cell_angle_beta 90.000000
_cell_angle_gamma 90.000000
_cell_volume 1873.170087
_symmetry_space_group_name_H-M "P 21 21 2"
_symmetry_group_IT_number 18
_symmetry_cell_setting 'orthorhombic'
loop_
_space_group_symop_operation_xyz
x,y,z
-x,-y,z
1/2+x,1/2-y,-z
1/2-x,1/2+y,-z
loop_
_atom_site_type_symbol
_atom_site_label
_atom_site_fract_x
_atom_site_fract_y
_atom_site_fract_z
Si Si1 0.675224 0.000028 0.682086
Si Si2 0.675298 0.244506 0.299609
Si Si3 0.175052 0.744471 0.700575
Si Si4 0.675928 0.571651 0.044630
Si Si5 0.173890 0.999992 0.282491
Si Si6 0.175683 0.821678 0.011147
Si Si7 0.175925 0.071618 0.955342
Si Si8 0.324052 0.678290 0.989029
O O1 0.732909 0.000022 0.470231
O O2 0.500000 0.000000 0.689468
O O3 0.739586 0.044352 0.793028
O O4 0.739672 0.955720 0.793050
O O5 0.750063 0.250024 0.500124
O O6 0.500121 0.240135 0.319197
O O7 0.740578 0.201117 0.185458
O O8 0.706078 0.289293 0.168828
O O9 0.205854 0.789252 0.831383
O O10 0.240191 0.701073 0.814788
O O11 0.703450 0.544173 0.850831
O O12 0.500006 0.568260 0.080947
O O13 0.716193 0.625279 0.026535
O O14 0.203445 0.044164 0.149198
O O15 0.000000 0.000000 0.329670
O O16 0.999856 0.819880 0.046845
O O17 0.216327 0.125238 0.973290
#
# Coordination Sequence:
#
# PCOD9311976 Si02
#       8
#     4   4   4   4   4   4   4   4
#     4  11  22  34  51  77 109 137 163 205 258 310
#     4  10  20  34  53  77 107 139 171 212 259 309
#     4  10  20  34  53  77 107 139 171 212 259 309
#     4   9  19  37  58  76  98 134 178 217 252 299
#     4   9  18  34  55  75  97 129 169 211 252 298
#     4   9  19  36  56  77 101 133 175 218 257 300
#     4   9  19  37  58  76  98 134 178 217 252 299
#     4   9  19  36  56  77 101 133 175 218 257 300
#
# _framework density 17.083338999999999
#
# number of rings (size 3 to 8) (size 9 to 14) (size 15 to 20)
#    0.000    2.500    0.000    2.625    0.000    6.000 
#    0.000   10.000    0.000    0.000    0.000    0.000 
#    0.000    0.000    0.000    0.000    0.000    0.000 
#
# Total GULP energy -178571.993312 kJ/mol
# GULP energy per Si atom -5580.374791 kJ/mol
# Density = 1.704446 g / cm^3
# Si number density = 17.083339 Si / 1000 Ang^3
#
#
#
# Elastic Constant Matrix: (Units=GPa)
#
#
# Indices 1 2 3 4 5 6 
#
# 1 61.6726 48.5495 67.4440 0.0000 0.0000 0.0000
# 2 48.5495 134.4200 45.8590 0.0000 0.0000 0.0000
# 3 67.4440 45.8590 118.3989 0.0000 0.0000 0.0000
# 4 0.0000 0.0000 0.0000 5.0919 0.0000 0.0000
# 5 0.0000 0.0000 0.0000 0.0000 21.4445 0.0000
# 6 0.0000 0.0000 0.0000 0.0000 0.0000 25.2734
#
#
#
# Elastic Compliance Matrix: (Units=1/GPa)
#
#
# Indices 1 2 3 4 5 6 
#
# 1 0.052790 -0.010149 -0.026140 0.000000 0.000000 0.000000
# 2 -0.010149 0.010523 0.001705 0.000000 0.000000 0.000000
# 3 -0.026140 0.001705 0.022676 0.000000 0.000000 0.000000
# 4 0.000000 0.000000 0.000000 0.196389 0.000000 0.000000
# 5 0.000000 0.000000 0.000000 0.000000 0.046632 0.000000
# 6 0.000000 0.000000 0.000000 0.000000 0.000000 0.039567
#
#
# Mechanical properties :
#
#
# Convention : Reuss Voigt Hill
#
# Bulk Modulus (GPa) = 59.44670 70.91072 65.17871
# Shear Modulus (GPa) = 11.27772 20.53792 15.90782
#
# Velocity S-wave (km/s) = 2.57214 3.47106 3.05485
# Velocity P-wave (km/s) = 6.61021 7.59363 7.11892
#
# Compressibility (1/GPa) = 0.01682179
#
# Stress axis : x y z
#
# Youngs Moduli (GPa) = 18.94291 95.02915 44.09955
#
# Poissons Ratio (x) = 0.96441 1.15277
# Poissons Ratio (y) = 0.19224 -0.07519
# Poissons Ratio (z) = 0.49517 -0.16203
#
# Static dielectric constant tensor:
#      x y z
#    x 1.569780 0.000000 0.000000 
#    y 0.000000 1.567710 0.000000 
#    z 0.000000 0.000000 1.544240 
# 
# From -- ./inp_files/774.got.cif
#   From: 2010.05.17/outbox.cif.g08.bks.cpg/sg18_1_cif.got.tgz:774.got - 2010.06.03 22:40:56.
