data_PCOD9311405
_publ_section_title
;
Structure prediction by ZEFSAII (Michael W. Deem and Ramdas Pophale) SiO2 
 PCOD9311405
Probable space group: P 2 2 21
;
_chemical_formula_sum "Si O2"
_cell_formula_units_Z 18
_cell_length_a 7.561980
_cell_length_b 11.488000
_cell_length_c 8.629157
_cell_angle_alpha 90.000000
_cell_angle_beta 90.000000
_cell_angle_gamma 90.000000
_cell_volume 749.632353
_symmetry_space_group_name_H-M "P 2 2 21"
_symmetry_group_IT_number 17
_symmetry_cell_setting 'orthorhombic'
loop_
_space_group_symop_operation_xyz
x,y,z
-x,-y,1/2+z
x,-y,-z
-x,y,1/2-z
loop_
_atom_site_type_symbol
_atom_site_label
_atom_site_fract_x
_atom_site_fract_y
_atom_site_fract_z
Si Si1 0.000000 0.800524 0.750000
Si Si2 0.792572 0.807240 0.217870
Si Si3 0.500000 0.372261 0.250000
Si Si4 0.634117 0.000000 0.000000
Si Si5 0.196481 0.618314 0.527823
Si Si6 0.330421 0.167128 0.067041
O O1 0.911359 0.715874 0.877115
O O2 0.846577 0.870282 0.659621
O O3 0.746724 0.917261 0.110297
O O4 0.701274 0.821636 0.384038
O O5 0.000000 0.800035 0.250000
O O6 0.741979 0.690503 0.122794
O O7 0.643456 0.427464 0.136734
O O8 0.383750 0.290386 0.137984
O O9 0.498860 0.085173 0.087241
O O10 0.087285 0.500000 0.500000
#
# Coordination Sequence:
#
# PCOD9311405 Si02
#       6
#     2   4   2   2   4   4
#     4  10  24  46  72 110 156 196 258 320 378 456
#     4  12  27  51  74 113 152 198 256 313 390 466
#     4  10  24  46  70 110 148 192 256 318 376 456
#     4  12  28  48  78 106 148 202 256 316 390 462
#     4  11  25  46  76 111 154 200 255 318 390 457
#     4  11  25  47  75 105 154 198 251 321 370 468
#
# _framework density 24.011769999999999
#
# number of rings (size 3 to 8) (size 9 to 14) (size 15 to 20)
#    0.000    0.889    4.444    0.667    4.667    2.667 
#    4.000    4.444    0.000    0.000    0.000    0.000 
#    0.000    0.000    0.000    0.000    0.000    0.000 
#
# Total GULP energy -100748.247732 kJ/mol
# GULP energy per Si atom -5597.124874 kJ/mol
# Density = 2.395712 g / cm^3
# Si number density = 24.011770 Si / 1000 Ang^3
#
#
#
# Elastic Constant Matrix: (Units=GPa)
#
#
# Indices 1 2 3 4 5 6 
#
# 1 77.9368 13.9188 25.6587 0.0000 0.0000 0.0000
# 2 13.9188 106.3572 60.2039 0.0000 0.0000 0.0000
# 3 25.6587 60.2039 161.1254 0.0000 0.0000 0.0000
# 4 0.0000 0.0000 0.0000 29.7865 0.0000 0.0000
# 5 0.0000 0.0000 0.0000 0.0000 44.3559 0.0000
# 6 0.0000 0.0000 0.0000 0.0000 0.0000 13.5790
#
#
#
# Elastic Compliance Matrix: (Units=1/GPa)
#
#
# Indices 1 2 3 4 5 6 
#
# 1 0.013582 -0.000702 -0.001901 0.000000 0.000000 0.000000
# 2 -0.000702 0.011961 -0.004357 0.000000 0.000000 0.000000
# 3 -0.001901 -0.004357 0.008137 0.000000 0.000000 0.000000
# 4 0.000000 0.000000 0.000000 0.033572 0.000000 0.000000
# 5 0.000000 0.000000 0.000000 0.000000 0.022545 0.000000
# 6 0.000000 0.000000 0.000000 0.000000 0.000000 0.073643
#
#
# Mechanical properties :
#
#
# Convention : Reuss Voigt Hill
#
# Bulk Modulus (GPa) = 50.60603 60.55357 55.57980
# Shear Modulus (GPa) = 27.18191 33.92014 30.55103
#
# Velocity S-wave (km/s) = 3.36821 3.76260 3.57085
# Velocity P-wave (km/s) = 6.02061 6.64449 6.34022
#
# Compressibility (1/GPa) = 0.01976049
#
# Stress axis : x y z
#
# Youngs Moduli (GPa) = 73.62698 83.60815 122.89348
#
# Poissons Ratio (x) = 0.05865 0.23359
# Poissons Ratio (y) = 0.05165 0.53548
# Poissons Ratio (z) = 0.13995 0.36431
#
# Static dielectric constant tensor:
#      x y z
#    x 1.948140 0.000000 0.000000 
#    y 0.000000 1.933390 0.000000 
#    z 0.000000 0.000000 1.916720 
# 
# From -- ./inp_files/4051.got.cif
#   From: 2010.05.17/outbox.cif.g08.bks.cpg/sg17_3_cif.got.tgz:4051.got - 2010.06.03 22:34:06.
