data_PCOD9311305
_publ_section_title
;
Structure prediction by ZEFSAII (Michael W. Deem and Ramdas Pophale) SiO2 
 PCOD9311305
Probable space group: P 2 2 21
;
_chemical_formula_sum "Si O2"
_cell_formula_units_Z 18
_cell_length_a 5.250690
_cell_length_b 7.236360
_cell_length_c 17.022131
_cell_angle_alpha 90.000000
_cell_angle_beta 90.000000
_cell_angle_gamma 90.000000
_cell_volume 646.770899
_symmetry_space_group_name_H-M "P 2 2 21"
_symmetry_group_IT_number 17
_symmetry_cell_setting 'orthorhombic'
loop_
_space_group_symop_operation_xyz
x,y,z
-x,-y,1/2+z
x,-y,-z
-x,y,1/2-z
loop_
_atom_site_type_symbol
_atom_site_label
_atom_site_fract_x
_atom_site_fract_y
_atom_site_fract_z
Si Si1 0.761302 0.052431 0.797328
Si Si2 0.000000 0.427981 0.750000
Si Si3 0.416709 0.481848 0.840453
Si Si4 0.324686 0.210894 0.439560
Si Si5 0.188038 0.285762 0.972928
O O1 0.500000 0.027047 0.750000
O O2 0.000000 0.971765 0.750000
O O3 0.832321 0.271730 0.798918
O O4 0.743072 0.948290 0.878822
O O5 0.130300 0.552169 0.817320
O O6 0.500000 0.485957 0.750000
O O7 0.610021 0.600965 0.891058
O O8 0.321331 0.297401 0.886413
O O9 0.603145 0.180603 0.476085
O O10 0.097480 0.230584 0.502850
O O11 0.201818 0.500000 0.000000
#
# Coordination Sequence:
#
# PCOD9311305 Si02
#       5
#     4   2   4   4   4
#     4  10  22  45  72 100 147 196 249 305 360 453
#     4  10  26  44  76 102 162 188 248 316 378 446
#     4  11  25  43  76 111 149 195 257 306 390 443
#     4  11  23  43  72 105 141 193 246 308 365 441
#     4  10  23  42  66 105 152 181 239 318 371 433
#
# _framework density 27.830563999999999
#
# number of rings (size 3 to 8) (size 9 to 14) (size 15 to 20)
#    0.667    0.889    0.000    4.667    9.333    1.778 
#    2.000    1.111    0.000    0.000    0.000    0.000 
#    0.000    0.000    0.000    0.000    0.000    0.000 
#
# Total GULP energy -100403.234730 kJ/mol
# GULP energy per Si atom -5577.957485 kJ/mol
# Density = 2.776722 g / cm^3
# Si number density = 27.830564 Si / 1000 Ang^3
#
#
#
# Elastic Constant Matrix: (Units=GPa)
#
#
# Indices 1 2 3 4 5 6 
#
# 1 218.0233 53.0139 81.3874 0.0000 0.0000 0.0000
# 2 53.0139 106.7401 44.3454 0.0000 0.0000 0.0000
# 3 81.3874 44.3454 155.5070 0.0000 0.0000 0.0000
# 4 0.0000 0.0000 0.0000 22.8945 0.0000 0.0000
# 5 0.0000 0.0000 0.0000 0.0000 71.3173 0.0000
# 6 0.0000 0.0000 0.0000 0.0000 0.0000 -51.0313
#
#
#
# Elastic Compliance Matrix: (Units=1/GPa)
#
#
# Indices 1 2 3 4 5 6 
#
# 1 0.006025 -0.001908 -0.002609 0.000000 0.000000 0.000000
# 2 -0.001908 0.011232 -0.002204 0.000000 0.000000 0.000000
# 3 -0.002609 -0.002204 0.008425 0.000000 0.000000 0.000000
# 4 0.000000 0.000000 0.000000 0.043679 0.000000 0.000000
# 5 0.000000 0.000000 0.000000 0.000000 0.014022 0.000000
# 6 0.000000 0.000000 0.000000 0.000000 0.000000 -0.019596
#
#
# Mechanical properties :
#
#
# Convention : Reuss Voigt Hill
#
# Bulk Modulus (GPa) = 81.71060 93.08487 87.39773
# Shear Modulus (GPa) = 61.49429 28.73766 45.11597
#
# Velocity S-wave (km/s) = 4.70573 3.21689 4.03065
# Velocity P-wave (km/s) = 7.67782 6.87876 7.28925
#
# Compressibility (1/GPa) = 0.01223831
#
# Stress axis : x y z
#
# Youngs Moduli (GPa) = 165.98681 89.03043 118.70037
#
# Poissons Ratio (x) = 0.16990 0.30968
# Poissons Ratio (y) = 0.31676 0.26165
# Poissons Ratio (z) = 0.43304 0.19625
#
# Static dielectric constant tensor:
#      x y z
#    x 3.215360 0.000000 0.000000 
#    y 0.000000 2.185530 0.000000 
#    z 0.000000 0.000000 2.503410 
# 
# From -- ./inp_files/8928.got.cif
#   From: 2010.05.17/outbox.cif.g08.bks.cpg/sg17_5_cif.got.tgz:8928.got - 2010.06.03 22:34:06.
