data_PCOD9311953
_publ_section_title
;
Structure prediction by ZEFSAII (Michael W. Deem and Ramdas Pophale) SiO2 
 PCOD9311953
Probable space group: P 21 21 2
;
_chemical_formula_sum "Si O2"
_cell_formula_units_Z 30
_cell_length_a 10.685799
_cell_length_b 21.432401
_cell_length_c 5.125584
_cell_angle_alpha 90.000000
_cell_angle_beta 90.000000
_cell_angle_gamma 90.000000
_cell_volume 1173.873186
_symmetry_space_group_name_H-M "P 21 21 2"
_symmetry_group_IT_number 18
_symmetry_cell_setting 'orthorhombic'
loop_
_space_group_symop_operation_xyz
x,y,z
-x,-y,z
1/2+x,1/2-y,-z
1/2-x,1/2+y,-z
loop_
_atom_site_type_symbol
_atom_site_label
_atom_site_fract_x
_atom_site_fract_y
_atom_site_fract_z
Si Si1 0.284377 0.971715 0.086497
Si Si2 0.223145 0.202274 0.971074
Si Si3 0.909585 0.892795 0.668931
Si Si4 0.425102 0.303566 0.594050
Si Si5 0.262403 0.331092 0.088924
Si Si6 0.500000 0.500000 0.026415
Si Si7 0.608624 0.823773 0.466747
Si Si8 0.647655 0.957158 0.578911
O O1 0.284661 0.899033 0.999868
O O2 0.136989 0.994836 0.108186
O O3 0.351672 0.990984 0.354522
O O4 0.354502 0.010787 0.860116
O O5 0.120591 0.151253 0.911902
O O6 0.173345 0.270679 0.046249
O O7 0.294016 0.198313 0.691712
O O8 0.321113 0.179640 0.190484
O O9 0.786078 0.927287 0.577744
O O10 0.966074 0.852754 0.442395
O O11 0.005840 0.941945 0.778948
O O12 0.368763 0.311130 0.879892
O O13 0.478729 0.236730 0.493958
O O14 0.319780 0.325158 0.378913
O O15 0.566319 0.894233 0.529564
#
# Coordination Sequence:
#
# PCOD9311953 Si02
#       8
#     4   4   4   4   4   2   4   4
#     4  11  21  31  47  70 101 134 163 192 246 298
#     4   9  19  33  50  64  97 134 172 202 234 288
#     4  10  20  33  47  76 100 135 158 201 247 299
#     4  10  20  31  50  68  98 128 168 203 240 289
#     4  10  20  34  47  69  97 135 170 201 238 290
#     4  10  20  28  46  70 108 128 152 194 248 306
#     4   9  17  34  48  66  92 133 166 205 237 281
#     4  10  21  31  48  69 100 130 163 196 242 299
#
# _framework density 25.556421
#
# number of rings (size 3 to 8) (size 9 to 14) (size 15 to 20)
#    0.000    2.133    1.333    3.200    3.733    2.667 
#    0.000    0.000    0.000    0.000    0.000    0.933 
#    0.000    6.400    0.000    0.000    0.000    0.000 
#
# Total GULP energy -167609.332854 kJ/mol
# GULP energy per Si atom -5586.977762 kJ/mol
# Density = 2.549825 g / cm^3
# Si number density = 25.556421 Si / 1000 Ang^3
#
#
#
# Elastic Constant Matrix: (Units=GPa)
#
#
# Indices 1 2 3 4 5 6 
#
# 1 40.8605 21.6235 23.4370 0.0000 0.0000 0.0000
# 2 21.6235 158.6961 14.6905 0.0000 0.0000 0.0000
# 3 23.4370 14.6905 144.4336 0.0000 0.0000 0.0000
# 4 0.0000 0.0000 0.0000 26.6063 0.0000 0.0000
# 5 0.0000 0.0000 0.0000 0.0000 7.6018 0.0000
# 6 0.0000 0.0000 0.0000 0.0000 0.0000 -95.7403
#
#
#
# Elastic Compliance Matrix: (Units=1/GPa)
#
#
# Indices 1 2 3 4 5 6 
#
# 1 0.028816 -0.003527 -0.004317 0.000000 0.000000 0.000000
# 2 -0.003527 0.006793 -0.000119 0.000000 0.000000 0.000000
# 3 -0.004317 -0.000119 0.007636 0.000000 0.000000 0.000000
# 4 0.000000 0.000000 0.000000 0.037585 0.000000 0.000000
# 5 0.000000 0.000000 0.000000 0.000000 0.131548 0.000000
# 6 0.000000 0.000000 0.000000 0.000000 0.000000 -0.010445
#
#
# Mechanical properties :
#
#
# Convention : Reuss Voigt Hill
#
# Bulk Modulus (GPa) = 36.60322 51.49914 44.05118
# Shear Modulus (GPa) = 22.02975 6.64284 14.33630
#
# Velocity S-wave (km/s) = 2.93918 1.61398 2.37104
# Velocity P-wave (km/s) = 5.08645 4.86499 4.97695
#
# Compressibility (1/GPa) = 0.02732000
#
# Stress axis : x y z
#
# Youngs Moduli (GPa) = 34.70272 147.21295 130.95490
#
# Poissons Ratio (x) = 0.51919 0.56536
# Poissons Ratio (y) = 0.12239 0.01554
# Poissons Ratio (z) = 0.14982 0.01746
#
# Static dielectric constant tensor:
#      x y z
#    x 2.244090 0.000000 0.000000 
#    y 0.000000 2.169830 0.000000 
#    z 0.000000 0.000000 1.954750 
# 
# From -- ./inp_files/1659.got.cif
#   From: 2010.05.17/outbox.cif.g08.bks.cpg/sg18_1_cif.got.tgz:1659.got - 2010.06.03 22:40:56.
