data_PCOD9311101
_publ_section_title
;
Structure prediction by ZEFSAII (Michael W. Deem and Ramdas Pophale) SiO2 
 PCOD9311101
Probable space group: P 2 2 21
;
_chemical_formula_sum "Si O2"
_cell_formula_units_Z 24
_cell_length_a 11.405088
_cell_length_b 9.464149
_cell_length_c 10.463007
_cell_angle_alpha 90.000000
_cell_angle_beta 90.000000
_cell_angle_gamma 90.000000
_cell_volume 1129.371244
_symmetry_space_group_name_H-M "P 2 2 21"
_symmetry_group_IT_number 17
_symmetry_cell_setting 'orthorhombic'
loop_
_space_group_symop_operation_xyz
x,y,z
-x,-y,1/2+z
x,-y,-z
-x,y,1/2-z
loop_
_atom_site_type_symbol
_atom_site_label
_atom_site_fract_x
_atom_site_fract_y
_atom_site_fract_z
Si Si1 0.561191 0.402505 0.381846
Si Si2 0.827463 0.543510 0.682279
Si Si3 0.447179 0.900829 0.623021
Si Si4 0.870209 0.246443 0.791059
Si Si5 0.934842 0.313977 0.083496
Si Si6 0.190756 0.948986 0.644779
O O1 0.525507 0.500000 0.500000
O O2 0.500000 0.451529 0.250000
O O3 0.701737 0.409797 0.367760
O O4 0.516832 0.243070 0.401925
O O5 0.831299 0.373480 0.698360
O O6 0.851134 0.592664 0.827420
O O7 0.936207 0.615549 0.603656
O O8 0.500000 0.971132 0.750000
O O9 0.312587 0.866761 0.659136
O O10 0.450324 0.000000 0.500000
O O11 0.000000 0.206519 0.750000
O O12 0.803333 0.097271 0.780393
O O13 0.887915 0.299312 0.938518
O O14 0.917259 0.159057 0.147225
O O15 0.187907 0.000000 0.500000
#
# Coordination Sequence:
#
# PCOD9311101 Si02
#       6
#     4   4   4   4   4   4
#     4  11  27  46  68 101 138 181 240 293 346 418
#     4  11  24  38  67  94 138 177 216 279 338 411
#     4  10  22  45  69  95 132 178 239 290 345 406
#     4  11  23  38  63 101 135 171 224 270 340 423
#     4  10  21  41  63  96 136 179 212 278 347 405
#     4   9  21  41  65  90 127 174 226 274 333 413
#
# _framework density 21.250761000000001
#
# number of rings (size 3 to 8) (size 9 to 14) (size 15 to 20)
#    0.000    1.667    1.667    2.500    4.667    7.333 
#    0.000    0.833    0.000    0.000    0.000    0.000 
#    0.000    0.000    0.000    0.000    0.000    0.000 
#
# Total GULP energy -133788.185610 kJ/mol
# GULP energy per Si atom -5574.507734 kJ/mol
# Density = 2.120239 g / cm^3
# Si number density = 21.250761 Si / 1000 Ang^3
#
#
#
# Elastic Constant Matrix: (Units=GPa)
#
#
# Indices 1 2 3 4 5 6 
#
# 1 119.3340 72.5999 28.6428 0.0000 0.0000 0.0000
# 2 72.5999 152.3093 34.3665 0.0000 0.0000 0.0000
# 3 28.6428 34.3665 107.0938 0.0000 0.0000 0.0000
# 4 0.0000 0.0000 0.0000 26.3303 0.0000 0.0000
# 5 0.0000 0.0000 0.0000 0.0000 9.1806 0.0000
# 6 0.0000 0.0000 0.0000 0.0000 0.0000 22.2117
#
#
#
# Elastic Compliance Matrix: (Units=1/GPa)
#
#
# Indices 1 2 3 4 5 6 
#
# 1 0.012017 -0.005393 -0.001483 0.000000 0.000000 0.000000
# 2 -0.005393 0.009499 -0.001606 0.000000 0.000000 0.000000
# 3 -0.001483 -0.001606 0.010250 0.000000 0.000000 0.000000
# 4 0.000000 0.000000 0.000000 0.037979 0.000000 0.000000
# 5 0.000000 0.000000 0.000000 0.000000 0.108925 0.000000
# 6 0.000000 0.000000 0.000000 0.000000 0.000000 0.045021
#
#
# Mechanical properties :
#
#
# Convention : Reuss Voigt Hill
#
# Bulk Modulus (GPa) = 67.56438 72.21728 69.89083
# Shear Modulus (GPa) = 20.35918 27.75304 24.05611
#
# Velocity S-wave (km/s) = 3.09859 3.61775 3.36819
# Velocity P-wave (km/s) = 6.68315 7.17691 6.93443
#
# Compressibility (1/GPa) = 0.01480070
#
# Stress axis : x y z
#
# Youngs Moduli (GPa) = 83.21491 105.27763 97.56499
#
# Poissons Ratio (x) = 0.56780 0.14472
# Poissons Ratio (y) = 0.44881 0.15665
# Poissons Ratio (z) = 0.12343 0.16904
#
# Static dielectric constant tensor:
#      x y z
#    x 1.821890 0.000000 0.000000 
#    y 0.000000 1.894690 0.000000 
#    z 0.000000 0.000000 1.803950 
# 
# From -- ./inp_files/6925.got.cif
#   From: 2010.05.17/outbox.cif.g08.bks.cpg/sg17_4_cif.got.tgz:6925.got - 2010.06.03 22:34:06.
