data_PCOD9311293
_publ_section_title
;
Structure prediction by ZEFSAII (Michael W. Deem and Ramdas Pophale) SiO2 
 PCOD9311293
Probable space group: P 2 2 21
;
_chemical_formula_sum "Si O2"
_cell_formula_units_Z 32
_cell_length_a 8.528331
_cell_length_b 5.751570
_cell_length_c 27.061462
_cell_angle_alpha 90.000000
_cell_angle_beta 90.000000
_cell_angle_gamma 90.000000
_cell_volume 1327.399694
_symmetry_space_group_name_H-M "P 2 2 21"
_symmetry_group_IT_number 17
_symmetry_cell_setting 'orthorhombic'
loop_
_space_group_symop_operation_xyz
x,y,z
-x,-y,1/2+z
x,-y,-z
-x,y,1/2-z
loop_
_atom_site_type_symbol
_atom_site_label
_atom_site_fract_x
_atom_site_fract_y
_atom_site_fract_z
Si Si1 0.134287 0.299437 0.467017
Si Si2 0.164560 0.775157 0.700254
Si Si3 0.352261 0.214845 0.125202
Si Si4 0.890949 0.603034 0.126999
Si Si5 0.676977 0.000383 0.104347
Si Si6 0.217698 0.749284 0.980157
Si Si7 0.878869 0.113068 0.680805
Si Si8 0.657430 0.501276 0.279704
O O1 0.216157 0.500000 0.500000
O O2 0.086788 0.422548 0.415931
O O3 0.968867 0.244282 0.492384
O O4 0.236088 0.087657 0.445543
O O5 0.110294 0.526121 0.679370
O O6 0.732572 0.712358 0.752093
O O7 0.266083 0.874398 0.654982
O O8 0.017120 0.948699 0.701936
O O9 0.500293 0.081883 0.102522
O O10 0.246790 0.272546 0.078265
O O11 0.385834 0.423022 0.164209
O O12 0.259030 0.038425 0.159171
O O13 0.035338 0.775062 0.132992
O O14 0.730908 0.738177 0.114560
O O15 0.279895 0.500000 0.000000
O O16 0.280353 0.000000 0.000000
O O17 0.792377 0.302442 0.715192
O O18 0.500000 0.574799 0.250000
#
# Coordination Sequence:
#
# PCOD9311293 Si02
#       8
#     4   4   4   4   4   4   4   4
#     4  10  23  41  73 102 138 193 260 320 385 476
#     4  10  23  48  70 108 140 197 261 315 377 479
#     4  12  27  46  72 114 159 203 257 327 398 494
#     4  10  22  44  70 104 141 195 249 325 377 468
#     4  10  23  43  70 101 152 192 252 316 400 464
#     4  11  27  49  80 116 154 205 267 335 407 482
#     4  11  26  43  78 104 150 200 265 313 392 470
#     4  12  27  47  78 111 162 210 258 331 410 477
#
# _framework density 24.107279999999999
#
# number of rings (size 3 to 8) (size 9 to 14) (size 15 to 20)
#    0.000    1.250    1.250    3.750   10.500    6.000 
#    2.250    0.000    0.000    0.000    0.000    0.000 
#    0.000    0.000    0.000    0.000    0.000    0.000 
#
# Total GULP energy -178740.035435 kJ/mol
# GULP energy per Si atom -5585.626107 kJ/mol
# Density = 2.405241 g / cm^3
# Si number density = 24.107280 Si / 1000 Ang^3
#
#
#
# Elastic Constant Matrix: (Units=GPa)
#
#
# Indices 1 2 3 4 5 6 
#
# 1 87.3620 15.2060 2.6755 0.0000 0.0000 0.0000
# 2 15.2060 96.0758 33.4962 0.0000 0.0000 0.0000
# 3 2.6755 33.4962 104.1801 0.0000 0.0000 0.0000
# 4 0.0000 0.0000 0.0000 18.7593 0.0000 0.0000
# 5 0.0000 0.0000 0.0000 0.0000 96.6682 0.0000
# 6 0.0000 0.0000 0.0000 0.0000 0.0000 34.3620
#
#
#
# Elastic Compliance Matrix: (Units=1/GPa)
#
#
# Indices 1 2 3 4 5 6 
#
# 1 0.011781 -0.001981 0.000334 0.000000 0.000000 0.000000
# 2 -0.001981 0.012056 -0.003825 0.000000 0.000000 0.000000
# 3 0.000334 -0.003825 0.010820 0.000000 0.000000 0.000000
# 4 0.000000 0.000000 0.000000 0.053307 0.000000 0.000000
# 5 0.000000 0.000000 0.000000 0.000000 0.010345 0.000000
# 6 0.000000 0.000000 0.000000 0.000000 0.000000 0.029102
#
#
# Mechanical properties :
#
#
# Convention : Reuss Voigt Hill
#
# Bulk Modulus (GPa) = 42.17122 43.37483 42.77302
# Shear Modulus (GPa) = 34.18594 45.70724 39.94659
#
# Velocity S-wave (km/s) = 3.76982 4.35902 4.07508
# Velocity P-wave (km/s) = 6.03985 6.58531 6.31847
#
# Compressibility (1/GPa) = 0.02371286
#
# Stress axis : x y z
#
# Youngs Moduli (GPa) = 84.88076 82.94847 92.42071
#
# Poissons Ratio (x) = 0.16434 -0.03091
# Poissons Ratio (y) = 0.16817 0.35354
# Poissons Ratio (z) = -0.02839 0.31730
#
# Static dielectric constant tensor:
#      x y z
#    x 1.919070 0.000000 0.000000 
#    y 0.000000 1.827500 0.000000 
#    z 0.000000 0.000000 1.902720 
# 
# From -- ./inp_files/11242.got.cif
#   From: 2010.05.17/outbox.cif.g08.bks.cpg/sg17_6_cif.got.tgz:11242.got - 2010.06.03 22:34:06.
