data_PCOD9311945
_publ_section_title
;
Structure prediction by ZEFSAII (Michael W. Deem and Ramdas Pophale) SiO2 
 PCOD9311945
Probable space group: P 21 21 2
;
_chemical_formula_sum "Si O2"
_cell_formula_units_Z 20
_cell_length_a 7.517429
_cell_length_b 14.290624
_cell_length_c 8.549684
_cell_angle_alpha 90.000000
_cell_angle_beta 90.000000
_cell_angle_gamma 90.000000
_cell_volume 918.481876
_symmetry_space_group_name_H-M "P 21 21 2"
_symmetry_group_IT_number 18
_symmetry_cell_setting 'orthorhombic'
loop_
_space_group_symop_operation_xyz
x,y,z
-x,-y,z
1/2+x,1/2-y,-z
1/2-x,1/2+y,-z
loop_
_atom_site_type_symbol
_atom_site_label
_atom_site_fract_x
_atom_site_fract_y
_atom_site_fract_z
Si Si1 0.269586 0.241038 0.141292
Si Si2 0.905872 0.414844 0.644562
Si Si3 0.807990 0.677118 0.448432
Si Si4 0.102820 0.126208 0.572228
Si Si5 0.046181 0.103703 0.928539
O O1 0.398178 0.175837 0.246029
O O2 0.144953 0.286180 0.274693
O O3 0.372931 0.329239 0.072255
O O4 0.181705 0.167432 0.025815
O O5 0.713310 0.427880 0.562584
O O6 0.000000 0.500000 0.732786
O O7 0.044530 0.393473 0.506581
O O8 0.815649 0.769715 0.555462
O O9 0.609032 0.636121 0.454424
O O10 0.117473 0.091453 0.750241
O O11 0.000000 0.000000 0.990030
#
# Coordination Sequence:
#
# PCOD9311945 Si02
#       5
#     4   4   4   4   4
#     4  10  25  45  63 100 141 178 224 289 344 410
#     4  11  24  41  67 103 133 179 229 280 349 407
#     4  10  19  42  65  96 132 172 224 282 346 393
#     4  10  21  40  68  98 133 174 227 286 338 410
#     4  11  25  45  67 101 138 186 232 277 355 418
#
# _framework density 21.775061000000001
#
# number of rings (size 3 to 8) (size 9 to 14) (size 15 to 20)
#    0.000    1.600    6.000    0.000    8.400    1.600 
#    7.200    1.000    0.000    0.000    0.000    0.000 
#    0.000    0.000    0.000    0.000    0.000    0.000 
#
# Total GULP energy -111527.910982 kJ/mol
# GULP energy per Si atom -5576.395549 kJ/mol
# Density = 2.172550 g / cm^3
# Si number density = 21.775061 Si / 1000 Ang^3
#
#
#
# Elastic Constant Matrix: (Units=GPa)
#
#
# Indices 1 2 3 4 5 6 
#
# 1 76.2183 27.9179 32.8111 0.0000 0.0000 0.0000
# 2 27.9179 132.0496 29.1306 0.0000 0.0000 0.0000
# 3 32.8111 29.1306 36.5935 0.0000 0.0000 0.0000
# 4 0.0000 0.0000 0.0000 10.6331 0.0000 0.0000
# 5 0.0000 0.0000 0.0000 0.0000 25.5040 0.0000
# 6 0.0000 0.0000 0.0000 0.0000 0.0000 36.1166
#
#
#
# Elastic Compliance Matrix: (Units=1/GPa)
#
#
# Indices 1 2 3 4 5 6 
#
# 1 0.021382 -0.000353 -0.018890 0.000000 0.000000 0.000000
# 2 -0.000353 0.009192 -0.007001 0.000000 0.000000 0.000000
# 3 -0.018890 -0.007001 0.049838 0.000000 0.000000 0.000000
# 4 0.000000 0.000000 0.000000 0.094046 0.000000 0.000000
# 5 0.000000 0.000000 0.000000 0.000000 0.039210 0.000000
# 6 0.000000 0.000000 0.000000 0.000000 0.000000 0.027688
#
#
# Mechanical properties :
#
#
# Convention : Reuss Voigt Hill
#
# Bulk Modulus (GPa) = 35.81260 47.17562 41.49411
# Shear Modulus (GPa) = 16.49337 24.78418 20.63878
#
# Velocity S-wave (km/s) = 2.75515 3.37737 3.08200
# Velocity P-wave (km/s) = 5.15786 6.07625 5.63579
#
# Compressibility (1/GPa) = 0.02792313
#
# Stress axis : x y z
#
# Youngs Moduli (GPa) = 46.76894 108.79089 20.06498
#
# Poissons Ratio (x) = 0.03843 0.37904
# Poissons Ratio (y) = 0.01652 0.14047
# Poissons Ratio (z) = 0.88349 0.76160
#
# Static dielectric constant tensor:
#      x y z
#    x 1.858940 0.000000 0.000000 
#    y 0.000000 1.911600 0.000000 
#    z 0.000000 0.000000 1.853300 
# 
# From -- ./inp_files/3090.got.cif
#   From: 2010.05.17/outbox.cif.g08.bks.cpg/sg18_2_cif.got.tgz:3090.got - 2010.06.03 22:40:56.
