data_PCOD9311799
_publ_section_title
;
Structure prediction by ZEFSAII (Michael W. Deem and Ramdas Pophale) SiO2 
 PCOD9311799
Probable space group: P 21 21 2
;
_chemical_formula_sum "Si O2"
_cell_formula_units_Z 32
_cell_length_a 15.733665
_cell_length_b 5.399925
_cell_length_c 18.491703
_cell_angle_alpha 90.000000
_cell_angle_beta 90.000000
_cell_angle_gamma 90.000000
_cell_volume 1571.066385
_symmetry_space_group_name_H-M "P 21 21 2"
_symmetry_group_IT_number 18
_symmetry_cell_setting 'orthorhombic'
loop_
_space_group_symop_operation_xyz
x,y,z
-x,-y,z
1/2+x,1/2-y,-z
1/2-x,1/2+y,-z
loop_
_atom_site_type_symbol
_atom_site_label
_atom_site_fract_x
_atom_site_fract_y
_atom_site_fract_z
Si Si1 0.258245 0.749566 0.775500
Si Si2 0.552705 0.249974 0.842863
Si Si3 0.174504 0.750522 0.929657
Si Si4 0.364834 0.750520 0.998597
Si Si5 0.241920 0.749562 0.314753
Si Si6 0.294672 0.751754 0.474101
Si Si7 0.015482 0.249971 0.528091
Si Si8 0.951393 0.249974 0.369460
O O1 0.356842 0.749865 0.801995
O O2 0.197847 0.750221 0.845490
O O3 0.244154 0.499123 0.730433
O O4 0.244165 0.999242 0.730068
O O5 0.500000 0.500000 0.826810
O O6 0.500000 0.000000 0.826723
O O7 0.575654 0.249746 0.928329
O O8 0.127377 0.501980 0.955551
O O9 0.127425 0.999247 0.955455
O O10 0.267401 0.750547 0.968626
O O11 0.296936 0.750263 0.387538
O O12 0.143891 0.749923 0.341421
O O13 0.249518 0.502855 0.500316
O O14 0.390016 0.750257 0.502833
O O15 0.000000 0.500000 0.570351
O O16 0.955033 0.249841 0.457463
O O17 0.000000 0.000000 0.570368
O O18 0.000000 0.500000 0.346662
O O19 0.000000 0.000000 0.346603
#
# Coordination Sequence:
#
# PCOD9311799 Si02
#       8
#     4   4   4   4   4   4   4   4
#     4  11  24  38  54  82 119 158 191 225 285 359
#     4  11  22  36  54  85 127 161 194 230 274 339
#     4   9  17  33  54  77 105 140 190 234 268 309
#     4   9  17  31  55  80 104 145 191 235 267 299
#     4  12  24  37  56  84 117 153 197 244 297 363
#     4  12  23  40  62  87 116 149 199 267 317 352
#     4  10  20  36  57  82 107 139 181 234 303 363
#     4  10  19  33  50  73 105 143 183 223 275 352
#
# _framework density 20.368331999999999
#
# number of rings (size 3 to 8) (size 9 to 14) (size 15 to 20)
#    0.000    1.500    0.000    7.500    0.000    7.000 
#    0.000    0.000    0.000    0.000    0.000   17.500 
#    0.000    0.000    0.000    0.000    0.000    0.000 
#
# Total GULP energy -178901.986717 kJ/mol
# GULP energy per Si atom -5590.687085 kJ/mol
# Density = 2.032197 g / cm^3
# Si number density = 20.368332 Si / 1000 Ang^3
#
#
#
# Elastic Constant Matrix: (Units=GPa)
#
#
# Indices 1 2 3 4 5 6 
#
# 1 17.4868 26.6412 2.9651 0.0000 0.0000 0.0000
# 2 26.6412 280.0054 80.1782 0.0000 0.0000 0.0000
# 3 2.9651 80.1782 129.5566 0.0000 0.0000 0.0000
# 4 0.0000 0.0000 0.0000 18.3981 0.0000 0.0000
# 5 0.0000 0.0000 0.0000 0.0000 27.3351 0.0000
# 6 0.0000 0.0000 0.0000 0.0000 0.0000 17.1320
#
#
#
# Elastic Compliance Matrix: (Units=1/GPa)
#
#
# Indices 1 2 3 4 5 6 
#
# 1 0.067806 -0.007301 0.002966 0.000000 0.000000 0.000000
# 2 -0.007301 0.005127 -0.003006 0.000000 0.000000 0.000000
# 3 0.002966 -0.003006 0.009511 0.000000 0.000000 0.000000
# 4 0.000000 0.000000 0.000000 0.054354 0.000000 0.000000
# 5 0.000000 0.000000 0.000000 0.000000 0.036583 0.000000
# 6 0.000000 0.000000 0.000000 0.000000 0.000000 0.058370
#
#
# Mechanical properties :
#
#
# Convention : Reuss Voigt Hill
#
# Bulk Modulus (GPa) = 14.75725 71.84641 43.30183
# Shear Modulus (GPa) = 18.58610 33.72397 26.15504
#
# Velocity S-wave (km/s) = 3.02404 4.07345 3.58733
# Velocity P-wave (km/s) = 4.41067 7.58117 6.20194
#
# Compressibility (1/GPa) = 0.06776332
#
# Stress axis : x y z
#
# Youngs Moduli (GPa) = 14.74797 195.05933 105.14340
#
# Poissons Ratio (x) = 1.42410 -0.31190
# Poissons Ratio (y) = 0.10767 0.31602
# Poissons Ratio (z) = -0.04375 0.58627
#
# Static dielectric constant tensor:
#      x y z
#    x 1.723270 0.000000 0.000000 
#    y 0.000000 1.768230 0.000000 
#    z 0.000000 0.000000 1.713610 
# 
# From -- ./inp_files/7429.got.cif
#   From: 2010.05.17/outbox.cif.g08.bks.cpg/sg18_4_cif.got.tgz:7429.got - 2010.06.03 22:40:56.
