data_PCOD9311733
_publ_section_title
;
Structure prediction by ZEFSAII (Michael W. Deem and Ramdas Pophale) SiO2 
 PCOD9311733
Probable space group: P 21 21 2
;
_chemical_formula_sum "Si O2"
_cell_formula_units_Z 24
_cell_length_a 16.239896
_cell_length_b 9.699567
_cell_length_c 8.329538
_cell_angle_alpha 90.000000
_cell_angle_beta 90.000000
_cell_angle_gamma 90.000000
_cell_volume 1312.068487
_symmetry_space_group_name_H-M "P 21 21 2"
_symmetry_group_IT_number 18
_symmetry_cell_setting 'orthorhombic'
loop_
_space_group_symop_operation_xyz
x,y,z
-x,-y,z
1/2+x,1/2-y,-z
1/2-x,1/2+y,-z
loop_
_atom_site_type_symbol
_atom_site_label
_atom_site_fract_x
_atom_site_fract_y
_atom_site_fract_z
Si Si1 0.072634 0.909233 0.249781
Si Si2 0.572376 0.887347 0.601672
Si Si3 0.550297 0.756976 0.265481
Si Si4 0.000000 0.000000 0.552932
Si Si5 0.191449 0.818377 0.984453
Si Si6 0.173752 0.525352 0.127939
Si Si7 0.000000 0.500000 0.949721
O O1 0.049424 0.750270 0.293590
O O2 0.924348 0.019629 0.426432
O O3 0.150359 0.899765 0.134610
O O4 0.000000 0.000000 0.169427
O O5 0.585641 0.837117 0.420376
O O6 0.500000 0.000000 0.602859
O O7 0.653474 0.948542 0.685630
O O8 0.496368 0.633932 0.338330
O O9 0.621773 0.697650 0.152247
O O10 0.499609 0.864986 0.160705
O O11 0.268335 0.899026 0.913939
O O12 0.209759 0.665215 0.050131
O O13 0.083033 0.505020 0.052202
#
# Coordination Sequence:
#
# PCOD9311733 Si02
#       7
#     4   4   4   2   4   4   2
#     4   8  18  35  57  84 115 152 194 237 290 362
#     4  10  18  36  62  81 116 153 194 239 297 357
#     4  10  20  35  59  90 116 145 198 254 285 353
#     4   8  18  34  56  86 120 152 190 232 304 352
#     4  10  22  38  58  87 123 150 202 254 287 347
#     4  10  22  40  59  86 119 159 199 243 299 357
#     4  10  20  38  62  86 114 154 206 240 284 362
#
# _framework density 18.291730000000001
#
# number of rings (size 3 to 8) (size 9 to 14) (size 15 to 20)
#    0.500    2.000    1.667    0.000    1.167    2.667 
#    0.000   10.000    0.000    0.000    0.000    0.000 
#    0.000    0.000    0.000    0.000    0.000    0.000 
#
# Total GULP energy -133628.158000 kJ/mol
# GULP energy per Si atom -5567.839917 kJ/mol
# Density = 1.825010 g / cm^3
# Si number density = 18.291730 Si / 1000 Ang^3
#
#
#
# Elastic Constant Matrix: (Units=GPa)
#
#
# Indices 1 2 3 4 5 6 
#
# 1 22.4399 30.4100 0.8620 0.0000 0.0000 0.0000
# 2 30.4100 67.0729 23.9055 0.0000 0.0000 0.0000
# 3 0.8620 23.9055 69.7883 0.0000 0.0000 0.0000
# 4 0.0000 0.0000 0.0000 28.8700 0.0000 0.0000
# 5 0.0000 0.0000 0.0000 0.0000 0.1696 0.0000
# 6 0.0000 0.0000 0.0000 0.0000 0.0000 38.7700
#
#
#
# Elastic Compliance Matrix: (Units=1/GPa)
#
#
# Indices 1 2 3 4 5 6 
#
# 1 0.142290 -0.072770 0.023169 0.000000 0.000000 0.000000
# 2 -0.072770 0.054199 -0.017667 0.000000 0.000000 0.000000
# 3 0.023169 -0.017667 0.020094 0.000000 0.000000 0.000000
# 4 0.000000 0.000000 0.000000 0.034638 0.000000 0.000000
# 5 0.000000 0.000000 0.000000 0.000000 5.896817 0.000000
# 6 0.000000 0.000000 0.000000 0.000000 0.000000 0.025793
#
#
# Mechanical properties :
#
#
# Convention : Reuss Voigt Hill
#
# Bulk Modulus (GPa) = 12.18791 29.96177 21.07484
# Shear Modulus (GPa) = 0.78918 20.50349 10.64633
#
# Velocity S-wave (km/s) = 0.65755 3.35164 2.41515
# Velocity P-wave (km/s) = 2.69333 5.60299 4.39588
#
# Compressibility (1/GPa) = 0.08204852
#
# Stress axis : x y z
#
# Youngs Moduli (GPa) = 7.02789 18.45058 49.76501
#
# Poissons Ratio (x) = 1.34266 -1.15303
# Poissons Ratio (y) = 0.51142 0.87918
# Poissons Ratio (z) = -0.16283 0.32596
#
# Static dielectric constant tensor:
#      x y z
#    x 1.587810 0.000000 0.000000 
#    y 0.000000 1.647830 0.000000 
#    z 0.000000 0.000000 1.661520 
# 
# From -- ./inp_files/4491.got.cif
#   From: 2010.05.17/outbox.cif.g08.bks.cpg/sg18_3_cif.got.tgz:4491.got - 2010.06.03 22:40:56.
