data_PCOD9311425
_publ_section_title
;
Structure prediction by ZEFSAII (Michael W. Deem and Ramdas Pophale) SiO2 
 PCOD9311425
Probable space group: P 2 2 21
;
_chemical_formula_sum "Si O2"
_cell_formula_units_Z 24
_cell_length_a 15.365422
_cell_length_b 9.299796
_cell_length_c 7.514697
_cell_angle_alpha 90.000000
_cell_angle_beta 90.000000
_cell_angle_gamma 90.000000
_cell_volume 1073.814807
_symmetry_space_group_name_H-M "P 2 2 21"
_symmetry_group_IT_number 17
_symmetry_cell_setting 'orthorhombic'
loop_
_space_group_symop_operation_xyz
x,y,z
-x,-y,1/2+z
x,-y,-z
-x,y,1/2-z
loop_
_atom_site_type_symbol
_atom_site_label
_atom_site_fract_x
_atom_site_fract_y
_atom_site_fract_z
Si Si1 0.794541 0.343835 0.924291
Si Si2 0.735372 0.136718 0.194572
Si Si3 0.282343 0.333755 0.950566
Si Si4 0.995749 0.664246 0.039794
Si Si5 0.597063 0.910277 0.319288
Si Si6 0.087651 0.915650 0.830172
O O1 0.788811 0.335491 0.710000
O O2 0.892558 0.318751 0.995911
O O3 0.770124 0.500000 0.000000
O O4 0.730119 0.233079 0.019781
O O5 0.737050 0.242330 0.369688
O O6 0.832656 0.073879 0.197186
O O7 0.663169 0.014325 0.211189
O O8 0.360940 0.244206 0.862149
O O9 0.299130 0.500000 0.000000
O O10 0.000000 0.690887 0.250000
O O11 0.020436 0.500000 0.000000
O O12 0.053210 0.765681 0.914077
O O13 0.500000 0.894904 0.250000
O O14 0.590006 0.000000 0.500000
O O15 0.000000 0.982785 0.750000
O O16 0.120878 0.000000 0.000000
#
# Coordination Sequence:
#
# PCOD9311425 Si02
#       6
#     4   4   4   4   4   4
#     4  11  23  40  69 100 135 189 238 285 349 413
#     4  11  24  46  68 100 138 185 236 289 355 427
#     4  11  23  43  70 101 140 180 228 291 353 419
#     4  11  24  39  60  93 133 185 236 285 340 407
#     4  10  25  47  73 105 137 178 231 292 365 436
#     4  12  24  41  61  91 136 177 231 292 345 412
#
# _framework density 22.350224000000001
#
# number of rings (size 3 to 8) (size 9 to 14) (size 15 to 20)
#    0.000    1.000    3.333    3.500    4.667    2.667 
#    0.000    4.167    0.000    0.000    0.000    0.000 
#    0.000    0.000    0.000    0.000    0.000    0.000 
#
# Total GULP energy -134186.327850 kJ/mol
# GULP energy per Si atom -5591.096994 kJ/mol
# Density = 2.229935 g / cm^3
# Si number density = 22.350224 Si / 1000 Ang^3
#
#
#
# Elastic Constant Matrix: (Units=GPa)
#
#
# Indices 1 2 3 4 5 6 
#
# 1 115.8786 58.7456 15.9441 0.0000 0.0000 0.0000
# 2 58.7456 123.0608 35.3738 0.0000 0.0000 0.0000
# 3 15.9441 35.3738 110.0093 0.0000 0.0000 0.0000
# 4 0.0000 0.0000 0.0000 40.3501 0.0000 0.0000
# 5 0.0000 0.0000 0.0000 0.0000 33.9616 0.0000
# 6 0.0000 0.0000 0.0000 0.0000 0.0000 27.7550
#
#
#
# Elastic Compliance Matrix: (Units=1/GPa)
#
#
# Indices 1 2 3 4 5 6 
#
# 1 0.011386 -0.005466 0.000107 0.000000 0.000000 0.000000
# 2 -0.005466 0.011578 -0.002931 0.000000 0.000000 0.000000
# 3 0.000107 -0.002931 0.010017 0.000000 0.000000 0.000000
# 4 0.000000 0.000000 0.000000 0.024783 0.000000 0.000000
# 5 0.000000 0.000000 0.000000 0.000000 0.029445 0.000000
# 6 0.000000 0.000000 0.000000 0.000000 0.000000 0.036030
#
#
# Mechanical properties :
#
#
# Convention : Reuss Voigt Hill
#
# Bulk Modulus (GPa) = 60.96821 63.23066 62.09944
# Shear Modulus (GPa) = 34.41514 36.33902 35.37708
#
# Velocity S-wave (km/s) = 3.92830 4.03661 3.98282
# Velocity P-wave (km/s) = 6.92193 7.07657 6.99968
#
# Compressibility (1/GPa) = 0.01640199
#
# Stress axis : x y z
#
# Youngs Moduli (GPa) = 87.82632 86.37127 99.83097
#
# Poissons Ratio (x) = 0.47213 -0.01073
# Poissons Ratio (y) = 0.48008 0.29257
# Poissons Ratio (z) = -0.00944 0.25313
#
# Static dielectric constant tensor:
#      x y z
#    x 1.890650 0.000000 0.000000 
#    y 0.000000 1.843960 0.000000 
#    z 0.000000 0.000000 1.763140 
# 
# From -- ./inp_files/5116.got.cif
#   From: 2010.05.17/outbox.cif.g08.bks.cpg/sg17_3_cif.got.tgz:5116.got - 2010.06.03 22:34:06.
