data_PCOD9311004
_publ_section_title
;
Structure prediction by ZEFSAII (Michael W. Deem and Ramdas Pophale) SiO2 
 PCOD9311004
Probable space group: P 2 2 21
;
_chemical_formula_sum "Si O2"
_cell_formula_units_Z 18
_cell_length_a 11.730342
_cell_length_b 12.608865
_cell_length_c 5.828564
_cell_angle_alpha 90.000000
_cell_angle_beta 90.000000
_cell_angle_gamma 90.000000
_cell_volume 862.081328
_symmetry_space_group_name_H-M "P 2 2 21"
_symmetry_group_IT_number 17
_symmetry_cell_setting 'orthorhombic'
loop_
_space_group_symop_operation_xyz
x,y,z
-x,-y,1/2+z
x,-y,-z
-x,y,1/2-z
loop_
_atom_site_type_symbol
_atom_site_label
_atom_site_fract_x
_atom_site_fract_y
_atom_site_fract_z
Si Si1 0.000000 0.557704 0.250000
Si Si2 0.627302 0.773937 0.825394
Si Si3 0.172539 0.718432 0.398226
Si Si4 0.000000 0.187891 0.250000
Si Si5 0.559882 0.000000 0.000000
Si Si6 0.210444 0.881575 0.020715
O O1 0.884674 0.629339 0.258286
O O2 0.006212 0.500000 0.500000
O O3 0.500000 0.741843 0.750000
O O4 0.700552 0.802742 0.600714
O O5 0.705742 0.698339 0.981985
O O6 0.619519 0.886864 0.958748
O O7 0.182818 0.829160 0.262250
O O8 0.076986 0.739120 0.589366
O O9 0.908527 0.118655 0.385046
O O10 0.500000 0.985953 0.250000
O O11 0.257805 0.000000 0.000000
#
# Coordination Sequence:
#
# PCOD9311004 Si02
#       6
#     2   4   4   2   2   4
#     4  12  27  47  80 106 132 172 227 301 370 424
#     4  10  24  37  62  94 138 188 234 280 335 396
#     4  11  23  43  65  98 138 169 234 287 348 426
#     4  10  21  37  56  90 138 172 221 273 342 392
#     4  10  22  38  58  88 140 192 248 270 304 384
#     4  11  23  35  62  92 137 192 228 273 335 407
#
# _framework density 20.879701000000001
#
# number of rings (size 3 to 8) (size 9 to 14) (size 15 to 20)
#    0.000    1.333    2.222    2.000   18.667    1.778 
#    0.000    0.000    0.000    0.000    5.778    0.000 
#    0.000    0.000    0.000    0.000    0.000    0.000 
#
# Total GULP energy -100361.620493 kJ/mol
# GULP energy per Si atom -5575.645583 kJ/mol
# Density = 2.083218 g / cm^3
# Si number density = 20.879701 Si / 1000 Ang^3
#
#
#
# Elastic Constant Matrix: (Units=GPa)
#
#
# Indices 1 2 3 4 5 6 
#
# 1 153.4967 17.2458 48.8903 0.0000 0.0000 0.0000
# 2 17.2458 46.7755 22.1380 0.0000 0.0000 0.0000
# 3 48.8903 22.1380 99.6363 0.0000 0.0000 0.0000
# 4 0.0000 0.0000 0.0000 25.7636 0.0000 0.0000
# 5 0.0000 0.0000 0.0000 0.0000 13.5450 0.0000
# 6 0.0000 0.0000 0.0000 0.0000 0.0000 -0.4211
#
#
#
# Elastic Compliance Matrix: (Units=1/GPa)
#
#
# Indices 1 2 3 4 5 6 
#
# 1 0.007780 -0.001186 -0.003554 0.000000 0.000000 0.000000
# 2 -0.001186 0.024072 -0.004766 0.000000 0.000000 0.000000
# 3 -0.003554 -0.004766 0.012839 0.000000 0.000000 0.000000
# 4 0.000000 0.000000 0.000000 0.038815 0.000000 0.000000
# 5 0.000000 0.000000 0.000000 0.000000 0.073828 0.000000
# 6 0.000000 0.000000 0.000000 0.000000 0.000000 -2.374921
#
#
# Mechanical properties :
#
#
# Convention : Reuss Voigt Hill
#
# Bulk Modulus (GPa) = 38.94386 52.93962 45.94174
# Shear Modulus (GPa) = -2.28309 21.88645 9.80168
#
# Velocity S-wave (km/s) = -1.04682 3.24113 2.16900
# Velocity P-wave (km/s) = 4.15102 6.27823 5.32199
#
# Compressibility (1/GPa) = 0.02567799
#
# Stress axis : x y z
#
# Youngs Moduli (GPa) = 128.53350 41.54208 77.88516
#
# Poissons Ratio (x) = 0.04929 0.27680
# Poissons Ratio (y) = 0.15250 0.37123
# Poissons Ratio (z) = 0.45680 0.19800
#
# Static dielectric constant tensor:
#      x y z
#    x 1.776790 0.000000 0.000000 
#    y 0.000000 1.777750 0.000000 
#    z 0.000000 0.000000 1.831840 
# 
# From -- ./inp_files/1369.got.cif
#   From: 2010.05.17/outbox.cif.g08.bks.cpg/sg17_1_cif.got.tgz:1369.got - 2010.06.03 22:34:06.
