data_PCOD9311912
_publ_section_title
;
Structure prediction by ZEFSAII (Michael W. Deem and Ramdas Pophale) SiO2 
 PCOD9311912
Probable space group: P 21 21 2
;
_chemical_formula_sum "Si O2"
_cell_formula_units_Z 20
_cell_length_a 8.499673
_cell_length_b 9.231827
_cell_length_c 10.895870
_cell_angle_alpha 90.000000
_cell_angle_beta 90.000000
_cell_angle_gamma 90.000000
_cell_volume 854.971796
_symmetry_space_group_name_H-M "P 21 21 2"
_symmetry_group_IT_number 18
_symmetry_cell_setting 'orthorhombic'
loop_
_space_group_symop_operation_xyz
x,y,z
-x,-y,z
1/2+x,1/2-y,-z
1/2-x,1/2+y,-z
loop_
_atom_site_type_symbol
_atom_site_label
_atom_site_fract_x
_atom_site_fract_y
_atom_site_fract_z
Si Si1 0.882490 0.133833 0.606404
Si Si2 0.228428 0.437610 0.888567
Si Si3 0.091365 0.690915 0.004916
Si Si4 0.834926 0.459715 0.263503
Si Si5 0.172023 0.319324 0.626186
O O1 0.753301 0.135961 0.499652
O O2 0.988050 0.277852 0.614878
O O3 0.787727 0.092093 0.730247
O O4 0.000000 0.000000 0.579824
O O5 0.214118 0.606795 0.917550
O O6 0.214339 0.418419 0.742508
O O7 0.076499 0.349946 0.945381
O O8 0.371630 0.354720 0.955691
O O9 0.122433 0.603829 0.131454
O O10 0.754096 0.331197 0.336233
O O11 0.000000 0.500000 0.322540
#
# Coordination Sequence:
#
# PCOD9311912 Si02
#       5
#     4   4   4   4   4
#     4  10  22  41  61  90 125 163 213 258 315 383
#     4  10  22  41  62  94 126 160 210 256 313 378
#     4  10  22  41  61  93 126 162 208 253 317 375
#     4  10  19  38  64  86 123 165 205 256 322 378
#     4  10  22  40  61  92 123 165 212 260 315 368
#
# _framework density 23.392585
#
# number of rings (size 3 to 8) (size 9 to 14) (size 15 to 20)
#    0.000    2.000    2.000    1.200    2.800    0.800 
#   25.200    0.000    0.000    0.000    0.000    0.000 
#    0.000    0.000    0.000    0.000    0.000    0.000 
#
# Total GULP energy -111635.001972 kJ/mol
# GULP energy per Si atom -5581.750099 kJ/mol
# Density = 2.333934 g / cm^3
# Si number density = 23.392585 Si / 1000 Ang^3
#
#
#
# Elastic Constant Matrix: (Units=GPa)
#
#
# Indices 1 2 3 4 5 6 
#
# 1 71.5647 -2.4601 8.9347 0.0000 0.0000 0.0000
# 2 -2.4601 45.1199 2.3569 0.0000 0.0000 0.0000
# 3 8.9347 2.3569 71.3863 0.0000 0.0000 0.0000
# 4 0.0000 0.0000 0.0000 2.3426 0.0000 0.0000
# 5 0.0000 0.0000 0.0000 0.0000 25.3285 0.0000
# 6 0.0000 0.0000 0.0000 0.0000 0.0000 34.3317
#
#
#
# Elastic Compliance Matrix: (Units=1/GPa)
#
#
# Indices 1 2 3 4 5 6 
#
# 1 0.014229 0.000870 -0.001810 0.000000 0.000000 0.000000
# 2 0.000870 0.022255 -0.000844 0.000000 0.000000 0.000000
# 3 -0.001810 -0.000844 0.014263 0.000000 0.000000 0.000000
# 4 0.000000 0.000000 0.000000 0.426876 0.000000 0.000000
# 5 0.000000 0.000000 0.000000 0.000000 0.039481 0.000000
# 6 0.000000 0.000000 0.000000 0.000000 0.000000 0.029128
#
#
# Mechanical properties :
#
#
# Convention : Reuss Voigt Hill
#
# Bulk Modulus (GPa) = 21.19519 22.85934 22.02727
# Shear Modulus (GPa) = 8.84136 24.34986 16.59561
#
# Velocity S-wave (km/s) = 1.94622 3.22983 2.66642
# Velocity P-wave (km/s) = 3.75908 4.86851 4.34931
#
# Compressibility (1/GPa) = 0.04718051
#
# Stress axis : x y z
#
# Youngs Moduli (GPa) = 70.27788 44.93435 70.11322
#
# Poissons Ratio (x) = -0.03911 0.12688
# Poissons Ratio (y) = -0.06117 0.05915
# Poissons Ratio (z) = 0.12718 0.03791
#
# Static dielectric constant tensor:
#      x y z
#    x 2.023800 0.000000 0.000000 
#    y 0.000000 1.943040 0.000000 
#    z 0.000000 0.000000 1.947680 
# 
# From -- ./inp_files/2942.got.cif
#   From: 2010.05.17/outbox.cif.g08.bks.cpg/sg18_2_cif.got.tgz:2942.got - 2010.06.03 22:40:56.
