data_PCOD9311381
_publ_section_title
;
Structure prediction by ZEFSAII (Michael W. Deem and Ramdas Pophale) SiO2 
 PCOD9311381
Probable space group: P 2 2 21
;
_chemical_formula_sum "Si O2"
_cell_formula_units_Z 14
_cell_length_a 10.918753
_cell_length_b 4.891094
_cell_length_c 11.709830
_cell_angle_alpha 90.000000
_cell_angle_beta 90.000000
_cell_angle_gamma 90.000000
_cell_volume 625.359341
_symmetry_space_group_name_H-M "P 2 2 21"
_symmetry_group_IT_number 17
_symmetry_cell_setting 'orthorhombic'
loop_
_space_group_symop_operation_xyz
x,y,z
-x,-y,1/2+z
x,-y,-z
-x,y,1/2-z
loop_
_atom_site_type_symbol
_atom_site_label
_atom_site_fract_x
_atom_site_fract_y
_atom_site_fract_z
Si Si1 0.264186 0.162438 0.380917
Si Si2 0.675725 0.258382 0.576583
Si Si3 0.500000 0.958150 0.750000
Si Si4 0.856894 0.651847 0.230095
O O1 0.396328 0.200267 0.320802
O O2 0.195446 0.449664 0.367084
O O3 0.279756 0.000000 0.500000
O O4 0.181085 0.956585 0.306134
O O5 0.623246 0.500000 0.500000
O O6 0.784026 0.390148 0.651533
O O7 0.716810 0.000000 0.500000
O O8 0.573959 0.143692 0.661489
O O9 0.000000 0.619503 0.250000
#
# Coordination Sequence:
#
# PCOD9311381 Si02
#       4
#     4   4   2   4
#     4  11  24  42  67  95 127 169 210 261 323 378
#     4  11  24  41  65  95 128 170 211 260 323 380
#     4  10  24  42  64  94 130 160 210 266 314 382
#     4  11  25  44  64  94 131 166 215 266 311 379
#
# _framework density 22.387129999999999
#
# number of rings (size 3 to 8) (size 9 to 14) (size 15 to 20)
#    0.000    1.143    0.000    6.000    0.000   18.286 
#    0.000    0.000    0.000    0.000    0.000    0.000 
#    0.000    0.000    0.000    0.000    0.000    0.000 
#
# Total GULP energy -78313.316792 kJ/mol
# GULP energy per Si atom -5593.808342 kJ/mol
# Density = 2.233618 g / cm^3
# Si number density = 22.387130 Si / 1000 Ang^3
#
#
#
# Elastic Constant Matrix: (Units=GPa)
#
#
# Indices 1 2 3 4 5 6 
#
# 1 168.6914 15.3771 40.0004 0.0000 0.0000 0.0000
# 2 15.3771 86.4784 8.2429 0.0000 0.0000 0.0000
# 3 40.0004 8.2429 102.3759 0.0000 0.0000 0.0000
# 4 0.0000 0.0000 0.0000 57.8162 0.0000 0.0000
# 5 0.0000 0.0000 0.0000 0.0000 12.2289 0.0000
# 6 0.0000 0.0000 0.0000 0.0000 0.0000 14.9330
#
#
#
# Elastic Compliance Matrix: (Units=1/GPa)
#
#
# Indices 1 2 3 4 5 6 
#
# 1 0.006608 -0.000936 -0.002506 0.000000 0.000000 0.000000
# 2 -0.000936 0.011786 -0.000583 0.000000 0.000000 0.000000
# 3 -0.002506 -0.000583 0.010794 0.000000 0.000000 0.000000
# 4 0.000000 0.000000 0.000000 0.017296 0.000000 0.000000
# 5 0.000000 0.000000 0.000000 0.000000 0.081774 0.000000
# 6 0.000000 0.000000 0.000000 0.000000 0.000000 0.066966
#
#
# Mechanical properties :
#
#
# Convention : Reuss Voigt Hill
#
# Bulk Modulus (GPa) = 47.31219 53.86515 50.58867
# Shear Modulus (GPa) = 23.77334 36.59063 30.18199
#
# Velocity S-wave (km/s) = 3.26225 4.04722 3.67575
# Velocity P-wave (km/s) = 5.94720 6.77886 6.37660
#
# Compressibility (1/GPa) = 0.02113620
#
# Stress axis : x y z
#
# Youngs Moduli (GPa) = 151.34035 84.84925 92.64260
#
# Poissons Ratio (x) = 0.07942 0.23220
# Poissons Ratio (y) = 0.14166 0.05403
# Poissons Ratio (z) = 0.37931 0.04948
#
# Static dielectric constant tensor:
#      x y z
#    x 1.601370 0.000000 0.000000 
#    y 0.000000 1.797010 0.000000 
#    z 0.000000 0.000000 1.932080 
# 
# From -- ./inp_files/6764.got.cif
#   From: 2010.05.17/outbox.cif.g08.bks.cpg/sg17_4_cif.got.tgz:6764.got - 2010.06.03 22:34:06.
