data_PCOD9311982
_publ_section_title
;
Structure prediction by ZEFSAII (Michael W. Deem and Ramdas Pophale) SiO2 
 PCOD9311982
Probable space group: P 21 21 2
;
_chemical_formula_sum "Si O2"
_cell_formula_units_Z 20
_cell_length_a 13.594411
_cell_length_b 5.038056
_cell_length_c 12.269410
_cell_angle_alpha 90.000000
_cell_angle_beta 90.000000
_cell_angle_gamma 90.000000
_cell_volume 840.324577
_symmetry_space_group_name_H-M "P 21 21 2"
_symmetry_group_IT_number 18
_symmetry_cell_setting 'orthorhombic'
loop_
_space_group_symop_operation_xyz
x,y,z
-x,-y,z
1/2+x,1/2-y,-z
1/2-x,1/2+y,-z
loop_
_atom_site_type_symbol
_atom_site_label
_atom_site_fract_x
_atom_site_fract_y
_atom_site_fract_z
Si Si1 0.619339 0.985819 0.763102
Si Si2 0.430941 0.753153 0.340701
Si Si3 0.073353 0.246549 0.891228
Si Si4 0.619559 0.480117 0.890151
Si Si5 0.803355 0.480665 0.476265
O O1 0.649587 0.773066 0.854794
O O2 0.655279 0.918092 0.642608
O O3 0.500000 0.000000 0.760245
O O4 0.654572 0.276332 0.798150
O O5 0.500000 0.500000 0.359462
O O6 0.372011 0.745442 0.225862
O O7 0.500000 0.000000 0.315927
O O8 0.372924 0.842952 0.446716
O O9 0.000000 0.500000 0.914714
O O10 0.139209 0.161118 0.994181
O O11 0.000000 0.000000 0.876808
O O12 0.500000 0.500000 0.887762
O O13 0.716336 0.699318 0.465443
#
# Coordination Sequence:
#
# PCOD9311982 Si02
#       5
#     4   4   4   4   4
#     4  10  20  34  56  82 110 146 189 233 278 340
#     4  10  21  38  62  89 117 154 201 246 291 354
#     4   9  16  29  53  87 118 142 180 239 295 339
#     4   9  16  29  52  84 112 136 177 235 288 332
#     4  12  25  40  57  82 121 160 197 245 299 351
#
# _framework density 23.800325000000001
#
# number of rings (size 3 to 8) (size 9 to 14) (size 15 to 20)
#    0.000    2.000    0.000    6.000    0.000    2.400 
#    0.000    0.000    0.000    4.800    0.000    0.000 
#    0.000    0.000    0.000    0.000    0.000    0.000 
#
# Total GULP energy -111555.074975 kJ/mol
# GULP energy per Si atom -5577.753749 kJ/mol
# Density = 2.374615 g / cm^3
# Si number density = 23.800325 Si / 1000 Ang^3
#
#
#
# Elastic Constant Matrix: (Units=GPa)
#
#
# Indices 1 2 3 4 5 6 
#
# 1 36.5474 12.3271 16.9048 0.0000 0.0000 0.0000
# 2 12.3271 130.0471 6.4349 0.0000 0.0000 0.0000
# 3 16.9048 6.4349 137.2577 0.0000 0.0000 0.0000
# 4 0.0000 0.0000 0.0000 28.7610 0.0000 0.0000
# 5 0.0000 0.0000 0.0000 0.0000 6.0762 0.0000
# 6 0.0000 0.0000 0.0000 0.0000 0.0000 16.6356
#
#
#
# Elastic Compliance Matrix: (Units=1/GPa)
#
#
# Indices 1 2 3 4 5 6 
#
# 1 0.029904 -0.002659 -0.003558 0.000000 0.000000 0.000000
# 2 -0.002659 0.007944 -0.000045 0.000000 0.000000 0.000000
# 3 -0.003558 -0.000045 0.007726 0.000000 0.000000 0.000000
# 4 0.000000 0.000000 0.000000 0.034769 0.000000 0.000000
# 5 0.000000 0.000000 0.000000 0.000000 0.164575 0.000000
# 6 0.000000 0.000000 0.000000 0.000000 0.000000 0.060112
#
#
# Mechanical properties :
#
#
# Convention : Reuss Voigt Hill
#
# Bulk Modulus (GPa) = 30.25707 41.68732 35.97220
# Shear Modulus (GPa) = 15.21740 28.17358 21.69549
#
# Velocity S-wave (km/s) = 2.53133 3.44430 3.02249
# Velocity P-wave (km/s) = 4.61346 5.77677 5.22757
#
# Compressibility (1/GPa) = 0.03305012
#
# Stress axis : x y z
#
# Youngs Moduli (GPa) = 33.43997 125.88513 129.43414
#
# Poissons Ratio (x) = 0.33467 0.46058
# Poissons Ratio (y) = 0.08890 0.00582
# Poissons Ratio (z) = 0.11899 0.00566
#
# Static dielectric constant tensor:
#      x y z
#    x 1.891200 0.000000 0.000000 
#    y 0.000000 1.986310 0.000000 
#    z 0.000000 0.000000 2.018170 
# 
# From -- ./inp_files/6007.got.cif
#   From: 2010.05.17/outbox.cif.g08.bks.cpg/sg18_4_cif.got.tgz:6007.got - 2010.06.03 22:40:56.
