data_PCOD9311798
_publ_section_title
;
Structure prediction by ZEFSAII (Michael W. Deem and Ramdas Pophale) SiO2 
 PCOD9311798
Probable space group: P 21 21 2
;
_chemical_formula_sum "Si O2"
_cell_formula_units_Z 30
_cell_length_a 11.091370
_cell_length_b 28.933790
_cell_length_c 5.091876
_cell_angle_alpha 90.000000
_cell_angle_beta 90.000000
_cell_angle_gamma 90.000000
_cell_volume 1634.061273
_symmetry_space_group_name_H-M "P 21 21 2"
_symmetry_group_IT_number 18
_symmetry_cell_setting 'orthorhombic'
loop_
_space_group_symop_operation_xyz
x,y,z
-x,-y,z
1/2+x,1/2-y,-z
1/2-x,1/2+y,-z
loop_
_atom_site_type_symbol
_atom_site_label
_atom_site_fract_x
_atom_site_fract_y
_atom_site_fract_z
Si Si1 0.221109 0.668070 0.373938
Si Si2 0.933708 0.409954 0.164154
Si Si3 0.330834 0.709355 0.866890
Si Si4 0.754916 0.167631 0.372325
Si Si5 0.500000 0.000000 0.066126
Si Si6 0.636203 0.709325 0.134366
Si Si7 0.083868 0.410983 0.680127
Si Si8 0.983039 0.730077 0.501298
O O1 0.286834 0.671771 0.652209
O O2 0.012753 0.610076 0.890768
O O3 0.097361 0.699027 0.405091
O O4 0.311016 0.687493 0.152161
O O5 0.822621 0.381709 0.275341
O O6 0.035472 0.405890 0.386838
O O7 0.920490 0.464426 0.104265
O O8 0.234718 0.750426 0.866009
O O9 0.442786 0.736009 0.734002
O O10 0.823799 0.172194 0.646324
O O11 0.706020 0.117191 0.300311
O O12 0.632081 0.199080 0.408100
O O13 0.842953 0.185892 0.145935
O O14 0.419647 0.964765 0.237229
O O15 0.524800 0.737440 0.258825
#
# Coordination Sequence:
#
# PCOD9311798 Si02
#       8
#     4   4   4   4   2   4   4   4
#     4  11  21  34  51  74 100 145 178 215 265 312
#     4  10  19  33  49  72 105 132 168 206 265 331
#     4  10  22  33  49  73  98 139 191 216 256 305
#     4  11  21  34  51  74 100 145 178 215 265 312
#     4   8  22  28  54  76  98 142 158 204 282 336
#     4  10  22  33  49  73  98 139 191 216 256 305
#     4  10  19  33  49  72 105 132 168 206 265 331
#     4  10  22  38  52  71 114 145 184 236 254 292
#
# _framework density 18.359165000000001
#
# number of rings (size 3 to 8) (size 9 to 14) (size 15 to 20)
#    0.800    1.067    1.333    4.400    3.733    5.333 
#    0.000    0.000    0.000    0.000    0.000    0.000 
#    0.000    6.400    0.000    0.000    0.000    0.000 
#
# Total GULP energy -167056.912733 kJ/mol
# GULP energy per Si atom -5568.563758 kJ/mol
# Density = 1.831738 g / cm^3
# Si number density = 18.359165 Si / 1000 Ang^3
#
#
#
# Elastic Constant Matrix: (Units=GPa)
#
#
# Indices 1 2 3 4 5 6 
#
# 1 38.7208 24.9063 18.8225 0.0000 0.0000 0.0000
# 2 24.9063 89.6659 9.6902 0.0000 0.0000 0.0000
# 3 18.8225 9.6902 94.7503 0.0000 0.0000 0.0000
# 4 0.0000 0.0000 0.0000 15.1270 0.0000 0.0000
# 5 0.0000 0.0000 0.0000 0.0000 14.9084 0.0000
# 6 0.0000 0.0000 0.0000 0.0000 0.0000 19.6727
#
#
#
# Elastic Compliance Matrix: (Units=1/GPa)
#
#
# Indices 1 2 3 4 5 6 
#
# 1 0.034452 -0.008929 -0.005931 0.000000 0.000000 0.000000
# 2 -0.008929 0.013591 0.000384 0.000000 0.000000 0.000000
# 3 -0.005931 0.000384 0.011693 0.000000 0.000000 0.000000
# 4 0.000000 0.000000 0.000000 0.066107 0.000000 0.000000
# 5 0.000000 0.000000 0.000000 0.000000 0.067076 0.000000
# 6 0.000000 0.000000 0.000000 0.000000 0.000000 0.050832
#
#
# Mechanical properties :
#
#
# Convention : Reuss Voigt Hill
#
# Bulk Modulus (GPa) = 32.48382 36.66389 34.57385
# Shear Modulus (GPa) = 17.67002 21.25614 19.46308
#
# Velocity S-wave (km/s) = 3.10572 3.40633 3.25949
# Velocity P-wave (km/s) = 5.53106 5.95688 5.74792
#
# Compressibility (1/GPa) = 0.03078456
#
# Stress axis : x y z
#
# Youngs Moduli (GPa) = 29.02568 73.57722 85.52121
#
# Poissons Ratio (x) = 0.65695 0.50722
# Poissons Ratio (y) = 0.25916 -0.03282
# Poissons Ratio (z) = 0.17215 -0.02824
#
# Static dielectric constant tensor:
#      x y z
#    x 1.724940 0.000000 0.000000 
#    y 0.000000 1.638440 0.000000 
#    z 0.000000 0.000000 1.703690 
# 
# From -- ./inp_files/1341.got.cif
#   From: 2010.05.17/outbox.cif.g08.bks.cpg/sg18_1_cif.got.tgz:1341.got - 2010.06.03 22:40:56.
