data_PCOD9311094
_publ_section_title
;
Structure prediction by ZEFSAII (Michael W. Deem and Ramdas Pophale) SiO2 
 PCOD9311094
Probable space group: P 2 2 21
;
_chemical_formula_sum "Si O2"
_cell_formula_units_Z 30
_cell_length_a 11.291957
_cell_length_b 14.359523
_cell_length_c 9.420182
_cell_angle_alpha 90.000000
_cell_angle_beta 90.000000
_cell_angle_gamma 90.000000
_cell_volume 1527.455346
_symmetry_space_group_name_H-M "P 2 2 21"
_symmetry_group_IT_number 17
_symmetry_cell_setting 'orthorhombic'
loop_
_space_group_symop_operation_xyz
x,y,z
-x,-y,1/2+z
x,-y,-z
-x,y,1/2-z
loop_
_atom_site_type_symbol
_atom_site_label
_atom_site_fract_x
_atom_site_fract_y
_atom_site_fract_z
Si Si1 0.858734 0.093584 0.921751
Si Si2 0.447429 0.500000 0.000000
Si Si3 0.759148 0.285372 0.536283
Si Si4 0.136194 0.607873 0.293012
Si Si5 0.856212 0.089648 0.590829
Si Si6 0.490606 0.304089 0.584208
Si Si7 0.243800 0.280725 0.459533
Si Si8 0.753837 0.416700 0.300497
O O1 0.817016 0.093871 0.756710
O O2 0.824165 0.183685 0.014885
O O3 0.001307 0.090289 0.911679
O O4 0.817644 0.000000 0.000000
O O5 0.523285 0.414917 0.942298
O O6 0.363187 0.536637 0.871958
O O7 0.785440 0.325603 0.691663
O O8 0.813404 0.184655 0.519036
O O9 0.617605 0.280278 0.516300
O O10 0.812965 0.364068 0.433644
O O11 0.170661 0.643891 0.447626
O O12 0.173111 0.501709 0.264431
O O13 0.000000 0.622466 0.250000
O O14 0.816345 0.000000 0.500000
O O15 0.500000 0.284308 0.750000
O O16 0.374663 0.259985 0.519169
O O17 0.263456 0.333004 0.310449
#
# Coordination Sequence:
#
# PCOD9311094 Si02
#       8
#     4   2   4   4   4   4   4   4
#     4  10  22  42  63  94 126 159 211 277 318 376
#     4  10  22  38  58  84 134 166 208 266 284 370
#     4  11  22  41  62  88 128 164 203 262 319 368
#     4  12  23  41  60  86 128 166 207 257 315 376
#     4  10  21  40  69  90 120 167 214 259 328 389
#     4  11  21  36  64  87 122 165 210 251 312 371
#     4  12  25  39  65  97 122 168 218 261 322 381
#     4  11  24  41  58  93 128 169 210 258 310 378
#
# _framework density 19.640509000000002
#
# number of rings (size 3 to 8) (size 9 to 14) (size 15 to 20)
#    0.000    1.067    5.333    1.200    5.600    4.800 
#    0.000    0.667    0.000    0.000    0.000    0.000 
#    0.000    0.000    0.000    0.000    0.000    0.000 
#
# Total GULP energy -167445.075799 kJ/mol
# GULP energy per Si atom -5581.502527 kJ/mol
# Density = 1.959581 g / cm^3
# Si number density = 19.640509 Si / 1000 Ang^3
#
#
#
# Elastic Constant Matrix: (Units=GPa)
#
#
# Indices 1 2 3 4 5 6 
#
# 1 48.4407 1.8606 2.5526 0.0000 0.0000 0.0000
# 2 1.8606 122.7927 15.0825 0.0000 0.0000 0.0000
# 3 2.5526 15.0825 53.0480 0.0000 0.0000 0.0000
# 4 0.0000 0.0000 0.0000 25.6479 0.0000 0.0000
# 5 0.0000 0.0000 0.0000 0.0000 -11.6878 0.0000
# 6 0.0000 0.0000 0.0000 0.0000 0.0000 5.0141
#
#
#
# Elastic Compliance Matrix: (Units=1/GPa)
#
#
# Indices 1 2 3 4 5 6 
#
# 1 0.020701 -0.000198 -0.000940 0.000000 0.000000 0.000000
# 2 -0.000198 0.008440 -0.002390 0.000000 0.000000 0.000000
# 3 -0.000940 -0.002390 0.019576 0.000000 0.000000 0.000000
# 4 0.000000 0.000000 0.000000 0.038990 0.000000 0.000000
# 5 0.000000 0.000000 0.000000 0.000000 -0.085559 0.000000
# 6 0.000000 0.000000 0.000000 0.000000 0.000000 0.199437
#
#
# Mechanical properties :
#
#
# Convention : Reuss Voigt Hill
#
# Bulk Modulus (GPa) = 24.00349 29.25252 26.62800
# Shear Modulus (GPa) = 22.46911 17.44721 19.95816
#
# Velocity S-wave (km/s) = 3.38600 2.98372 3.19121
# Velocity P-wave (km/s) = 5.24735 5.17652 5.21205
#
# Compressibility (1/GPa) = 0.04166061
#
# Stress axis : x y z
#
# Youngs Moduli (GPa) = 48.30697 118.47777 51.08382
#
# Poissons Ratio (x) = 0.02349 0.04801
# Poissons Ratio (y) = 0.00958 0.12210
# Poissons Ratio (z) = 0.04540 0.28319
#
# Static dielectric constant tensor:
#      x y z
#    x 1.683220 0.000000 0.000000 
#    y 0.000000 1.678560 0.000000 
#    z 0.000000 0.000000 1.765040 
# 
# From -- ./inp_files/4915.got.cif
#   From: 2010.05.17/outbox.cif.g08.bks.cpg/sg17_3_cif.got.tgz:4915.got - 2010.06.03 22:34:06.
