data_PCOD9311500
_publ_section_title
;
Structure prediction by ZEFSAII (Michael W. Deem and Ramdas Pophale) SiO2 
 PCOD9311500
Probable space group: P 2 2 21
;
_chemical_formula_sum "Si O2"
_cell_formula_units_Z 32
_cell_length_a 10.567089
_cell_length_b 10.160264
_cell_length_c 14.909566
_cell_angle_alpha 90.000000
_cell_angle_beta 90.000000
_cell_angle_gamma 90.000000
_cell_volume 1600.756816
_symmetry_space_group_name_H-M "P 2 2 21"
_symmetry_group_IT_number 17
_symmetry_cell_setting 'orthorhombic'
loop_
_space_group_symop_operation_xyz
x,y,z
-x,-y,1/2+z
x,-y,-z
-x,y,1/2-z
loop_
_atom_site_type_symbol
_atom_site_label
_atom_site_fract_x
_atom_site_fract_y
_atom_site_fract_z
Si Si1 0.195918 0.605377 0.831679
Si Si2 0.192692 0.318073 0.861746
Si Si3 0.142829 0.059374 0.746941
Si Si4 0.346104 0.834922 0.730293
Si Si5 0.995756 0.644656 0.974807
Si Si6 0.428973 0.857668 0.532317
Si Si7 0.387551 0.364296 0.004830
Si Si8 0.188346 0.857345 0.453441
O O1 0.182255 0.452284 0.802988
O O2 0.271525 0.704030 0.765588
O O3 0.062143 0.649469 0.876582
O O4 0.281396 0.598817 0.922049
O O5 0.160909 0.183292 0.812729
O O6 0.329455 0.319871 0.910097
O O7 0.098033 0.332620 0.945876
O O8 0.149653 0.121398 0.648034
O O9 0.000000 0.000774 0.750000
O O10 0.256293 0.955033 0.764393
O O11 0.500000 0.836867 0.750000
O O12 0.348486 0.855529 0.623333
O O13 0.944172 0.500000 0.000000
O O14 0.894967 0.757481 0.990060
O O15 0.540763 0.757963 0.544804
O O16 0.333239 0.809988 0.455866
O O17 0.474189 0.000000 0.500000
O O18 0.465654 0.500000 0.000000
O O19 0.184153 0.000000 0.500000
#
# Coordination Sequence:
#
# PCOD9311500 Si02
#       8
#     4   4   4   4   4   4   4   4
#     4   9  20  40  66  94 119 157 210 263 306 370
#     4   9  20  40  66  94 119 157 210 263 306 370
#     4  12  25  43  64  93 131 169 214 267 316 372
#     4  12  25  43  64  93 131 169 214 267 316 372
#     4   9  19  39  65  91 121 158 207 254 309 378
#     4  11  23  42  58  85 130 166 203 259 316 374
#     4   9  19  39  65  91 121 158 207 254 309 378
#     4  11  23  42  58  85 130 166 203 259 316 374
#
# _framework density 19.990542999999999
#
# number of rings (size 3 to 8) (size 9 to 14) (size 15 to 20)
#    0.000    1.750    5.000    1.500    3.500    0.500 
#    4.500    3.750    0.000    0.000    0.000    0.000 
#    0.000    0.000    0.000    0.000    0.000    0.000 
#
# Total GULP energy -178141.314712 kJ/mol
# GULP energy per Si atom -5566.916085 kJ/mol
# Density = 1.994504 g / cm^3
# Si number density = 19.990543 Si / 1000 Ang^3
#
#
#
# Elastic Constant Matrix: (Units=GPa)
#
#
# Indices 1 2 3 4 5 6 
#
# 1 65.7974 34.5238 -15.2313 0.0000 0.0000 0.0000
# 2 34.5238 111.6081 11.1549 0.0000 0.0000 0.0000
# 3 -15.2313 11.1549 37.9620 0.0000 0.0000 0.0000
# 4 0.0000 0.0000 0.0000 17.2626 0.0000 0.0000
# 5 0.0000 0.0000 0.0000 0.0000 4.2943 0.0000
# 6 0.0000 0.0000 0.0000 0.0000 0.0000 42.4326
#
#
#
# Elastic Compliance Matrix: (Units=1/GPa)
#
#
# Indices 1 2 3 4 5 6 
#
# 1 0.021908 -0.007887 0.011107 0.000000 0.000000 0.000000
# 2 -0.007887 0.012070 -0.006711 0.000000 0.000000 0.000000
# 3 0.011107 -0.006711 0.032771 0.000000 0.000000 0.000000
# 4 0.000000 0.000000 0.000000 0.057929 0.000000 0.000000
# 5 0.000000 0.000000 0.000000 0.000000 0.232868 0.000000
# 6 0.000000 0.000000 0.000000 0.000000 0.000000 0.023567
#
#
# Mechanical properties :
#
#
# Convention : Reuss Voigt Hill
#
# Bulk Modulus (GPa) = 16.73158 30.69581 23.71369
# Shear Modulus (GPa) = 12.25442 25.12591 18.69017
#
# Velocity S-wave (km/s) = 2.47859 3.54911 3.06101
# Velocity P-wave (km/s) = 4.07175 5.67304 4.93774
#
# Compressibility (1/GPa) = 0.05976722
#
# Stress axis : x y z
#
# Youngs Moduli (GPa) = 45.64634 82.84793 30.51512
#
# Poissons Ratio (x) = 0.65341 -0.33894
# Poissons Ratio (y) = 0.36000 0.20479
# Poissons Ratio (z) = -0.50701 0.55600
#
# Static dielectric constant tensor:
#      x y z
#    x 1.760770 0.000000 0.000000 
#    y 0.000000 1.736510 0.000000 
#    z 0.000000 0.000000 1.706430 
# 
# From -- ./inp_files/8561.got.cif
#   From: 2010.05.17/outbox.cif.g08.bks.cpg/sg17_5_cif.got.tgz:8561.got - 2010.06.03 22:34:06.
