data_PCOD9311655
_publ_section_title
;
Structure prediction by ZEFSAII (Michael W. Deem and Ramdas Pophale) SiO2 
 PCOD9311655
Probable space group: P 21 21 2
;
_chemical_formula_sum "Si O2"
_cell_formula_units_Z 24
_cell_length_a 5.792999
_cell_length_b 16.822934
_cell_length_c 12.101903
_cell_angle_alpha 90.000000
_cell_angle_beta 90.000000
_cell_angle_gamma 90.000000
_cell_volume 1179.393859
_symmetry_space_group_name_H-M "P 21 21 2"
_symmetry_group_IT_number 18
_symmetry_cell_setting 'orthorhombic'
loop_
_space_group_symop_operation_xyz
x,y,z
-x,-y,z
1/2+x,1/2-y,-z
1/2-x,1/2+y,-z
loop_
_atom_site_type_symbol
_atom_site_label
_atom_site_fract_x
_atom_site_fract_y
_atom_site_fract_z
Si Si1 0.913356 0.842549 0.073544
Si Si2 0.250000 0.300069 0.750000
Si Si3 0.586643 0.842549 0.426456
Si Si4 0.634996 0.189596 0.642857
Si Si5 0.750000 0.956449 0.250000
Si Si6 0.865004 0.189596 0.857143
O O1 0.139804 0.847117 0.149885
O O2 0.744443 0.901360 0.139086
O O3 0.810602 0.752227 0.082374
O O4 0.998018 0.859079 0.949985
O O5 0.448825 0.246122 0.700128
O O6 0.139804 0.347117 0.649885
O O7 0.051175 0.246122 0.799872
O O8 0.501981 0.859079 0.550015
O O9 0.689397 0.752227 0.417626
O O10 0.755557 0.901360 0.360915
O O11 0.750000 0.147998 0.750000
O O12 0.500000 0.000000 0.252554
O O13 0.000000 0.000000 0.247446
#
# Coordination Sequence:
#
# PCOD9311655 Si02
#       6
#     4   4   4   4   4   4
#     4  11  20  35  59  88 133 162 212 266 327 395
#     4  10  17  32  52  92 122 151 198 260 348 376
#     4  11  20  35  59  88 133 162 212 266 327 395
#     4  10  20  32  58  93 123 162 198 284 345 375
#     4  12  27  42  62  94 136 185 218 254 310 398
#     4  10  20  32  58  93 123 162 198 284 345 375
#
# _framework density 20.349433999999999
#
# number of rings (size 3 to 8) (size 9 to 14) (size 15 to 20)
#    0.000    1.333    8.333    1.000    0.000    0.000 
#    0.000    0.000    0.000    0.000    4.333    0.000 
#    0.000    0.000    0.000    0.000    0.000    0.000 
#
# Total GULP energy -133603.575666 kJ/mol
# GULP energy per Si atom -5566.815653 kJ/mol
# Density = 2.030312 g / cm^3
# Si number density = 20.349434 Si / 1000 Ang^3
#
#
#
# Elastic Constant Matrix: (Units=GPa)
#
#
# Indices 1 2 3 4 5 6 
#
# 1 65.4074 8.5208 24.9108 0.0000 0.0000 0.0000
# 2 8.5208 33.8802 27.4537 0.0000 0.0000 0.0000
# 3 24.9108 27.4537 166.1225 0.0000 0.0000 0.0000
# 4 0.0000 0.0000 0.0000 13.6793 0.0000 0.0000
# 5 0.0000 0.0000 0.0000 0.0000 48.0613 0.0000
# 6 0.0000 0.0000 0.0000 0.0000 0.0000 20.9650
#
#
#
# Elastic Compliance Matrix: (Units=1/GPa)
#
#
# Indices 1 2 3 4 5 6 
#
# 1 0.016391 -0.002460 -0.002051 0.000000 0.000000 0.000000
# 2 -0.002460 0.034449 -0.005324 0.000000 0.000000 0.000000
# 3 -0.002051 -0.005324 0.007207 0.000000 0.000000 0.000000
# 4 0.000000 0.000000 0.000000 0.073103 0.000000 0.000000
# 5 0.000000 0.000000 0.000000 0.000000 0.020807 0.000000
# 6 0.000000 0.000000 0.000000 0.000000 0.000000 0.047699
#
#
# Mechanical properties :
#
#
# Convention : Reuss Voigt Hill
#
# Bulk Modulus (GPa) = 26.05833 43.02008 34.53921
# Shear Modulus (GPa) = 21.54081 30.17611 25.85846
#
# Velocity S-wave (km/s) = 3.25706 3.85502 3.56858
# Velocity P-wave (km/s) = 5.19402 6.40324 5.83006
#
# Compressibility (1/GPa) = 0.03837544
#
# Stress axis : x y z
#
# Youngs Moduli (GPa) = 61.01092 29.02870 138.75138
#
# Poissons Ratio (x) = 0.07141 0.28462
# Poissons Ratio (y) = 0.15009 0.73873
# Poissons Ratio (z) = 0.12515 0.15455
#
# Static dielectric constant tensor:
#      x y z
#    x 1.783860 0.000000 0.000000 
#    y 0.000000 1.774990 0.000000 
#    z 0.000000 0.000000 1.819650 
# 
# From -- ./inp_files/5152.got.cif
#   From: 2010.05.17/outbox.cif.g08.bks.cpg/sg18_3_cif.got.tgz:5152.got - 2010.06.03 22:40:56.
