data_PCOD9311815
_publ_section_title
;
Structure prediction by ZEFSAII (Michael W. Deem and Ramdas Pophale) SiO2 
 PCOD9311815
Probable space group: P 21 21 2
;
_chemical_formula_sum "Si O2"
_cell_formula_units_Z 20
_cell_length_a 14.401097
_cell_length_b 6.828869
_cell_length_c 8.100834
_cell_angle_alpha 90.000000
_cell_angle_beta 90.000000
_cell_angle_gamma 90.000000
_cell_volume 796.661978
_symmetry_space_group_name_H-M "P 21 21 2"
_symmetry_group_IT_number 18
_symmetry_cell_setting 'orthorhombic'
loop_
_space_group_symop_operation_xyz
x,y,z
-x,-y,z
1/2+x,1/2-y,-z
1/2-x,1/2+y,-z
loop_
_atom_site_type_symbol
_atom_site_label
_atom_site_fract_x
_atom_site_fract_y
_atom_site_fract_z
Si Si1 0.006347 0.265729 0.278088
Si Si2 0.311923 0.412527 0.629665
Si Si3 0.887317 0.712835 0.611609
Si Si4 0.493193 0.233985 0.080498
Si Si5 0.166509 0.714075 0.698688
O O1 0.904137 0.174058 0.293481
O O2 0.000000 0.500000 0.277845
O O3 0.068701 0.217444 0.438535
O O4 0.034684 0.200952 0.093807
O O5 0.222625 0.267688 0.644137
O O6 0.267086 0.609649 0.707896
O O7 0.330334 0.388826 0.432337
O O8 0.891570 0.470109 0.617872
O O9 0.945795 0.794608 0.763186
O O10 0.500000 0.000000 0.072270
O O11 0.386151 0.270529 0.133881
#
# Coordination Sequence:
#
# PCOD9311815 Si02
#       5
#     4   4   4   4   4
#     4  11  17  33  60  81 111 158 195 217 298 350
#     4  10  19  33  59  89 112 152 192 245 283 347
#     4   9  18  34  56  78 117 136 203 228 273 340
#     4   9  17  32  56  81 107 151 184 241 270 348
#     4   9  18  35  54  85 114 143 193 236 285 334
#
# _framework density 25.104752000000001
#
# number of rings (size 3 to 8) (size 9 to 14) (size 15 to 20)
#    1.200    1.200    4.000    0.600    0.000    0.000 
#    3.600    3.000    0.000    0.000    5.200    0.000 
#    0.000    0.000    0.000    0.000    0.000    0.000 
#
# Total GULP energy -111524.553070 kJ/mol
# GULP energy per Si atom -5576.227654 kJ/mol
# Density = 2.504761 g / cm^3
# Si number density = 25.104752 Si / 1000 Ang^3
#
#
#
# Elastic Constant Matrix: (Units=GPa)
#
#
# Indices 1 2 3 4 5 6 
#
# 1 153.3964 0.0988 81.6792 0.0000 0.0000 0.0000
# 2 0.0988 100.3905 10.0262 0.0000 0.0000 0.0000
# 3 81.6792 10.0262 190.6393 0.0000 0.0000 0.0000
# 4 0.0000 0.0000 0.0000 -5.4773 0.0000 0.0000
# 5 0.0000 0.0000 0.0000 0.0000 24.6756 0.0000
# 6 0.0000 0.0000 0.0000 0.0000 0.0000 35.3794
#
#
#
# Elastic Compliance Matrix: (Units=1/GPa)
#
#
# Indices 1 2 3 4 5 6 
#
# 1 0.008458 0.000355 -0.003643 0.000000 0.000000 0.000000
# 2 0.000355 0.010029 -0.000680 0.000000 0.000000 0.000000
# 3 -0.003643 -0.000680 0.006842 0.000000 0.000000 0.000000
# 4 0.000000 0.000000 0.000000 -0.182572 0.000000 0.000000
# 5 0.000000 0.000000 0.000000 0.000000 0.040526 0.000000
# 6 0.000000 0.000000 0.000000 0.000000 0.000000 0.028265
#
#
# Mechanical properties :
#
#
# Convention : Reuss Voigt Hill
#
# Bulk Modulus (GPa) = 57.48734 69.78163 63.63448
# Shear Modulus (GPa) = -66.91641 34.42368 -16.24637
#
# Velocity S-wave (km/s) = -5.16844 3.70699 -2.54666
# Velocity P-wave (km/s) = 3.55926 6.79551 4.09332
#
# Compressibility (1/GPa) = 0.01739514
#
# Stress axis : x y z
#
# Youngs Moduli (GPa) = 118.22467 99.71441 146.15655
#
# Poissons Ratio (x) = -0.03545 0.53241
# Poissons Ratio (y) = -0.04203 0.09935
# Poissons Ratio (z) = 0.43066 0.06778
#
# Static dielectric constant tensor:
#      x y z
#    x 2.031150 0.000000 0.000000 
#    y 0.000000 2.079700 0.000000 
#    z 0.000000 0.000000 1.957660 
# 
# From -- ./inp_files/3077.got.cif
#   From: 2010.05.17/outbox.cif.g08.bks.cpg/sg18_2_cif.got.tgz:3077.got - 2010.06.03 22:40:56.
