data_PCOD9311097
_publ_section_title
;
Structure prediction by ZEFSAII (Michael W. Deem and Ramdas Pophale) SiO2 
 PCOD9311097
Probable space group: P 2 2 21
;
_chemical_formula_sum "Si O2"
_cell_formula_units_Z 32
_cell_length_a 9.752728
_cell_length_b 13.457428
_cell_length_c 12.777233
_cell_angle_alpha 90.000000
_cell_angle_beta 90.000000
_cell_angle_gamma 90.000000
_cell_volume 1676.968834
_symmetry_space_group_name_H-M "P 2 2 21"
_symmetry_group_IT_number 17
_symmetry_cell_setting 'orthorhombic'
loop_
_space_group_symop_operation_xyz
x,y,z
-x,-y,1/2+z
x,-y,-z
-x,y,1/2-z
loop_
_atom_site_type_symbol
_atom_site_label
_atom_site_fract_x
_atom_site_fract_y
_atom_site_fract_z
Si Si1 0.146264 0.102480 0.301213
Si Si2 0.602952 0.418570 0.061477
Si Si3 0.448220 0.394022 0.867333
Si Si4 0.768541 0.115107 0.814528
Si Si5 0.636690 0.239510 0.184999
Si Si6 0.741758 0.222970 0.593914
Si Si7 0.534410 0.881303 0.015877
Si Si8 0.999171 0.115513 0.515774
O O1 0.238059 0.189916 0.255068
O O2 0.105081 0.129298 0.420256
O O3 0.000000 0.087560 0.250000
O O4 0.231962 0.002087 0.289449
O O5 0.482022 0.487367 0.114131
O O6 0.674718 0.346881 0.140349
O O7 0.692879 0.500000 0.000000
O O8 0.540042 0.355834 0.965377
O O9 0.500000 0.370547 0.750000
O O10 0.304954 0.338203 0.889242
O O11 0.765858 0.178260 0.709620
O O12 0.640183 0.137415 0.889008
O O13 0.908729 0.125645 0.880427
O O14 0.500000 0.252567 0.250000
O O15 0.595553 0.166658 0.089671
O O16 0.612184 0.164908 0.544896
O O17 0.874401 0.192190 0.526035
O O18 0.523896 0.000000 0.000000
O O19 0.950698 0.000000 0.500000
#
# Coordination Sequence:
#
# PCOD9311097 Si02
#       8
#     4   4   4   4   4   4   4   4
#     4  11  24  39  58  84 126 181 214 243 299 379
#     4   8  20  39  61  88 119 154 197 258 335 379
#     4   9  18  35  58  91 116 147 194 259 319 373
#     4  11  21  39  55  81 130 174 205 243 305 362
#     4  12  24  39  63  94 122 163 214 262 321 375
#     4  12  23  32  62  92 118 156 208 260 304 363
#     4  12  22  36  53  88 126 161 200 261 301 351
#     4  10  21  41  54  79 127 174 209 239 295 372
#
# _framework density 19.082048
#
# number of rings (size 3 to 8) (size 9 to 14) (size 15 to 20)
#    0.750    0.500    3.750    4.125    3.500    0.000 
#    0.000    0.000    0.000    0.000    9.750    0.000 
#    0.000    0.000    0.000    0.000    0.000    0.000 
#
# Total GULP energy -178164.690928 kJ/mol
# GULP energy per Si atom -5567.646592 kJ/mol
# Density = 1.903862 g / cm^3
# Si number density = 19.082048 Si / 1000 Ang^3
#
#
#
# Elastic Constant Matrix: (Units=GPa)
#
#
# Indices 1 2 3 4 5 6 
#
# 1 41.0801 8.6173 -12.2654 0.0000 0.0000 0.0000
# 2 8.6173 66.9197 -8.0068 0.0000 0.0000 0.0000
# 3 -12.2654 -8.0068 38.6183 0.0000 0.0000 0.0000
# 4 0.0000 0.0000 0.0000 15.1834 0.0000 0.0000
# 5 0.0000 0.0000 0.0000 0.0000 9.6545 0.0000
# 6 0.0000 0.0000 0.0000 0.0000 0.0000 16.3731
#
#
#
# Elastic Compliance Matrix: (Units=1/GPa)
#
#
# Indices 1 2 3 4 5 6 
#
# 1 0.027308 -0.002542 0.008146 0.000000 0.000000 0.000000
# 2 -0.002542 0.015560 0.002419 0.000000 0.000000 0.000000
# 3 0.008146 0.002419 0.028983 0.000000 0.000000 0.000000
# 4 0.000000 0.000000 0.000000 0.065861 0.000000 0.000000
# 5 0.000000 0.000000 0.000000 0.000000 0.103579 0.000000
# 6 0.000000 0.000000 0.000000 0.000000 0.000000 0.061076
#
#
# Mechanical properties :
#
#
# Convention : Reuss Voigt Hill
#
# Bulk Modulus (GPa) = 11.37685 13.70091 12.53888
# Shear Modulus (GPa) = 15.84182 18.79373 17.31778
#
# Velocity S-wave (km/s) = 2.88444 3.14170 3.01581
# Velocity P-wave (km/s) = 4.13138 4.51176 4.32575
#
# Compressibility (1/GPa) = 0.08789778
#
# Stress axis : x y z
#
# Youngs Moduli (GPa) = 36.61917 64.26733 34.50270
#
# Poissons Ratio (x) = 0.16335 -0.28107
# Poissons Ratio (y) = 0.09308 -0.08346
# Poissons Ratio (z) = -0.29831 -0.15545
#
# Static dielectric constant tensor:
#      x y z
#    x 1.649790 0.000000 0.000000 
#    y 0.000000 1.719050 0.000000 
#    z 0.000000 0.000000 1.327830 
# 
# From -- ./inp_files/8324.got.cif
#   From: 2010.05.17/outbox.cif.g08.bks.cpg/sg17_5_cif.got.tgz:8324.got - 2010.06.03 22:34:06.
