data_PCOD9311454
_publ_section_title
;
Structure prediction by ZEFSAII (Michael W. Deem and Ramdas Pophale) SiO2 
 PCOD9311454
Probable space group: P 2 2 21
;
_chemical_formula_sum "Si O2"
_cell_formula_units_Z 30
_cell_length_a 10.710173
_cell_length_b 6.105672
_cell_length_c 19.502860
_cell_angle_alpha 90.000000
_cell_angle_beta 90.000000
_cell_angle_gamma 90.000000
_cell_volume 1275.346690
_symmetry_space_group_name_H-M "P 2 2 21"
_symmetry_group_IT_number 17
_symmetry_cell_setting 'orthorhombic'
loop_
_space_group_symop_operation_xyz
x,y,z
-x,-y,1/2+z
x,-y,-z
-x,y,1/2-z
loop_
_atom_site_type_symbol
_atom_site_label
_atom_site_fract_x
_atom_site_fract_y
_atom_site_fract_z
Si Si1 0.757930 0.721383 0.739595
Si Si2 0.618048 0.000000 0.500000
Si Si3 0.896588 0.667301 0.201105
Si Si4 0.601002 0.692242 0.943433
Si Si5 0.937880 0.314953 0.376561
Si Si6 0.272433 0.618369 0.067383
Si Si7 0.462328 0.518704 0.818262
Si Si8 0.826442 0.943419 0.883579
O O1 0.793936 0.465178 0.755213
O O2 0.843956 0.799255 0.676759
O O3 0.616329 0.720939 0.714064
O O4 0.788719 0.851639 0.807913
O O5 0.520088 0.841028 0.538907
O O6 0.713383 0.871179 0.450839
O O7 0.000000 0.786957 0.250000
O O8 0.977133 0.473491 0.168774
O O9 0.842107 0.804170 0.137647
O O10 0.573502 0.583270 0.869157
O O11 0.720052 0.851136 0.933513
O O12 0.619210 0.500000 0.000000
O O13 0.853864 0.482284 0.420373
O O14 0.038459 0.148490 0.407530
O O15 0.362737 0.588721 0.131373
O O16 0.326276 0.500000 0.000000
O O17 0.500000 0.388301 0.750000
#
# Coordination Sequence:
#
# PCOD9311454 Si02
#       8
#     4   2   4   4   4   4   4   4
#     4   9  19  36  64  93 133 165 209 273 332 387
#     4  12  24  46  68  92 136 184 226 266 340 396
#     4   9  18  36  57  97 136 166 204 264 335 389
#     4  12  26  46  65  92 134 180 221 267 334 402
#     4   9  21  38  62  98 130 168 216 270 330 385
#     4  11  23  44  70  94 131 176 221 279 334 394
#     4  11  20  42  67  96 127 163 220 281 328 385
#     4  11  21  38  66  91 132 177 215 264 323 405
#
# _framework density 23.523012999999999
#
# number of rings (size 3 to 8) (size 9 to 14) (size 15 to 20)
#    0.000    1.600    4.000    2.000    0.000    4.800 
#    7.200    0.667    0.000    0.000    0.000    0.000 
#    0.000    0.000    0.000    0.000    0.000    0.000 
#
# Total GULP energy -167278.171120 kJ/mol
# GULP energy per Si atom -5575.939037 kJ/mol
# Density = 2.346947 g / cm^3
# Si number density = 23.523013 Si / 1000 Ang^3
#
#
#
# Elastic Constant Matrix: (Units=GPa)
#
#
# Indices 1 2 3 4 5 6 
#
# 1 82.0316 2.6893 20.8010 0.0000 0.0000 0.0000
# 2 2.6893 19.7714 12.6344 0.0000 0.0000 0.0000
# 3 20.8010 12.6344 115.6333 0.0000 0.0000 0.0000
# 4 0.0000 0.0000 0.0000 23.4975 0.0000 0.0000
# 5 0.0000 0.0000 0.0000 0.0000 29.3607 0.0000
# 6 0.0000 0.0000 0.0000 0.0000 0.0000 14.0312
#
#
#
# Elastic Compliance Matrix: (Units=1/GPa)
#
#
# Indices 1 2 3 4 5 6 
#
# 1 0.012775 -0.000289 -0.002266 0.000000 0.000000 0.000000
# 2 -0.000289 0.054381 -0.005890 0.000000 0.000000 0.000000
# 3 -0.002266 -0.005890 0.009699 0.000000 0.000000 0.000000
# 4 0.000000 0.000000 0.000000 0.042558 0.000000 0.000000
# 5 0.000000 0.000000 0.000000 0.000000 0.034059 0.000000
# 6 0.000000 0.000000 0.000000 0.000000 0.000000 0.071270
#
#
# Mechanical properties :
#
#
# Convention : Reuss Voigt Hill
#
# Bulk Modulus (GPa) = 16.67664 32.18730 24.43197
# Shear Modulus (GPa) = 19.11162 25.46531 22.28847
#
# Velocity S-wave (km/s) = 2.85347 3.29381 3.08152
# Velocity P-wave (km/s) = 4.23807 5.30836 4.80312
#
# Compressibility (1/GPa) = 0.05996411
#
# Stress axis : x y z
#
# Youngs Moduli (GPa) = 78.28036 18.38868 103.10074
#
# Poissons Ratio (x) = 0.00532 0.23366
# Poissons Ratio (y) = 0.02265 0.60724
# Poissons Ratio (z) = 0.17741 0.10831
#
# Static dielectric constant tensor:
#      x y z
#    x 1.989190 0.000000 0.000000 
#    y 0.000000 2.019050 0.000000 
#    z 0.000000 0.000000 1.956120 
# 
# From -- ./inp_files/10244.got.cif
#   From: 2010.05.17/outbox.cif.g08.bks.cpg/sg17_6_cif.got.tgz:10244.got - 2010.06.03 22:34:06.
