data_PCOD9311736
_publ_section_title
;
Structure prediction by ZEFSAII (Michael W. Deem and Ramdas Pophale) SiO2 
 PCOD9311736
Probable space group: P 21 21 2
;
_chemical_formula_sum "Si O2"
_cell_formula_units_Z 30
_cell_length_a 15.205827
_cell_length_b 9.470536
_cell_length_c 10.941280
_cell_angle_alpha 90.000000
_cell_angle_beta 90.000000
_cell_angle_gamma 90.000000
_cell_volume 1575.624542
_symmetry_space_group_name_H-M "P 21 21 2"
_symmetry_group_IT_number 18
_symmetry_cell_setting 'orthorhombic'
loop_
_space_group_symop_operation_xyz
x,y,z
-x,-y,z
1/2+x,1/2-y,-z
1/2-x,1/2+y,-z
loop_
_atom_site_type_symbol
_atom_site_label
_atom_site_fract_x
_atom_site_fract_y
_atom_site_fract_z
Si Si1 0.995250 0.831668 0.534577
Si Si2 0.190347 0.220726 0.638105
Si Si3 0.732813 0.515968 0.532473
Si Si4 0.000000 0.500000 0.840556
Si Si5 0.576564 0.398251 0.702448
Si Si6 0.684200 0.124897 0.102306
Si Si7 0.771950 0.814859 0.127864
Si Si8 0.134343 0.677360 0.679001
O O1 0.913609 0.776331 0.612879
O O2 0.971950 0.796487 0.394351
O O3 0.086266 0.776189 0.583776
O O4 0.000000 0.000000 0.544465
O O5 0.239437 0.321829 0.540165
O O6 0.220306 0.063392 0.596906
O O7 0.203388 0.287231 0.772224
O O8 0.647143 0.482584 0.616537
O O9 0.811991 0.440285 0.605606
O O10 0.920552 0.585915 0.907338
O O11 0.942829 0.395015 0.757327
O O12 0.500000 0.500000 0.750722
O O13 0.634141 0.327691 0.805926
O O14 0.735640 0.974569 0.104555
O O15 0.717630 0.220704 0.991398
O O16 0.702097 0.753605 0.225704
#
# Coordination Sequence:
#
# PCOD9311736 Si02
#       8
#     4   4   4   2   4   4   4   4
#     4  10  21  33  63  98 124 159 213 271 324 395
#     4  11  21  39  61  95 129 165 216 265 336 384
#     4  10  21  35  64  93 126 169 205 265 332 400
#     4  10  18  40  66  82 118 176 214 264 320 378
#     4   9  19  39  58  87 126 167 204 260 329 377
#     4  11  22  44  65  93 129 176 223 269 319 394
#     4  10  23  42  64  89 131 177 220 262 327 382
#     4  10  18  37  64  86 125 163 212 261 336 379
#
# _framework density 19.040068999999999
#
# number of rings (size 3 to 8) (size 9 to 14) (size 15 to 20)
#    0.000    1.867    5.333    0.000    5.600    1.067 
#    9.600    0.667    0.000    0.000    0.000    0.000 
#    0.000    0.000    0.000    0.000    0.000    0.000 
#
# Total GULP energy -167223.361720 kJ/mol
# GULP energy per Si atom -5574.112057 kJ/mol
# Density = 1.899673 g / cm^3
# Si number density = 19.040069 Si / 1000 Ang^3
#
#
#
# Elastic Constant Matrix: (Units=GPa)
#
#
# Indices 1 2 3 4 5 6 
#
# 1 116.4715 38.1667 54.4465 0.0000 0.0000 0.0000
# 2 38.1667 60.6204 42.6707 0.0000 0.0000 0.0000
# 3 54.4465 42.6707 99.7644 0.0000 0.0000 0.0000
# 4 0.0000 0.0000 0.0000 23.9224 0.0000 0.0000
# 5 0.0000 0.0000 0.0000 0.0000 30.7464 0.0000
# 6 0.0000 0.0000 0.0000 0.0000 0.0000 32.5936
#
#
#
# Elastic Compliance Matrix: (Units=1/GPa)
#
#
# Indices 1 2 3 4 5 6 
#
# 1 0.012265 -0.004307 -0.004851 0.000000 0.000000 0.000000
# 2 -0.004307 0.025114 -0.008391 0.000000 0.000000 0.000000
# 3 -0.004851 -0.008391 0.016260 0.000000 0.000000 0.000000
# 4 0.000000 0.000000 0.000000 0.041802 0.000000 0.000000
# 5 0.000000 0.000000 0.000000 0.000000 0.032524 0.000000
# 6 0.000000 0.000000 0.000000 0.000000 0.000000 0.030681
#
#
# Mechanical properties :
#
#
# Convention : Reuss Voigt Hill
#
# Bulk Modulus (GPa) = 53.93663 60.82490 57.38076
# Shear Modulus (GPa) = 25.00920 26.89065 25.94993
#
# Velocity S-wave (km/s) = 3.62816 3.76216 3.69577
# Velocity P-wave (km/s) = 6.77797 7.13350 6.95801
#
# Compressibility (1/GPa) = 0.01854028
#
# Stress axis : x y z
#
# Youngs Moduli (GPa) = 81.53212 39.81770 61.49937
#
# Poissons Ratio (x) = 0.17150 0.29836
# Poissons Ratio (y) = 0.35117 0.51605
# Poissons Ratio (z) = 0.39555 0.33412
#
# Static dielectric constant tensor:
#      x y z
#    x 1.692730 0.000000 0.000000 
#    y 0.000000 1.699370 0.000000 
#    z 0.000000 0.000000 1.673830 
# 
# From -- ./inp_files/6089.got.cif
#   From: 2010.05.17/outbox.cif.g08.bks.cpg/sg18_4_cif.got.tgz:6089.got - 2010.06.03 22:40:56.
