data_PCOD9311785
_publ_section_title
;
Structure prediction by ZEFSAII (Michael W. Deem and Ramdas Pophale) SiO2 
 PCOD9311785
Probable space group: P 21 21 2
;
_chemical_formula_sum "Si O2"
_cell_formula_units_Z 24
_cell_length_a 13.684453
_cell_length_b 7.542103
_cell_length_c 8.395102
_cell_angle_alpha 90.000000
_cell_angle_beta 90.000000
_cell_angle_gamma 90.000000
_cell_volume 866.454733
_symmetry_space_group_name_H-M "P 21 21 2"
_symmetry_group_IT_number 18
_symmetry_cell_setting 'orthorhombic'
loop_
_space_group_symop_operation_xyz
x,y,z
-x,-y,z
1/2+x,1/2-y,-z
1/2-x,1/2+y,-z
loop_
_atom_site_type_symbol
_atom_site_label
_atom_site_fract_x
_atom_site_fract_y
_atom_site_fract_z
Si Si1 0.719005 0.780806 0.668664
Si Si2 0.043576 0.199272 0.668718
Si Si3 0.248087 0.824537 0.661583
Si Si4 0.590406 0.174776 0.008206
Si Si5 0.951274 0.809109 0.320917
Si Si6 0.700474 0.800354 0.010179
O O1 0.837661 0.781435 0.669543
O O2 0.696298 0.989228 0.662565
O O3 0.690912 0.691936 0.502790
O O4 0.679361 0.713522 0.837488
O O5 0.016715 0.270508 0.492559
O O6 0.023844 0.292827 0.837734
O O7 0.000000 0.000000 0.675991
O O8 0.333009 0.677855 0.663786
O O9 0.187707 0.801761 0.823152
O O10 0.680519 0.315458 0.001697
O O11 0.534690 0.200720 0.841975
O O12 0.646838 0.988272 0.018155
O O13 0.000000 0.000000 0.306165
#
# Coordination Sequence:
#
# PCOD9311785 Si02
#       6
#     4   4   4   4   4   4
#     4  10  20  34  53  82 109 136 184 222 273 319
#     4   9  19  33  54  80 102 139 180 225 263 323
#     4  10  21  32  53  83 104 141 175 229 271 314
#     4  10  19  31  52  78 102 141 174 223 268 321
#     4   9  17  32  49  75 104 131 175 217 262 314
#     4  10  19  32  49  78 111 135 177 225 273 309
#
# _framework density 27.699082000000001
#
# number of rings (size 3 to 8) (size 9 to 14) (size 15 to 20)
#    0.000    2.333    3.333    0.500    7.000    0.000 
#    0.000    0.000    0.000    1.000    0.000    7.000 
#    0.000    0.000    0.000    0.000    0.000    0.000 
#
# Total GULP energy -134175.925614 kJ/mol
# GULP energy per Si atom -5590.663567 kJ/mol
# Density = 2.763604 g / cm^3
# Si number density = 27.699082 Si / 1000 Ang^3
#
#
#
# Elastic Constant Matrix: (Units=GPa)
#
#
# Indices 1 2 3 4 5 6 
#
# 1 137.8401 10.7379 0.8679 0.0000 0.0000 0.0000
# 2 10.7379 103.6447 76.7980 0.0000 0.0000 0.0000
# 3 0.8679 76.7980 364.5209 0.0000 0.0000 0.0000
# 4 0.0000 0.0000 0.0000 98.6552 0.0000 0.0000
# 5 0.0000 0.0000 0.0000 0.0000 -13.5903 0.0000
# 6 0.0000 0.0000 0.0000 0.0000 0.0000 48.2223
#
#
#
# Elastic Compliance Matrix: (Units=1/GPa)
#
#
# Indices 1 2 3 4 5 6 
#
# 1 0.007323 -0.000884 0.000169 0.000000 0.000000 0.000000
# 2 -0.000884 0.011540 -0.002429 0.000000 0.000000 0.000000
# 3 0.000169 -0.002429 0.003255 0.000000 0.000000 0.000000
# 4 0.000000 0.000000 0.000000 0.010136 0.000000 0.000000
# 5 0.000000 0.000000 0.000000 0.000000 -0.073582 0.000000
# 6 0.000000 0.000000 0.000000 0.000000 0.000000 0.020737
#
#
# Mechanical properties :
#
#
# Convention : Reuss Voigt Hill
#
# Bulk Modulus (GPa) = 63.17538 86.97928 75.07733
# Shear Modulus (GPa) = -553.89634 61.16422 -246.36606
#
# Velocity S-wave (km/s) = -14.15639 4.70421 -9.44123
# Velocity P-wave (km/s) = 15.63161 7.80870 9.57526
#
# Compressibility (1/GPa) = 0.01582895
#
# Stress axis : x y z
#
# Youngs Moduli (GPa) = 136.56425 86.65648 307.24801
#
# Poissons Ratio (x) = 0.07658 -0.05184
# Poissons Ratio (y) = 0.12068 0.74635
# Poissons Ratio (z) = -0.02304 0.21050
#
# Static dielectric constant tensor:
#      x y z
#    x 2.194480 0.000000 0.000000 
#    y 0.000000 2.105170 0.000000 
#    z 0.000000 0.000000 2.233760 
# 
# From -- ./inp_files/3291.got.cif
#   From: 2010.05.17/outbox.cif.g08.bks.cpg/sg18_2_cif.got.tgz:3291.got - 2010.06.03 22:40:56.
