data_PCOD9311837
_publ_section_title
;
Structure prediction by ZEFSAII (Michael W. Deem and Ramdas Pophale) SiO2 
 PCOD9311837
Probable space group: P 21 21 2
;
_chemical_formula_sum "Si O2"
_cell_formula_units_Z 32
_cell_length_a 28.838808
_cell_length_b 8.539692
_cell_length_c 6.960451
_cell_angle_alpha 90.000000
_cell_angle_beta 90.000000
_cell_angle_gamma 90.000000
_cell_volume 1714.181854
_symmetry_space_group_name_H-M "P 21 21 2"
_symmetry_group_IT_number 18
_symmetry_cell_setting 'orthorhombic'
loop_
_space_group_symop_operation_xyz
x,y,z
-x,-y,z
1/2+x,1/2-y,-z
1/2-x,1/2+y,-z
loop_
_atom_site_type_symbol
_atom_site_label
_atom_site_fract_x
_atom_site_fract_y
_atom_site_fract_z
Si Si1 0.044545 0.603178 0.906803
Si Si2 0.409768 0.894532 0.413753
Si Si3 0.429724 0.185036 0.679819
Si Si4 0.334324 0.301703 0.539616
Si Si5 0.741819 0.704865 0.861790
Si Si6 0.307062 0.952240 0.417468
Si Si7 0.003750 0.184185 0.587939
Si Si8 0.769637 0.052580 0.738539
O O1 0.077944 0.494339 0.777932
O O2 0.000000 0.500000 0.970152
O O3 0.023551 0.732652 0.763233
O O4 0.069673 0.671983 0.091741
O O5 0.355491 0.860793 0.424436
O O6 0.444015 0.748178 0.414399
O O7 0.422767 0.012566 0.587778
O O8 0.387915 0.289628 0.595103
O O9 0.477677 0.253685 0.601627
O O10 0.304178 0.317678 0.733226
O O11 0.316385 0.428007 0.386185
O O12 0.320125 0.133697 0.447528
O O13 0.779914 0.584845 0.777327
O O14 0.760980 0.878142 0.816995
O O15 0.731968 0.668937 0.082026
O O16 0.271967 0.908435 0.589569
O O17 0.000000 0.000000 0.602296
#
# Coordination Sequence:
#
# PCOD9311837 Si02
#       8
#     4   4   4   4   4   4   4   4
#     4   9  18  34  56  79 103 136 182 221 255 310
#     4   9  19  35  56  78 103 137 179 220 256 308
#     4  10  19  35  58  78 101 139 181 219 259 309
#     4   9  20  35  54  78 103 135 177 220 259 308
#     4  10  20  34  54  77 107 140 173 216 264 310
#     4   9  19  35  54  76 104 138 178 218 261 313
#     4  10  21  35  52  79 113 141 168 215 272 316
#     4  10  20  35  54  79 108 140 176 217 264 316
#
# _framework density 18.667797
#
# number of rings (size 3 to 8) (size 9 to 14) (size 15 to 20)
#    0.000    2.500    0.000    2.625    0.000    8.500 
#    0.000    0.000    0.000    0.000    0.000    0.000 
#    0.000    0.000    0.000    0.000    0.000    0.000 
#
# Total GULP energy -178568.006068 kJ/mol
# GULP energy per Si atom -5580.250190 kJ/mol
# Density = 1.862531 g / cm^3
# Si number density = 18.667797 Si / 1000 Ang^3
#
#
#
# Elastic Constant Matrix: (Units=GPa)
#
#
# Indices 1 2 3 4 5 6 
#
# 1 49.4087 -8.1445 0.4565 0.0000 0.0000 0.0000
# 2 -8.1445 26.4864 -0.4934 0.0000 0.0000 0.0000
# 3 0.4565 -0.4934 65.7817 0.0000 0.0000 0.0000
# 4 0.0000 0.0000 0.0000 15.4392 0.0000 0.0000
# 5 0.0000 0.0000 0.0000 0.0000 13.6395 0.0000
# 6 0.0000 0.0000 0.0000 0.0000 0.0000 21.0492
#
#
#
# Elastic Compliance Matrix: (Units=1/GPa)
#
#
# Indices 1 2 3 4 5 6 
#
# 1 0.021321 0.006554 -0.000099 0.000000 0.000000 0.000000
# 2 0.006554 0.039775 0.000253 0.000000 0.000000 0.000000
# 3 -0.000099 0.000253 0.015204 0.000000 0.000000 0.000000
# 4 0.000000 0.000000 0.000000 0.064770 0.000000 0.000000
# 5 0.000000 0.000000 0.000000 0.000000 0.073316 0.000000
# 6 0.000000 0.000000 0.000000 0.000000 0.000000 0.047508
#
#
# Mechanical properties :
#
#
# Convention : Reuss Voigt Hill
#
# Bulk Modulus (GPa) = 11.14619 13.92379 12.53499
# Shear Modulus (GPa) = 17.96085 20.01615 18.98850
#
# Velocity S-wave (km/s) = 3.10519 3.27804 3.19279
# Velocity P-wave (km/s) = 4.34051 4.66930 4.50790
#
# Compressibility (1/GPa) = 0.08971673
#
# Stress axis : x y z
#
# Youngs Moduli (GPa) = 46.90288 25.14126 65.77056
#
# Poissons Ratio (x) = -0.16478 0.00650
# Poissons Ratio (y) = -0.30741 -0.01663
# Poissons Ratio (z) = 0.00463 -0.00636
#
# Static dielectric constant tensor:
#      x y z
#    x 1.646820 0.000000 0.000000 
#    y 0.000000 1.647570 0.000000 
#    z 0.000000 0.000000 1.626420 
# 
# From -- ./inp_files/2295.got.cif
#   From: 2010.05.17/outbox.cif.g08.bks.cpg/sg18_2_cif.got.tgz:2295.got - 2010.06.03 22:40:56.
