data_PCOD9311415
_publ_section_title
;
Structure prediction by ZEFSAII (Michael W. Deem and Ramdas Pophale) SiO2 
 PCOD9311415
Probable space group: P 2 2 21
;
_chemical_formula_sum "Si O2"
_cell_formula_units_Z 18
_cell_length_a 6.562129
_cell_length_b 4.906960
_cell_length_c 21.379921
_cell_angle_alpha 90.000000
_cell_angle_beta 90.000000
_cell_angle_gamma 90.000000
_cell_volume 688.435691
_symmetry_space_group_name_H-M "P 2 2 21"
_symmetry_group_IT_number 17
_symmetry_cell_setting 'orthorhombic'
loop_
_space_group_symop_operation_xyz
x,y,z
-x,-y,1/2+z
x,-y,-z
-x,y,1/2-z
loop_
_atom_site_type_symbol
_atom_site_label
_atom_site_fract_x
_atom_site_fract_y
_atom_site_fract_z
Si Si1 0.217716 0.500000 0.500000
Si Si2 0.739211 0.113772 0.742688
Si Si3 0.538359 0.103358 0.434002
Si Si4 0.855890 0.628072 0.661035
Si Si5 0.208364 0.694484 0.380648
O O1 0.365106 0.323597 0.454490
O O2 0.107393 0.700827 0.451051
O O3 0.500000 0.091893 0.750000
O O4 0.780116 0.344825 0.690698
O O5 0.820097 0.176076 0.811892
O O6 0.820578 0.834992 0.716532
O O7 0.707213 0.254367 0.392779
O O8 0.624202 0.000000 0.500000
O O9 0.421706 0.851049 0.399872
O O10 0.088145 0.589566 0.638639
#
# Coordination Sequence:
#
# PCOD9311415 Si02
#       5
#     2   4   4   4   4
#     4  10  24  48  82 108 172 222 270 366 424 510
#     4  12  26  49  80 120 170 225 280 358 433 507
#     4  10  24  50  80 119 164 225 279 356 432 510
#     4  12  28  47  84 122 166 226 287 354 427 525
#     4  11  26  48  78 121 170 217 293 349 431 514
#
# _framework density 26.146232999999999
#
# number of rings (size 3 to 8) (size 9 to 14) (size 15 to 20)
#    0.000    0.889    2.222    2.667    9.333    2.667 
#    0.000    0.000    0.000    0.000    0.000    0.000 
#    0.000    0.000    0.000    0.000    0.000    0.000 
#
# Total GULP energy -100203.825499 kJ/mol
# GULP energy per Si atom -5566.879194 kJ/mol
# Density = 2.608672 g / cm^3
# Si number density = 26.146233 Si / 1000 Ang^3
#
#
#
# Elastic Constant Matrix: (Units=GPa)
#
#
# Indices 1 2 3 4 5 6 
#
# 1 115.5132 76.1907 66.6882 0.0000 0.0000 0.0000
# 2 76.1907 93.5791 12.1382 0.0000 0.0000 0.0000
# 3 66.6882 12.1382 145.0416 0.0000 0.0000 0.0000
# 4 0.0000 0.0000 0.0000 36.3856 0.0000 0.0000
# 5 0.0000 0.0000 0.0000 0.0000 12.2738 0.0000
# 6 0.0000 0.0000 0.0000 0.0000 0.0000 47.3004
#
#
#
# Elastic Compliance Matrix: (Units=1/GPa)
#
#
# Indices 1 2 3 4 5 6 
#
# 1 0.032271 -0.024617 -0.012778 0.000000 0.000000 0.000000
# 2 -0.024617 0.029582 0.008843 0.000000 0.000000 0.000000
# 3 -0.012778 0.008843 0.012029 0.000000 0.000000 0.000000
# 4 0.000000 0.000000 0.000000 0.027483 0.000000 0.000000
# 5 0.000000 0.000000 0.000000 0.000000 0.081475 0.000000
# 6 0.000000 0.000000 0.000000 0.000000 0.000000 0.021141
#
#
# Mechanical properties :
#
#
# Convention : Reuss Voigt Hill
#
# Bulk Modulus (GPa) = 59.59848 73.79645 66.69746
# Shear Modulus (GPa) = 18.74923 32.46641 25.60782
#
# Velocity S-wave (km/s) = 2.68076 3.52763 3.13294
# Velocity P-wave (km/s) = 5.69436 6.69911 6.21706
#
# Compressibility (1/GPa) = 0.01677895
#
# Stress axis : x y z
#
# Youngs Moduli (GPa) = 30.98786 33.80447 83.12930
#
# Poissons Ratio (x) = 0.83216 1.06218
# Poissons Ratio (y) = 0.76283 -0.73510
# Poissons Ratio (z) = 0.39595 -0.29893
#
# Static dielectric constant tensor:
#      x y z
#    x 2.138700 0.000000 0.000000 
#    y 0.000000 2.223390 0.000000 
#    z 0.000000 0.000000 2.175360 
# 
# From -- ./inp_files/9221.got.cif
#   From: 2010.05.17/outbox.cif.g08.bks.cpg/sg17_5_cif.got.tgz:9221.got - 2010.06.03 22:34:06.
