data_PCOD9311807
_publ_section_title
;
Structure prediction by ZEFSAII (Michael W. Deem and Ramdas Pophale) SiO2 
 PCOD9311807
Probable space group: P 21 21 2
;
_chemical_formula_sum "Si O2"
_cell_formula_units_Z 24
_cell_length_a 8.144553
_cell_length_b 14.804354
_cell_length_c 7.154399
_cell_angle_alpha 90.000000
_cell_angle_beta 90.000000
_cell_angle_gamma 90.000000
_cell_volume 862.640556
_symmetry_space_group_name_H-M "P 21 21 2"
_symmetry_group_IT_number 18
_symmetry_cell_setting 'orthorhombic'
loop_
_space_group_symop_operation_xyz
x,y,z
-x,-y,z
1/2+x,1/2-y,-z
1/2-x,1/2+y,-z
loop_
_atom_site_type_symbol
_atom_site_label
_atom_site_fract_x
_atom_site_fract_y
_atom_site_fract_z
Si Si1 0.326406 0.444822 0.542818
Si Si2 0.825463 0.884920 0.009649
Si Si3 0.203136 0.619152 0.569096
Si Si4 0.173777 0.442676 0.945956
Si Si5 0.991067 0.274129 0.095972
Si Si6 0.002808 0.225975 0.531441
O O1 0.500000 0.500000 0.538513
O O2 0.192893 0.519933 0.481251
O O3 0.265660 0.420501 0.751593
O O4 0.366220 0.351766 0.439234
O O5 0.795690 0.895013 0.233767
O O6 0.980842 0.820041 0.985181
O O7 0.795493 0.987362 0.945400
O O8 0.678045 0.822165 0.944954
O O9 0.046186 0.679034 0.620826
O O10 0.321841 0.679646 0.439444
O O11 0.000000 0.500000 0.916631
O O12 0.124057 0.350675 0.044978
O O13 0.003987 0.251667 0.313011
#
# Coordination Sequence:
#
# PCOD9311807 Si02
#       6
#     4   4   4   4   4   4
#     4   9  18  35  57  79 106 145 186 221 268 332
#     4   9  19  35  53  78 108 141 180 222 270 335
#     4   9  20  36  55  78 107 144 185 220 268 331
#     4   9  18  32  52  78 107 136 176 221 269 329
#     4  10  19  33  56  82 107 138 179 229 277 319
#     4  10  20  35  55  81 109 140 182 231 270 316
#
# _framework density 27.821553999999999
#
# number of rings (size 3 to 8) (size 9 to 14) (size 15 to 20)
#    0.000    2.667    0.000    2.000    0.000    5.333 
#    0.000   10.000    0.000    4.000    0.000    3.500 
#    0.000    0.000    0.000    0.000    0.000    0.000 
#
# Total GULP energy -134241.528841 kJ/mol
# GULP energy per Si atom -5593.397035 kJ/mol
# Density = 2.775823 g / cm^3
# Si number density = 27.821554 Si / 1000 Ang^3
#
#
#
# Elastic Constant Matrix: (Units=GPa)
#
#
# Indices 1 2 3 4 5 6 
#
# 1 92.8868 52.6055 6.7394 0.0000 0.0000 0.0000
# 2 52.6055 193.8018 27.5593 0.0000 0.0000 0.0000
# 3 6.7394 27.5593 56.1068 0.0000 0.0000 0.0000
# 4 0.0000 0.0000 0.0000 27.7632 0.0000 0.0000
# 5 0.0000 0.0000 0.0000 0.0000 36.0028 0.0000
# 6 0.0000 0.0000 0.0000 0.0000 0.0000 55.8057
#
#
#
# Elastic Compliance Matrix: (Units=1/GPa)
#
#
# Indices 1 2 3 4 5 6 
#
# 1 0.012723 -0.003479 0.000181 0.000000 0.000000 0.000000
# 2 -0.003479 0.006499 -0.002774 0.000000 0.000000 0.000000
# 3 0.000181 -0.002774 0.019164 0.000000 0.000000 0.000000
# 4 0.000000 0.000000 0.000000 0.036019 0.000000 0.000000
# 5 0.000000 0.000000 0.000000 0.000000 0.027776 0.000000
# 6 0.000000 0.000000 0.000000 0.000000 0.000000 0.017919
#
#
# Mechanical properties :
#
#
# Convention : Reuss Voigt Hill
#
# Bulk Modulus (GPa) = 38.10904 57.40043 47.75474
# Shear Modulus (GPa) = 35.46293 40.97376 38.21835
#
# Velocity S-wave (km/s) = 3.57411 3.84179 3.71036
# Velocity P-wave (km/s) = 5.54614 6.35260 5.96302
#
# Compressibility (1/GPa) = 0.02624050
#
# Stress axis : x y z
#
# Youngs Moduli (GPa) = 78.59702 153.87382 52.18077
#
# Poissons Ratio (x) = 0.53537 -0.00943
# Poissons Ratio (y) = 0.27346 0.14476
# Poissons Ratio (z) = -0.01420 0.42689
#
# Static dielectric constant tensor:
#      x y z
#    x 2.264580 0.000000 0.000000 
#    y 0.000000 2.252070 0.000000 
#    z 0.000000 0.000000 2.212340 
# 
# From -- ./inp_files/3136.got.cif
#   From: 2010.05.17/outbox.cif.g08.bks.cpg/sg18_2_cif.got.tgz:3136.got - 2010.06.03 22:40:56.
