data_PCOD9311276
_publ_section_title
;
Structure prediction by ZEFSAII (Michael W. Deem and Ramdas Pophale) SiO2 
 PCOD9311276
Probable space group: P 2 2 21
;
_chemical_formula_sum "Si O2"
_cell_formula_units_Z 24
_cell_length_a 8.366116
_cell_length_b 12.786940
_cell_length_c 11.572425
_cell_angle_alpha 90.000000
_cell_angle_beta 90.000000
_cell_angle_gamma 90.000000
_cell_volume 1237.983579
_symmetry_space_group_name_H-M "P 2 2 21"
_symmetry_group_IT_number 17
_symmetry_cell_setting 'orthorhombic'
loop_
_space_group_symop_operation_xyz
x,y,z
-x,-y,1/2+z
x,-y,-z
-x,y,1/2-z
loop_
_atom_site_type_symbol
_atom_site_label
_atom_site_fract_x
_atom_site_fract_y
_atom_site_fract_z
Si Si1 0.000000 0.690471 0.750000
Si Si2 0.702751 0.800147 0.630285
Si Si3 0.114367 0.841983 0.093405
Si Si4 0.148869 0.000000 0.500000
Si Si5 0.500000 0.366917 0.250000
Si Si6 0.796288 0.479217 0.134521
Si Si7 0.000000 0.343100 0.750000
Si Si8 0.676196 0.983213 0.241984
O O1 0.138302 0.759756 0.804660
O O2 0.074352 0.613360 0.653984
O O3 0.747351 0.819582 0.498656
O O4 0.572439 0.711157 0.653742
O O5 0.657833 0.909612 0.687203
O O6 0.057315 0.734138 0.149075
O O7 0.189136 0.914410 0.193819
O O8 0.971168 0.903263 0.027638
O O9 0.259963 0.991328 0.613488
O O10 0.637788 0.437244 0.195901
O O11 0.863819 0.581033 0.199555
O O12 0.772738 0.500000 0.000000
O O13 0.500000 0.931706 0.250000
#
# Coordination Sequence:
#
# PCOD9311276 Si02
#       8
#     2   4   4   2   2   4   2   4
#     4   9  20  37  66  96 112 167 220 275 322 388
#     4  11  21  40  67  92 132 170 225 265 334 402
#     4  12  24  44  67 101 133 182 231 278 330 416
#     4  12  24  42  70  88 144 182 230 278 330 406
#     4  10  24  42  64 100 128 178 222 266 362 406
#     4  10  22  43  66  92 133 164 219 285 333 395
#     4  11  24  45  66 104 124 171 238 273 342 402
#     4  12  26  41  62 100 141 178 222 280 344 405
#
# _framework density 19.386361999999998
#
# number of rings (size 3 to 8) (size 9 to 14) (size 15 to 20)
#    0.000    1.000    4.167    2.000    2.333    2.667 
#    4.500    1.667    0.000    0.000    0.000    0.000 
#    0.000    0.000    0.000    0.000    0.000    0.000 
#
# Total GULP energy -134139.463820 kJ/mol
# GULP energy per Si atom -5589.144326 kJ/mol
# Density = 1.934224 g / cm^3
# Si number density = 19.386362 Si / 1000 Ang^3
#
#
#
# Elastic Constant Matrix: (Units=GPa)
#
#
# Indices 1 2 3 4 5 6 
#
# 1 90.1862 30.6347 25.0704 0.0000 0.0000 0.0000
# 2 30.6347 84.3435 24.9265 0.0000 0.0000 0.0000
# 3 25.0704 24.9265 117.4195 0.0000 0.0000 0.0000
# 4 0.0000 0.0000 0.0000 18.3020 0.0000 0.0000
# 5 0.0000 0.0000 0.0000 0.0000 21.8243 0.0000
# 6 0.0000 0.0000 0.0000 0.0000 0.0000 2.9632
#
#
#
# Elastic Compliance Matrix: (Units=1/GPa)
#
#
# Indices 1 2 3 4 5 6 
#
# 1 0.013033 -0.004173 -0.001897 0.000000 0.000000 0.000000
# 2 -0.004173 0.013986 -0.002078 0.000000 0.000000 0.000000
# 3 -0.001897 -0.002078 0.009363 0.000000 0.000000 0.000000
# 4 0.000000 0.000000 0.000000 0.054639 0.000000 0.000000
# 5 0.000000 0.000000 0.000000 0.000000 0.045821 0.000000
# 6 0.000000 0.000000 0.000000 0.000000 0.000000 0.337470
#
#
# Mechanical properties :
#
#
# Convention : Reuss Voigt Hill
#
# Bulk Modulus (GPa) = 49.78659 50.35694 50.07176
# Shear Modulus (GPa) = 10.05423 22.70573 16.37998
#
# Velocity S-wave (km/s) = 2.27980 3.42602 2.90991
# Velocity P-wave (km/s) = 5.71550 6.45616 6.09709
#
# Compressibility (1/GPa) = 0.02008573
#
# Stress axis : x y z
#
# Youngs Moduli (GPa) = 76.72818 71.49918 106.80793
#
# Poissons Ratio (x) = 0.29838 0.20259
# Poissons Ratio (y) = 0.32020 0.22195
# Poissons Ratio (z) = 0.14554 0.14858
#
# Static dielectric constant tensor:
#      x y z
#    x 1.701850 0.000000 0.000000 
#    y 0.000000 1.649260 0.000000 
#    z 0.000000 0.000000 1.679020 
# 
# From -- ./inp_files/6641.got.cif
#   From: 2010.05.17/outbox.cif.g08.bks.cpg/sg17_4_cif.got.tgz:6641.got - 2010.06.03 22:34:06.
