data_PCOD9311150
_publ_section_title
;
Structure prediction by ZEFSAII (Michael W. Deem and Ramdas Pophale) SiO2 
 PCOD9311150
Probable space group: P 2 2 21
;
_chemical_formula_sum "Si O2"
_cell_formula_units_Z 20
_cell_length_a 11.487703
_cell_length_b 11.487704
_cell_length_c 8.812027
_cell_angle_alpha 90.000000
_cell_angle_beta 90.000000
_cell_angle_gamma 90.000000
_cell_volume 1162.899690
_symmetry_space_group_name_H-M "P 2 2 21"
_symmetry_group_IT_number 17
_symmetry_cell_setting 'orthorhombic'
loop_
_space_group_symop_operation_xyz
x,y,z
-x,-y,1/2+z
x,-y,-z
-x,y,1/2-z
loop_
_atom_site_type_symbol
_atom_site_label
_atom_site_fract_x
_atom_site_fract_y
_atom_site_fract_z
Si Si1 0.363772 0.817873 0.711280
Si Si2 0.682127 0.863772 0.461280
Si Si3 0.697911 0.633371 0.044302
Si Si4 0.133371 0.197911 0.705698
Si Si5 0.500000 0.263464 0.750000
Si Si6 0.236536 0.000000 0.500000
O O1 0.500000 0.829223 0.750000
O O2 0.334931 0.710062 0.602813
O O3 0.316577 0.930627 0.620418
O O4 0.304538 0.804538 0.875000
O O5 0.789938 0.834931 0.352813
O O6 0.569373 0.816577 0.370418
O O7 0.670777 0.000000 0.500000
O O8 0.810858 0.689142 0.125000
O O9 0.592908 0.658209 0.161552
O O10 0.710398 0.500000 0.000000
O O11 0.000000 0.210398 0.750000
O O12 0.158209 0.092908 0.588448
#
# Coordination Sequence:
#
# PCOD9311150 Si02
#       6
#     4   4   4   4   2   2
#     4  11  22  34  57  89 122 153 186 232 303 364
#     4  11  22  34  57  89 122 153 186 232 303 364
#     4  10  23  41  59  85 118 156 202 244 288 343
#     4  10  23  41  59  85 118 156 202 244 288 343
#     4  10  22  34  56  90 118 154 192 238 296 358
#     4  10  22  34  56  90 118 154 192 238 296 358
#
# _framework density 17.198387
#
# number of rings (size 3 to 8) (size 9 to 14) (size 15 to 20)
#    0.000    1.600    4.000    0.000    5.600    0.000 
#    0.000    8.000    0.000    0.000    0.000    0.000 
#    0.000    0.000    0.000    0.000    0.000    0.000 
#
# Total GULP energy -111683.018249 kJ/mol
# GULP energy per Si atom -5584.150912 kJ/mol
# Density = 1.715924 g / cm^3
# Si number density = 17.198387 Si / 1000 Ang^3
#
#
#
# Elastic Constant Matrix: (Units=GPa)
#
#
# Indices 1 2 3 4 5 6 
#
# 1 147.6389 73.9877 64.6716 0.0000 0.0000 0.0000
# 2 73.9877 147.6389 64.6716 0.0000 0.0000 0.0000
# 3 64.6716 64.6716 147.3065 0.0000 0.0000 0.0000
# 4 0.0000 0.0000 0.0000 16.1291 0.0000 0.0000
# 5 0.0000 0.0000 0.0000 0.0000 16.1291 0.0000
# 6 0.0000 0.0000 0.0000 0.0000 0.0000 8.0693
#
#
#
# Elastic Compliance Matrix: (Units=1/GPa)
#
#
# Indices 1 2 3 4 5 6 
#
# 1 0.009822 -0.003756 -0.002663 0.000000 0.000000 0.000000
# 2 -0.003756 0.009822 -0.002663 0.000000 0.000000 0.000000
# 3 -0.002663 -0.002663 0.009127 0.000000 0.000000 0.000000
# 4 0.000000 0.000000 0.000000 0.062000 0.000000 0.000000
# 5 0.000000 0.000000 0.000000 0.000000 0.062000 0.000000
# 6 0.000000 0.000000 0.000000 0.000000 0.000000 0.123926
#
#
# Mechanical properties :
#
#
# Convention : Reuss Voigt Hill
#
# Bulk Modulus (GPa) = 94.28036 94.36068 94.32052
# Shear Modulus (GPa) = 16.75622 24.01572 20.38597
#
# Velocity S-wave (km/s) = 3.12475 3.74089 3.44661
# Velocity P-wave (km/s) = 8.24361 8.58161 8.41431
#
# Compressibility (1/GPa) = 0.01060666
#
# Stress axis : x y z
#
# Youngs Moduli (GPa) = 101.81248 101.81249 109.56362
#
# Poissons Ratio (x) = 0.38236 0.29180
# Poissons Ratio (y) = 0.38236 0.29180
# Poissons Ratio (z) = 0.27116 0.27116
#
# Static dielectric constant tensor:
#      x y z
#    x 1.569830 0.000000 0.000000 
#    y 0.000000 1.569830 0.000000 
#    z 0.000000 0.000000 1.599750 
# 
# From -- ./inp_files/4728.got.cif
#   From: 2010.05.17/outbox.cif.g08.bks.cpg/sg17_3_cif.got.tgz:4728.got - 2010.06.03 22:34:06.
