data_PCOD9311287
_publ_section_title
;
Structure prediction by ZEFSAII (Michael W. Deem and Ramdas Pophale) SiO2 
 PCOD9311287
Probable space group: P 2 2 21
;
_chemical_formula_sum "Si O2"
_cell_formula_units_Z 24
_cell_length_a 5.049177
_cell_length_b 10.892309
_cell_length_c 16.676857
_cell_angle_alpha 90.000000
_cell_angle_beta 90.000000
_cell_angle_gamma 90.000000
_cell_volume 917.180374
_symmetry_space_group_name_H-M "P 2 2 21"
_symmetry_group_IT_number 17
_symmetry_cell_setting 'orthorhombic'
loop_
_space_group_symop_operation_xyz
x,y,z
-x,-y,1/2+z
x,-y,-z
-x,y,1/2-z
loop_
_atom_site_type_symbol
_atom_site_label
_atom_site_fract_x
_atom_site_fract_y
_atom_site_fract_z
Si Si1 0.480726 0.597585 0.950074
Si Si2 0.921339 0.181059 0.431531
Si Si3 0.000000 0.229849 0.750000
Si Si4 0.547990 0.965599 0.412976
Si Si5 0.500000 0.058463 0.750000
Si Si6 0.251665 0.667982 0.695021
Si Si7 0.213019 0.732580 0.418924
O O1 0.317369 0.720036 0.929585
O O2 0.621597 0.567245 0.865828
O O3 0.304787 0.500000 0.000000
O O4 0.689311 0.628457 0.020570
O O5 0.818372 0.045115 0.413313
O O6 0.128219 0.233736 0.367370
O O7 0.017447 0.191354 0.523243
O O8 0.245998 0.141342 0.769443
O O9 0.084879 0.296781 0.667288
O O10 0.427263 0.013856 0.329619
O O11 0.465134 0.822610 0.406058
O O12 0.435356 0.000000 0.500000
O O13 0.500000 0.707378 0.750000
O O14 0.000000 0.629800 0.750000
#
# Coordination Sequence:
#
# PCOD9311287 Si02
#       7
#     4   4   2   4   2   4   4
#     4  11  25  49  76 113 152 200 266 330 395 457
#     4  11  24  45  78 109 157 203 255 320 390 466
#     4  10  22  44  68 100 146 184 254 294 370 454
#     4  11  22  43  68 104 147 194 252 298 382 456
#     4  10  24  40  64 102 142 190 240 308 360 456
#     4  11  24  50  79 110 155 198 257 321 393 471
#     4  10  24  45  73 107 152 204 255 316 388 468
#
# _framework density 26.167155999999999
#
# number of rings (size 3 to 8) (size 9 to 14) (size 15 to 20)
#    0.000    1.333    3.333    1.000    2.333    7.333 
#    3.000    0.000    7.333    0.000    0.000    0.000 
#    0.000    0.000    0.000    0.000    0.000    0.000 
#
# Total GULP energy -133848.622955 kJ/mol
# GULP energy per Si atom -5577.025956 kJ/mol
# Density = 2.610760 g / cm^3
# Si number density = 26.167156 Si / 1000 Ang^3
#
#
#
# Elastic Constant Matrix: (Units=GPa)
#
#
# Indices 1 2 3 4 5 6 
#
# 1 142.9715 24.2832 57.7791 0.0000 0.0000 0.0000
# 2 24.2832 52.4994 31.9407 0.0000 0.0000 0.0000
# 3 57.7791 31.9407 261.0797 0.0000 0.0000 0.0000
# 4 0.0000 0.0000 0.0000 23.6370 0.0000 0.0000
# 5 0.0000 0.0000 0.0000 0.0000 55.1554 0.0000
# 6 0.0000 0.0000 0.0000 0.0000 0.0000 10.9178
#
#
#
# Elastic Compliance Matrix: (Units=1/GPa)
#
#
# Indices 1 2 3 4 5 6 
#
# 1 0.008059 -0.002855 -0.001434 0.000000 0.000000 0.000000
# 2 -0.002855 0.021591 -0.002010 0.000000 0.000000 0.000000
# 3 -0.001434 -0.002010 0.004394 0.000000 0.000000 0.000000
# 4 0.000000 0.000000 0.000000 0.042306 0.000000 0.000000
# 5 0.000000 0.000000 0.000000 0.000000 0.018131 0.000000
# 6 0.000000 0.000000 0.000000 0.000000 0.000000 0.091593
#
#
# Mechanical properties :
#
#
# Convention : Reuss Voigt Hill
#
# Bulk Modulus (GPa) = 46.62922 76.06186 61.34554
# Shear Modulus (GPa) = 24.29306 40.77856 32.53581
#
# Velocity S-wave (km/s) = 3.05024 3.95192 3.52999
# Velocity P-wave (km/s) = 5.50125 7.06784 6.33317
#
# Compressibility (1/GPa) = 0.02144578
#
# Stress axis : x y z
#
# Youngs Moduli (GPa) = 124.08599 46.31542 227.60827
#
# Poissons Ratio (x) = 0.13223 0.32644
# Poissons Ratio (y) = 0.35427 0.45741
# Poissons Ratio (z) = 0.17797 0.09308
#
# Static dielectric constant tensor:
#      x y z
#    x 2.134530 0.000000 0.000000 
#    y 0.000000 2.209160 0.000000 
#    z 0.000000 0.000000 2.105120 
# 
# From -- ./inp_files/7773.got.cif
#   From: 2010.05.17/outbox.cif.g08.bks.cpg/sg17_4_cif.got.tgz:7773.got - 2010.06.03 22:34:06.
