data_PCOD9311673
_publ_section_title
;
Structure prediction by ZEFSAII (Michael W. Deem and Ramdas Pophale) SiO2 
 PCOD9311673
Probable space group: P 21 21 2
;
_chemical_formula_sum "Si O2"
_cell_formula_units_Z 22
_cell_length_a 5.096778
_cell_length_b 18.608316
_cell_length_c 13.377100
_cell_angle_alpha 90.000000
_cell_angle_beta 90.000000
_cell_angle_gamma 90.000000
_cell_volume 1268.717013
_symmetry_space_group_name_H-M "P 21 21 2"
_symmetry_group_IT_number 18
_symmetry_cell_setting 'orthorhombic'
loop_
_space_group_symop_operation_xyz
x,y,z
-x,-y,z
1/2+x,1/2-y,-z
1/2-x,1/2+y,-z
loop_
_atom_site_type_symbol
_atom_site_label
_atom_site_fract_x
_atom_site_fract_y
_atom_site_fract_z
Si Si1 0.194067 0.208734 0.463372
Si Si2 0.791258 0.713287 0.043661
Si Si3 0.301603 0.286127 0.278723
Si Si4 0.259972 0.953579 0.952859
Si Si5 0.700606 0.871522 0.645452
Si Si6 0.000000 0.500000 0.244513
O O1 0.897355 0.234628 0.484320
O O2 0.268632 0.214622 0.347194
O O3 0.244664 0.137331 0.527611
O O4 0.582330 0.761961 0.985020
O O5 0.744861 0.723454 0.161917
O O6 0.747843 0.629280 0.016847
O O7 0.079764 0.337412 0.326572
O O8 0.580028 0.323584 0.299389
O O9 0.500000 0.000000 0.997866
O O10 0.329705 0.953203 0.833906
O O11 0.000000 0.000000 0.967700
O O12 0.685878 0.950976 0.688738
#
# Coordination Sequence:
#
# PCOD9311673 Si02
#       6
#     4   4   4   4   4   2
#     4   8  16  28  47  69  96 131 160 190 246 313
#     4  12  23  34  52  82 110 140 187 236 268 311
#     4  10  18  34  47  69 109 136 164 213 258 314
#     4  10  20  35  52  74 105 144 170 217 283 330
#     4  10  18  29  50  77 101 131 164 200 260 328
#     4  10  20  28  54  74 108 130 166 210 280 318
#
# _framework density 17.340351999999999
#
# number of rings (size 3 to 8) (size 9 to 14) (size 15 to 20)
#    0.545    1.455    1.818    3.273    0.000    0.000 
#    0.000    0.000    0.000    0.000    7.091    0.000 
#    0.000    0.000    0.000    0.000    0.000    0.000 
#
# Total GULP energy -122520.140717 kJ/mol
# GULP energy per Si atom -5569.097305 kJ/mol
# Density = 1.730088 g / cm^3
# Si number density = 17.340352 Si / 1000 Ang^3
#
#
#
# Elastic Constant Matrix: (Units=GPa)
#
#
# Indices 1 2 3 4 5 6 
#
# 1 73.8704 0.1150 -13.5271 0.0000 0.0000 0.0000
# 2 0.1150 51.0223 7.3247 0.0000 0.0000 0.0000
# 3 -13.5271 7.3247 43.1441 0.0000 0.0000 0.0000
# 4 0.0000 0.0000 0.0000 21.4623 0.0000 0.0000
# 5 0.0000 0.0000 0.0000 0.0000 18.3744 0.0000
# 6 0.0000 0.0000 0.0000 0.0000 0.0000 23.7643
#
#
#
# Elastic Compliance Matrix: (Units=1/GPa)
#
#
# Indices 1 2 3 4 5 6 
#
# 1 0.014386 -0.000697 0.004629 0.000000 0.000000 0.000000
# 2 -0.000697 0.020123 -0.003635 0.000000 0.000000 0.000000
# 3 0.004629 -0.003635 0.025246 0.000000 0.000000 0.000000
# 4 0.000000 0.000000 0.000000 0.046593 0.000000 0.000000
# 5 0.000000 0.000000 0.000000 0.000000 0.054424 0.000000
# 6 0.000000 0.000000 0.000000 0.000000 0.000000 0.042080
#
#
# Mechanical properties :
#
#
# Convention : Reuss Voigt Hill
#
# Bulk Modulus (GPa) = 16.57026 17.31803 16.94414
# Shear Modulus (GPa) = 22.48463 24.32849 23.40656
#
# Velocity S-wave (km/s) = 3.60483 3.74973 3.67799
# Velocity P-wave (km/s) = 5.18681 5.36247 5.27537
#
# Compressibility (1/GPa) = 0.06034909
#
# Stress axis : x y z
#
# Youngs Moduli (GPa) = 69.51246 49.69520 39.60949
#
# Poissons Ratio (x) = 0.03463 -0.18334
# Poissons Ratio (y) = 0.04845 0.14397
# Poissons Ratio (z) = -0.32176 0.18063
#
# Static dielectric constant tensor:
#      x y z
#    x 1.599110 0.000000 0.000000 
#    y 0.000000 1.620270 0.000000 
#    z 0.000000 0.000000 1.611930 
# 
# From -- ./inp_files/5177.got.cif
#   From: 2010.05.17/outbox.cif.g08.bks.cpg/sg18_3_cif.got.tgz:5177.got - 2010.06.03 22:40:56.
