data_PCOD9311302
_publ_section_title
;
Structure prediction by ZEFSAII (Michael W. Deem and Ramdas Pophale) SiO2 
 PCOD9311302
Probable space group: P 2 2 21
;
_chemical_formula_sum "Si O2"
_cell_formula_units_Z 14
_cell_length_a 7.566489
_cell_length_b 14.660139
_cell_length_c 5.313192
_cell_angle_alpha 90.000000
_cell_angle_beta 90.000000
_cell_angle_gamma 90.000000
_cell_volume 589.369969
_symmetry_space_group_name_H-M "P 2 2 21"
_symmetry_group_IT_number 17
_symmetry_cell_setting 'orthorhombic'
loop_
_space_group_symop_operation_xyz
x,y,z
-x,-y,1/2+z
x,-y,-z
-x,y,1/2-z
loop_
_atom_site_type_symbol
_atom_site_label
_atom_site_fract_x
_atom_site_fract_y
_atom_site_fract_z
Si Si1 0.880396 0.500000 0.500000
Si Si2 0.000000 0.162552 0.250000
Si Si3 0.500000 0.190382 0.750000
Si Si4 0.167347 0.000000 0.000000
Si Si5 0.822891 0.700984 0.421900
Si Si6 0.500000 0.070562 0.250000
O O1 0.780983 0.596283 0.484882
O O2 0.000000 0.506266 0.750000
O O3 0.959132 0.088182 0.472127
O O4 0.850948 0.236772 0.328535
O O5 0.328988 0.252424 0.764776
O O6 0.491736 0.131150 0.498021
O O7 0.313783 0.983657 0.780193
O O8 0.000000 0.703503 0.250000
#
# Coordination Sequence:
#
# PCOD9311302 Si02
#       6
#     2   2   2   2   4   2
#     4  10  22  44  80 110 154 204 254 320 402 466
#     4  12  26  46  72 112 150 198 272 306 396 456
#     4  12  27  50  83 112 156 212 259 330 395 462
#     4  12  28  44  76 108 152 208 256 330 372 476
#     4  11  25  49  77 114 157 205 260 330 390 478
#     4  12  27  52  73 108 158 206 263 318 395 452
#
# _framework density 23.754182
#
# number of rings (size 3 to 8) (size 9 to 14) (size 15 to 20)
#    0.000    0.571    4.286    2.571    2.000    3.429 
#    0.000    7.143    0.000    0.000    0.000    0.000 
#    0.000    0.000    0.000    0.000    0.000    0.000 
#
# Total GULP energy -78059.365331 kJ/mol
# GULP energy per Si atom -5575.668952 kJ/mol
# Density = 2.370012 g / cm^3
# Si number density = 23.754182 Si / 1000 Ang^3
#
#
#
# Elastic Constant Matrix: (Units=GPa)
#
#
# Indices 1 2 3 4 5 6 
#
# 1 118.0054 48.9339 46.8873 0.0000 0.0000 0.0000
# 2 48.9339 219.9737 75.1936 0.0000 0.0000 0.0000
# 3 46.8873 75.1936 158.7100 0.0000 0.0000 0.0000
# 4 0.0000 0.0000 0.0000 -2.7630 0.0000 0.0000
# 5 0.0000 0.0000 0.0000 0.0000 35.8463 0.0000
# 6 0.0000 0.0000 0.0000 0.0000 0.0000 67.2577
#
#
#
# Elastic Compliance Matrix: (Units=1/GPa)
#
#
# Indices 1 2 3 4 5 6 
#
# 1 0.009972 -0.001445 -0.002261 0.000000 0.000000 0.000000
# 2 -0.001445 0.005634 -0.002242 0.000000 0.000000 0.000000
# 3 -0.002261 -0.002242 0.008031 0.000000 0.000000 0.000000
# 4 0.000000 0.000000 0.000000 -0.361923 0.000000 0.000000
# 5 0.000000 0.000000 0.000000 0.000000 0.027897 0.000000
# 6 0.000000 0.000000 0.000000 0.000000 0.000000 0.014868
#
#
# Mechanical properties :
#
#
# Convention : Reuss Voigt Hill
#
# Bulk Modulus (GPa) = 85.18277 93.19097 89.18687
# Shear Modulus (GPa) = -17.87566 41.77981 11.95207
#
# Velocity S-wave (km/s) = -2.74620 4.19840 2.24555
# Velocity P-wave (km/s) = 5.08748 7.92582 6.65962
#
# Compressibility (1/GPa) = 0.01173946
#
# Stress axis : x y z
#
# Youngs Moduli (GPa) = 100.28084 177.49387 124.51477
#
# Poissons Ratio (x) = 0.25654 0.28156
# Poissons Ratio (y) = 0.14494 0.27920
# Poissons Ratio (z) = 0.22676 0.39799
#
# Static dielectric constant tensor:
#      x y z
#    x 1.905560 0.000000 0.000000 
#    y 0.000000 1.934710 0.000000 
#    z 0.000000 0.000000 1.931140 
# 
# From -- ./inp_files/683.got.cif
#   From: 2010.05.17/outbox.cif.g08.bks.cpg/sg17_1_cif.got.tgz:683.got - 2010.06.03 22:34:06.
