data_PCOD9311030
_publ_section_title
;
Structure prediction by ZEFSAII (Michael W. Deem and Ramdas Pophale) SiO2 
 PCOD9311030
Probable space group: P 2 2 21
;
_chemical_formula_sum "Si O2"
_cell_formula_units_Z 32
_cell_length_a 15.375767
_cell_length_b 11.631089
_cell_length_c 8.570642
_cell_angle_alpha 90.000000
_cell_angle_beta 90.000000
_cell_angle_gamma 90.000000
_cell_volume 1532.747170
_symmetry_space_group_name_H-M "P 2 2 21"
_symmetry_group_IT_number 17
_symmetry_cell_setting 'orthorhombic'
loop_
_space_group_symop_operation_xyz
x,y,z
-x,-y,1/2+z
x,-y,-z
-x,y,1/2-z
loop_
_atom_site_type_symbol
_atom_site_label
_atom_site_fract_x
_atom_site_fract_y
_atom_site_fract_z
Si Si1 0.734245 0.385992 0.395575
Si Si2 0.991100 0.214059 0.501996
Si Si3 0.595022 0.978957 0.317342
Si Si4 0.689031 0.261991 0.701556
Si Si5 0.763165 0.056008 0.170229
Si Si6 0.864801 0.841573 0.225709
Si Si7 0.598017 0.504560 0.186432
Si Si8 0.877917 0.266892 0.222736
O O1 0.739419 0.500000 0.500000
O O2 0.713414 0.285262 0.519653
O O3 0.658686 0.408821 0.269447
O O4 0.825921 0.365203 0.311241
O O5 0.066469 0.137855 0.584682
O O6 0.056273 0.304691 0.414862
O O7 0.921856 0.221936 0.641322
O O8 0.930135 0.191674 0.352915
O O9 0.500000 0.997075 0.250000
O O10 0.629229 0.849975 0.284128
O O11 0.593695 0.000000 0.500000
O O12 0.667851 0.059812 0.241626
O O13 0.779173 0.237151 0.793262
O O14 0.639041 0.373375 0.762564
O O15 0.805387 0.179902 0.161812
O O16 0.823362 0.965400 0.267024
O O17 0.757782 0.000000 0.000000
O O18 0.500000 0.494946 0.250000
O O19 0.598578 0.500000 0.000000
#
# Coordination Sequence:
#
# PCOD9311030 Si02
#       8
#     4   4   4   4   4   4   4   4
#     4  10  22  42  67  89 127 159 207 262 324 371
#     4  10  22  36  63  88 128 164 218 254 303 378
#     4  11  24  41  63  91 129 168 210 248 305 384
#     4  10  21  42  67  89 127 166 200 260 318 369
#     4  11  23  38  60  91 129 169 210 253 312 371
#     4  10  21  38  59  92 129 167 208 253 310 365
#     4  11  24  42  70  98 120 154 207 262 318 380
#     4  11  22  39  61  91 129 167 211 260 313 362
#
# _framework density 20.877547
#
# number of rings (size 3 to 8) (size 9 to 14) (size 15 to 20)
#    0.000    1.500    2.500    2.625    3.500    3.000 
#    0.000    6.250   11.000    0.000    0.000    0.000 
#    0.000    0.000    0.000    0.000    0.000    0.000 
#
# Total GULP energy -178277.828073 kJ/mol
# GULP energy per Si atom -5571.182127 kJ/mol
# Density = 2.083003 g / cm^3
# Si number density = 20.877547 Si / 1000 Ang^3
#
#
#
# Elastic Constant Matrix: (Units=GPa)
#
#
# Indices 1 2 3 4 5 6 
#
# 1 166.4107 22.8668 58.1495 0.0000 0.0000 0.0000
# 2 22.8668 21.4118 12.4486 0.0000 0.0000 0.0000
# 3 58.1495 12.4486 102.3290 0.0000 0.0000 0.0000
# 4 0.0000 0.0000 0.0000 18.6048 0.0000 0.0000
# 5 0.0000 0.0000 0.0000 0.0000 47.6269 0.0000
# 6 0.0000 0.0000 0.0000 0.0000 0.0000 -5.2226
#
#
#
# Elastic Compliance Matrix: (Units=1/GPa)
#
#
# Indices 1 2 3 4 5 6 
#
# 1 0.008276 -0.006569 -0.003904 0.000000 0.000000 0.000000
# 2 -0.006569 0.055472 -0.003016 0.000000 0.000000 0.000000
# 3 -0.003904 -0.003016 0.012358 0.000000 0.000000 0.000000
# 4 0.000000 0.000000 0.000000 0.053749 0.000000 0.000000
# 5 0.000000 0.000000 0.000000 0.000000 0.020997 0.000000
# 6 0.000000 0.000000 0.000000 0.000000 0.000000 -0.191475
#
#
# Mechanical properties :
#
#
# Convention : Reuss Voigt Hill
#
# Bulk Modulus (GPa) = 20.35453 53.00901 36.68177
# Shear Modulus (GPa) = 1832.32715 25.31426 928.82070
#
# Velocity S-wave (km/s) = 29.65737 3.48589 21.11529
# Velocity P-wave (km/s) = 34.38774 6.45349 24.74030
#
# Compressibility (1/GPa) = 0.04912911
#
# Stress axis : x y z
#
# Youngs Moduli (GPa) = 120.83176 18.02724 80.92172
#
# Poissons Ratio (x) = 0.11842 0.31590
# Poissons Ratio (y) = 0.79371 0.24402
# Poissons Ratio (z) = 0.47170 0.05436
#
# Static dielectric constant tensor:
#      x y z
#    x 1.748470 0.000000 0.000000 
#    y 0.000000 1.738090 0.000000 
#    z 0.000000 0.000000 1.804610 
# 
# From -- ./inp_files/5264.got.cif
#   From: 2010.05.17/outbox.cif.g08.bks.cpg/sg17_3_cif.got.tgz:5264.got - 2010.06.03 22:34:06.
