data_PCOD9311707
_publ_section_title
;
Structure prediction by ZEFSAII (Michael W. Deem and Ramdas Pophale) SiO2 
 PCOD9311707
Probable space group: P 21 21 2
;
_chemical_formula_sum "Si O2"
_cell_formula_units_Z 26
_cell_length_a 7.995562
_cell_length_b 27.893251
_cell_length_c 5.144478
_cell_angle_alpha 90.000000
_cell_angle_beta 90.000000
_cell_angle_gamma 90.000000
_cell_volume 1147.332893
_symmetry_space_group_name_H-M "P 21 21 2"
_symmetry_group_IT_number 18
_symmetry_cell_setting 'orthorhombic'
loop_
_space_group_symop_operation_xyz
x,y,z
-x,-y,z
1/2+x,1/2-y,-z
1/2-x,1/2+y,-z
loop_
_atom_site_type_symbol
_atom_site_label
_atom_site_fract_x
_atom_site_fract_y
_atom_site_fract_z
Si Si1 0.769582 0.119473 0.712991
Si Si2 0.838955 0.965359 0.548723
Si Si3 0.959317 0.296154 0.698268
Si Si4 0.957596 0.942722 0.031090
Si Si5 0.000000 0.500000 0.646141
Si Si6 0.320374 0.777959 0.796280
Si Si7 0.065430 0.396314 0.800678
O O1 0.801576 0.176387 0.735557
O O2 0.719028 0.106979 0.415400
O O3 0.900608 0.086796 0.875969
O O4 0.610400 0.113835 0.901596
O O5 0.810596 0.940001 0.821738
O O6 0.675722 0.996615 0.500555
O O7 0.892770 0.930021 0.316272
O O8 0.000000 0.000000 0.580626
O O9 0.034837 0.280928 0.420818
O O10 0.946121 0.353778 0.706094
O O11 0.789273 0.269288 0.763825
O O12 0.096907 0.283072 0.920191
O O13 0.000000 0.000000 0.068907
O O14 0.995121 0.549724 0.793814
#
# Coordination Sequence:
#
# PCOD9311707 Si02
#       7
#     4   4   4   4   2   4   4
#     4  10  20  39  62  87 119 167 200 249 314 374
#     4  10  22  36  56  81 117 155 198 245 290 356
#     4  10  21  41  62  94 125 162 209 265 314 391
#     4  10  18  34  54  80 112 146 194 239 277 348
#     4  12  24  42  62  90 124 174 198 260 320 366
#     4  10  21  39  66  90 125 166 204 263 329 373
#     4  10  22  37  61  87 124 160 206 246 312 375
#
# _framework density 22.661251
#
# number of rings (size 3 to 8) (size 9 to 14) (size 15 to 20)
#    0.000    1.846    0.000    5.538    0.000    2.462 
#    5.538    0.000    0.000    0.000    0.000    0.000 
#    0.000    0.000    0.000    0.000    0.000    0.000 
#
# Total GULP energy -144903.941437 kJ/mol
# GULP energy per Si atom -5573.228517 kJ/mol
# Density = 2.260967 g / cm^3
# Si number density = 22.661251 Si / 1000 Ang^3
#
#
#
# Elastic Constant Matrix: (Units=GPa)
#
#
# Indices 1 2 3 4 5 6 
#
# 1 53.6035 8.9209 -6.0169 0.0000 0.0000 0.0000
# 2 8.9209 89.5853 -3.4615 0.0000 0.0000 0.0000
# 3 -6.0169 -3.4615 120.6278 0.0000 0.0000 0.0000
# 4 0.0000 0.0000 0.0000 138.7978 0.0000 0.0000
# 5 0.0000 0.0000 0.0000 0.0000 23.8839 0.0000
# 6 0.0000 0.0000 0.0000 0.0000 0.0000 34.6023
#
#
#
# Elastic Compliance Matrix: (Units=1/GPa)
#
#
# Indices 1 2 3 4 5 6 
#
# 1 0.019066 -0.001864 0.000898 0.000000 0.000000 0.000000
# 2 -0.001864 0.011357 0.000233 0.000000 0.000000 0.000000
# 3 0.000898 0.000233 0.008341 0.000000 0.000000 0.000000
# 4 0.000000 0.000000 0.000000 0.007205 0.000000 0.000000
# 5 0.000000 0.000000 0.000000 0.000000 0.041869 0.000000
# 6 0.000000 0.000000 0.000000 0.000000 0.000000 0.028900
#
#
# Mechanical properties :
#
#
# Convention : Reuss Voigt Hill
#
# Bulk Modulus (GPa) = 26.81105 29.18907 28.00006
# Shear Modulus (GPa) = 38.27357 57.08174 47.67765
#
# Velocity S-wave (km/s) = 4.11413 5.02432 4.59184
# Velocity P-wave (km/s) = 5.86729 6.82400 6.36365
#
# Compressibility (1/GPa) = 0.03729806
#
# Stress axis : x y z
#
# Youngs Moduli (GPa) = 52.44814 88.05023 119.88368
#
# Poissons Ratio (x) = 0.16412 -0.10760
# Poissons Ratio (y) = 0.09776 -0.02792
# Poissons Ratio (z) = -0.04707 -0.02051
#
# Static dielectric constant tensor:
#      x y z
#    x 1.786320 0.000000 0.000000 
#    y 0.000000 2.395570 0.000000 
#    z 0.000000 0.000000 1.912760 
# 
# From -- ./inp_files/701.got.cif
#   From: 2010.05.17/outbox.cif.g08.bks.cpg/sg18_1_cif.got.tgz:701.got - 2010.06.03 22:40:56.
