data_PCOD9311345
_publ_section_title
;
Structure prediction by ZEFSAII (Michael W. Deem and Ramdas Pophale) SiO2 
 PCOD9311345
Probable space group: P 2 2 21
;
_chemical_formula_sum "Si O2"
_cell_formula_units_Z 18
_cell_length_a 5.415140
_cell_length_b 27.521477
_cell_length_c 4.910911
_cell_angle_alpha 90.000000
_cell_angle_beta 90.000000
_cell_angle_gamma 90.000000
_cell_volume 731.886085
_symmetry_space_group_name_H-M "P 2 2 21"
_symmetry_group_IT_number 17
_symmetry_cell_setting 'orthorhombic'
loop_
_space_group_symop_operation_xyz
x,y,z
-x,-y,1/2+z
x,-y,-z
-x,y,1/2-z
loop_
_atom_site_type_symbol
_atom_site_label
_atom_site_fract_x
_atom_site_fract_y
_atom_site_fract_z
Si Si1 0.252260 0.161337 0.069103
Si Si2 0.840911 0.500000 0.500000
Si Si3 0.683964 0.000000 0.000000
Si Si4 0.500000 0.417927 0.750000
Si Si5 0.500000 0.644108 0.750000
Si Si6 0.253260 0.736326 0.912373
Si Si7 0.000000 0.918709 0.250000
O O1 0.500000 0.154661 0.250000
O O2 0.245687 0.214241 0.910283
O O3 0.000000 0.161906 0.250000
O O4 0.207935 0.116424 0.872970
O O5 0.689141 0.454496 0.608791
O O6 0.000000 0.518103 0.750000
O O7 0.500000 0.006367 0.250000
O O8 0.861880 0.045973 0.958662
O O9 0.387451 0.387456 0.495709
O O10 0.317757 0.678946 0.934906
O O11 0.500000 0.749044 0.750000
O O12 0.000000 0.735850 0.750000
#
# Coordination Sequence:
#
# PCOD9311345 Si02
#       7
#     4   2   2   2   2   4   2
#     4  10  24  46  76 114 155 199 265 322 388 474
#     4  12  26  46  76 114 154 210 270 344 394 476
#     4  12  32  54  80 114 164 204 268 334 408 490
#     4  12  25  48  72 114 156 204 271 322 406 470
#     4  10  23  42  74 106 160 212 249 330 398 474
#     4   8  18  43  66 106 154 198 254 313 384 464
#     4  12  30  48  80 118 150 216 258 332 406 476
#
# _framework density 24.593993000000001
#
# number of rings (size 3 to 8) (size 9 to 14) (size 15 to 20)
#    0.667    0.889    0.000    3.333    7.778    2.667 
#    8.000    0.000    0.000    0.000    0.000    0.000 
#    0.000    0.000    0.000    0.000    0.000    0.000 
#
# Total GULP energy -100256.164345 kJ/mol
# GULP energy per Si atom -5569.786908 kJ/mol
# Density = 2.453802 g / cm^3
# Si number density = 24.593993 Si / 1000 Ang^3
#
#
#
# Elastic Constant Matrix: (Units=GPa)
#
#
# Indices 1 2 3 4 5 6 
#
# 1 152.0692 41.7159 51.2208 0.0000 0.0000 0.0000
# 2 41.7159 183.5574 69.1487 0.0000 0.0000 0.0000
# 3 51.2208 69.1487 126.0753 0.0000 0.0000 0.0000
# 4 0.0000 0.0000 0.0000 1140.1119 0.0000 0.0000
# 5 0.0000 0.0000 0.0000 0.0000 55.3189 0.0000
# 6 0.0000 0.0000 0.0000 0.0000 0.0000 64.6916
#
#
#
# Elastic Compliance Matrix: (Units=1/GPa)
#
#
# Indices 1 2 3 4 5 6 
#
# 1 0.007693 -0.000720 -0.002731 0.000000 0.000000 0.000000
# 2 -0.000720 0.006934 -0.003511 0.000000 0.000000 0.000000
# 3 -0.002731 -0.003511 0.010967 0.000000 0.000000 0.000000
# 4 0.000000 0.000000 0.000000 0.000877 0.000000 0.000000
# 5 0.000000 0.000000 0.000000 0.000000 0.018077 0.000000
# 6 0.000000 0.000000 0.000000 0.000000 0.000000 0.015458
#
#
# Mechanical properties :
#
#
# Convention : Reuss Voigt Hill
#
# Bulk Modulus (GPa) = 85.67841 87.31919 86.49880
# Shear Modulus (GPa) = 64.25178 271.99890 168.12534
#
# Velocity S-wave (km/s) = 5.11681 10.52786 8.27700
# Velocity P-wave (km/s) = 8.35594 13.54114 11.25131
#
# Compressibility (1/GPa) = 0.01167155
#
# Stress axis : x y z
#
# Youngs Moduli (GPa) = 129.98532 144.21739 91.18473
#
# Poissons Ratio (x) = 0.10379 0.24901
# Poissons Ratio (y) = 0.09354 0.32012
# Poissons Ratio (z) = 0.35497 0.50631
#
# Static dielectric constant tensor:
#      x y z
#    x 1.885400 0.000000 0.000000 
#    y 0.000000 2.103170 0.000000 
#    z 0.000000 0.000000 1.952550 
# 
# From -- ./inp_files/397.got.cif
#   From: 2010.05.17/outbox.cif.g08.bks.cpg/sg17_1_cif.got.tgz:397.got - 2010.06.03 22:34:06.
