data_PCOD9311069
_publ_section_title
;
Structure prediction by ZEFSAII (Michael W. Deem and Ramdas Pophale) SiO2 
 PCOD9311069
Probable space group: P 2 2 21
;
_chemical_formula_sum "Si O2"
_cell_formula_units_Z 22
_cell_length_a 14.487039
_cell_length_b 7.030522
_cell_length_c 11.358949
_cell_angle_alpha 90.000000
_cell_angle_beta 90.000000
_cell_angle_gamma 90.000000
_cell_volume 1156.925385
_symmetry_space_group_name_H-M "P 2 2 21"
_symmetry_group_IT_number 17
_symmetry_cell_setting 'orthorhombic'
loop_
_space_group_symop_operation_xyz
x,y,z
-x,-y,1/2+z
x,-y,-z
-x,y,1/2-z
loop_
_atom_site_type_symbol
_atom_site_label
_atom_site_fract_x
_atom_site_fract_y
_atom_site_fract_z
Si Si1 0.645341 0.066077 0.746115
Si Si2 0.500000 0.402786 0.750000
Si Si3 0.174767 0.749627 0.148314
Si Si4 0.941780 0.000000 0.500000
Si Si5 0.279835 0.500000 0.000000
Si Si6 0.558611 0.260445 0.416469
Si Si7 0.593092 0.000000 0.000000
Si Si8 0.000000 0.104229 0.750000
O O1 0.587357 0.262115 0.751530
O O2 0.744212 0.110191 0.690335
O O3 0.588731 0.906860 0.673552
O O4 0.349404 0.997311 0.619110
O O5 0.481417 0.552153 0.854836
O O6 0.126197 0.824235 0.028131
O O7 0.219754 0.549959 0.114248
O O8 0.091903 0.766773 0.241571
O O9 0.995890 0.010444 0.374792
O O10 0.347446 0.322151 0.020460
O O11 0.478403 0.175957 0.497127
#
# Coordination Sequence:
#
# PCOD9311069 Si02
#       8
#     4   2   4   2   2   4   2   2
#     4  12  23  40  60  94 133 174 232 265 326 410
#     4  12  20  42  58  88 138 176 220 280 320 386
#     4  10  21  39  65  94 124 168 219 267 336 409
#     4   8  18  42  68  92 122 160 210 268 348 402
#     4  12  22  36  70  90 120 176 222 274 322 400
#     4  12  23  40  59  91 132 179 223 271 326 377
#     4  12  22  38  58  90 136 182 214 282 326 388
#     4   8  20  40  68  96 124 162 208 288 338 404
#
# _framework density 19.015920999999999
#
# number of rings (size 3 to 8) (size 9 to 14) (size 15 to 20)
#    1.091    0.000    5.455    3.273    0.000    0.727 
#    0.000    0.909    0.000    2.182    0.000    0.000 
#    0.000    0.000    0.000    0.000    0.000    0.000 
#
# Total GULP energy -122505.215875 kJ/mol
# GULP energy per Si atom -5568.418903 kJ/mol
# Density = 1.897264 g / cm^3
# Si number density = 19.015921 Si / 1000 Ang^3
#
#
#
# Elastic Constant Matrix: (Units=GPa)
#
#
# Indices 1 2 3 4 5 6 
#
# 1 98.7508 28.0533 43.5723 0.0000 0.0000 0.0000
# 2 28.0533 76.4614 25.6209 0.0000 0.0000 0.0000
# 3 43.5723 25.6209 125.5830 0.0000 0.0000 0.0000
# 4 0.0000 0.0000 0.0000 31.0468 0.0000 0.0000
# 5 0.0000 0.0000 0.0000 0.0000 36.4796 0.0000
# 6 0.0000 0.0000 0.0000 0.0000 0.0000 12.7149
#
#
#
# Elastic Compliance Matrix: (Units=1/GPa)
#
#
# Indices 1 2 3 4 5 6 
#
# 1 0.012743 -0.003428 -0.003722 0.000000 0.000000 0.000000
# 2 -0.003428 0.014960 -0.001863 0.000000 0.000000 0.000000
# 3 -0.003722 -0.001863 0.009634 0.000000 0.000000 0.000000
# 4 0.000000 0.000000 0.000000 0.032209 0.000000 0.000000
# 5 0.000000 0.000000 0.000000 0.000000 0.027413 0.000000
# 6 0.000000 0.000000 0.000000 0.000000 0.000000 0.078648
#
#
# Mechanical properties :
#
#
# Convention : Reuss Voigt Hill
#
# Bulk Modulus (GPa) = 51.78142 55.03204 53.40673
# Shear Modulus (GPa) = 24.99134 29.61819 27.30477
#
# Velocity S-wave (km/s) = 3.62917 3.95086 3.79342
# Velocity P-wave (km/s) = 6.69708 7.05799 6.87990
#
# Compressibility (1/GPa) = 0.01931195
#
# Stress axis : x y z
#
# Youngs Moduli (GPa) = 78.47733 66.84306 103.79691
#
# Poissons Ratio (x) = 0.22914 0.38631
# Poissons Ratio (y) = 0.26903 0.19335
# Poissons Ratio (z) = 0.29207 0.12451
#
# Static dielectric constant tensor:
#      x y z
#    x 1.666690 0.000000 0.000000 
#    y 0.000000 1.680320 0.000000 
#    z 0.000000 0.000000 1.742930 
# 
# From -- ./inp_files/8460.got.cif
#   From: 2010.05.17/outbox.cif.g08.bks.cpg/sg17_5_cif.got.tgz:8460.got - 2010.06.03 22:34:06.
