data_PCOD9311871
_publ_section_title
;
Structure prediction by ZEFSAII (Michael W. Deem and Ramdas Pophale) SiO2 
 PCOD9311871
Probable space group: P 21 21 2
;
_chemical_formula_sum "Si O2"
_cell_formula_units_Z 32
_cell_length_a 8.795323
_cell_length_b 28.643462
_cell_length_c 6.047691
_cell_angle_alpha 90.000000
_cell_angle_beta 90.000000
_cell_angle_gamma 90.000000
_cell_volume 1523.585723
_symmetry_space_group_name_H-M "P 21 21 2"
_symmetry_group_IT_number 18
_symmetry_cell_setting 'orthorhombic'
loop_
_space_group_symop_operation_xyz
x,y,z
-x,-y,z
1/2+x,1/2-y,-z
1/2-x,1/2+y,-z
loop_
_atom_site_type_symbol
_atom_site_label
_atom_site_fract_x
_atom_site_fract_y
_atom_site_fract_z
Si Si1 0.880424 0.969478 0.975887
Si Si2 0.404040 0.265299 0.461480
Si Si3 0.175202 0.840731 0.898380
Si Si4 0.322592 0.009020 0.603012
Si Si5 0.838655 0.733179 0.822347
Si Si6 0.179309 0.096671 0.357670
Si Si7 0.112399 0.926752 0.620624
Si Si8 0.886905 0.813158 0.175761
O O1 0.822769 0.928385 0.123596
O O2 0.735401 0.991947 0.857548
O O3 0.000000 0.000000 0.117654
O O4 0.994103 0.952337 0.784081
O O5 0.333890 0.304608 0.304011
O O6 0.276542 0.249280 0.632493
O O7 0.497194 0.232221 0.295039
O O8 0.523612 0.288531 0.627364
O O9 0.200807 0.890155 0.778383
O O10 0.288503 0.816555 0.074689
O O11 0.011232 0.840182 0.021502
O O12 0.275434 0.060118 0.507293
O O13 0.500000 0.000000 0.576937
O O14 0.222337 0.965364 0.510440
O O15 0.829867 0.772070 0.015264
O O16 0.222287 0.149645 0.296909
O O17 0.005852 0.098089 0.453870
#
# Coordination Sequence:
#
# PCOD9311871 Si02
#       8
#     4   4   4   4   4   4   4   4
#     4   9  18  34  59  91 109 150 211 257 295 363
#     4  10  20  39  62  86 127 163 209 260 319 372
#     4  10  19  36  63  93 122 158 216 262 312 364
#     4  10  23  38  59  85 132 164 190 248 337 388
#     4  10  22  36  64  92 122 173 205 259 327 380
#     4  11  19  36  67  93 111 157 218 264 302 363
#     4  10  19  36  64  92 116 155 215 265 294 365
#     4  10  20  35  64  93 121 156 217 269 312 363
#
# _framework density 21.003086
#
# number of rings (size 3 to 8) (size 9 to 14) (size 15 to 20)
#    0.000    2.000    2.500    2.625    0.000    0.500 
#    0.000    0.000   35.750    0.000    0.000    0.000 
#    0.000    0.000    0.000    0.000    0.000    0.000 
#
# Total GULP energy -178157.743547 kJ/mol
# GULP energy per Si atom -5567.429486 kJ/mol
# Density = 2.095528 g / cm^3
# Si number density = 21.003086 Si / 1000 Ang^3
#
#
#
# Elastic Constant Matrix: (Units=GPa)
#
#
# Indices 1 2 3 4 5 6 
#
# 1 69.0742 23.4293 25.5920 0.0000 0.0000 0.0000
# 2 23.4293 62.0536 18.8901 0.0000 0.0000 0.0000
# 3 25.5920 18.8901 68.9948 0.0000 0.0000 0.0000
# 4 0.0000 0.0000 0.0000 31.5404 0.0000 0.0000
# 5 0.0000 0.0000 0.0000 0.0000 29.7905 0.0000
# 6 0.0000 0.0000 0.0000 0.0000 0.0000 22.1584
#
#
#
# Elastic Compliance Matrix: (Units=1/GPa)
#
#
# Indices 1 2 3 4 5 6 
#
# 1 0.018235 -0.005265 -0.005322 0.000000 0.000000 0.000000
# 2 -0.005265 0.019100 -0.003277 0.000000 0.000000 0.000000
# 3 -0.005322 -0.003277 0.017365 0.000000 0.000000 0.000000
# 4 0.000000 0.000000 0.000000 0.031705 0.000000 0.000000
# 5 0.000000 0.000000 0.000000 0.000000 0.033568 0.000000
# 6 0.000000 0.000000 0.000000 0.000000 0.000000 0.045130
#
#
# Mechanical properties :
#
#
# Convention : Reuss Voigt Hill
#
# Bulk Modulus (GPa) = 37.07420 37.32727 37.20074
# Shear Modulus (GPa) = 24.77439 25.51196 25.14317
#
# Velocity S-wave (km/s) = 3.43820 3.48900 3.46369
# Velocity P-wave (km/s) = 5.78375 5.83453 5.80919
#
# Compressibility (1/GPa) = 0.02697294
#
# Stress axis : x y z
#
# Youngs Moduli (GPa) = 54.84008 52.35511 57.58643
#
# Poissons Ratio (x) = 0.27563 0.30650
# Poissons Ratio (y) = 0.28871 0.18869
# Poissons Ratio (z) = 0.29188 0.17155
#
# Static dielectric constant tensor:
#      x y z
#    x 1.812540 0.000000 0.000000 
#    y 0.000000 1.867560 0.000000 
#    z 0.000000 0.000000 1.771150 
# 
# From -- ./inp_files/787.got.cif
#   From: 2010.05.17/outbox.cif.g08.bks.cpg/sg18_1_cif.got.tgz:787.got - 2010.06.03 22:40:56.
