data_PCOD9311679
_publ_section_title
;
Structure prediction by ZEFSAII (Michael W. Deem and Ramdas Pophale) SiO2 
 PCOD9311679
Probable space group: P 21 21 2
;
_chemical_formula_sum "Si O2"
_cell_formula_units_Z 22
_cell_length_a 14.604388
_cell_length_b 5.176910
_cell_length_c 14.985695
_cell_angle_alpha 90.000000
_cell_angle_beta 90.000000
_cell_angle_gamma 90.000000
_cell_volume 1133.002496
_symmetry_space_group_name_H-M "P 21 21 2"
_symmetry_group_IT_number 18
_symmetry_cell_setting 'orthorhombic'
loop_
_space_group_symop_operation_xyz
x,y,z
-x,-y,z
1/2+x,1/2-y,-z
1/2-x,1/2+y,-z
loop_
_atom_site_type_symbol
_atom_site_label
_atom_site_fract_x
_atom_site_fract_y
_atom_site_fract_z
Si Si1 0.303907 0.992147 0.022843
Si Si2 0.500000 0.000000 0.345705
Si Si3 0.251099 0.210860 0.385478
Si Si4 0.358409 0.709219 0.450831
Si Si5 0.000000 0.000000 0.860322
Si Si6 0.344615 0.224267 0.216866
Si Si7 0.500000 0.000000 0.015745
O O1 0.321358 0.080967 0.125028
O O2 0.400947 0.010126 0.970839
O O3 0.235255 0.204915 0.983271
O O4 0.456390 0.783392 0.410289
O O5 0.580982 0.918933 0.279138
O O6 0.321953 0.429090 0.421735
O O7 0.158436 0.237820 0.442831
O O8 0.256088 0.252700 0.279415
O O9 0.290279 0.927583 0.409575
O O10 0.094939 0.977667 0.806341
O O11 0.994942 0.750854 0.921903
#
# Coordination Sequence:
#
# PCOD9311679 Si02
#       7
#     4   2   4   4   2   4   2
#     4  11  23  37  56  84 116 150 192 240 291 338
#     4  10  19  32  56  83 108 132 174 227 278 320
#     4   9  18  31  48  71 107 139 166 200 257 323
#     4   9  18  31  47  76 106 134 163 206 260 315
#     4  10  18  30  52  80 108 136 180 232 280 316
#     4  10  19  32  53  81 110 143 182 228 276 331
#     4  10  21  38  56  79 112 144 184 243 290 332
#
# _framework density 19.417432999999999
#
# number of rings (size 3 to 8) (size 9 to 14) (size 15 to 20)
#    0.000    2.182    0.000    5.455    0.000    8.000 
#    0.000    0.000    0.000    1.091    0.000   20.364 
#    0.000    0.000    0.000    0.000    0.000    0.000 
#
# Total GULP energy -122535.207833 kJ/mol
# GULP energy per Si atom -5569.782174 kJ/mol
# Density = 1.937324 g / cm^3
# Si number density = 19.417433 Si / 1000 Ang^3
#
#
#
# Elastic Constant Matrix: (Units=GPa)
#
#
# Indices 1 2 3 4 5 6 
#
# 1 59.0275 -3.0241 16.7506 0.0000 0.0000 0.0000
# 2 -3.0241 71.6162 -7.1830 0.0000 0.0000 0.0000
# 3 16.7506 -7.1830 59.0007 0.0000 0.0000 0.0000
# 4 0.0000 0.0000 0.0000 20.2459 0.0000 0.0000
# 5 0.0000 0.0000 0.0000 0.0000 29.2577 0.0000
# 6 0.0000 0.0000 0.0000 0.0000 0.0000 28.1950
#
#
#
# Elastic Compliance Matrix: (Units=1/GPa)
#
#
# Indices 1 2 3 4 5 6 
#
# 1 0.018430 0.000257 -0.005201 0.000000 0.000000 0.000000
# 2 0.000257 0.014140 0.001649 0.000000 0.000000 0.000000
# 3 -0.005201 0.001649 0.018626 0.000000 0.000000 0.000000
# 4 0.000000 0.000000 0.000000 0.049393 0.000000 0.000000
# 5 0.000000 0.000000 0.000000 0.000000 0.034179 0.000000
# 6 0.000000 0.000000 0.000000 0.000000 0.000000 0.035467
#
#
# Mechanical properties :
#
#
# Convention : Reuss Voigt Hill
#
# Bulk Modulus (GPa) = 22.41953 22.52572 22.47262
# Shear Modulus (GPa) = 26.08305 27.74645 26.91475
#
# Velocity S-wave (km/s) = 3.66905 3.78424 3.72709
# Velocity P-wave (km/s) = 5.43327 5.54256 5.48819
#
# Compressibility (1/GPa) = 0.04460397
#
# Stress axis : x y z
#
# Youngs Moduli (GPa) = 54.25815 70.72384 53.68747
#
# Poissons Ratio (x) = -0.01815 0.27924
# Poissons Ratio (y) = -0.01392 -0.08851
# Poissons Ratio (z) = 0.28221 -0.11659
#
# Static dielectric constant tensor:
#      x y z
#    x 1.775010 0.000000 0.000000 
#    y 0.000000 1.693950 0.000000 
#    z 0.000000 0.000000 1.731740 
# 
# From -- ./inp_files/6473.got.cif
#   From: 2010.05.17/outbox.cif.g08.bks.cpg/sg18_4_cif.got.tgz:6473.got - 2010.06.03 22:40:56.
