data_PCOD9311624
_publ_section_title
;
Structure prediction by ZEFSAII (Michael W. Deem and Ramdas Pophale) SiO2 
 PCOD9311624
Probable space group: P 21 21 2
;
_chemical_formula_sum "Si O2"
_cell_formula_units_Z 32
_cell_length_a 8.906799
_cell_length_b 18.334160
_cell_length_c 10.132592
_cell_angle_alpha 90.000000
_cell_angle_beta 90.000000
_cell_angle_gamma 90.000000
_cell_volume 1654.638878
_symmetry_space_group_name_H-M "P 21 21 2"
_symmetry_group_IT_number 18
_symmetry_cell_setting 'orthorhombic'
loop_
_space_group_symop_operation_xyz
x,y,z
-x,-y,z
1/2+x,1/2-y,-z
1/2-x,1/2+y,-z
loop_
_atom_site_type_symbol
_atom_site_label
_atom_site_fract_x
_atom_site_fract_y
_atom_site_fract_z
Si Si1 0.523455 0.420603 0.133173
Si Si2 0.324717 0.601272 0.407501
Si Si3 0.607100 0.319107 0.913329
Si Si4 0.014295 0.661740 0.386040
Si Si5 0.541203 0.421343 0.686048
Si Si6 0.834375 0.199084 0.244373
Si Si7 0.959792 0.741962 0.648919
Si Si8 0.235633 0.815190 0.792646
O O1 0.500000 0.500000 0.071800
O O2 0.598427 0.430106 0.276570
O O3 0.365062 0.379964 0.150613
O O4 0.624108 0.365319 0.045834
O O5 0.145728 0.602216 0.388594
O O6 0.379161 0.568750 0.545627
O O7 0.383892 0.685277 0.411941
O O8 0.638875 0.372392 0.787653
O O9 0.428258 0.305013 0.890803
O O10 0.690349 0.243034 0.892846
O O11 0.090753 0.733834 0.322448
O O12 0.974060 0.682909 0.534863
O O13 0.865931 0.651337 0.299422
O O14 0.500000 0.500000 0.741517
O O15 0.388250 0.373339 0.677754
O O16 0.657897 0.212380 0.242647
O O17 0.118312 0.767096 0.706426
#
# Coordination Sequence:
#
# PCOD9311624 Si02
#       8
#     4   4   4   4   4   4   4   4
#     4  11  24  40  60  84 118 160 194 235 301 363
#     4  10  20  33  54  86 118 149 192 234 284 353
#     4   9  20  39  57  86 108 149 195 249 290 344
#     4  10  17  32  55  83 118 148 188 242 291 333
#     4  10  18  34  59  84 116 147 196 241 291 354
#     4   8  18  30  53  84 108 139 192 233 291 331
#     4  10  16  30  56  86 115 146 187 248 290 342
#     4  10  21  34  60  87 113 149 202 244 288 347
#
# _framework density 19.339568
#
# number of rings (size 3 to 8) (size 9 to 14) (size 15 to 20)
#    0.750    1.500    1.250    3.000    1.750    4.000 
#    0.000    0.625    0.000    2.250    0.000    0.000 
#    0.000    0.000    0.000    0.000    0.000    0.000 
#
# Total GULP energy -178236.698787 kJ/mol
# GULP energy per Si atom -5569.896837 kJ/mol
# Density = 1.929555 g / cm^3
# Si number density = 19.339568 Si / 1000 Ang^3
#
#
#
# Elastic Constant Matrix: (Units=GPa)
#
#
# Indices 1 2 3 4 5 6 
#
# 1 88.0430 8.7234 32.4940 0.0000 0.0000 0.0000
# 2 8.7234 46.0178 19.7061 0.0000 0.0000 0.0000
# 3 32.4940 19.7061 70.5346 0.0000 0.0000 0.0000
# 4 0.0000 0.0000 0.0000 7.2331 0.0000 0.0000
# 5 0.0000 0.0000 0.0000 0.0000 5.6860 0.0000
# 6 0.0000 0.0000 0.0000 0.0000 0.0000 7.6211
#
#
#
# Elastic Compliance Matrix: (Units=1/GPa)
#
#
# Indices 1 2 3 4 5 6 
#
# 1 0.013685 0.000120 -0.006338 0.000000 0.000000 0.000000
# 2 0.000120 0.024685 -0.006952 0.000000 0.000000 0.000000
# 3 -0.006338 -0.006952 0.019039 0.000000 0.000000 0.000000
# 4 0.000000 0.000000 0.000000 0.138254 0.000000 0.000000
# 5 0.000000 0.000000 0.000000 0.000000 0.175870 0.000000
# 6 0.000000 0.000000 0.000000 0.000000 0.000000 0.131215
#
#
# Mechanical properties :
#
#
# Convention : Reuss Voigt Hill
#
# Bulk Modulus (GPa) = 32.18553 36.27138 34.22846
# Shear Modulus (GPa) = 9.26878 13.68616 11.47747
#
# Velocity S-wave (km/s) = 2.19159 2.66311 2.43877
# Velocity P-wave (km/s) = 4.80443 5.31525 5.06628
#
# Compressibility (1/GPa) = 0.03106986
#
# Stress axis : x y z
#
# Youngs Moduli (GPa) = 73.07051 40.51050 52.52245
#
# Poissons Ratio (x) = -0.00486 0.33289
# Poissons Ratio (y) = -0.00876 0.36512
# Poissons Ratio (z) = 0.46313 0.28162
#
# Static dielectric constant tensor:
#      x y z
#    x 1.703060 0.000000 0.000000 
#    y 0.000000 1.678350 0.000000 
#    z 0.000000 0.000000 1.720430 
# 
# From -- ./inp_files/5737.got.cif
#   From: 2010.05.17/outbox.cif.g08.bks.cpg/sg18_3_cif.got.tgz:5737.got - 2010.06.03 22:40:56.
