data_PCOD9311324
_publ_section_title
;
Structure prediction by ZEFSAII (Michael W. Deem and Ramdas Pophale) SiO2 
 PCOD9311324
Probable space group: P 2 2 21
;
_chemical_formula_sum "Si O2"
_cell_formula_units_Z 32
_cell_length_a 11.827211
_cell_length_b 8.888243
_cell_length_c 15.480555
_cell_angle_alpha 90.000000
_cell_angle_beta 90.000000
_cell_angle_gamma 90.000000
_cell_volume 1627.364324
_symmetry_space_group_name_H-M "P 2 2 21"
_symmetry_group_IT_number 17
_symmetry_cell_setting 'orthorhombic'
loop_
_space_group_symop_operation_xyz
x,y,z
-x,-y,1/2+z
x,-y,-z
-x,y,1/2-z
loop_
_atom_site_type_symbol
_atom_site_label
_atom_site_fract_x
_atom_site_fract_y
_atom_site_fract_z
Si Si1 0.751109 0.395497 0.917383
Si Si2 0.620545 0.728823 0.446243
Si Si3 0.315850 0.641091 0.697979
Si Si4 0.091996 0.117033 0.578560
Si Si5 0.756458 0.972360 0.774978
Si Si6 0.825527 0.088228 0.589502
Si Si7 0.437986 0.396537 0.121016
Si Si8 0.560945 0.814502 0.165945
O O1 0.765174 0.510424 0.837661
O O2 0.851895 0.279880 0.937673
O O3 0.646933 0.292133 0.885831
O O4 0.727731 0.500000 0.000000
O O5 0.746112 0.765573 0.415917
O O6 0.606175 0.717258 0.548260
O O7 0.579162 0.566685 0.412025
O O8 0.538200 0.850136 0.401346
O O9 0.254826 0.800332 0.697482
O O10 0.430554 0.636521 0.640346
O O11 0.364026 0.616882 0.793341
O O12 0.957949 0.125118 0.591607
O O13 0.115026 0.000000 0.500000
O O14 0.152164 0.053527 0.664217
O O15 0.789792 0.997709 0.675429
O O16 0.635738 0.050560 0.796282
O O17 0.803422 0.000000 0.500000
O O18 0.500000 0.741666 0.250000
#
# Coordination Sequence:
#
# PCOD9311324 Si02
#       8
#     4   4   4   4   4   4   4   4
#     4  11  22  40  67  94 129 171 221 273 330 395
#     4  11  21  39  61  93 131 174 210 259 329 401
#     4  11  22  38  63  93 132 173 206 265 327 391
#     4  10  24  46  69  95 123 171 227 286 331 385
#     4  11  24  40  67  95 132 168 221 275 327 390
#     4  11  24  43  69  90 130 174 223 277 334 387
#     4  10  23  36  58  94 139 164 206 260 328 397
#     4  11  21  36  62  95 129 171 212 262 320 398
#
# _framework density 19.663698
#
# number of rings (size 3 to 8) (size 9 to 14) (size 15 to 20)
#    0.000    1.250    2.500    3.375    3.500    2.000 
#    2.250    0.625    5.500    0.000    0.000    0.000 
#    0.000    0.000    0.000    0.000    0.000    0.000 
#
# Total GULP energy -178722.647756 kJ/mol
# GULP energy per Si atom -5585.082742 kJ/mol
# Density = 1.961894 g / cm^3
# Si number density = 19.663698 Si / 1000 Ang^3
#
#
#
# Elastic Constant Matrix: (Units=GPa)
#
#
# Indices 1 2 3 4 5 6 
#
# 1 94.3194 40.9928 46.6722 0.0000 0.0000 0.0000
# 2 40.9928 77.1749 36.5102 0.0000 0.0000 0.0000
# 3 46.6722 36.5102 111.4428 0.0000 0.0000 0.0000
# 4 0.0000 0.0000 0.0000 20.3895 0.0000 0.0000
# 5 0.0000 0.0000 0.0000 0.0000 18.6756 0.0000
# 6 0.0000 0.0000 0.0000 0.0000 0.0000 6.5761
#
#
#
# Elastic Compliance Matrix: (Units=1/GPa)
#
#
# Indices 1 2 3 4 5 6 
#
# 1 0.015470 -0.006097 -0.004481 0.000000 0.000000 0.000000
# 2 -0.006097 0.017737 -0.003258 0.000000 0.000000 0.000000
# 3 -0.004481 -0.003258 0.011917 0.000000 0.000000 0.000000
# 4 0.000000 0.000000 0.000000 0.049045 0.000000 0.000000
# 5 0.000000 0.000000 0.000000 0.000000 0.053546 0.000000
# 6 0.000000 0.000000 0.000000 0.000000 0.000000 0.152066
#
#
# Mechanical properties :
#
#
# Convention : Reuss Voigt Hill
#
# Bulk Modulus (GPa) = 57.29836 59.03193 58.16515
# Shear Modulus (GPa) = 15.00287 19.71237 17.35762
#
# Velocity S-wave (km/s) = 2.76519 3.16962 2.97429
# Velocity P-wave (km/s) = 6.27674 6.59403 6.43734
#
# Compressibility (1/GPa) = 0.01745251
#
# Stress axis : x y z
#
# Youngs Moduli (GPa) = 64.64323 56.37883 83.91270
#
# Poissons Ratio (x) = 0.34374 0.37603
# Poissons Ratio (y) = 0.39413 0.27335
# Poissons Ratio (z) = 0.28968 0.18366
#
# Static dielectric constant tensor:
#      x y z
#    x 1.683420 0.000000 0.000000 
#    y 0.000000 1.715140 0.000000 
#    z 0.000000 0.000000 1.715240 
# 
# From -- ./inp_files/8567.got.cif
#   From: 2010.05.17/outbox.cif.g08.bks.cpg/sg17_5_cif.got.tgz:8567.got - 2010.06.03 22:34:06.
