data_PCOD9311931
_publ_section_title
;
Structure prediction by ZEFSAII (Michael W. Deem and Ramdas Pophale) SiO2 
 PCOD9311931
Probable space group: P 21 21 2
;
_chemical_formula_sum "Si O2"
_cell_formula_units_Z 20
_cell_length_a 11.882984
_cell_length_b 8.970458
_cell_length_c 7.469068
_cell_angle_alpha 90.000000
_cell_angle_beta 90.000000
_cell_angle_gamma 90.000000
_cell_volume 796.171345
_symmetry_space_group_name_H-M "P 21 21 2"
_symmetry_group_IT_number 18
_symmetry_cell_setting 'orthorhombic'
loop_
_space_group_symop_operation_xyz
x,y,z
-x,-y,z
1/2+x,1/2-y,-z
1/2-x,1/2+y,-z
loop_
_atom_site_type_symbol
_atom_site_label
_atom_site_fract_x
_atom_site_fract_y
_atom_site_fract_z
Si Si1 0.646787 0.398423 0.274527
Si Si2 0.500000 0.500000 0.556227
Si Si3 0.663641 0.739484 0.200300
Si Si4 0.629061 0.722700 0.775921
Si Si5 0.399294 0.768269 0.914921
Si Si6 0.000000 0.500000 0.844006
O O1 0.557284 0.374366 0.430868
O O2 0.658128 0.576485 0.284512
O O3 0.765159 0.313796 0.298769
O O4 0.597609 0.351511 0.079424
O O5 0.598171 0.571074 0.676870
O O6 0.794693 0.778374 0.205057
O O7 0.651389 0.708382 0.987108
O O8 0.494501 0.205606 0.787118
O O9 0.574242 0.869241 0.248625
O O10 0.404145 0.919804 0.033620
#
# Coordination Sequence:
#
# PCOD9311931 Si02
#       6
#     4   2   4   4   4   2
#     4  11  24  42  67  98 136 182 228 283 344 412
#     4  12  24  42  62  94 144 188 222 274 344 424
#     4  10  20  40  68  97 129 169 229 293 341 399
#     4  10  23  40  65  98 133 180 231 282 345 409
#     4  10  19  39  67  97 127 171 233 292 340 396
#     4  10  20  32  60 100 126 156 216 288 348 390
#
# _framework density 25.120218999999999
#
# number of rings (size 3 to 8) (size 9 to 14) (size 15 to 20)
#    0.000    1.600    0.000    7.200    0.000    3.200 
#    0.000    6.000    0.000    7.200    0.000    0.000 
#    0.000    0.000    0.000    0.000    0.000    0.000 
#
# Total GULP energy -111507.980913 kJ/mol
# GULP energy per Si atom -5575.399046 kJ/mol
# Density = 2.506304 g / cm^3
# Si number density = 25.120219 Si / 1000 Ang^3
#
#
#
# Elastic Constant Matrix: (Units=GPa)
#
#
# Indices 1 2 3 4 5 6 
#
# 1 206.4231 73.9031 27.9382 0.0000 0.0000 0.0000
# 2 73.9031 149.2050 22.1958 0.0000 0.0000 0.0000
# 3 27.9382 22.1958 45.2750 0.0000 0.0000 0.0000
# 4 0.0000 0.0000 0.0000 26.8209 0.0000 0.0000
# 5 0.0000 0.0000 0.0000 0.0000 22.5797 0.0000
# 6 0.0000 0.0000 0.0000 0.0000 0.0000 51.6344
#
#
#
# Elastic Compliance Matrix: (Units=1/GPa)
#
#
# Indices 1 2 3 4 5 6 
#
# 1 0.006136 -0.002671 -0.002477 0.000000 0.000000 0.000000
# 2 -0.002671 0.008392 -0.002466 0.000000 0.000000 0.000000
# 3 -0.002477 -0.002466 0.024825 0.000000 0.000000 0.000000
# 4 0.000000 0.000000 0.000000 0.037284 0.000000 0.000000
# 5 0.000000 0.000000 0.000000 0.000000 0.044288 0.000000
# 6 0.000000 0.000000 0.000000 0.000000 0.000000 0.019367
#
#
# Mechanical properties :
#
#
# Convention : Reuss Voigt Hill
#
# Bulk Modulus (GPa) = 41.45084 72.10857 56.77970
# Shear Modulus (GPa) = 30.56976 38.66474 34.61725
#
# Velocity S-wave (km/s) = 3.49225 3.92750 3.71625
# Velocity P-wave (km/s) = 5.72694 7.02387 6.40830
#
# Compressibility (1/GPa) = 0.02412497
#
# Stress axis : x y z
#
# Youngs Moduli (GPa) = 162.97764 119.16319 40.28245
#
# Poissons Ratio (x) = 0.31825 0.09978
# Poissons Ratio (y) = 0.43526 0.09934
# Poissons Ratio (z) = 0.40369 0.29386
#
# Static dielectric constant tensor:
#      x y z
#    x 2.228830 0.000000 0.000000 
#    y 0.000000 2.107050 0.000000 
#    z 0.000000 0.000000 2.057170 
# 
# From -- ./inp_files/4105.got.cif
#   From: 2010.05.17/outbox.cif.g08.bks.cpg/sg18_3_cif.got.tgz:4105.got - 2010.06.03 22:40:56.
