data_PCOD9311093
_publ_section_title
;
Structure prediction by ZEFSAII (Michael W. Deem and Ramdas Pophale) SiO2 
 PCOD9311093
Probable space group: P 2 2 21
;
_chemical_formula_sum "Si O2"
_cell_formula_units_Z 24
_cell_length_a 12.095435
_cell_length_b 5.307857
_cell_length_c 18.971568
_cell_angle_alpha 90.000000
_cell_angle_beta 90.000000
_cell_angle_gamma 90.000000
_cell_volume 1217.990589
_symmetry_space_group_name_H-M "P 2 2 21"
_symmetry_group_IT_number 17
_symmetry_cell_setting 'orthorhombic'
loop_
_space_group_symop_operation_xyz
x,y,z
-x,-y,1/2+z
x,-y,-z
-x,y,1/2-z
loop_
_atom_site_type_symbol
_atom_site_label
_atom_site_fract_x
_atom_site_fract_y
_atom_site_fract_z
Si Si1 0.793214 0.659986 0.299629
Si Si2 0.879319 0.091962 0.574679
Si Si3 0.990357 0.695500 0.676640
Si Si4 0.286438 0.895119 0.336550
Si Si5 0.382796 0.600211 0.713050
Si Si6 0.112866 0.376019 0.573584
O O1 0.787888 0.771957 0.377632
O O2 0.912987 0.535293 0.299815
O O3 0.777753 0.865173 0.238330
O O4 0.705003 0.450572 0.276298
O O5 0.989910 0.261135 0.562480
O O6 0.837421 0.000000 0.500000
O O7 0.925145 0.860022 0.620295
O O8 0.000000 0.843505 0.750000
O O9 0.096783 0.582195 0.636490
O O10 0.372128 0.659704 0.331409
O O11 0.198427 0.831175 0.397445
O O12 0.345878 0.162279 0.333514
O O13 0.500000 0.637082 0.750000
O O14 0.147563 0.500000 0.500000
#
# Coordination Sequence:
#
# PCOD9311093 Si02
#       6
#     4   4   4   4   4   4
#     4   9  22  34  56  90 123 163 207 262 316 376
#     4  11  23  34  57  87 132 179 214 254 308 387
#     4  11  20  35  53  84 128 165 209 250 306 372
#     4  10  22  38  62  97 120 168 207 269 330 381
#     4  10  21  40  65  97 124 151 219 285 334 377
#     4  11  23  37  54  92 134 179 209 255 313 395
#
# _framework density 19.704585999999999
#
# number of rings (size 3 to 8) (size 9 to 14) (size 15 to 20)
#    1.000    0.667    3.333    1.500    7.000    0.000 
#    0.000    0.000    0.000    0.000    8.667    0.000 
#    0.000    0.000    0.000    0.000    0.000    0.000 
#
# Total GULP energy -133798.239472 kJ/mol
# GULP energy per Si atom -5574.926645 kJ/mol
# Density = 1.965974 g / cm^3
# Si number density = 19.704586 Si / 1000 Ang^3
#
#
#
# Elastic Constant Matrix: (Units=GPa)
#
#
# Indices 1 2 3 4 5 6 
#
# 1 59.1586 18.7678 16.4312 0.0000 0.0000 0.0000
# 2 18.7678 89.6525 19.6008 0.0000 0.0000 0.0000
# 3 16.4312 19.6008 121.9551 0.0000 0.0000 0.0000
# 4 0.0000 0.0000 0.0000 30.0835 0.0000 0.0000
# 5 0.0000 0.0000 0.0000 0.0000 12.5825 0.0000
# 6 0.0000 0.0000 0.0000 0.0000 0.0000 18.6588
#
#
#
# Elastic Compliance Matrix: (Units=1/GPa)
#
#
# Indices 1 2 3 4 5 6 
#
# 1 0.018540 -0.003456 -0.001942 0.000000 0.000000 0.000000
# 2 -0.003456 0.012205 -0.001496 0.000000 0.000000 0.000000
# 3 -0.001942 -0.001496 0.008702 0.000000 0.000000 0.000000
# 4 0.000000 0.000000 0.000000 0.033241 0.000000 0.000000
# 5 0.000000 0.000000 0.000000 0.000000 0.079475 0.000000
# 6 0.000000 0.000000 0.000000 0.000000 0.000000 0.053594
#
#
# Mechanical properties :
#
#
# Convention : Reuss Voigt Hill
#
# Bulk Modulus (GPa) = 38.97568 42.26286 40.61927
# Shear Modulus (GPa) = 21.92039 26.66273 24.29156
#
# Velocity S-wave (km/s) = 3.33896 3.68247 3.51492
# Velocity P-wave (km/s) = 5.88964 6.29091 6.09358
#
# Compressibility (1/GPa) = 0.02565703
#
# Stress axis : x y z
#
# Youngs Moduli (GPa) = 53.93818 81.93509 114.91795
#
# Poissons Ratio (x) = 0.28320 0.22321
# Poissons Ratio (y) = 0.18643 0.17190
# Poissons Ratio (z) = 0.10477 0.12256
#
# Static dielectric constant tensor:
#      x y z
#    x 1.675460 0.000000 0.000000 
#    y 0.000000 1.792290 0.000000 
#    z 0.000000 0.000000 1.647870 
# 
# From -- ./inp_files/9573.got.cif
#   From: 2010.05.17/outbox.cif.g08.bks.cpg/sg17_5_cif.got.tgz:9573.got - 2010.06.03 22:34:06.
