data_PCOD9311486
_publ_section_title
;
Structure prediction by ZEFSAII (Michael W. Deem and Ramdas Pophale) SiO2 
 PCOD9311486
Probable space group: P 2 2 21
;
_chemical_formula_sum "Si O2"
_cell_formula_units_Z 28
_cell_length_a 8.191645
_cell_length_b 6.623716
_cell_length_c 24.313142
_cell_angle_alpha 90.000000
_cell_angle_beta 90.000000
_cell_angle_gamma 90.000000
_cell_volume 1319.209934
_symmetry_space_group_name_H-M "P 2 2 21"
_symmetry_group_IT_number 17
_symmetry_cell_setting 'orthorhombic'
loop_
_space_group_symop_operation_xyz
x,y,z
-x,-y,1/2+z
x,-y,-z
-x,y,1/2-z
loop_
_atom_site_type_symbol
_atom_site_label
_atom_site_fract_x
_atom_site_fract_y
_atom_site_fract_z
Si Si1 0.500000 0.415950 0.250000
Si Si2 0.481265 0.739355 0.338767
Si Si3 0.145330 0.377953 0.856017
Si Si4 0.999386 0.105405 0.947544
Si Si5 0.076986 0.718021 0.623510
Si Si6 0.000000 0.201211 0.750000
Si Si7 0.718177 0.908235 0.779864
Si Si8 0.708202 0.602690 0.054631
O O1 0.429966 0.560958 0.296874
O O2 0.357759 0.254289 0.237935
O O3 0.674729 0.694689 0.340004
O O4 0.409142 0.701070 0.399500
O O5 0.413591 0.949213 0.312782
O O6 0.105134 0.258087 0.911749
O O7 0.097462 0.609980 0.866712
O O8 0.020169 0.321631 0.806667
O O9 0.838295 0.229330 0.965051
O O10 0.947998 0.926354 0.907630
O O11 0.079837 0.000000 0.000000
O O12 0.175304 0.778649 0.677651
O O13 0.186585 0.564777 0.587662
O O14 0.841131 0.062654 0.752406
O O15 0.633306 0.500000 0.000000
#
# Coordination Sequence:
#
# PCOD9311486 Si02
#       8
#     2   4   4   4   4   2   4   4
#     4  12  26  40  70  96 138 190 220 290 358 416
#     4  12  26  46  63 103 147 179 228 291 355 418
#     4  11  27  41  65 102 140 177 227 291 349 412
#     4  11  22  45  73  97 128 176 235 290 335 409
#     4  11  22  43  69  98 124 177 234 276 332 409
#     4  12  24  44  70 100 140 176 238 288 342 424
#     4  12  25  44  70  99 138 182 236 283 345 420
#     4  11  22  42  71  99 132 178 231 284 343 418
#
# _framework density 21.224823000000001
#
# number of rings (size 3 to 8) (size 9 to 14) (size 15 to 20)
#    0.000    0.571    5.714    3.000    4.000    1.143 
#    2.571    0.714    0.000    0.000    0.000    0.000 
#    0.000    0.000    0.000    0.000    0.000    0.000 
#
# Total GULP energy -156305.405101 kJ/mol
# GULP energy per Si atom -5582.335896 kJ/mol
# Density = 2.117651 g / cm^3
# Si number density = 21.224823 Si / 1000 Ang^3
#
#
#
# Elastic Constant Matrix: (Units=GPa)
#
#
# Indices 1 2 3 4 5 6 
#
# 1 60.3052 22.7827 2.3375 0.0000 0.0000 0.0000
# 2 22.7827 92.5777 20.6901 0.0000 0.0000 0.0000
# 3 2.3375 20.6901 80.5052 0.0000 0.0000 0.0000
# 4 0.0000 0.0000 0.0000 19.7978 0.0000 0.0000
# 5 0.0000 0.0000 0.0000 0.0000 27.3079 0.0000
# 6 0.0000 0.0000 0.0000 0.0000 0.0000 1.6413
#
#
#
# Elastic Compliance Matrix: (Units=1/GPa)
#
#
# Indices 1 2 3 4 5 6 
#
# 1 0.018315 -0.004656 0.000665 0.000000 0.000000 0.000000
# 2 -0.004656 0.012644 -0.003114 0.000000 0.000000 0.000000
# 3 0.000665 -0.003114 0.013203 0.000000 0.000000 0.000000
# 4 0.000000 0.000000 0.000000 0.050511 0.000000 0.000000
# 5 0.000000 0.000000 0.000000 0.000000 0.036619 0.000000
# 6 0.000000 0.000000 0.000000 0.000000 0.000000 0.609266
#
#
# Mechanical properties :
#
#
# Convention : Reuss Voigt Hill
#
# Bulk Modulus (GPa) = 33.38790 36.11205 34.74998
# Shear Modulus (GPa) = 6.53807 22.25460 14.39634
#
# Velocity S-wave (km/s) = 1.75701 3.24160 2.60720
# Velocity P-wave (km/s) = 4.45879 5.57329 5.04690
#
# Compressibility (1/GPa) = 0.02995097
#
# Stress axis : x y z
#
# Youngs Moduli (GPa) = 54.59858 79.09192 75.74249
#
# Poissons Ratio (x) = 0.36824 -0.05035
# Poissons Ratio (y) = 0.25420 0.23588
# Poissons Ratio (z) = -0.03630 0.24631
#
# Static dielectric constant tensor:
#      x y z
#    x 1.815080 0.000000 0.000000 
#    y 0.000000 1.744490 0.000000 
#    z 0.000000 0.000000 1.794680 
# 
# From -- ./inp_files/10998.got.cif
#   From: 2010.05.17/outbox.cif.g08.bks.cpg/sg17_6_cif.got.tgz:10998.got - 2010.06.03 22:34:06.
