data_PCOD9311314
_publ_section_title
;
Structure prediction by ZEFSAII (Michael W. Deem and Ramdas Pophale) SiO2 
 PCOD9311314
Probable space group: P 2 2 21
;
_chemical_formula_sum "Si O2"
_cell_formula_units_Z 18
_cell_length_a 18.454879
_cell_length_b 7.954755
_cell_length_c 5.432991
_cell_angle_alpha 90.000000
_cell_angle_beta 90.000000
_cell_angle_gamma 90.000000
_cell_volume 797.585034
_symmetry_space_group_name_H-M "P 2 2 21"
_symmetry_group_IT_number 17
_symmetry_cell_setting 'orthorhombic'
loop_
_space_group_symop_operation_xyz
x,y,z
-x,-y,1/2+z
x,-y,-z
-x,y,1/2-z
loop_
_atom_site_type_symbol
_atom_site_label
_atom_site_fract_x
_atom_site_fract_y
_atom_site_fract_z
Si Si1 0.158904 0.320364 0.849838
Si Si2 0.546433 0.000000 0.000000
Si Si3 0.252706 0.000000 0.000000
Si Si4 0.640098 0.757111 0.776769
Si Si5 0.258123 0.500000 0.500000
Si Si6 0.500000 0.590215 0.750000
Si Si7 0.000000 0.609519 0.250000
O O1 0.198636 0.156090 0.949452
O O2 0.205521 0.361164 0.609712
O O3 0.074410 0.291459 0.795476
O O4 0.162358 0.500000 0.000000
O O5 0.500000 0.000543 0.250000
O O6 0.599386 0.161450 0.989389
O O7 0.309761 0.906970 0.819834
O O8 0.568539 0.692775 0.637113
O O9 0.690312 0.596179 0.812187
O O10 0.472173 0.500000 0.500000
O O11 0.011493 0.500000 0.500000
#
# Coordination Sequence:
#
# PCOD9311314 Si02
#       7
#     4   2   2   4   2   2   2
#     4  11  24  48  75 113 152 199 248 309 382 463
#     4  12  27  46  68 101 142 190 256 322 381 450
#     4  12  27  48  76 115 152 204 250 328 385 470
#     4  12  27  45  73 102 151 193 259 316 386 449
#     4  12  24  46  72 106 144 196 246 312 378 460
#     4  12  30  46  72 104 142 200 260 312 384 456
#     4  10  22  46  82 112 156 206 250 310 378 462
#
# _framework density 22.568125999999999
#
# number of rings (size 3 to 8) (size 9 to 14) (size 15 to 20)
#    0.000    0.444    5.556    2.000    4.667    0.000 
#    0.000    6.667    0.000    0.000    0.000    0.000 
#    0.000    0.000    0.000    0.000    0.000    0.000 
#
# Total GULP energy -100254.399411 kJ/mol
# GULP energy per Si atom -5569.688856 kJ/mol
# Density = 2.251676 g / cm^3
# Si number density = 22.568126 Si / 1000 Ang^3
#
#
#
# Elastic Constant Matrix: (Units=GPa)
#
#
# Indices 1 2 3 4 5 6 
#
# 1 220.3661 68.8724 46.0159 0.0000 0.0000 0.0000
# 2 68.8724 121.2869 29.9425 0.0000 0.0000 0.0000
# 3 46.0159 29.9425 79.5311 0.0000 0.0000 0.0000
# 4 0.0000 0.0000 0.0000 28.4517 0.0000 0.0000
# 5 0.0000 0.0000 0.0000 0.0000 35.1691 0.0000
# 6 0.0000 0.0000 0.0000 0.0000 0.0000 34.6507
#
#
#
# Elastic Compliance Matrix: (Units=1/GPa)
#
#
# Indices 1 2 3 4 5 6 
#
# 1 0.005897 -0.002763 -0.002372 0.000000 0.000000 0.000000
# 2 -0.002763 0.010384 -0.002311 0.000000 0.000000 0.000000
# 3 -0.002372 -0.002311 0.014816 0.000000 0.000000 0.000000
# 4 0.000000 0.000000 0.000000 0.035147 0.000000 0.000000
# 5 0.000000 0.000000 0.000000 0.000000 0.028434 0.000000
# 6 0.000000 0.000000 0.000000 0.000000 0.000000 0.028859
#
#
# Mechanical properties :
#
#
# Convention : Reuss Voigt Hill
#
# Bulk Modulus (GPa) = 61.70548 78.98286 70.34417
# Shear Modulus (GPa) = 34.76315 38.07786 36.42050
#
# Velocity S-wave (km/s) = 3.92901 4.11206 4.02157
# Velocity P-wave (km/s) = 6.92705 7.59071 7.26646
#
# Compressibility (1/GPa) = 0.01620602
#
# Stress axis : x y z
#
# Youngs Moduli (GPa) = 169.58850 96.29881 67.49506
#
# Poissons Ratio (x) = 0.26607 0.16007
# Poissons Ratio (y) = 0.46856 0.15598
# Poissons Ratio (z) = 0.40218 0.22255
#
# Static dielectric constant tensor:
#      x y z
#    x 1.828260 0.000000 0.000000 
#    y 0.000000 1.931930 0.000000 
#    z 0.000000 0.000000 1.906520 
# 
# From -- ./inp_files/812.got.cif
#   From: 2010.05.17/outbox.cif.g08.bks.cpg/sg17_1_cif.got.tgz:812.got - 2010.06.03 22:34:06.
