data_PCOD9311096
_publ_section_title
;
Structure prediction by ZEFSAII (Michael W. Deem and Ramdas Pophale) SiO2 
 PCOD9311096
Probable space group: P 2 2 21
;
_chemical_formula_sum "Si O2"
_cell_formula_units_Z 32
_cell_length_a 8.981975
_cell_length_b 5.234106
_cell_length_c 31.912033
_cell_angle_alpha 90.000000
_cell_angle_beta 90.000000
_cell_angle_gamma 90.000000
_cell_volume 1500.267937
_symmetry_space_group_name_H-M "P 2 2 21"
_symmetry_group_IT_number 17
_symmetry_cell_setting 'orthorhombic'
loop_
_space_group_symop_operation_xyz
x,y,z
-x,-y,1/2+z
x,-y,-z
-x,y,1/2-z
loop_
_atom_site_type_symbol
_atom_site_label
_atom_site_fract_x
_atom_site_fract_y
_atom_site_fract_z
Si Si1 0.603827 0.003075 0.452068
Si Si2 0.811339 0.507297 0.452010
Si Si3 0.088080 0.852690 0.207592
Si Si4 0.716477 0.390000 0.162035
Si Si5 0.709275 0.792593 0.673655
Si Si6 0.349355 0.532365 0.244168
Si Si7 0.040492 0.486204 0.868615
Si Si8 0.542660 0.100426 0.867657
O O1 0.711030 0.759217 0.447107
O O2 0.478712 0.962963 0.416745
O O3 0.547169 0.000000 0.500000
O O4 0.703776 0.258934 0.446408
O O5 0.865900 0.500000 0.500000
O O6 0.943344 0.535971 0.418369
O O7 0.232314 0.691635 0.218715
O O8 0.030770 0.756720 0.162816
O O9 0.000000 0.832437 0.250000
O O10 0.145774 0.134985 0.201005
O O11 0.718761 0.443111 0.212012
O O12 0.611522 0.619897 0.142594
O O13 0.883466 0.385279 0.143326
O O14 0.647701 0.114553 0.152461
O O15 0.603639 0.678804 0.709635
O O16 0.795420 0.611388 0.641159
O O17 0.620823 0.021786 0.651179
O O18 0.500000 0.691055 0.250000
#
# Coordination Sequence:
#
# PCOD9311096 Si02
#       8
#     4   4   4   4   4   4   4   4
#     4  10  21  41  72 103 130 164 220 279 326 396
#     4  10  21  40  72 103 129 167 219 274 333 397
#     4  11  24  39  63  91 128 177 227 273 335 388
#     4  12  28  42  65  94 141 176 220 270 346 385
#     4  11  25  38  70  87 132 175 234 277 326 393
#     4  11  23  41  57  92 125 175 224 276 320 391
#     4  11  25  43  62  99 134 178 220 287 333 412
#     4  12  25  46  65 100 127 178 220 274 332 404
#
# _framework density 21.329522999999998
#
# number of rings (size 3 to 8) (size 9 to 14) (size 15 to 20)
#    0.000    1.000    3.750    2.250    7.000    0.500 
#    0.000    1.250    0.000    0.000    0.000    0.000 
#    0.000    0.000    0.000    0.000    0.000    0.000 
#
# Total GULP energy -178355.354923 kJ/mol
# GULP energy per Si atom -5573.604841 kJ/mol
# Density = 2.128098 g / cm^3
# Si number density = 21.329523 Si / 1000 Ang^3
#
#
#
# Elastic Constant Matrix: (Units=GPa)
#
#
# Indices 1 2 3 4 5 6 
#
# 1 51.7831 1.1800 15.2997 0.0000 0.0000 0.0000
# 2 1.1800 54.0089 11.0084 0.0000 0.0000 0.0000
# 3 15.2997 11.0084 143.9615 0.0000 0.0000 0.0000
# 4 0.0000 0.0000 0.0000 1.1748 0.0000 0.0000
# 5 0.0000 0.0000 0.0000 0.0000 31.3777 0.0000
# 6 0.0000 0.0000 0.0000 0.0000 0.0000 23.6754
#
#
#
# Elastic Compliance Matrix: (Units=1/GPa)
#
#
# Indices 1 2 3 4 5 6 
#
# 1 0.019937 -0.000004 -0.002119 0.000000 0.000000 0.000000
# 2 -0.000004 0.018809 -0.001438 0.000000 0.000000 0.000000
# 3 -0.002119 -0.001438 0.007281 0.000000 0.000000 0.000000
# 4 0.000000 0.000000 0.000000 0.851191 0.000000 0.000000
# 5 0.000000 0.000000 0.000000 0.000000 0.031870 0.000000
# 6 0.000000 0.000000 0.000000 0.000000 0.000000 0.042238
#
#
# Mechanical properties :
#
#
# Convention : Reuss Voigt Hill
#
# Bulk Modulus (GPa) = 25.70234 33.85887 29.78061
# Shear Modulus (GPa) = 5.04329 26.06329 15.55329
#
# Velocity S-wave (km/s) = 1.53935 3.49941 2.70328
# Velocity P-wave (km/s) = 3.90330 5.67772 4.87197
#
# Compressibility (1/GPa) = 0.03890696
#
# Stress axis : x y z
#
# Youngs Moduli (GPa) = 50.15712 53.16710 137.33608
#
# Poissons Ratio (x) = 0.00020 0.29096
# Poissons Ratio (y) = 0.00019 0.19747
# Poissons Ratio (z) = 0.10626 0.07645
#
# Static dielectric constant tensor:
#      x y z
#    x 1.882050 0.000000 0.000000 
#    y 0.000000 1.879080 0.000000 
#    z 0.000000 0.000000 2.375010 
# 
# From -- ./inp_files/11237.got.cif
#   From: 2010.05.17/outbox.cif.g08.bks.cpg/sg17_6_cif.got.tgz:11237.got - 2010.06.03 22:34:06.
