data_PCOD9311840
_publ_section_title
;
Structure prediction by ZEFSAII (Michael W. Deem and Ramdas Pophale) SiO2 
 PCOD9311840
Probable space group: P 21 21 2
;
_chemical_formula_sum "Si O2"
_cell_formula_units_Z 30
_cell_length_a 12.836572
_cell_length_b 12.395232
_cell_length_c 7.645159
_cell_angle_alpha 90.000000
_cell_angle_beta 90.000000
_cell_angle_gamma 90.000000
_cell_volume 1216.438741
_symmetry_space_group_name_H-M "P 21 21 2"
_symmetry_group_IT_number 18
_symmetry_cell_setting 'orthorhombic'
loop_
_space_group_symop_operation_xyz
x,y,z
-x,-y,z
1/2+x,1/2-y,-z
1/2-x,1/2+y,-z
loop_
_atom_site_type_symbol
_atom_site_label
_atom_site_fract_x
_atom_site_fract_y
_atom_site_fract_z
Si Si1 0.786258 0.460803 0.171353
Si Si2 0.662707 0.958671 0.460323
Si Si3 0.359619 0.382478 0.034194
Si Si4 0.000000 0.500000 0.997550
Si Si5 0.236871 0.772872 0.251051
Si Si6 0.542055 0.167607 0.513613
Si Si7 0.473183 0.766776 0.157931
Si Si8 0.263230 0.742892 0.668563
O O1 0.764470 0.483576 0.375676
O O2 0.681772 0.499089 0.078025
O O3 0.809657 0.335090 0.166484
O O4 0.892552 0.516004 0.104601
O O5 0.564122 0.895652 0.548597
O O6 0.722132 0.881528 0.324822
O O7 0.612701 0.074169 0.416473
O O8 0.472626 0.330747 0.058011
O O9 0.292162 0.310302 0.177618
O O10 0.327248 0.367856 0.833169
O O11 0.013744 0.613090 0.893481
O O12 0.349481 0.771048 0.159110
O O13 0.236223 0.766712 0.461172
O O14 0.507104 0.250977 0.365278
O O15 0.613480 0.224860 0.658821
#
# Coordination Sequence:
#
# PCOD9311840 Si02
#       8
#     4   4   4   2   4   4   4   4
#     4  11  23  37  64  93 125 166 211 262 310 382
#     4  10  19  35  58  91 122 153 206 258 304 361
#     4  12  22  43  63  91 127 169 206 254 327 373
#     4  12  20  36  62  96 120 160 222 260 312 366
#     4  10  24  43  57  97 131 159 211 266 310 375
#     4  10  19  35  58  91 122 153 206 258 304 361
#     4  11  23  37  64  93 125 166 211 262 310 382
#     4  10  22  38  60  88 126 164 197 256 319 362
#
# _framework density 24.662153
#
# number of rings (size 3 to 8) (size 9 to 14) (size 15 to 20)
#    0.000    1.333    5.333    1.600    0.000    0.533 
#    0.000    0.000    0.000    0.800    0.000    3.733 
#    0.000    0.000    0.000    0.000    0.000    0.000 
#
# Total GULP energy -167153.983630 kJ/mol
# GULP energy per Si atom -5571.799454 kJ/mol
# Density = 2.460602 g / cm^3
# Si number density = 24.662153 Si / 1000 Ang^3
#
#
#
# Elastic Constant Matrix: (Units=GPa)
#
#
# Indices 1 2 3 4 5 6 
#
# 1 81.4747 15.6791 2.5547 0.0000 0.0000 0.0000
# 2 15.6791 45.1333 -2.5714 0.0000 0.0000 0.0000
# 3 2.5547 -2.5714 52.9060 0.0000 0.0000 0.0000
# 4 0.0000 0.0000 0.0000 29.8614 0.0000 0.0000
# 5 0.0000 0.0000 0.0000 0.0000 31.7845 0.0000
# 6 0.0000 0.0000 0.0000 0.0000 0.0000 42.4215
#
#
#
# Elastic Compliance Matrix: (Units=1/GPa)
#
#
# Indices 1 2 3 4 5 6 
#
# 1 0.013192 -0.004632 -0.000862 0.000000 0.000000 0.000000
# 2 -0.004632 0.023845 0.001383 0.000000 0.000000 0.000000
# 3 -0.000862 0.001383 0.019010 0.000000 0.000000 0.000000
# 4 0.000000 0.000000 0.000000 0.033488 0.000000 0.000000
# 5 0.000000 0.000000 0.000000 0.000000 0.031462 0.000000
# 6 0.000000 0.000000 0.000000 0.000000 0.000000 0.023573
#
#
# Mechanical properties :
#
#
# Convention : Reuss Voigt Hill
#
# Bulk Modulus (GPa) = 20.91009 23.42653 22.16831
# Shear Modulus (GPa) = 29.63238 31.73691 30.68465
#
# Velocity S-wave (km/s) = 3.47007 3.59118 3.53115
# Velocity P-wave (km/s) = 4.95502 5.16866 5.06297
#
# Compressibility (1/GPa) = 0.04782379
#
# Stress axis : x y z
#
# Youngs Moduli (GPa) = 75.80249 41.93839 52.60312
#
# Poissons Ratio (x) = 0.19426 0.04535
# Poissons Ratio (y) = 0.35112 -0.07273
# Poissons Ratio (z) = 0.06535 -0.05798
#
# Static dielectric constant tensor:
#      x y z
#    x 2.046500 0.000000 0.000000 
#    y 0.000000 2.061690 0.000000 
#    z 0.000000 0.000000 1.989840 
# 
# From -- ./inp_files/3905.got.cif
#   From: 2010.05.17/outbox.cif.g08.bks.cpg/sg18_2_cif.got.tgz:3905.got - 2010.06.03 22:40:56.
