data_PCOD9311754
_publ_section_title
;
Structure prediction by ZEFSAII (Michael W. Deem and Ramdas Pophale) SiO2 
 PCOD9311754
Probable space group: P 21 21 2
;
_chemical_formula_sum "Si O2"
_cell_formula_units_Z 22
_cell_length_a 7.976283
_cell_length_b 9.132202
_cell_length_c 14.739371
_cell_angle_alpha 90.000000
_cell_angle_beta 90.000000
_cell_angle_gamma 90.000000
_cell_volume 1073.630929
_symmetry_space_group_name_H-M "P 21 21 2"
_symmetry_group_IT_number 18
_symmetry_cell_setting 'orthorhombic'
loop_
_space_group_symop_operation_xyz
x,y,z
-x,-y,z
1/2+x,1/2-y,-z
1/2-x,1/2+y,-z
loop_
_atom_site_type_symbol
_atom_site_label
_atom_site_fract_x
_atom_site_fract_y
_atom_site_fract_z
Si Si1 0.764438 0.605856 0.521772
Si Si2 0.093533 0.696415 0.601094
Si Si3 0.000000 0.000000 0.353964
Si Si4 0.921571 0.647949 0.103199
Si Si5 0.830085 0.091411 0.062191
Si Si6 0.768677 0.373886 0.780761
O O1 0.829248 0.440635 0.542633
O O2 0.706274 0.663097 0.423928
O O3 0.600000 0.611914 0.583673
O O4 0.907002 0.708868 0.563190
O O5 0.085165 0.656451 0.707991
O O6 0.876858 0.914122 0.289316
O O7 0.788619 0.730176 0.166462
O O8 0.000000 0.500000 0.140955
O O9 0.080509 0.755540 0.087011
O O10 0.813223 0.612071 0.012951
O O11 0.740061 0.004352 0.145194
O O12 0.000000 0.000000 0.034938
#
# Coordination Sequence:
#
# PCOD9311754 Si02
#       6
#     4   4   2   4   4   4
#     4  10  21  38  66  90 129 160 207 251 313 365
#     4  10  21  40  61  98 120 170 205 252 308 374
#     4  10  18  40  64  84 124 166 200 252 308 374
#     4  11  21  39  62  92 122 163 210 265 313 362
#     4  10  21  41  62  89 126 165 207 259 324 376
#     4  10  20  40  60  87 129 164 212 252 313 379
#
# _framework density 20.491213999999999
#
# number of rings (size 3 to 8) (size 9 to 14) (size 15 to 20)
#    0.000    1.818    2.727    4.364    0.000    0.000 
#   26.182    0.000    2.000    0.000    0.000    0.000 
#    0.000    0.000    0.000    0.000    0.000    0.000 
#
# Total GULP energy -122525.978934 kJ/mol
# GULP energy per Si atom -5569.362679 kJ/mol
# Density = 2.044457 g / cm^3
# Si number density = 20.491214 Si / 1000 Ang^3
#
#
#
# Elastic Constant Matrix: (Units=GPa)
#
#
# Indices 1 2 3 4 5 6 
#
# 1 57.3758 7.5907 40.0969 0.0000 0.0000 0.0000
# 2 7.5907 92.6649 35.8149 0.0000 0.0000 0.0000
# 3 40.0969 35.8149 120.8450 0.0000 0.0000 0.0000
# 4 0.0000 0.0000 0.0000 24.8988 0.0000 0.0000
# 5 0.0000 0.0000 0.0000 0.0000 16.1223 0.0000
# 6 0.0000 0.0000 0.0000 0.0000 0.0000 16.8261
#
#
#
# Elastic Compliance Matrix: (Units=1/GPa)
#
#
# Indices 1 2 3 4 5 6 
#
# 1 0.022807 0.001193 -0.007921 0.000000 0.000000 0.000000
# 2 0.001193 0.012250 -0.004026 0.000000 0.000000 0.000000
# 3 -0.007921 -0.004026 0.012097 0.000000 0.000000 0.000000
# 4 0.000000 0.000000 0.000000 0.040163 0.000000 0.000000
# 5 0.000000 0.000000 0.000000 0.000000 0.062026 0.000000
# 6 0.000000 0.000000 0.000000 0.000000 0.000000 0.059431
#
#
# Mechanical properties :
#
#
# Convention : Reuss Voigt Hill
#
# Bulk Modulus (GPa) = 38.99417 48.65451 43.82434
# Shear Modulus (GPa) = 20.93541 24.06166 22.49854
#
# Velocity S-wave (km/s) = 3.19984 3.43044 3.31714
# Velocity P-wave (km/s) = 5.72040 6.28380 6.00871
#
# Compressibility (1/GPa) = 0.02564486
#
# Stress axis : x y z
#
# Youngs Moduli (GPa) = 43.84691 81.63224 82.66780
#
# Poissons Ratio (x) = -0.09741 0.65481
# Poissons Ratio (y) = -0.05232 0.33286
# Poissons Ratio (z) = 0.34731 0.32869
#
# Static dielectric constant tensor:
#      x y z
#    x 1.829500 0.000000 0.000000 
#    y 0.000000 2.044940 0.000000 
#    z 0.000000 0.000000 1.764810 
# 
# From -- ./inp_files/6619.got.cif
#   From: 2010.05.17/outbox.cif.g08.bks.cpg/sg18_4_cif.got.tgz:6619.got - 2010.06.03 22:40:56.
