data_PCOD9311288
_publ_section_title
;
Structure prediction by ZEFSAII (Michael W. Deem and Ramdas Pophale) SiO2 
 PCOD9311288
Probable space group: P 2 2 21
;
_chemical_formula_sum "Si O2"
_cell_formula_units_Z 14
_cell_length_a 10.953607
_cell_length_b 7.533467
_cell_length_c 6.938930
_cell_angle_alpha 90.000000
_cell_angle_beta 90.000000
_cell_angle_gamma 90.000000
_cell_volume 572.591045
_symmetry_space_group_name_H-M "P 2 2 21"
_symmetry_group_IT_number 17
_symmetry_cell_setting 'orthorhombic'
loop_
_space_group_symop_operation_xyz
x,y,z
-x,-y,1/2+z
x,-y,-z
-x,y,1/2-z
loop_
_atom_site_type_symbol
_atom_site_label
_atom_site_fract_x
_atom_site_fract_y
_atom_site_fract_z
Si Si1 0.323273 0.000000 0.500000
Si Si2 0.778382 0.167458 0.372471
Si Si3 0.868121 0.525581 0.225676
Si Si4 0.616165 0.279645 0.689646
O O1 0.243702 0.106790 0.345715
O O2 0.395546 0.131538 0.641378
O O3 0.861332 0.342155 0.348238
O O4 0.646420 0.212099 0.473667
O O5 0.825266 0.000000 0.500000
O O6 0.746679 0.630560 0.277495
O O7 0.000000 0.613736 0.250000
O O8 0.856389 0.500000 0.000000
O O9 0.500000 0.398463 0.750000
#
# Coordination Sequence:
#
# PCOD9311288 Si02
#       4
#     2   4   4   4
#     4  10  22  44  68 110 148 198 240 308 372 446
#     4  10  23  46  71 109 152 190 245 307 376 442
#     4  12  25  49  76 106 149 197 252 310 372 452
#     4  11  25  43  75 111 149 194 247 311 372 446
#
# _framework density 24.450258999999999
#
# number of rings (size 3 to 8) (size 9 to 14) (size 15 to 20)
#    0.000    1.143    2.857    2.571    6.000    2.286 
#    2.571    2.857    0.000    0.000    0.000    0.000 
#    0.000    0.000    0.000    0.000    0.000    0.000 
#
# Total GULP energy -78082.147405 kJ/mol
# GULP energy per Si atom -5577.296243 kJ/mol
# Density = 2.439461 g / cm^3
# Si number density = 24.450259 Si / 1000 Ang^3
#
#
#
# Elastic Constant Matrix: (Units=GPa)
#
#
# Indices 1 2 3 4 5 6 
#
# 1 131.4172 31.7426 35.2072 0.0000 0.0000 0.0000
# 2 31.7426 58.0893 25.2141 0.0000 0.0000 0.0000
# 3 35.2072 25.2141 164.0719 0.0000 0.0000 0.0000
# 4 0.0000 0.0000 0.0000 34.2033 0.0000 0.0000
# 5 0.0000 0.0000 0.0000 0.0000 26.1210 0.0000
# 6 0.0000 0.0000 0.0000 0.0000 0.0000 20.2703
#
#
#
# Elastic Compliance Matrix: (Units=1/GPa)
#
#
# Indices 1 2 3 4 5 6 
#
# 1 0.009003 -0.004373 -0.001260 0.000000 0.000000 0.000000
# 2 -0.004373 0.020569 -0.002223 0.000000 0.000000 0.000000
# 3 -0.001260 -0.002223 0.006707 0.000000 0.000000 0.000000
# 4 0.000000 0.000000 0.000000 0.029237 0.000000 0.000000
# 5 0.000000 0.000000 0.000000 0.000000 0.038283 0.000000
# 6 0.000000 0.000000 0.000000 0.000000 0.000000 0.049333
#
#
# Mechanical properties :
#
#
# Convention : Reuss Voigt Hill
#
# Bulk Modulus (GPa) = 48.61861 59.76736 54.19298
# Shear Modulus (GPa) = 28.45767 33.54656 31.00212
#
# Velocity S-wave (km/s) = 3.41530 3.70811 3.56472
# Velocity P-wave (km/s) = 5.95653 6.54454 6.25745
#
# Compressibility (1/GPa) = 0.02056826
#
# Stress axis : x y z
#
# Youngs Moduli (GPa) = 111.07279 48.61646 149.10193
#
# Poissons Ratio (x) = 0.21259 0.18786
# Poissons Ratio (y) = 0.48570 0.33140
# Poissons Ratio (z) = 0.13994 0.10806
#
# Static dielectric constant tensor:
#      x y z
#    x 2.132990 0.000000 0.000000 
#    y 0.000000 2.164390 0.000000 
#    z 0.000000 0.000000 1.926800 
# 
# From -- ./inp_files/1168.got.cif
#   From: 2010.05.17/outbox.cif.g08.bks.cpg/sg17_1_cif.got.tgz:1168.got - 2010.06.03 22:34:06.
