data_PCOD9311446
_publ_section_title
;
Structure prediction by ZEFSAII (Michael W. Deem and Ramdas Pophale) SiO2 
 PCOD9311446
Probable space group: P 2 2 21
;
_chemical_formula_sum "Si O2"
_cell_formula_units_Z 18
_cell_length_a 7.944948
_cell_length_b 8.288994
_cell_length_c 14.863575
_cell_angle_alpha 90.000000
_cell_angle_beta 90.000000
_cell_angle_gamma 90.000000
_cell_volume 978.850041
_symmetry_space_group_name_H-M "P 2 2 21"
_symmetry_group_IT_number 17
_symmetry_cell_setting 'orthorhombic'
loop_
_space_group_symop_operation_xyz
x,y,z
-x,-y,1/2+z
x,-y,-z
-x,y,1/2-z
loop_
_atom_site_type_symbol
_atom_site_label
_atom_site_fract_x
_atom_site_fract_y
_atom_site_fract_z
Si Si1 0.810557 0.281014 0.759254
Si Si2 0.447995 0.867700 0.931110
Si Si3 0.376928 0.554128 0.835115
Si Si4 0.344636 0.643142 0.444374
Si Si5 0.500000 0.049708 0.750000
O O1 0.774291 0.447732 0.705268
O O2 0.772655 0.305185 0.864002
O O3 0.663487 0.158621 0.730592
O O4 0.000000 0.223922 0.750000
O O5 0.339956 0.717201 0.890836
O O6 0.522257 0.950621 0.841719
O O7 0.593370 0.783463 0.990361
O O8 0.369941 0.000000 0.000000
O O9 0.500000 0.592683 0.750000
O O10 0.489231 0.437664 0.898623
O O11 0.261493 0.500000 0.500000
#
# Coordination Sequence:
#
# PCOD9311446 Si02
#       5
#     4   4   4   4   2
#     4  11  21  39  63  90 125 165 209 260 309 376
#     4  11  19  33  64  91 120 162 201 256 322 373
#     4   9  17  35  60  88 114 156 212 249 299 371
#     4   9  18  35  62  87 116 161 209 253 308 373
#     4  12  22  38  62  92 128 164 206 258 322 366
#
# _framework density 18.388925
#
# number of rings (size 3 to 8) (size 9 to 14) (size 15 to 20)
#    0.000    1.778    6.667    0.000    0.000    0.000 
#    0.000    6.667   14.667    0.000    0.000    0.000 
#    0.000    0.000    0.000    0.000    0.000    0.000 
#
# Total GULP energy -100251.434733 kJ/mol
# GULP energy per Si atom -5569.524152 kJ/mol
# Density = 1.834707 g / cm^3
# Si number density = 18.388925 Si / 1000 Ang^3
#
#
#
# Elastic Constant Matrix: (Units=GPa)
#
#
# Indices 1 2 3 4 5 6 
#
# 1 72.5350 35.0405 15.6930 0.0000 0.0000 0.0000
# 2 35.0405 101.8075 58.2402 0.0000 0.0000 0.0000
# 3 15.6930 58.2402 130.5098 0.0000 0.0000 0.0000
# 4 0.0000 0.0000 0.0000 61.7916 0.0000 0.0000
# 5 0.0000 0.0000 0.0000 0.0000 12.6231 0.0000
# 6 0.0000 0.0000 0.0000 0.0000 0.0000 -20.9707
#
#
#
# Elastic Compliance Matrix: (Units=1/GPa)
#
#
# Indices 1 2 3 4 5 6 
#
# 1 0.016589 -0.006135 0.000743 0.000000 0.000000 0.000000
# 2 -0.006135 0.015458 -0.006161 0.000000 0.000000 0.000000
# 3 0.000743 -0.006161 0.010322 0.000000 0.000000 0.000000
# 4 0.000000 0.000000 0.000000 0.016183 0.000000 0.000000
# 5 0.000000 0.000000 0.000000 0.000000 0.079220 0.000000
# 6 0.000000 0.000000 0.000000 0.000000 0.000000 -0.047686
#
#
# Mechanical properties :
#
#
# Convention : Reuss Voigt Hill
#
# Bulk Modulus (GPa) = 51.90838 58.08885 54.99861
# Shear Modulus (GPa) = 41.80136 23.74740 32.77438
#
# Velocity S-wave (km/s) = 4.77296 3.59750 4.22630
# Velocity P-wave (km/s) = 7.65926 6.99383 7.33409
#
# Compressibility (1/GPa) = 0.01926471
#
# Stress axis : x y z
#
# Youngs Moduli (GPa) = 60.27976 64.69071 96.87953
#
# Poissons Ratio (x) = 0.39686 -0.07197
# Poissons Ratio (y) = 0.36980 0.59683
# Poissons Ratio (z) = -0.04478 0.39853
#
# Static dielectric constant tensor:
#      x y z
#    x 1.640520 0.000000 0.000000 
#    y 0.000000 1.715860 0.000000 
#    z 0.000000 0.000000 1.676230 
# 
# From -- ./inp_files/7894.got.cif
#   From: 2010.05.17/outbox.cif.g08.bks.cpg/sg17_4_cif.got.tgz:7894.got - 2010.06.03 22:34:06.
