data_PCOD9311075
_publ_section_title
;
Structure prediction by ZEFSAII (Michael W. Deem and Ramdas Pophale) SiO2 
 PCOD9311075
Probable space group: P 2 2 21
;
_chemical_formula_sum "Si O2"
_cell_formula_units_Z 20
_cell_length_a 16.186150
_cell_length_b 11.672962
_cell_length_c 5.169764
_cell_angle_alpha 90.000000
_cell_angle_beta 90.000000
_cell_angle_gamma 90.000000
_cell_volume 976.776833
_symmetry_space_group_name_H-M "P 2 2 21"
_symmetry_group_IT_number 17
_symmetry_cell_setting 'orthorhombic'
loop_
_space_group_symop_operation_xyz
x,y,z
-x,-y,1/2+z
x,-y,-z
-x,y,1/2-z
loop_
_atom_site_type_symbol
_atom_site_label
_atom_site_fract_x
_atom_site_fract_y
_atom_site_fract_z
Si Si1 0.730652 0.272810 0.709754
Si Si2 0.314631 0.176157 0.283810
Si Si3 0.855586 0.873193 0.562382
Si Si4 0.000000 0.294306 0.250000
Si Si5 0.553935 0.000000 0.000000
Si Si6 0.921479 0.500000 0.000000
Si Si7 0.193277 0.500000 0.000000
O O1 0.666616 0.215197 0.508530
O O2 0.812924 0.193532 0.679039
O O3 0.752684 0.391233 0.575151
O O4 0.702759 0.274479 0.004066
O O5 0.385267 0.098756 0.399508
O O6 0.225550 0.114015 0.245773
O O7 0.924140 0.788245 0.675408
O O8 0.887425 0.000000 0.500000
O O9 0.025307 0.383697 0.476976
O O10 0.500000 0.966429 0.250000
O O11 0.864239 0.512984 0.749933
#
# Coordination Sequence:
#
# PCOD9311075 Si02
#       7
#     4   4   4   2   2   2   2
#     4  10  21  39  67  91 126 178 215 270 333 379
#     4  10  22  42  64  95 134 165 205 271 331 386
#     4  10  23  43  59  87 134 176 224 267 340 404
#     4  12  24  44  60  98 120 198 230 298 344 382
#     4  12  24  40  72 108 132 172 212 258 340 420
#     4  12  25  42  62  84 138 161 246 323 328 366
#     4  12  21  44  66  94 122 177 244 283 334 396
#
# _framework density 20.475504000000001
#
# number of rings (size 3 to 8) (size 9 to 14) (size 15 to 20)
#    1.200    0.000    2.000    5.400    1.400    0.000 
#   12.600    0.000    0.000    0.000    0.000   14.000 
#    0.000    0.000    0.000    0.000    0.000    0.000 
#
# Total GULP energy -111503.361567 kJ/mol
# GULP energy per Si atom -5575.168078 kJ/mol
# Density = 2.042890 g / cm^3
# Si number density = 20.475504 Si / 1000 Ang^3
#
#
#
# Elastic Constant Matrix: (Units=GPa)
#
#
# Indices 1 2 3 4 5 6 
#
# 1 86.5822 29.4270 25.8544 0.0000 0.0000 0.0000
# 2 29.4270 117.2167 2.7650 0.0000 0.0000 0.0000
# 3 25.8544 2.7650 93.1918 0.0000 0.0000 0.0000
# 4 0.0000 0.0000 0.0000 25.8612 0.0000 0.0000
# 5 0.0000 0.0000 0.0000 0.0000 29.5366 0.0000
# 6 0.0000 0.0000 0.0000 0.0000 0.0000 19.3692
#
#
#
# Elastic Compliance Matrix: (Units=1/GPa)
#
#
# Indices 1 2 3 4 5 6 
#
# 1 0.013813 -0.003380 -0.003732 0.000000 0.000000 0.000000
# 2 -0.003380 0.009364 0.000660 0.000000 0.000000 0.000000
# 3 -0.003732 0.000660 0.011746 0.000000 0.000000 0.000000
# 4 0.000000 0.000000 0.000000 0.038668 0.000000 0.000000
# 5 0.000000 0.000000 0.000000 0.000000 0.033856 0.000000
# 6 0.000000 0.000000 0.000000 0.000000 0.000000 0.051628
#
#
# Mechanical properties :
#
#
# Convention : Reuss Voigt Hill
#
# Bulk Modulus (GPa) = 45.41365 45.89815 45.65590
# Shear Modulus (GPa) = 27.88327 30.88302 29.38315
#
# Velocity S-wave (km/s) = 3.69424 3.88789 3.79230
# Velocity P-wave (km/s) = 6.35800 6.52832 6.44373
#
# Compressibility (1/GPa) = 0.02201981
#
# Stress axis : x y z
#
# Youngs Moduli (GPa) = 72.39704 106.79090 85.13310
#
# Poissons Ratio (x) = 0.36091 0.31770
# Poissons Ratio (y) = 0.24467 -0.05617
# Poissons Ratio (z) = 0.27017 -0.07046
#
# Static dielectric constant tensor:
#      x y z
#    x 1.770400 0.000000 0.000000 
#    y 0.000000 1.769980 0.000000 
#    z 0.000000 0.000000 1.771490 
# 
# From -- ./inp_files/2037.got.cif
#   From: 2010.05.17/outbox.cif.g08.bks.cpg/sg17_2_cif.got.tgz:2037.got - 2010.06.03 22:34:06.
