data_PCOD9311169
_publ_section_title
;
Structure prediction by ZEFSAII (Michael W. Deem and Ramdas Pophale) SiO2 
 PCOD9311169
Probable space group: P 2 2 21
;
_chemical_formula_sum "Si O2"
_cell_formula_units_Z 30
_cell_length_a 9.115951
_cell_length_b 13.116496
_cell_length_c 11.790028
_cell_angle_alpha 90.000000
_cell_angle_beta 90.000000
_cell_angle_gamma 90.000000
_cell_volume 1409.725806
_symmetry_space_group_name_H-M "P 2 2 21"
_symmetry_group_IT_number 17
_symmetry_cell_setting 'orthorhombic'
loop_
_space_group_symop_operation_xyz
x,y,z
-x,-y,1/2+z
x,-y,-z
-x,y,1/2-z
loop_
_atom_site_type_symbol
_atom_site_label
_atom_site_fract_x
_atom_site_fract_y
_atom_site_fract_z
Si Si1 0.373225 0.738616 0.345298
Si Si2 0.885479 0.924506 0.832076
Si Si3 0.153385 0.553005 0.386638
Si Si4 0.088451 0.311962 0.001166
Si Si5 0.379688 0.816853 0.005566
Si Si6 0.632082 0.995295 0.670453
Si Si7 0.115073 0.864200 0.421281
Si Si8 0.000000 0.391308 0.250000
O O1 0.500000 0.732288 0.250000
O O2 0.268594 0.639565 0.350562
O O3 0.470375 0.763300 0.455817
O O4 0.248998 0.827074 0.343685
O O5 0.757481 0.956208 0.751163
O O6 0.000000 0.868768 0.750000
O O7 0.952411 0.031167 0.876687
O O8 0.830443 0.875634 0.948299
O O9 0.212714 0.500000 0.500000
O O10 0.128297 0.468076 0.291352
O O11 0.992331 0.598217 0.427194
O O12 0.043121 0.333623 0.132701
O O13 0.256456 0.271958 0.003207
O O14 0.009198 0.217993 0.939097
O O15 0.332488 0.905274 0.095713
O O16 0.406466 0.892988 0.900445
O O17 0.500000 0.027348 0.750000
#
# Coordination Sequence:
#
# PCOD9311169 Si02
#       8
#     4   4   4   4   4   4   4   2
#     4  11  23  41  65  91 127 167 217 257 319 392
#     4  11  21  35  59  89 129 170 218 261 307 357
#     4   9  22  46  66  92 126 159 200 271 344 389
#     4  10  22  40  68  93 126 158 210 269 312 400
#     4  11  23  39  60  99 125 172 223 257 298 371
#     4  11  23  39  58  85 142 177 210 251 308 364
#     4  10  22  38  58  92 130 169 212 265 310 368
#     4  10  22  44  72  92 122 160 202 262 366 386
#
# _framework density 21.280733999999999
#
# number of rings (size 3 to 8) (size 9 to 14) (size 15 to 20)
#    0.000    1.600    0.000    4.400    4.667    4.267 
#    7.200    0.000    0.000    0.000    0.000    0.000 
#    0.000    0.000    0.000    0.000    0.000    0.000 
#
# Total GULP energy -167101.927553 kJ/mol
# GULP energy per Si atom -5570.064252 kJ/mol
# Density = 2.123230 g / cm^3
# Si number density = 21.280734 Si / 1000 Ang^3
#
#
#
# Elastic Constant Matrix: (Units=GPa)
#
#
# Indices 1 2 3 4 5 6 
#
# 1 68.7483 19.2983 5.7499 0.0000 0.0000 0.0000
# 2 19.2983 62.8329 4.7839 0.0000 0.0000 0.0000
# 3 5.7499 4.7839 73.7160 0.0000 0.0000 0.0000
# 4 0.0000 0.0000 0.0000 15.9549 0.0000 0.0000
# 5 0.0000 0.0000 0.0000 0.0000 27.7044 0.0000
# 6 0.0000 0.0000 0.0000 0.0000 0.0000 26.1552
#
#
#
# Elastic Compliance Matrix: (Units=1/GPa)
#
#
# Indices 1 2 3 4 5 6 
#
# 1 0.015982 -0.004838 -0.000933 0.000000 0.000000 0.000000
# 2 -0.004838 0.017459 -0.000756 0.000000 0.000000 0.000000
# 3 -0.000933 -0.000756 0.013687 0.000000 0.000000 0.000000
# 4 0.000000 0.000000 0.000000 0.062677 0.000000 0.000000
# 5 0.000000 0.000000 0.000000 0.000000 0.036095 0.000000
# 6 0.000000 0.000000 0.000000 0.000000 0.000000 0.038233
#
#
# Mechanical properties :
#
#
# Convention : Reuss Voigt Hill
#
# Bulk Modulus (GPa) = 29.34626 29.44018 29.39322
# Shear Modulus (GPa) = 23.97582 25.66057 24.81820
#
# Velocity S-wave (km/s) = 3.36019 3.47625 3.41871
# Velocity P-wave (km/s) = 5.37350 5.47509 5.42453
#
# Compressibility (1/GPa) = 0.03407589
#
# Stress axis : x y z
#
# Youngs Moduli (GPa) = 62.57124 57.27850 73.06004
#
# Poissons Ratio (x) = 0.27709 0.06814
# Poissons Ratio (y) = 0.30269 0.05521
# Poissons Ratio (z) = 0.05836 0.04328
#
# Static dielectric constant tensor:
#      x y z
#    x 1.729350 0.000000 0.000000 
#    y 0.000000 1.839360 0.000000 
#    z 0.000000 0.000000 1.826390 
# 
# From -- ./inp_files/6702.got.cif
#   From: 2010.05.17/outbox.cif.g08.bks.cpg/sg17_4_cif.got.tgz:6702.got - 2010.06.03 22:34:06.
