data_PCOD9311744
_publ_section_title
;
Structure prediction by ZEFSAII (Michael W. Deem and Ramdas Pophale) SiO2 
 PCOD9311744
Probable space group: P 21 21 2
;
_chemical_formula_sum "Si O2"
_cell_formula_units_Z 26
_cell_length_a 14.680284
_cell_length_b 10.550449
_cell_length_c 8.886965
_cell_angle_alpha 90.000000
_cell_angle_beta 90.000000
_cell_angle_gamma 90.000000
_cell_volume 1376.445022
_symmetry_space_group_name_H-M "P 21 21 2"
_symmetry_group_IT_number 18
_symmetry_cell_setting 'orthorhombic'
loop_
_space_group_symop_operation_xyz
x,y,z
-x,-y,z
1/2+x,1/2-y,-z
1/2-x,1/2+y,-z
loop_
_atom_site_type_symbol
_atom_site_label
_atom_site_fract_x
_atom_site_fract_y
_atom_site_fract_z
Si Si1 0.000000 0.000000 0.899138
Si Si2 0.910464 0.819345 0.684414
Si Si3 0.246123 0.077552 0.135462
Si Si4 0.953539 0.237401 0.109588
Si Si5 0.754394 0.712935 0.881370
Si Si6 0.073228 0.113733 0.341009
Si Si7 0.049767 0.627963 0.806587
O O1 0.923032 0.943421 0.789277
O O2 0.035162 0.889956 0.008593
O O3 0.826874 0.739030 0.750499
O O4 0.902652 0.849445 0.510260
O O5 0.003115 0.741127 0.715386
O O6 0.163207 0.072871 0.251639
O O7 0.342119 0.117277 0.209245
O O8 0.224554 0.186393 0.013398
O O9 0.259449 0.934892 0.071708
O O10 0.849721 0.241474 0.164808
O O11 0.024547 0.224902 0.244536
O O12 0.030991 0.654942 0.984367
O O13 0.000000 0.000000 0.345062
O O14 0.000000 0.500000 0.761493
#
# Coordination Sequence:
#
# PCOD9311744 Si02
#       7
#     2   4   4   4   4   4   4
#     4  10  18  38  62  94 112 170 216 260 302 378
#     4  11  23  37  63  90 132 167 209 255 330 390
#     4  11  23  40  69  96 126 166 217 275 318 381
#     4  10  20  36  67  88 120 159 214 264 303 368
#     4  11  21  40  65  98 125 163 217 266 320 379
#     4  12  23  41  61  93 131 168 210 261 320 392
#     4  10  21  40  63  89 123 165 211 267 320 371
#
# _framework density 18.889239
#
# number of rings (size 3 to 8) (size 9 to 14) (size 15 to 20)
#    0.000    1.231    4.615    2.769    0.000    1.231 
#    0.000    0.769    0.000    0.000    0.000    0.000 
#    0.000    0.000    0.000    0.000    0.000    0.000 
#
# Total GULP energy -145150.604542 kJ/mol
# GULP energy per Si atom -5582.715559 kJ/mol
# Density = 1.884625 g / cm^3
# Si number density = 18.889239 Si / 1000 Ang^3
#
#
#
# Elastic Constant Matrix: (Units=GPa)
#
#
# Indices 1 2 3 4 5 6 
#
# 1 88.7893 32.5988 61.8499 0.0000 0.0000 0.0000
# 2 32.5988 81.8451 42.1287 0.0000 0.0000 0.0000
# 3 61.8499 42.1287 105.8563 0.0000 0.0000 0.0000
# 4 0.0000 0.0000 0.0000 19.5334 0.0000 0.0000
# 5 0.0000 0.0000 0.0000 0.0000 13.5873 0.0000
# 6 0.0000 0.0000 0.0000 0.0000 0.0000 24.0182
#
#
#
# Elastic Compliance Matrix: (Units=1/GPa)
#
#
# Indices 1 2 3 4 5 6 
#
# 1 0.019353 -0.002374 -0.010363 0.000000 0.000000 0.000000
# 2 -0.002374 0.015657 -0.004844 0.000000 0.000000 0.000000
# 3 -0.010363 -0.004844 0.017429 0.000000 0.000000 0.000000
# 4 0.000000 0.000000 0.000000 0.051194 0.000000 0.000000
# 5 0.000000 0.000000 0.000000 0.000000 0.073598 0.000000
# 6 0.000000 0.000000 0.000000 0.000000 0.000000 0.041635
#
#
# Mechanical properties :
#
#
# Convention : Reuss Voigt Hill
#
# Bulk Modulus (GPa) = 57.87838 61.07173 59.47505
# Shear Modulus (GPa) = 19.24647 20.75534 20.00090
#
# Velocity S-wave (km/s) = 3.19550 3.31840 3.25753
# Velocity P-wave (km/s) = 6.65751 6.86178 6.76042
#
# Compressibility (1/GPa) = 0.01727761
#
# Stress axis : x y z
#
# Youngs Moduli (GPa) = 51.67205 63.86812 57.37455
#
# Poissons Ratio (x) = 0.15163 0.59455
# Poissons Ratio (y) = 0.12268 0.27793
# Poissons Ratio (z) = 0.53546 0.30938
#
# Static dielectric constant tensor:
#      x y z
#    x 1.666400 0.000000 0.000000 
#    y 0.000000 1.690440 0.000000 
#    z 0.000000 0.000000 1.627520 
# 
# From -- ./inp_files/3859.got.cif
#   From: 2010.05.17/outbox.cif.g08.bks.cpg/sg18_2_cif.got.tgz:3859.got - 2010.06.03 22:40:56.
