data_PCOD9311382
_publ_section_title
;
Structure prediction by ZEFSAII (Michael W. Deem and Ramdas Pophale) SiO2 
 PCOD9311382
Probable space group: P 2 2 21
;
_chemical_formula_sum "Si O2"
_cell_formula_units_Z 28
_cell_length_a 6.901941
_cell_length_b 22.690902
_cell_length_c 7.852894
_cell_angle_alpha 90.000000
_cell_angle_beta 90.000000
_cell_angle_gamma 90.000000
_cell_volume 1229.851678
_symmetry_space_group_name_H-M "P 2 2 21"
_symmetry_group_IT_number 17
_symmetry_cell_setting 'orthorhombic'
loop_
_space_group_symop_operation_xyz
x,y,z
-x,-y,1/2+z
x,-y,-z
-x,y,1/2-z
loop_
_atom_site_type_symbol
_atom_site_label
_atom_site_fract_x
_atom_site_fract_y
_atom_site_fract_z
Si Si1 0.197409 0.175481 0.883179
Si Si2 0.361933 0.437263 0.413292
Si Si3 0.642293 0.194363 0.974004
Si Si4 0.302590 0.324519 0.616821
Si Si5 0.000000 0.614588 0.750000
Si Si6 0.857707 0.305637 0.525996
Si Si7 0.861933 0.062737 0.413292
Si Si8 0.500000 0.885412 0.750000
O O1 0.428547 0.173769 0.918089
O O2 0.134840 0.234848 0.982332
O O3 0.106885 0.116329 0.955807
O O4 0.798012 0.183075 0.822463
O O5 0.392256 0.500000 0.500000
O O6 0.500000 0.432539 0.250000
O O7 0.393115 0.383671 0.544193
O O8 0.139080 0.427742 0.357323
O O9 0.650842 0.157759 0.148649
O O10 0.634840 0.265152 0.982331
O O11 0.701988 0.316925 0.677538
O O12 0.071453 0.326231 0.581911
O O13 0.849157 0.657759 0.648649
O O14 0.639080 0.072258 0.357323
O O15 0.000000 0.067461 0.250000
O O16 0.892256 0.000000 0.500000
#
# Coordination Sequence:
#
# PCOD9311382 Si02
#       8
#     4   4   4   4   2   4   4   2
#     4   9  20  38  61  94 134 166 217 272 331 404
#     4  11  27  45  64  96 129 180 227 275 330 402
#     4   9  19  36  62 100 126 171 211 271 349 387
#     4   9  20  38  61  94 134 166 217 272 331 404
#     4  10  24  42  70  96 130 176 220 284 330 404
#     4   9  19  36  62 100 126 171 211 271 349 387
#     4  11  27  45  64  96 129 180 227 275 330 402
#     4  10  24  42  70  96 130 176 220 284 330 404
#
# _framework density 22.766971000000002
#
# number of rings (size 3 to 8) (size 9 to 14) (size 15 to 20)
#    0.000    2.286    0.000    0.000    6.000   10.286 
#    5.143    0.000    0.000    0.000    0.000    0.000 
#    0.000    0.000    0.000    0.000    0.000    0.000 
#
# Total GULP energy -156235.972835 kJ/mol
# GULP energy per Si atom -5579.856173 kJ/mol
# Density = 2.271515 g / cm^3
# Si number density = 22.766971 Si / 1000 Ang^3
#
#
#
# Elastic Constant Matrix: (Units=GPa)
#
#
# Indices 1 2 3 4 5 6 
#
# 1 47.1890 42.3852 17.1852 0.0000 0.0000 0.0000
# 2 42.3852 199.4745 74.0435 0.0000 0.0000 0.0000
# 3 17.1852 74.0435 75.3285 0.0000 0.0000 0.0000
# 4 0.0000 0.0000 0.0000 33.5134 0.0000 0.0000
# 5 0.0000 0.0000 0.0000 0.0000 51.1252 0.0000
# 6 0.0000 0.0000 0.0000 0.0000 0.0000 32.2581
#
#
#
# Elastic Compliance Matrix: (Units=1/GPa)
#
#
# Indices 1 2 3 4 5 6 
#
# 1 0.026220 -0.005276 -0.000796 0.000000 0.000000 0.000000
# 2 -0.005276 0.008955 -0.007598 0.000000 0.000000 0.000000
# 3 -0.000796 -0.007598 0.020925 0.000000 0.000000 0.000000
# 4 0.000000 0.000000 0.000000 0.029839 0.000000 0.000000
# 5 0.000000 0.000000 0.000000 0.000000 0.019560 0.000000
# 6 0.000000 0.000000 0.000000 0.000000 0.000000 0.031000
#
#
# Mechanical properties :
#
#
# Convention : Reuss Voigt Hill
#
# Bulk Modulus (GPa) = 34.77042 65.46886 50.11964
# Shear Modulus (GPa) = 28.83084 35.93788 32.38436
#
# Velocity S-wave (km/s) = 3.56243 3.97736 3.77560
# Velocity P-wave (km/s) = 5.67686 7.06477 6.40850
#
# Compressibility (1/GPa) = 0.02876008
#
# Stress axis : x y z
#
# Youngs Moduli (GPa) = 38.13872 111.67386 47.78884
#
# Poissons Ratio (x) = 0.58919 0.03803
# Poissons Ratio (y) = 0.20122 0.36311
# Poissons Ratio (z) = 0.03035 0.84853
#
# Static dielectric constant tensor:
#      x y z
#    x 1.934870 0.000000 0.000000 
#    y 0.000000 1.774180 0.000000 
#    z 0.000000 0.000000 2.053810 
# 
# From -- ./inp_files/6082.got.cif
#   From: 2010.05.17/outbox.cif.g08.bks.cpg/sg17_4_cif.got.tgz:6082.got - 2010.06.03 22:34:06.
