data_PCOD9311648
_publ_section_title
;
Structure prediction by ZEFSAII (Michael W. Deem and Ramdas Pophale) SiO2 
 PCOD9311648
Probable space group: P 21 21 2
;
_chemical_formula_sum "Si O2"
_cell_formula_units_Z 30
_cell_length_a 15.335478
_cell_length_b 4.997634
_cell_length_c 20.921531
_cell_angle_alpha 90.000000
_cell_angle_beta 90.000000
_cell_angle_gamma 90.000000
_cell_volume 1603.449280
_symmetry_space_group_name_H-M "P 21 21 2"
_symmetry_group_IT_number 18
_symmetry_cell_setting 'orthorhombic'
loop_
_space_group_symop_operation_xyz
x,y,z
-x,-y,z
1/2+x,1/2-y,-z
1/2-x,1/2+y,-z
loop_
_atom_site_type_symbol
_atom_site_label
_atom_site_fract_x
_atom_site_fract_y
_atom_site_fract_z
Si Si1 0.277032 0.207626 0.581817
Si Si2 0.370117 0.028367 0.350894
Si Si3 0.204612 0.505808 0.028638
Si Si4 0.000000 0.500000 0.536726
Si Si5 0.407751 0.129517 0.079050
Si Si6 0.596595 0.458519 0.266239
Si Si7 0.358948 0.696645 0.536710
Si Si8 0.818739 0.866128 0.864366
O O1 0.220270 0.374754 0.632948
O O2 0.356535 0.401366 0.564270
O O3 0.208958 0.190238 0.522801
O O4 0.317138 0.911691 0.586375
O O5 0.418646 0.792809 0.312738
O O6 0.423374 0.101914 0.415402
O O7 0.369389 0.290732 0.307354
O O8 0.227244 0.553681 0.102542
O O9 0.272681 0.704186 0.991767
O O10 0.114583 0.591632 0.995986
O O11 0.050392 0.291796 0.492370
O O12 0.387420 0.429429 0.101276
O O13 0.500000 0.000000 0.094158
O O14 0.340369 0.937104 0.116572
O O15 0.500000 0.500000 0.237022
O O16 0.664971 0.399192 0.210357
#
# Coordination Sequence:
#
# PCOD9311648 Si02
#       8
#     4   4   4   2   4   4   4   4
#     4   9  18  33  46  66  91 123 151 185 231 280
#     4  11  22  34  48  67 100 131 157 193 228 275
#     4   8  16  29  44  63  90 124 153 193 241 276
#     4  10  20  34  50  74 100 122 156 196 236 272
#     4  10  17  29  47  69  93 124 157 202 248 277
#     4  12  21  32  45  68  93 133 169 191 221 270
#     4   9  18  30  50  68  90 118 150 188 235 279
#     4  10  20  31  45  65  99 130 163 191 225 284
#
# _framework density 18.709665000000001
#
# number of rings (size 3 to 8) (size 9 to 14) (size 15 to 20)
#    0.000    2.133    1.333    2.800    0.000    4.800 
#    0.000    0.000    0.000    0.000    0.000    0.000 
#   12.000    0.000    0.000    0.000    0.000    0.000 
#
# Total GULP energy -167124.013831 kJ/mol
# GULP energy per Si atom -5570.800461 kJ/mol
# Density = 1.866708 g / cm^3
# Si number density = 18.709665 Si / 1000 Ang^3
#
#
#
# Elastic Constant Matrix: (Units=GPa)
#
#
# Indices 1 2 3 4 5 6 
#
# 1 24.0182 -2.5242 9.0282 0.0000 0.0000 0.0000
# 2 -2.5242 81.2925 0.7017 0.0000 0.0000 0.0000
# 3 9.0282 0.7017 39.8745 0.0000 0.0000 0.0000
# 4 0.0000 0.0000 0.0000 14.0412 0.0000 0.0000
# 5 0.0000 0.0000 0.0000 0.0000 7.8818 0.0000
# 6 0.0000 0.0000 0.0000 0.0000 0.0000 19.1652
#
#
#
# Elastic Compliance Matrix: (Units=1/GPa)
#
#
# Indices 1 2 3 4 5 6 
#
# 1 0.045692 0.001508 -0.010372 0.000000 0.000000 0.000000
# 2 0.001508 0.012353 -0.000559 0.000000 0.000000 0.000000
# 3 -0.010372 -0.000559 0.027437 0.000000 0.000000 0.000000
# 4 0.000000 0.000000 0.000000 0.071219 0.000000 0.000000
# 5 0.000000 0.000000 0.000000 0.000000 0.126874 0.000000
# 6 0.000000 0.000000 0.000000 0.000000 0.000000 0.052178
#
#
# Mechanical properties :
#
#
# Convention : Reuss Voigt Hill
#
# Bulk Modulus (GPa) = 15.00665 17.73294 16.36979
# Shear Modulus (GPa) = 13.26926 17.41628 15.34277
#
# Velocity S-wave (km/s) = 2.66601 3.05433 2.86675
# Velocity P-wave (km/s) = 4.18509 4.68370 4.44140
#
# Compressibility (1/GPa) = 0.06663712
#
# Stress axis : x y z
#
# Youngs Moduli (GPa) = 21.88549 80.95250 36.44733
#
# Poissons Ratio (x) = -0.12210 0.37803
# Poissons Ratio (y) = -0.03301 0.02037
# Poissons Ratio (z) = 0.22699 0.04524
#
# Static dielectric constant tensor:
#      x y z
#    x 1.700620 0.000000 0.000000 
#    y 0.000000 1.665860 0.000000 
#    z 0.000000 0.000000 1.695730 
# 
# From -- ./inp_files/7595.got.cif
#   From: 2010.05.17/outbox.cif.g08.bks.cpg/sg18_4_cif.got.tgz:7595.got - 2010.06.03 22:40:56.
