data_PCOD9311208
_publ_section_title
;
Structure prediction by ZEFSAII (Michael W. Deem and Ramdas Pophale) SiO2 
 PCOD9311208
Probable space group: P 2 2 21
;
_chemical_formula_sum "Si O2"
_cell_formula_units_Z 20
_cell_length_a 10.920157
_cell_length_b 6.077894
_cell_length_c 14.029086
_cell_angle_alpha 90.000000
_cell_angle_beta 90.000000
_cell_angle_gamma 90.000000
_cell_volume 931.132277
_symmetry_space_group_name_H-M "P 2 2 21"
_symmetry_group_IT_number 17
_symmetry_cell_setting 'orthorhombic'
loop_
_space_group_symop_operation_xyz
x,y,z
-x,-y,1/2+z
x,-y,-z
-x,y,1/2-z
loop_
_atom_site_type_symbol
_atom_site_label
_atom_site_fract_x
_atom_site_fract_y
_atom_site_fract_z
Si Si1 0.482254 0.862559 0.357803
Si Si2 0.340891 0.247432 0.263171
Si Si3 0.709439 0.403815 0.603333
Si Si4 0.247129 0.611493 0.405793
Si Si5 0.137793 0.122571 0.755493
O O1 0.500000 0.763435 0.250000
O O2 0.607922 0.791456 0.406987
O O3 0.371369 0.755011 0.415881
O O4 0.441256 0.109396 0.327677
O O5 0.351565 0.402599 0.168840
O O6 0.285637 0.414452 0.338047
O O7 0.240627 0.064143 0.236939
O O8 0.740852 0.500000 0.500000
O O9 0.822814 0.298940 0.662904
O O10 0.199068 0.500000 0.500000
O O11 0.156397 0.761112 0.346430
O O12 0.000000 0.038241 0.750000
#
# Coordination Sequence:
#
# PCOD9311208 Si02
#       5
#     4   4   4   4   4
#     4  11  20  38  59  92 123 162 197 240 298 376
#     4  10  22  40  63  83 129 162 202 248 317 360
#     4  11  24  42  63  95 127 163 208 257 309 366
#     4  10  22  40  63  91 121 160 203 252 304 365
#     4  10  23  42  62  88 120 161 213 257 309 366
#
# _framework density 21.479225
#
# number of rings (size 3 to 8) (size 9 to 14) (size 15 to 20)
#    0.000    1.600    6.000    0.600    2.800    8.000 
#    3.600    2.000    0.000    0.000    0.000    0.000 
#    0.000    0.000    0.000    0.000    0.000    0.000 
#
# Total GULP energy -111351.544207 kJ/mol
# GULP energy per Si atom -5567.577210 kJ/mol
# Density = 2.143034 g / cm^3
# Si number density = 21.479225 Si / 1000 Ang^3
#
#
#
# Elastic Constant Matrix: (Units=GPa)
#
#
# Indices 1 2 3 4 5 6 
#
# 1 25.1216 11.1676 -3.3010 0.0000 0.0000 0.0000
# 2 11.1676 98.7776 16.0242 0.0000 0.0000 0.0000
# 3 -3.3010 16.0242 75.9042 0.0000 0.0000 0.0000
# 4 0.0000 0.0000 0.0000 1.7844 0.0000 0.0000
# 5 0.0000 0.0000 0.0000 0.0000 11.3567 0.0000
# 6 0.0000 0.0000 0.0000 0.0000 0.0000 13.1729
#
#
#
# Elastic Compliance Matrix: (Units=1/GPa)
#
#
# Indices 1 2 3 4 5 6 
#
# 1 0.042549 -0.005292 0.002968 0.000000 0.000000 0.000000
# 2 -0.005292 0.011141 -0.002582 0.000000 0.000000 0.000000
# 3 0.002968 -0.002582 0.013849 0.000000 0.000000 0.000000
# 4 0.000000 0.000000 0.000000 0.560410 0.000000 0.000000
# 5 0.000000 0.000000 0.000000 0.000000 0.088054 0.000000
# 6 0.000000 0.000000 0.000000 0.000000 0.000000 0.075914
#
#
# Mechanical properties :
#
#
# Convention : Reuss Voigt Hill
#
# Bulk Modulus (GPa) = 17.32336 27.50946 22.41641
# Shear Modulus (GPa) = 6.09035 16.99030 11.54033
#
# Velocity S-wave (km/s) = 1.68571 2.81554 2.32044
# Velocity P-wave (km/s) = 3.44550 4.83787 4.19979
#
# Compressibility (1/GPa) = 0.05772554
#
# Stress axis : x y z
#
# Youngs Moduli (GPa) = 23.50240 89.75911 72.20911
#
# Poissons Ratio (x) = 0.47500 -0.21429
# Poissons Ratio (y) = 0.12437 0.18645
# Poissons Ratio (z) = -0.06975 0.23177
#
# Static dielectric constant tensor:
#      x y z
#    x 1.846480 0.000000 0.000000 
#    y 0.000000 1.884440 0.000000 
#    z 0.000000 0.000000 1.816840 
# 
# From -- ./inp_files/7615.got.cif
#   From: 2010.05.17/outbox.cif.g08.bks.cpg/sg17_4_cif.got.tgz:7615.got - 2010.06.03 22:34:06.
