data_PCOD9311238
_publ_section_title
;
Structure prediction by ZEFSAII (Michael W. Deem and Ramdas Pophale) SiO2 
 PCOD9311238
Probable space group: P 2 2 21
;
_chemical_formula_sum "Si O2"
_cell_formula_units_Z 32
_cell_length_a 8.858860
_cell_length_b 5.120093
_cell_length_c 32.685827
_cell_angle_alpha 90.000000
_cell_angle_beta 90.000000
_cell_angle_gamma 90.000000
_cell_volume 1482.569856
_symmetry_space_group_name_H-M "P 2 2 21"
_symmetry_group_IT_number 17
_symmetry_cell_setting 'orthorhombic'
loop_
_space_group_symop_operation_xyz
x,y,z
-x,-y,1/2+z
x,-y,-z
-x,y,1/2-z
loop_
_atom_site_type_symbol
_atom_site_label
_atom_site_fract_x
_atom_site_fract_y
_atom_site_fract_z
Si Si1 0.940789 0.326305 0.145037
Si Si2 0.329222 0.520059 0.263434
Si Si3 0.160155 0.988954 0.103140
Si Si4 0.274660 0.548625 0.581191
Si Si5 0.114294 0.929111 0.453365
Si Si6 0.556023 0.251688 0.375950
Si Si7 0.300110 0.018050 0.317619
Si Si8 0.202298 0.587507 0.176593
O O1 0.817082 0.503433 0.123365
O O2 0.852171 0.066533 0.157136
O O3 0.070520 0.256289 0.112675
O O4 0.040217 0.445773 0.180442
O O5 0.500000 0.484079 0.250000
O O6 0.318395 0.738425 0.298085
O O7 0.284560 0.241553 0.282517
O O8 0.250003 0.632383 0.222947
O O9 0.333062 0.072700 0.096447
O O10 0.045758 0.870186 0.069754
O O11 0.172023 0.824064 0.145218
O O12 0.206092 0.824314 0.565646
O O13 0.447653 0.579090 0.594649
O O14 0.224487 0.319074 0.551350
O O15 0.081644 0.000000 0.500000
O O16 0.441744 0.088698 0.346904
O O17 0.664309 0.418095 0.345466
#
# Coordination Sequence:
#
# PCOD9311238 Si02
#       8
#     4   4   4   4   4   4   4   4
#     4   9  22  40  62  92 124 167 223 268 318 391
#     4  12  25  40  60  86 126 170 221 276 338 380
#     4  10  22  41  67  97 128 172 220 268 325 402
#     4  10  22  42  70 100 128 170 224 261 320 403
#     4  11  23  44  72  99 137 172 208 264 337 404
#     4  10  23  40  69  95 125 177 223 277 322 394
#     4  11  25  42  62  89 125 173 221 276 330 384
#     4  11  22  40  63  88 129 170 218 277 329 386
#
# _framework density 21.584142
#
# number of rings (size 3 to 8) (size 9 to 14) (size 15 to 20)
#    0.000    1.500    2.500    1.500    7.000    2.500 
#    0.000    0.625    2.750    0.000    0.000    0.000 
#    0.000    0.000    0.000    0.000    0.000    0.000 
#
# Total GULP energy -178538.364997 kJ/mol
# GULP energy per Si atom -5579.323906 kJ/mol
# Density = 2.153502 g / cm^3
# Si number density = 21.584142 Si / 1000 Ang^3
#
#
#
# Elastic Constant Matrix: (Units=GPa)
#
#
# Indices 1 2 3 4 5 6 
#
# 1 128.0984 13.6618 23.0210 0.0000 0.0000 0.0000
# 2 13.6618 64.9894 6.7086 0.0000 0.0000 0.0000
# 3 23.0210 6.7086 72.2658 0.0000 0.0000 0.0000
# 4 0.0000 0.0000 0.0000 28.5636 0.0000 0.0000
# 5 0.0000 0.0000 0.0000 0.0000 28.2571 0.0000
# 6 0.0000 0.0000 0.0000 0.0000 0.0000 21.1070
#
#
#
# Elastic Compliance Matrix: (Units=1/GPa)
#
#
# Indices 1 2 3 4 5 6 
#
# 1 0.008425 -0.001508 -0.002544 0.000000 0.000000 0.000000
# 2 -0.001508 0.015806 -0.000987 0.000000 0.000000 0.000000
# 3 -0.002544 -0.000987 0.014740 0.000000 0.000000 0.000000
# 4 0.000000 0.000000 0.000000 0.035010 0.000000 0.000000
# 5 0.000000 0.000000 0.000000 0.000000 0.035389 0.000000
# 6 0.000000 0.000000 0.000000 0.000000 0.000000 0.047378
#
#
# Mechanical properties :
#
#
# Convention : Reuss Voigt Hill
#
# Bulk Modulus (GPa) = 34.61101 39.12629 36.86865
# Shear Modulus (GPa) = 28.33576 30.38301 29.35939
#
# Velocity S-wave (km/s) = 3.62720 3.75594 3.69213
# Velocity P-wave (km/s) = 5.79761 6.08080 5.94089
#
# Compressibility (1/GPa) = 0.02889254
#
# Stress axis : x y z
#
# Youngs Moduli (GPa) = 118.70132 63.26685 67.84390
#
# Poissons Ratio (x) = 0.09543 0.17257
# Poissons Ratio (y) = 0.17905 0.06695
# Poissons Ratio (z) = 0.30194 0.06243
#
# Static dielectric constant tensor:
#      x y z
#    x 1.817270 0.000000 0.000000 
#    y 0.000000 1.854860 0.000000 
#    z 0.000000 0.000000 1.822330 
# 
# From -- ./inp_files/11250.got.cif
#   From: 2010.05.17/outbox.cif.g08.bks.cpg/sg17_6_cif.got.tgz:11250.got - 2010.06.03 22:34:06.
