data_PCOD9311847
_publ_section_title
;
Structure prediction by ZEFSAII (Michael W. Deem and Ramdas Pophale) SiO2 
 PCOD9311847
Probable space group: P 21 21 2
;
_chemical_formula_sum "Si O2"
_cell_formula_units_Z 20
_cell_length_a 11.661903
_cell_length_b 7.465127
_cell_length_c 9.354983
_cell_angle_alpha 90.000000
_cell_angle_beta 90.000000
_cell_angle_gamma 90.000000
_cell_volume 814.422246
_symmetry_space_group_name_H-M "P 21 21 2"
_symmetry_group_IT_number 18
_symmetry_cell_setting 'orthorhombic'
loop_
_space_group_symop_operation_xyz
x,y,z
-x,-y,z
1/2+x,1/2-y,-z
1/2-x,1/2+y,-z
loop_
_atom_site_type_symbol
_atom_site_label
_atom_site_fract_x
_atom_site_fract_y
_atom_site_fract_z
Si Si1 0.888787 0.226450 0.208054
Si Si2 0.226715 0.107728 0.290234
Si Si3 0.143562 0.139032 0.799046
Si Si4 0.582807 0.744113 0.094593
Si Si5 0.807024 0.504478 0.414545
O O1 0.757166 0.260544 0.151969
O O2 0.893784 0.363386 0.340618
O O3 0.878234 0.021489 0.253290
O O4 0.958377 0.276819 0.067478
O O5 0.313304 0.144651 0.160401
O O6 0.182700 0.297661 0.351106
O O7 0.298968 0.011919 0.416762
O O8 0.182045 0.062953 0.644904
O O9 0.029129 0.253193 0.805494
O O10 0.122862 0.963315 0.894838
#
# Coordination Sequence:
#
# PCOD9311847 Si02
#       5
#     4   4   4   4   4
#     4  10  20  35  60  87 116 162 197 241 295 354
#     4  11  19  34  62  85 117 156 200 244 292 360
#     4   8  19  36  56  85 120 148 205 235 301 350
#     4  10  19  35  61  85 119 159 194 249 295 350
#     4   9  19  36  56  86 115 156 202 240 300 352
#
# _framework density 24.557286000000001
#
# number of rings (size 3 to 8) (size 9 to 14) (size 15 to 20)
#    1.200    1.200    2.000    1.200    0.000    0.800 
#    0.000    0.000   13.200    0.000    5.200    0.000 
#    0.000    0.000    0.000    0.000    0.000    0.000 
#
# Total GULP energy -111631.999692 kJ/mol
# GULP energy per Si atom -5581.599985 kJ/mol
# Density = 2.450139 g / cm^3
# Si number density = 24.557286 Si / 1000 Ang^3
#
#
#
# Elastic Constant Matrix: (Units=GPa)
#
#
# Indices 1 2 3 4 5 6 
#
# 1 64.1125 19.3315 -1.6683 0.0000 0.0000 0.0000
# 2 19.3315 113.0970 24.0255 0.0000 0.0000 0.0000
# 3 -1.6683 24.0255 126.0101 0.0000 0.0000 0.0000
# 4 0.0000 0.0000 0.0000 28.0517 0.0000 0.0000
# 5 0.0000 0.0000 0.0000 0.0000 16.3775 0.0000
# 6 0.0000 0.0000 0.0000 0.0000 0.0000 11.2000
#
#
#
# Elastic Compliance Matrix: (Units=1/GPa)
#
#
# Indices 1 2 3 4 5 6 
#
# 1 0.016520 -0.002991 0.000789 0.000000 0.000000 0.000000
# 2 -0.002991 0.009757 -0.001900 0.000000 0.000000 0.000000
# 3 0.000789 -0.001900 0.008309 0.000000 0.000000 0.000000
# 4 0.000000 0.000000 0.000000 0.035648 0.000000 0.000000
# 5 0.000000 0.000000 0.000000 0.000000 0.061059 0.000000
# 6 0.000000 0.000000 0.000000 0.000000 0.000000 0.089286
#
#
# Mechanical properties :
#
#
# Convention : Reuss Voigt Hill
#
# Bulk Modulus (GPa) = 37.90588 42.95522 40.43055
# Shear Modulus (GPa) = 21.04576 28.56121 24.80349
#
# Velocity S-wave (km/s) = 2.93064 3.41404 3.18154
# Velocity P-wave (km/s) = 5.18852 5.75072 5.47684
#
# Compressibility (1/GPa) = 0.02638113
#
# Stress axis : x y z
#
# Youngs Moduli (GPa) = 60.53233 102.49181 120.35782
#
# Poissons Ratio (x) = 0.30659 -0.09497
# Poissons Ratio (y) = 0.18107 0.22867
# Poissons Ratio (z) = -0.04776 0.19472
#
# Static dielectric constant tensor:
#      x y z
#    x 1.980470 0.000000 0.000000 
#    y 0.000000 1.996800 0.000000 
#    z 0.000000 0.000000 1.943280 
# 
# From -- ./inp_files/4436.got.cif
#   From: 2010.05.17/outbox.cif.g08.bks.cpg/sg18_3_cif.got.tgz:4436.got - 2010.06.03 22:40:56.
