data_PCOD9311615
_publ_section_title
;
Structure prediction by ZEFSAII (Michael W. Deem and Ramdas Pophale) SiO2 
 PCOD9311615
Probable space group: P 21 21 2
;
_chemical_formula_sum "Si O2"
_cell_formula_units_Z 28
_cell_length_a 7.831762
_cell_length_b 15.630750
_cell_length_c 8.582832
_cell_angle_alpha 90.000000
_cell_angle_beta 90.000000
_cell_angle_gamma 90.000000
_cell_volume 1050.678656
_symmetry_space_group_name_H-M "P 21 21 2"
_symmetry_group_IT_number 18
_symmetry_cell_setting 'orthorhombic'
loop_
_space_group_symop_operation_xyz
x,y,z
-x,-y,z
1/2+x,1/2-y,-z
1/2-x,1/2+y,-z
loop_
_atom_site_type_symbol
_atom_site_label
_atom_site_fract_x
_atom_site_fract_y
_atom_site_fract_z
Si Si1 0.924365 0.176875 0.319481
Si Si2 0.719261 0.774250 0.191600
Si Si3 0.741253 0.891046 0.915120
Si Si4 0.043780 0.362645 0.296685
Si Si5 0.099623 0.597061 0.587734
Si Si6 0.693992 0.518224 0.812579
Si Si7 0.440793 0.596864 0.378785
O O1 0.109665 0.170923 0.235977
O O2 0.920862 0.278915 0.326204
O O3 0.937418 0.143668 0.496410
O O4 0.797338 0.120284 0.215394
O O5 0.784223 0.678399 0.225203
O O6 0.585868 0.815174 0.311936
O O7 0.690085 0.807765 0.018429
O O8 0.568550 0.914112 0.824378
O O9 0.893536 0.869846 0.794155
O O10 0.791834 0.972556 0.020751
O O11 0.055594 0.406982 0.464500
O O12 0.160275 0.526176 0.710737
O O13 0.262286 0.596853 0.472183
O O14 0.500000 0.500000 0.752283
O O15 0.500000 0.500000 0.358049
#
# Coordination Sequence:
#
# PCOD9311615 Si02
#       7
#     4   4   4   4   4   4   4
#     4   9  16  30  45  63  99 128 150 188 237 297
#     4   8  17  32  45  64 105 125 150 196 241 277
#     4  10  19  27  47  76 102 125 157 196 248 295
#     4   9  19  31  43  72 103 126 166 188 233 312
#     4   9  15  28  48  69  93 127 154 193 241 288
#     4  11  14  29  49  71  97 127 145 201 266 291
#     4  10  15  24  45  73  96 121 151 192 251 295
#
# _framework density 26.649443000000002
#
# number of rings (size 3 to 8) (size 9 to 14) (size 15 to 20)
#    0.857    1.714    5.714    0.429    0.000    0.000 
#    5.143    0.000    0.000    0.000    0.000    6.000 
#    0.000    0.000    0.000    0.000    0.000    0.000 
#
# Total GULP energy -156236.154667 kJ/mol
# GULP energy per Si atom -5579.862667 kJ/mol
# Density = 2.658879 g / cm^3
# Si number density = 26.649443 Si / 1000 Ang^3
#
#
#
# Elastic Constant Matrix: (Units=GPa)
#
#
# Indices 1 2 3 4 5 6 
#
# 1 91.0652 17.6124 26.5894 0.0000 0.0000 0.0000
# 2 17.6124 89.2345 15.1514 0.0000 0.0000 0.0000
# 3 26.5894 15.1514 146.5092 0.0000 0.0000 0.0000
# 4 0.0000 0.0000 0.0000 42.2062 0.0000 0.0000
# 5 0.0000 0.0000 0.0000 0.0000 17.2852 0.0000
# 6 0.0000 0.0000 0.0000 0.0000 0.0000 25.4080
#
#
#
# Elastic Compliance Matrix: (Units=1/GPa)
#
#
# Indices 1 2 3 4 5 6 
#
# 1 0.011945 -0.002025 -0.001958 0.000000 0.000000 0.000000
# 2 -0.002025 0.011750 -0.000848 0.000000 0.000000 0.000000
# 3 -0.001958 -0.000848 0.007269 0.000000 0.000000 0.000000
# 4 0.000000 0.000000 0.000000 0.023693 0.000000 0.000000
# 5 0.000000 0.000000 0.000000 0.000000 0.057853 0.000000
# 6 0.000000 0.000000 0.000000 0.000000 0.000000 0.039358
#
#
# Mechanical properties :
#
#
# Convention : Reuss Voigt Hill
#
# Bulk Modulus (GPa) = 46.94568 49.50168 48.22368
# Shear Modulus (GPa) = 29.65079 34.81026 32.23053
#
# Velocity S-wave (km/s) = 3.33922 3.61810 3.48145
# Velocity P-wave (km/s) = 5.70276 6.00580 5.85624
#
# Compressibility (1/GPa) = 0.02130121
#
# Stress axis : x y z
#
# Youngs Moduli (GPa) = 83.71992 85.10615 137.57841
#
# Poissons Ratio (x) = 0.17234 0.26943
# Poissons Ratio (y) = 0.16953 0.11662
# Poissons Ratio (z) = 0.16395 0.07214
#
# Static dielectric constant tensor:
#      x y z
#    x 2.170500 0.000000 0.000000 
#    y 0.000000 2.265050 0.000000 
#    z 0.000000 0.000000 2.114650 
# 
# From -- ./inp_files/4043.got.cif
#   From: 2010.05.17/outbox.cif.g08.bks.cpg/sg18_3_cif.got.tgz:4043.got - 2010.06.03 22:40:56.
