data_PCOD9311628
_publ_section_title
;
Structure prediction by ZEFSAII (Michael W. Deem and Ramdas Pophale) SiO2 
 PCOD9311628
Probable space group: P 21 21 2
;
_chemical_formula_sum "Si O2"
_cell_formula_units_Z 26
_cell_length_a 8.010863
_cell_length_b 15.969785
_cell_length_c 7.847000
_cell_angle_alpha 90.000000
_cell_angle_beta 90.000000
_cell_angle_gamma 90.000000
_cell_volume 1003.880519
_symmetry_space_group_name_H-M "P 21 21 2"
_symmetry_group_IT_number 18
_symmetry_cell_setting 'orthorhombic'
loop_
_space_group_symop_operation_xyz
x,y,z
-x,-y,z
1/2+x,1/2-y,-z
1/2-x,1/2+y,-z
loop_
_atom_site_type_symbol
_atom_site_label
_atom_site_fract_x
_atom_site_fract_y
_atom_site_fract_z
Si Si1 0.926827 0.766248 0.186161
Si Si2 0.337075 0.837791 0.513999
Si Si3 0.500000 0.000000 0.695929
Si Si4 0.802171 0.145959 0.001316
Si Si5 0.792988 0.370693 0.115065
Si Si6 0.003916 0.594114 0.794479
Si Si7 0.971461 0.097768 0.661934
O O1 0.852982 0.746190 0.371574
O O2 0.030512 0.844609 0.113888
O O3 0.073487 0.697531 0.175322
O O4 0.792264 0.733824 0.045870
O O5 0.418102 0.922443 0.594535
O O6 0.446841 0.835364 0.341891
O O7 0.137683 0.858526 0.511153
O O8 0.637273 0.957897 0.813221
O O9 0.658401 0.094096 0.087011
O O10 0.849264 0.107450 0.822604
O O11 0.632973 0.361705 0.243136
O O12 0.832944 0.384260 0.908296
O O13 0.000000 0.500000 0.722757
O O14 0.000000 0.000000 0.618888
#
# Coordination Sequence:
#
# PCOD9311628 Si02
#       7
#     4   4   2   4   4   4   4
#     4   9  20  38  60  85 114 167 217 264 319 390
#     4  10  21  36  59  90 131 167 211 262 344 394
#     4  10  16  34  58  82 118 170 206 252 312 396
#     4  10  21  39  62  89 124 164 228 279 316 398
#     4  10  19  34  63  85 117 162 220 258 314 379
#     4  11  21  38  61  93 130 171 209 277 344 393
#     4  11  20  35  60  91 118 162 219 275 310 387
#
# _framework density 25.899495000000002
#
# number of rings (size 3 to 8) (size 9 to 14) (size 15 to 20)
#    0.000    1.846    3.077    2.769    0.000    0.000 
#    0.000   14.615    0.000    0.000    0.000    0.000 
#    0.000    0.000    0.000    0.000    0.000    0.000 
#
# Total GULP energy -144801.818404 kJ/mol
# GULP energy per Si atom -5569.300708 kJ/mol
# Density = 2.584055 g / cm^3
# Si number density = 25.899495 Si / 1000 Ang^3
#
#
#
# Elastic Constant Matrix: (Units=GPa)
#
#
# Indices 1 2 3 4 5 6 
#
# 1 145.0359 13.5451 28.4860 0.0000 0.0000 0.0000
# 2 13.5451 38.9642 -1.2803 0.0000 0.0000 0.0000
# 3 28.4860 -1.2803 74.5260 0.0000 0.0000 0.0000
# 4 0.0000 0.0000 0.0000 22.2529 0.0000 0.0000
# 5 0.0000 0.0000 0.0000 0.0000 31.7893 0.0000
# 6 0.0000 0.0000 0.0000 0.0000 0.0000 46.4179
#
#
#
# Elastic Compliance Matrix: (Units=1/GPa)
#
#
# Indices 1 2 3 4 5 6 
#
# 1 0.007747 -0.002792 -0.003009 0.000000 0.000000 0.000000
# 2 -0.002792 0.026685 0.001526 0.000000 0.000000 0.000000
# 3 -0.003009 0.001526 0.014594 0.000000 0.000000 0.000000
# 4 0.000000 0.000000 0.000000 0.044938 0.000000 0.000000
# 5 0.000000 0.000000 0.000000 0.000000 0.031457 0.000000
# 6 0.000000 0.000000 0.000000 0.000000 0.000000 0.021543
#
#
# Mechanical properties :
#
#
# Convention : Reuss Voigt Hill
#
# Bulk Modulus (GPa) = 24.70611 37.78088 31.24350
# Shear Modulus (GPa) = 29.58456 34.61036 32.09746
#
# Velocity S-wave (km/s) = 3.38343 3.65956 3.52420
# Velocity P-wave (km/s) = 4.98231 5.69874 5.35253
#
# Compressibility (1/GPa) = 0.04047582
#
# Stress axis : x y z
#
# Youngs Moduli (GPa) = 129.08973 37.47393 68.51929
#
# Poissons Ratio (x) = 0.10462 0.20617
# Poissons Ratio (y) = 0.36039 -0.10453
# Poissons Ratio (z) = 0.38842 -0.05717
#
# Static dielectric constant tensor:
#      x y z
#    x 2.092410 0.000000 0.000000 
#    y 0.000000 2.522430 0.000000 
#    z 0.000000 0.000000 2.182030 
# 
# From -- ./inp_files/3363.got.cif
#   From: 2010.05.17/outbox.cif.g08.bks.cpg/sg18_2_cif.got.tgz:3363.got - 2010.06.03 22:40:56.
