data_PCOD9311638
_publ_section_title
;
Structure prediction by ZEFSAII (Michael W. Deem and Ramdas Pophale) SiO2 
 PCOD9311638
Probable space group: P 21 21 2
;
_chemical_formula_sum "Si O2"
_cell_formula_units_Z 24
_cell_length_a 23.464593
_cell_length_b 6.993528
_cell_length_c 5.366195
_cell_angle_alpha 90.000000
_cell_angle_beta 90.000000
_cell_angle_gamma 90.000000
_cell_volume 880.594146
_symmetry_space_group_name_H-M "P 21 21 2"
_symmetry_group_IT_number 18
_symmetry_cell_setting 'orthorhombic'
loop_
_space_group_symop_operation_xyz
x,y,z
-x,-y,z
1/2+x,1/2-y,-z
1/2-x,1/2+y,-z
loop_
_atom_site_type_symbol
_atom_site_label
_atom_site_fract_x
_atom_site_fract_y
_atom_site_fract_z
Si Si1 0.500480 0.768249 0.772681
Si Si2 0.287106 0.938299 0.955378
Si Si3 0.834534 0.508112 0.549862
Si Si4 0.952693 0.325933 0.715161
Si Si5 0.662380 0.481089 0.050186
Si Si6 0.614156 0.417744 0.558732
O O1 0.538692 0.709028 0.538764
O O2 0.440063 0.683028 0.694249
O O3 0.500000 0.000000 0.781701
O O4 0.527722 0.717787 0.036291
O O5 0.287615 0.020060 0.237186
O O6 0.221596 0.921100 0.878193
O O7 0.317162 0.053408 0.729670
O O8 0.320650 0.740551 0.000000
O O9 0.891563 0.424935 0.681352
O O10 0.846255 0.731887 0.500592
O O11 0.000000 0.500000 0.705041
O O12 0.640501 0.543687 0.779426
O O13 0.617797 0.503593 0.277596
#
# Coordination Sequence:
#
# PCOD9311638 Si02
#       6
#     4   4   4   4   4   4
#     4  10  17  24  41  66 103 131 154 188 258 323
#     4  10  21  34  51  70 100 137 178 215 252 295
#     4  10  18  30  46  70 100 140 160 205 258 311
#     4  10  17  24  41  66 103 131 154 188 258 323
#     4  10  21  34  51  70 100 137 178 215 252 295
#     4  10  18  30  46  70 100 140 160 205 258 311
#
# _framework density 27.254324
#
# number of rings (size 3 to 8) (size 9 to 14) (size 15 to 20)
#    0.000    2.000    3.333    3.000    9.333    0.000 
#    0.000    0.000    0.000    0.000    0.000    0.000 
#    0.000   20.000    0.000    0.000    0.000    0.000 
#
# Total GULP energy -134107.316374 kJ/mol
# GULP energy per Si atom -5587.804849 kJ/mol
# Density = 2.719229 g / cm^3
# Si number density = 27.254324 Si / 1000 Ang^3
#
#
#
# Elastic Constant Matrix: (Units=GPa)
#
#
# Indices 1 2 3 4 5 6 
#
# 1 120.7556 16.0446 78.7448 0.0000 0.0000 0.0000
# 2 16.0446 101.5866 34.9426 0.0000 0.0000 0.0000
# 3 78.7448 34.9426 300.9766 0.0000 0.0000 0.0000
# 4 0.0000 0.0000 0.0000 34.2244 0.0000 0.0000
# 5 0.0000 0.0000 0.0000 0.0000 60.8757 0.0000
# 6 0.0000 0.0000 0.0000 0.0000 0.0000 30.6739
#
#
#
# Elastic Compliance Matrix: (Units=1/GPa)
#
#
# Indices 1 2 3 4 5 6 
#
# 1 0.010034 -0.000710 -0.002543 0.000000 0.000000 0.000000
# 2 -0.000710 0.010304 -0.001010 0.000000 0.000000 0.000000
# 3 -0.002543 -0.001010 0.004105 0.000000 0.000000 0.000000
# 4 0.000000 0.000000 0.000000 0.029219 0.000000 0.000000
# 5 0.000000 0.000000 0.000000 0.000000 0.016427 0.000000
# 6 0.000000 0.000000 0.000000 0.000000 0.000000 0.032601
#
#
# Mechanical properties :
#
#
# Convention : Reuss Voigt Hill
#
# Bulk Modulus (GPa) = 62.83067 86.97589 74.90328
# Shear Modulus (GPa) = 42.91084 51.39392 47.15238
#
# Velocity S-wave (km/s) = 3.97225 4.34719 4.16395
# Velocity P-wave (km/s) = 6.64394 7.56171 7.11763
#
# Compressibility (1/GPa) = 0.01591579
#
# Stress axis : x y z
#
# Youngs Moduli (GPa) = 99.66506 97.05415 243.60158
#
# Poissons Ratio (x) = 0.06892 0.61940
# Poissons Ratio (y) = 0.07077 0.24614
# Poissons Ratio (z) = 0.25341 0.09807
#
# Static dielectric constant tensor:
#      x y z
#    x 2.031360 0.000000 0.000000 
#    y 0.000000 2.110460 0.000000 
#    z 0.000000 0.000000 2.138960 
# 
# From -- ./inp_files/1956.got.cif
#   From: 2010.05.17/outbox.cif.g08.bks.cpg/sg18_1_cif.got.tgz:1956.got - 2010.06.03 22:40:56.
