data_PCOD9311426
_publ_section_title
;
Structure prediction by ZEFSAII (Michael W. Deem and Ramdas Pophale) SiO2 
 PCOD9311426
Probable space group: P 2 2 21
;
_chemical_formula_sum "Si O2"
_cell_formula_units_Z 12
_cell_length_a 11.793778
_cell_length_b 8.152815
_cell_length_c 5.322068
_cell_angle_alpha 90.000000
_cell_angle_beta 90.000000
_cell_angle_gamma 90.000000
_cell_volume 511.730091
_symmetry_space_group_name_H-M "P 2 2 21"
_symmetry_group_IT_number 17
_symmetry_cell_setting 'orthorhombic'
loop_
_space_group_symop_operation_xyz
x,y,z
-x,-y,1/2+z
x,-y,-z
-x,y,1/2-z
loop_
_atom_site_type_symbol
_atom_site_label
_atom_site_fract_x
_atom_site_fract_y
_atom_site_fract_z
Si Si1 0.684424 0.000000 0.500000
Si Si2 0.633328 0.500000 0.000000
Si Si3 0.216511 0.500000 0.000000
Si Si4 0.500000 0.772572 0.250000
Si Si5 0.894936 0.825769 0.596298
O O1 0.602817 0.119670 0.648573
O O2 0.772170 0.099984 0.319965
O O3 0.708357 0.477346 0.250069
O O4 0.552671 0.655372 0.040167
O O5 0.145066 0.334326 0.944150
O O6 0.000000 0.757625 0.750000
O O7 0.945270 0.000000 0.500000
#
# Coordination Sequence:
#
# PCOD9311426 Si02
#       5
#     2   2   2   2   4
#     4  10  26  46  70 124 154 226 266 348 410 508
#     4  12  27  49  80 120 168 215 269 342 412 504
#     4  12  27  53  80 122 160 217 279 338 416 492
#     4  12  26  42  86 114 180 208 284 334 434 492
#     4  10  25  48  76 111 159 210 278 334 412 481
#
# _framework density 23.449859
#
# number of rings (size 3 to 8) (size 9 to 14) (size 15 to 20)
#    1.000    0.000    3.333    1.000    4.667    8.000 
#    0.000    0.000    0.000    0.000    0.000    0.000 
#    0.000    0.000    0.000    0.000    0.000    0.000 
#
# Total GULP energy -66838.814466 kJ/mol
# GULP energy per Si atom -5569.901206 kJ/mol
# Density = 2.339649 g / cm^3
# Si number density = 23.449859 Si / 1000 Ang^3
#
#
#
# Elastic Constant Matrix: (Units=GPa)
#
#
# Indices 1 2 3 4 5 6 
#
# 1 169.4114 51.0956 60.3425 0.0000 0.0000 0.0000
# 2 51.0956 145.5902 30.4806 0.0000 0.0000 0.0000
# 3 60.3425 30.4806 100.7422 0.0000 0.0000 0.0000
# 4 0.0000 0.0000 0.0000 25.4815 0.0000 0.0000
# 5 0.0000 0.0000 0.0000 0.0000 45.7979 0.0000
# 6 0.0000 0.0000 0.0000 0.0000 0.0000 -11.8659
#
#
#
# Elastic Compliance Matrix: (Units=1/GPa)
#
#
# Indices 1 2 3 4 5 6 
#
# 1 0.007977 -0.001921 -0.004197 0.000000 0.000000 0.000000
# 2 -0.001921 0.007796 -0.001208 0.000000 0.000000 0.000000
# 3 -0.004197 -0.001208 0.012806 0.000000 0.000000 0.000000
# 4 0.000000 0.000000 0.000000 0.039244 0.000000 0.000000
# 5 0.000000 0.000000 0.000000 0.000000 0.021835 0.000000
# 6 0.000000 0.000000 0.000000 0.000000 0.000000 -0.084275
#
#
# Mechanical properties :
#
#
# Convention : Reuss Voigt Hill
#
# Bulk Modulus (GPa) = 71.80483 77.73126 74.76804
# Shear Modulus (GPa) = 202.62209 30.13771 116.37990
#
# Velocity S-wave (km/s) = 9.30560 3.58885 7.05245
# Velocity P-wave (km/s) = 12.08908 7.09880 9.91309
#
# Compressibility (1/GPa) = 0.01392664
#
# Stress axis : x y z
#
# Youngs Moduli (GPa) = 125.35975 128.27633 78.09034
#
# Poissons Ratio (x) = 0.24641 0.32774
# Poissons Ratio (y) = 0.24081 0.09434
# Poissons Ratio (z) = 0.52612 0.15497
#
# Static dielectric constant tensor:
#      x y z
#    x 1.836340 0.000000 0.000000 
#    y 0.000000 1.907820 0.000000 
#    z 0.000000 0.000000 2.158190 
# 
# From -- ./inp_files/37.got.cif
#   From: 2010.05.17/outbox.cif.g08.bks.cpg/sg17_1_cif.got.tgz:37.got - 2010.06.03 22:34:06.
