data_PCOD9311372
_publ_section_title
;
Structure prediction by ZEFSAII (Michael W. Deem and Ramdas Pophale) SiO2 
 PCOD9311372
Probable space group: P 2 2 21
;
_chemical_formula_sum "Si O2"
_cell_formula_units_Z 18
_cell_length_a 9.090223
_cell_length_b 11.142999
_cell_length_c 7.159154
_cell_angle_alpha 90.000000
_cell_angle_beta 90.000000
_cell_angle_gamma 90.000000
_cell_volume 725.167503
_symmetry_space_group_name_H-M "P 2 2 21"
_symmetry_group_IT_number 17
_symmetry_cell_setting 'orthorhombic'
loop_
_space_group_symop_operation_xyz
x,y,z
-x,-y,1/2+z
x,-y,-z
-x,y,1/2-z
loop_
_atom_site_type_symbol
_atom_site_label
_atom_site_fract_x
_atom_site_fract_y
_atom_site_fract_z
Si Si1 0.726363 0.161428 0.097342
Si Si2 0.655938 0.352492 0.416342
Si Si3 0.974569 0.000000 0.000000
Si Si4 0.542087 0.000000 0.500000
Si Si5 0.500000 0.428967 0.750000
Si Si6 0.786870 0.176873 0.667419
O O1 0.694785 0.260184 0.251826
O O2 0.771690 0.198916 0.887795
O O3 0.576853 0.087423 0.092237
O O4 0.859587 0.067824 0.140610
O O5 0.511217 0.352017 0.558335
O O6 0.631121 0.477251 0.304600
O O7 0.775189 0.305726 0.566008
O O8 0.075883 0.895539 0.084165
O O9 0.648510 0.092021 0.609176
#
# Coordination Sequence:
#
# PCOD9311372 Si02
#       6
#     4   4   2   2   2   4
#     4  11  25  42  70 109 159 213 259 317 405 502
#     4  11  26  44  73 103 147 199 263 338 419 469
#     4  10  26  46  70 120 178 224 264 310 392 512
#     4  10  24  36  62 106 154 196 256 322 390 484
#     4  10  26  50  70 108 148 190 276 362 412 448
#     4  11  25  41  68 110 160 209 263 318 398 500
#
# _framework density 24.821853000000001
#
# number of rings (size 3 to 8) (size 9 to 14) (size 15 to 20)
#    0.000    1.333    0.000    2.667   28.000    0.000 
#    0.000    0.000    0.000    0.000   46.222    0.000 
#    0.000    0.000    0.000    0.000    0.000    0.000 
#
# Total GULP energy -100294.596016 kJ/mol
# GULP energy per Si atom -5571.922001 kJ/mol
# Density = 2.476536 g / cm^3
# Si number density = 24.821853 Si / 1000 Ang^3
#
#
#
# Elastic Constant Matrix: (Units=GPa)
#
#
# Indices 1 2 3 4 5 6 
#
# 1 163.7435 55.5996 59.0000 0.0000 0.0000 0.0000
# 2 55.5996 146.0302 72.2891 0.0000 0.0000 0.0000
# 3 59.0000 72.2891 179.0561 0.0000 0.0000 0.0000
# 4 0.0000 0.0000 0.0000 51.7120 0.0000 0.0000
# 5 0.0000 0.0000 0.0000 0.0000 36.4665 0.0000
# 6 0.0000 0.0000 0.0000 0.0000 0.0000 44.5295
#
#
#
# Elastic Compliance Matrix: (Units=1/GPa)
#
#
# Indices 1 2 3 4 5 6 
#
# 1 0.007371 -0.002005 -0.001620 0.000000 0.000000 0.000000
# 2 -0.002005 0.009104 -0.003015 0.000000 0.000000 0.000000
# 3 -0.001620 -0.003015 0.007336 0.000000 0.000000 0.000000
# 4 0.000000 0.000000 0.000000 0.019338 0.000000 0.000000
# 5 0.000000 0.000000 0.000000 0.000000 0.027422 0.000000
# 6 0.000000 0.000000 0.000000 0.000000 0.000000 0.022457
#
#
# Mechanical properties :
#
#
# Convention : Reuss Voigt Hill
#
# Bulk Modulus (GPa) = 94.94519 95.84525 95.39522
# Shear Modulus (GPa) = 45.53031 46.67102 46.10066
#
# Velocity S-wave (km/s) = 4.28750 4.34088 4.31427
# Velocity P-wave (km/s) = 7.92741 7.98883 7.95818
#
# Compressibility (1/GPa) = 0.01053239
#
# Stress axis : x y z
#
# Youngs Moduli (GPa) = 135.65912 109.84647 136.32170
#
# Poissons Ratio (x) = 0.22023 0.22077
# Poissons Ratio (y) = 0.27198 0.41097
# Poissons Ratio (z) = 0.21970 0.33116
#
# Static dielectric constant tensor:
#      x y z
#    x 1.974430 0.000000 0.000000 
#    y 0.000000 2.096480 0.000000 
#    z 0.000000 0.000000 2.211380 
# 
# From -- ./inp_files/3950.got.cif
#   From: 2010.05.17/outbox.cif.g08.bks.cpg/sg17_2_cif.got.tgz:3950.got - 2010.06.03 22:34:06.
