data_PCOD9311132
_publ_section_title
;
Structure prediction by ZEFSAII (Michael W. Deem and Ramdas Pophale) SiO2 
 PCOD9311132
Probable space group: P 2 2 21
;
_chemical_formula_sum "Si O2"
_cell_formula_units_Z 20
_cell_length_a 11.336409
_cell_length_b 5.330465
_cell_length_c 15.119985
_cell_angle_alpha 90.000000
_cell_angle_beta 90.000000
_cell_angle_gamma 90.000000
_cell_volume 913.675464
_symmetry_space_group_name_H-M "P 2 2 21"
_symmetry_group_IT_number 17
_symmetry_cell_setting 'orthorhombic'
loop_
_space_group_symop_operation_xyz
x,y,z
-x,-y,1/2+z
x,-y,-z
-x,y,1/2-z
loop_
_atom_site_type_symbol
_atom_site_label
_atom_site_fract_x
_atom_site_fract_y
_atom_site_fract_z
Si Si1 0.460341 0.500000 0.000000
Si Si2 0.727303 0.185569 0.575017
Si Si3 0.937972 0.500000 0.500000
Si Si4 0.126021 0.532158 0.651824
Si Si5 0.669161 0.815519 0.925028
Si Si6 0.208019 0.980796 0.267758
O O1 0.371853 0.400690 0.924150
O O2 0.546103 0.709392 0.958638
O O3 0.850097 0.288875 0.536310
O O4 0.750198 0.065348 0.669134
O O5 0.681929 0.000000 0.500000
O O6 0.020275 0.566192 0.583107
O O7 0.245475 0.581717 0.595679
O O8 0.135969 0.261454 0.697206
O O9 0.133701 0.762773 0.720806
O O10 0.680871 0.972408 0.833980
O O11 0.719784 0.000000 0.000000
#
# Coordination Sequence:
#
# PCOD9311132 Si02
#       6
#     2   4   2   4   4   4
#     4  11  23  44  72 102 147 197 246 292 380 431
#     4  11  28  48  66 102 157 200 233 299 372 451
#     4  11  25  44  74 106 147 197 236 296 372 439
#     4  10  24  44  76 110 140 183 249 305 349 431
#     4  10  21  42  77 106 139 184 247 311 357 422
#     4  10  25  46  74 105 146 183 250 299 363 422
#
# _framework density 21.889610000000001
#
# number of rings (size 3 to 8) (size 9 to 14) (size 15 to 20)
#    1.200    0.400    0.000    3.600    8.400    0.800 
#    0.000   15.000    0.000    0.000    0.000    0.000 
#    0.000    0.000    0.000    0.000    0.000    0.000 
#
# Total GULP energy -111630.993617 kJ/mol
# GULP energy per Si atom -5581.549681 kJ/mol
# Density = 2.183979 g / cm^3
# Si number density = 21.889610 Si / 1000 Ang^3
#
#
#
# Elastic Constant Matrix: (Units=GPa)
#
#
# Indices 1 2 3 4 5 6 
#
# 1 109.6744 28.7499 35.8987 0.0000 0.0000 0.0000
# 2 28.7499 109.6406 42.7297 0.0000 0.0000 0.0000
# 3 35.8987 42.7297 150.2186 0.0000 0.0000 0.0000
# 4 0.0000 0.0000 0.0000 37.9886 0.0000 0.0000
# 5 0.0000 0.0000 0.0000 0.0000 -137.5793 0.0000
# 6 0.0000 0.0000 0.0000 0.0000 0.0000 -2.0415
#
#
#
# Elastic Compliance Matrix: (Units=1/GPa)
#
#
# Indices 1 2 3 4 5 6 
#
# 1 0.010249 -0.001949 -0.001895 0.000000 0.000000 0.000000
# 2 -0.001949 0.010628 -0.002558 0.000000 0.000000 0.000000
# 3 -0.001895 -0.002558 0.007837 0.000000 0.000000 0.000000
# 4 0.000000 0.000000 0.000000 0.026324 0.000000 0.000000
# 5 0.000000 0.000000 0.000000 0.000000 -0.007269 0.000000
# 6 0.000000 0.000000 0.000000 0.000000 0.000000 -0.489841
#
#
# Mechanical properties :
#
#
# Convention : Reuss Voigt Hill
#
# Bulk Modulus (GPa) = 62.84558 64.92112 63.88335
# Shear Modulus (GPa) = -11.79344 -2.84941 -7.32142
#
# Velocity S-wave (km/s) = -2.32366 -1.14217 -1.83084
# Velocity P-wave (km/s) = 4.64472 5.28994 4.97779
#
# Compressibility (1/GPa) = 0.01591202
#
# Stress axis : x y z
#
# Youngs Moduli (GPa) = 97.57011 94.08667 127.59534
#
# Poissons Ratio (x) = 0.18338 0.24178
# Poissons Ratio (y) = 0.19017 0.32633
# Poissons Ratio (z) = 0.18488 0.24063
#
# Static dielectric constant tensor:
#      x y z
#    x 1.781380 0.000000 0.000000 
#    y 0.000000 4.949600 0.000000 
#    z 0.000000 0.000000 1.776300 
# 
# From -- ./inp_files/8372.got.cif
#   From: 2010.05.17/outbox.cif.g08.bks.cpg/sg17_5_cif.got.tgz:8372.got - 2010.06.03 22:34:06.
