data_PCOD9311556
_publ_section_title
;
Structure prediction by ZEFSAII (Michael W. Deem and Ramdas Pophale) SiO2 
 PCOD9311556
Probable space group: P 2 2 21
;
_chemical_formula_sum "Si O2"
_cell_formula_units_Z 22
_cell_length_a 15.067452
_cell_length_b 5.186210
_cell_length_c 11.548594
_cell_angle_alpha 90.000000
_cell_angle_beta 90.000000
_cell_angle_gamma 90.000000
_cell_volume 902.441437
_symmetry_space_group_name_H-M "P 2 2 21"
_symmetry_group_IT_number 17
_symmetry_cell_setting 'orthorhombic'
loop_
_space_group_symop_operation_xyz
x,y,z
-x,-y,1/2+z
x,-y,-z
-x,y,1/2-z
loop_
_atom_site_type_symbol
_atom_site_label
_atom_site_fract_x
_atom_site_fract_y
_atom_site_fract_z
Si Si1 0.368469 0.226741 0.875738
Si Si2 0.203469 0.000000 0.000000
Si Si3 0.841983 0.542216 0.869593
Si Si4 0.355902 0.459442 0.348629
Si Si5 0.500000 0.850402 0.750000
Si Si6 0.898631 0.962234 0.260688
Si Si7 0.476451 0.500000 0.500000
O O1 0.353026 0.450037 0.782893
O O2 0.447017 0.293753 0.959844
O O3 0.277582 0.193104 0.946003
O O4 0.414121 0.001281 0.797180
O O5 0.139732 0.969499 0.888227
O O6 0.740385 0.641847 0.874105
O O7 0.894148 0.770885 0.808886
O O8 0.844181 0.272290 0.799304
O O9 0.874167 0.500000 0.000000
O O10 0.455796 0.325572 0.352369
O O11 0.388925 0.673729 0.437597
O O12 0.000000 0.870301 0.250000
#
# Coordination Sequence:
#
# PCOD9311556 Si02
#       7
#     4   2   4   4   2   4   2
#     4  12  25  45  64 108 150 202 266 315 391 459
#     4  12  28  48  84 114 162 208 262 348 404 494
#     4  12  28  53  83 117 162 208 262 334 404 493
#     4  12  24  43  65 105 150 199 265 311 379 463
#     4  12  22  44  66  96 160 204 264 318 364 470
#     4  12  30  56  85 123 155 204 268 337 428 494
#     4  12  22  42  66  96 150 208 250 320 370 454
#
# _framework density 24.378314
#
# number of rings (size 3 to 8) (size 9 to 14) (size 15 to 20)
#    0.000    0.000    6.364    3.273    5.091    0.727 
#    3.273    0.000    0.000    0.000    0.000    0.000 
#    0.000    0.000    0.000    0.000    0.000    0.000 
#
# Total GULP energy -122472.523151 kJ/mol
# GULP energy per Si atom -5566.932871 kJ/mol
# Density = 2.432283 g / cm^3
# Si number density = 24.378314 Si / 1000 Ang^3
#
#
#
# Elastic Constant Matrix: (Units=GPa)
#
#
# Indices 1 2 3 4 5 6 
#
# 1 129.3490 -3.0913 37.9017 0.0000 0.0000 0.0000
# 2 -3.0913 79.5828 28.6047 0.0000 0.0000 0.0000
# 3 37.9017 28.6047 149.1026 0.0000 0.0000 0.0000
# 4 0.0000 0.0000 0.0000 31.5583 0.0000 0.0000
# 5 0.0000 0.0000 0.0000 0.0000 29.1092 0.0000
# 6 0.0000 0.0000 0.0000 0.0000 0.0000 23.1323
#
#
#
# Elastic Compliance Matrix: (Units=1/GPa)
#
#
# Indices 1 2 3 4 5 6 
#
# 1 0.008456 0.001183 -0.002376 0.000000 0.000000 0.000000
# 2 0.001183 0.013662 -0.002922 0.000000 0.000000 0.000000
# 3 -0.002376 -0.002922 0.007871 0.000000 0.000000 0.000000
# 4 0.000000 0.000000 0.000000 0.031687 0.000000 0.000000
# 5 0.000000 0.000000 0.000000 0.000000 0.034353 0.000000
# 6 0.000000 0.000000 0.000000 0.000000 0.000000 0.043230
#
#
# Mechanical properties :
#
#
# Convention : Reuss Voigt Hill
#
# Bulk Modulus (GPa) = 45.96013 53.87385 49.91699
# Shear Modulus (GPa) = 32.31186 36.40125 34.35656
#
# Velocity S-wave (km/s) = 3.64460 3.86836 3.75815
# Velocity P-wave (km/s) = 6.05018 6.48840 6.27312
#
# Compressibility (1/GPa) = 0.02175799
#
# Stress axis : x y z
#
# Youngs Moduli (GPa) = 118.26514 73.19815 127.04353
#
# Poissons Ratio (x) = -0.08656 0.30189
# Poissons Ratio (y) = -0.13986 0.37116
# Poissons Ratio (z) = 0.28103 0.21385
#
# Static dielectric constant tensor:
#      x y z
#    x 1.918100 0.000000 0.000000 
#    y 0.000000 2.113960 0.000000 
#    z 0.000000 0.000000 4.110030 
# 
# From -- ./inp_files/7192.got.cif
#   From: 2010.05.17/outbox.cif.g08.bks.cpg/sg17_4_cif.got.tgz:7192.got - 2010.06.03 22:34:06.
