data_PCOD9311209
_publ_section_title
;
Structure prediction by ZEFSAII (Michael W. Deem and Ramdas Pophale) SiO2 
 PCOD9311209
Probable space group: P 2 2 21
;
_chemical_formula_sum "Si O2"
_cell_formula_units_Z 18
_cell_length_a 4.741832
_cell_length_b 5.765463
_cell_length_c 25.367831
_cell_angle_alpha 90.000000
_cell_angle_beta 90.000000
_cell_angle_gamma 90.000000
_cell_volume 693.527503
_symmetry_space_group_name_H-M "P 2 2 21"
_symmetry_group_IT_number 17
_symmetry_cell_setting 'orthorhombic'
loop_
_space_group_symop_operation_xyz
x,y,z
-x,-y,1/2+z
x,-y,-z
-x,y,1/2-z
loop_
_atom_site_type_symbol
_atom_site_label
_atom_site_fract_x
_atom_site_fract_y
_atom_site_fract_z
Si Si1 0.357082 0.500000 0.000000
Si Si2 0.944078 0.679935 0.152597
Si Si3 0.959570 0.894372 0.049148
Si Si4 0.339667 0.717417 0.895168
Si Si5 0.522829 0.048418 0.691625
O O1 0.494388 0.399683 0.053948
O O2 0.161408 0.701775 0.023769
O O3 0.810908 0.772571 0.097534
O O4 0.677201 0.722264 0.189821
O O5 0.129132 0.458075 0.135782
O O6 0.169024 0.858890 0.177008
O O7 0.148154 0.089824 0.076436
O O8 0.790255 0.000000 0.000000
O O9 0.532217 0.846419 0.851866
O O10 0.500000 0.949067 0.750000
#
# Coordination Sequence:
#
# PCOD9311209 Si02
#       5
#     2   4   4   4   4
#     4   8  14  32  64 100 136 176 222 280 346 416
#     4  10  22  40  63  93 128 169 223 281 340 409
#     4   8  15  32  59  92 130 169 214 270 335 406
#     4   9  19  37  66  97 134 178 227 283 349 416
#     4  11  24  43  65  94 132 177 232 290 348 414
#
# _framework density 25.954270000000001
#
# number of rings (size 3 to 8) (size 9 to 14) (size 15 to 20)
#    0.000    2.667    0.000    0.667    0.000    4.444 
#    0.000   15.556    0.000   62.667    0.000    0.000 
#    0.000    0.000    0.000    0.000    0.000    0.000 
#
# Total GULP energy -100420.247203 kJ/mol
# GULP energy per Si atom -5578.902622 kJ/mol
# Density = 2.589520 g / cm^3
# Si number density = 25.954270 Si / 1000 Ang^3
#
#
#
# Elastic Constant Matrix: (Units=GPa)
#
#
# Indices 1 2 3 4 5 6 
#
# 1 70.9783 18.9628 28.8279 0.0000 0.0000 0.0000
# 2 18.9628 96.4232 65.4101 0.0000 0.0000 0.0000
# 3 28.8279 65.4101 171.7633 0.0000 0.0000 0.0000
# 4 0.0000 0.0000 0.0000 36.0560 0.0000 0.0000
# 5 0.0000 0.0000 0.0000 0.0000 12.2443 0.0000
# 6 0.0000 0.0000 0.0000 0.0000 0.0000 709.2911
#
#
#
# Elastic Compliance Matrix: (Units=1/GPa)
#
#
# Indices 1 2 3 4 5 6 
#
# 1 0.015326 -0.001711 -0.001921 0.000000 0.000000 0.000000
# 2 -0.001711 0.014174 -0.005111 0.000000 0.000000 0.000000
# 3 -0.001921 -0.005111 0.008091 0.000000 0.000000 0.000000
# 4 0.000000 0.000000 0.000000 0.027735 0.000000 0.000000
# 5 0.000000 0.000000 0.000000 0.000000 0.081671 0.000000
# 6 0.000000 0.000000 0.000000 0.000000 0.000000 0.001410
#
#
# Mechanical properties :
#
#
# Convention : Reuss Voigt Hill
#
# Bulk Modulus (GPa) = 49.73619 62.84072 56.28845
# Shear Modulus (GPa) = 28.96989 166.58253 97.77621
#
# Velocity S-wave (km/s) = 3.34457 8.02013 6.14445
# Velocity P-wave (km/s) = 5.84119 10.48942 8.48962
#
# Compressibility (1/GPa) = 0.02010609
#
# Stress axis : x y z
#
# Youngs Moduli (GPa) = 65.24846 70.55002 123.60161
#
# Poissons Ratio (x) = 0.12072 0.23739
# Poissons Ratio (y) = 0.11165 0.63168
# Poissons Ratio (z) = 0.12532 0.36055
#
# Static dielectric constant tensor:
#      x y z
#    x 1.947980 0.000000 0.000000 
#    y 0.000000 2.191840 0.000000 
#    z 0.000000 0.000000 2.093950 
# 
# From -- ./inp_files/10330.got.cif
#   From: 2010.05.17/outbox.cif.g08.bks.cpg/sg17_6_cif.got.tgz:10330.got - 2010.06.03 22:34:06.
