data_PCOD9311555
_publ_section_title
;
Structure prediction by ZEFSAII (Michael W. Deem and Ramdas Pophale) SiO2 
 PCOD9311555
Probable space group: P 2 2 21
;
_chemical_formula_sum "Si O2"
_cell_formula_units_Z 12
_cell_length_a 9.787079
_cell_length_b 11.488210
_cell_length_c 4.849301
_cell_angle_alpha 90.000000
_cell_angle_beta 90.000000
_cell_angle_gamma 90.000000
_cell_volume 545.236099
_symmetry_space_group_name_H-M "P 2 2 21"
_symmetry_group_IT_number 17
_symmetry_cell_setting 'orthorhombic'
loop_
_space_group_symop_operation_xyz
x,y,z
-x,-y,1/2+z
x,-y,-z
-x,y,1/2-z
loop_
_atom_site_type_symbol
_atom_site_label
_atom_site_fract_x
_atom_site_fract_y
_atom_site_fract_z
Si Si1 0.000000 0.426422 0.250000
Si Si2 0.762326 0.737545 0.841370
Si Si3 0.500000 0.416345 0.250000
Si Si4 0.160609 0.116007 0.827785
O O1 0.112877 0.348938 0.405368
O O2 0.934897 0.500000 0.500000
O O3 0.623522 0.665984 0.845074
O O4 0.800969 0.782033 0.538114
O O5 0.764319 0.847780 0.046614
O O6 0.543512 0.500000 0.500000
O O7 0.000000 0.890248 0.250000
O O8 0.194469 0.000000 0.000000
#
# Coordination Sequence:
#
# PCOD9311555 Si02
#       4
#     2   4   2   4
#     4  12  22  38  62  98 134 170 228 288 328 394
#     4  12  24  43  68 103 136 182 232 280 346 409
#     4  12  26  48  70  98 144 194 228 278 350 418
#     4  12  23  43  70 104 137 178 228 289 351 408
#
# _framework density 22.008814000000001
#
# number of rings (size 3 to 8) (size 9 to 14) (size 15 to 20)
#    0.000    0.000    3.333    9.000    0.000    0.000 
#    0.000    3.333    0.000    2.000    0.000    0.000 
#    0.000    0.000    0.000    0.000    0.000    0.000 
#
# Total GULP energy -67115.508360 kJ/mol
# GULP energy per Si atom -5592.959030 kJ/mol
# Density = 2.195872 g / cm^3
# Si number density = 22.008814 Si / 1000 Ang^3
#
#
#
# Elastic Constant Matrix: (Units=GPa)
#
#
# Indices 1 2 3 4 5 6 
#
# 1 111.4082 51.8546 8.9482 0.0000 0.0000 0.0000
# 2 51.8546 91.4086 24.8968 0.0000 0.0000 0.0000
# 3 8.9482 24.8968 121.4170 0.0000 0.0000 0.0000
# 4 0.0000 0.0000 0.0000 57.8687 0.0000 0.0000
# 5 0.0000 0.0000 0.0000 0.0000 22.2305 0.0000
# 6 0.0000 0.0000 0.0000 0.0000 0.0000 17.7679
#
#
#
# Elastic Compliance Matrix: (Units=1/GPa)
#
#
# Indices 1 2 3 4 5 6 
#
# 1 0.012231 -0.007089 0.000552 0.000000 0.000000 0.000000
# 2 -0.007089 0.015696 -0.002696 0.000000 0.000000 0.000000
# 3 0.000552 -0.002696 0.008748 0.000000 0.000000 0.000000
# 4 0.000000 0.000000 0.000000 0.017280 0.000000 0.000000
# 5 0.000000 0.000000 0.000000 0.000000 0.044983 0.000000
# 6 0.000000 0.000000 0.000000 0.000000 0.000000 0.056281
#
#
# Mechanical properties :
#
#
# Convention : Reuss Voigt Hill
#
# Bulk Modulus (GPa) = 54.91626 55.07032 54.99329
# Shear Modulus (GPa) = 27.81558 35.47570 31.64564
#
# Velocity S-wave (km/s) = 3.55891 4.01919 3.79603
# Velocity P-wave (km/s) = 6.47255 6.82750 6.65239
#
# Compressibility (1/GPa) = 0.01820954
#
# Stress axis : x y z
#
# Youngs Moduli (GPa) = 81.75831 63.71205 114.30920
#
# Poissons Ratio (x) = 0.45165 -0.06312
# Poissons Ratio (y) = 0.57958 0.30818
# Poissons Ratio (z) = -0.04515 0.17177
#
# Static dielectric constant tensor:
#      x y z
#    x 1.744280 0.000000 0.000000 
#    y 0.000000 1.925760 0.000000 
#    z 0.000000 0.000000 1.793560 
# 
# From -- ./inp_files/525.got.cif
#   From: 2010.05.17/outbox.cif.g08.bks.cpg/sg17_1_cif.got.tgz:525.got - 2010.06.03 22:34:06.
