data_PCOD9311695
_publ_section_title
;
Structure prediction by ZEFSAII (Michael W. Deem and Ramdas Pophale) SiO2 
 PCOD9311695
Probable space group: P 21 21 2
;
_chemical_formula_sum "Si O2"
_cell_formula_units_Z 22
_cell_length_a 14.226386
_cell_length_b 6.941753
_cell_length_c 8.335951
_cell_angle_alpha 90.000000
_cell_angle_beta 90.000000
_cell_angle_gamma 90.000000
_cell_volume 823.225658
_symmetry_space_group_name_H-M "P 21 21 2"
_symmetry_group_IT_number 18
_symmetry_cell_setting 'orthorhombic'
loop_
_space_group_symop_operation_xyz
x,y,z
-x,-y,z
1/2+x,1/2-y,-z
1/2-x,1/2+y,-z
loop_
_atom_site_type_symbol
_atom_site_label
_atom_site_fract_x
_atom_site_fract_y
_atom_site_fract_z
Si Si1 0.146363 0.828172 0.479012
Si Si2 0.000000 0.500000 0.774077
Si Si3 0.072817 0.781591 0.149583
Si Si4 0.131628 0.340373 0.186650
Si Si5 0.347035 0.313005 0.160079
Si Si6 0.361111 0.876886 0.452648
O O1 0.084172 0.874762 0.325210
O O2 0.142420 0.912123 0.662387
O O3 0.252881 0.845329 0.413878
O O4 0.128363 0.605088 0.518559
O O5 0.913183 0.378733 0.845927
O O6 0.941992 0.661937 0.673958
O O7 0.125370 0.573890 0.171055
O O8 0.964588 0.734017 0.110586
O O9 0.118761 0.904430 0.006545
O O10 0.235992 0.276179 0.140354
O O11 0.122980 0.286941 0.374723
#
# Coordination Sequence:
#
# PCOD9311695 Si02
#       6
#     4   2   4   4   4   4
#     4   9  19  33  54  82 108 140 179 224 268 324
#     4  10  18  32  56  78 104 146 180 214 272 328
#     4  10  19  34  56  76 106 147 176 219 280 318
#     4   9  18  34  54  81 108 137 184 226 263 326
#     4  10  20  32  54  83 106 136 184 225 261 327
#     4   9  17  33  57  80 106 140 181 221 269 323
#
# _framework density 26.724142000000001
#
# number of rings (size 3 to 8) (size 9 to 14) (size 15 to 20)
#    0.000    2.545    0.000    4.364    0.000    4.364 
#    0.000    0.000    0.000   65.455    0.000    0.000 
#    0.000    0.000    0.000    0.000    0.000    0.000 
#
# Total GULP energy -122800.990767 kJ/mol
# GULP energy per Si atom -5581.863217 kJ/mol
# Density = 2.666332 g / cm^3
# Si number density = 26.724142 Si / 1000 Ang^3
#
#
#
# Elastic Constant Matrix: (Units=GPa)
#
#
# Indices 1 2 3 4 5 6 
#
# 1 215.7621 51.7084 68.8004 0.0000 0.0000 0.0000
# 2 51.7084 82.5857 11.0110 0.0000 0.0000 0.0000
# 3 68.8004 11.0110 145.5930 0.0000 0.0000 0.0000
# 4 0.0000 0.0000 0.0000 -1.7624 0.0000 0.0000
# 5 0.0000 0.0000 0.0000 0.0000 44.9012 0.0000
# 6 0.0000 0.0000 0.0000 0.0000 0.0000 50.3396
#
#
#
# Elastic Compliance Matrix: (Units=1/GPa)
#
#
# Indices 1 2 3 4 5 6 
#
# 1 0.006378 -0.003628 -0.002739 0.000000 0.000000 0.000000
# 2 -0.003628 0.014296 0.000633 0.000000 0.000000 0.000000
# 3 -0.002739 0.000633 0.008115 0.000000 0.000000 0.000000
# 4 0.000000 0.000000 0.000000 -0.567416 0.000000 0.000000
# 5 0.000000 0.000000 0.000000 0.000000 0.022271 0.000000
# 6 0.000000 0.000000 0.000000 0.000000 0.000000 0.019865
#
#
# Mechanical properties :
#
#
# Convention : Reuss Voigt Hill
#
# Bulk Modulus (GPa) = 57.73594 78.55340 68.14467
# Shear Modulus (GPa) = -10.43298 39.52376 14.54539
#
# Velocity S-wave (km/s) = -1.97799 3.84989 2.33551
# Velocity P-wave (km/s) = 4.05398 7.01571 5.72952
#
# Compressibility (1/GPa) = 0.01732023
#
# Stress axis : x y z
#
# Youngs Moduli (GPa) = 156.79590 69.95096 123.22710
#
# Poissons Ratio (x) = 0.25378 0.33757
# Poissons Ratio (y) = 0.56885 -0.07803
# Poissons Ratio (z) = 0.42953 -0.04430
#
# Static dielectric constant tensor:
#      x y z
#    x 2.022230 0.000000 0.000000 
#    y 0.000000 2.183650 0.000000 
#    z 0.000000 0.000000 -0.347740 
# 
# From -- ./inp_files/4130.got.cif
#   From: 2010.05.17/outbox.cif.g08.bks.cpg/sg18_3_cif.got.tgz:4130.got - 2010.06.03 22:40:56.
