data_PCOD9311024
_publ_section_title
;
Structure prediction by ZEFSAII (Michael W. Deem and Ramdas Pophale) SiO2 
 PCOD9311024
Probable space group: P 2 2 21
;
_chemical_formula_sum "Si O2"
_cell_formula_units_Z 24
_cell_length_a 10.855470
_cell_length_b 10.855676
_cell_length_c 9.301719
_cell_angle_alpha 90.000000
_cell_angle_beta 90.000000
_cell_angle_gamma 90.000000
_cell_volume 1096.146799
_symmetry_space_group_name_H-M "P 2 2 21"
_symmetry_group_IT_number 17
_symmetry_cell_setting 'orthorhombic'
loop_
_space_group_symop_operation_xyz
x,y,z
-x,-y,1/2+z
x,-y,-z
-x,y,1/2-z
loop_
_atom_site_type_symbol
_atom_site_label
_atom_site_fract_x
_atom_site_fract_y
_atom_site_fract_z
Si Si1 0.209730 0.676770 0.241073
Si Si2 0.643305 0.069586 0.277749
Si Si3 0.323229 0.790268 0.508929
Si Si4 0.812977 0.609638 0.820057
Si Si5 0.069586 0.643303 0.972250
Si Si6 0.609639 0.812981 0.429941
O O1 0.232938 0.767059 0.375001
O O2 0.193820 0.537643 0.299180
O O3 0.332465 0.692897 0.142798
O O4 0.103597 0.706245 0.123359
O O5 0.500000 0.096650 0.250000
O O6 0.706249 0.103601 0.126642
O O7 0.669726 0.151648 0.417494
O O8 0.645516 0.929129 0.329734
O O9 0.307106 0.667534 0.607202
O O10 0.462357 0.806183 0.450820
O O11 0.848345 0.669723 0.667490
O O12 0.929129 0.645516 0.920259
O O13 0.096647 0.500000 0.000000
#
# Coordination Sequence:
#
# PCOD9311024 Si02
#       6
#     4   4   4   4   4   4
#     4  11  21  35  58  90 125 162 204 257 316 376
#     4   9  19  37  59  82 116 163 214 253 296 375
#     4  11  21  35  58  90 125 162 204 257 316 376
#     4  10  21  38  58  86 122 164 210 256 313 379
#     4   9  19  37  59  82 116 163 214 253 296 375
#     4  10  21  38  58  86 122 164 210 256 313 379
#
# _framework density 21.894879
#
# number of rings (size 3 to 8) (size 9 to 14) (size 15 to 20)
#    0.000    2.000    0.000    4.000    0.000    4.000 
#    0.000   20.000    0.000    0.000    0.000   84.000 
#    0.000    5.333    0.000    0.000    0.000    0.000 
#
# Total GULP energy -133769.866846 kJ/mol
# GULP energy per Si atom -5573.744452 kJ/mol
# Density = 2.184504 g / cm^3
# Si number density = 21.894879 Si / 1000 Ang^3
#
#
#
# Elastic Constant Matrix: (Units=GPa)
#
#
# Indices 1 2 3 4 5 6 
#
# 1 63.4978 53.0124 66.1168 0.0000 0.0000 0.0000
# 2 53.0124 63.5100 66.1204 0.0000 0.0000 0.0000
# 3 66.1168 66.1204 178.8752 0.0000 0.0000 0.0000
# 4 0.0000 0.0000 0.0000 54.4995 0.0000 0.0000
# 5 0.0000 0.0000 0.0000 0.0000 54.4979 0.0000
# 6 0.0000 0.0000 0.0000 0.0000 0.0000 12.4310
#
#
#
# Elastic Compliance Matrix: (Units=1/GPa)
#
#
# Indices 1 2 3 4 5 6 
#
# 1 0.055057 -0.040265 -0.005467 0.000000 0.000000 0.000000
# 2 -0.040265 0.055043 -0.005463 0.000000 0.000000 0.000000
# 3 -0.005467 -0.005463 0.009631 0.000000 0.000000 0.000000
# 4 0.000000 0.000000 0.000000 0.018349 0.000000 0.000000
# 5 0.000000 0.000000 0.000000 0.000000 0.018349 0.000000
# 6 0.000000 0.000000 0.000000 0.000000 0.000000 0.080444
#
#
# Mechanical properties :
#
#
# Convention : Reuss Voigt Hill
#
# Bulk Modulus (GPa) = 57.66913 75.15359 66.41136
# Shear Modulus (GPa) = 14.49091 32.32789 23.40940
#
# Velocity S-wave (km/s) = 2.57542 3.84670 3.27337
# Velocity P-wave (km/s) = 5.93633 7.35722 6.68463
#
# Compressibility (1/GPa) = 0.01734030
#
# Stress axis : x y z
#
# Youngs Moduli (GPa) = 18.16303 18.16750 103.83557
#
# Poissons Ratio (x) = 0.73152 0.56762
# Poissons Ratio (y) = 0.73134 0.56730
# Poissons Ratio (z) = 0.09929 0.09926
#
# Static dielectric constant tensor:
#      x y z
#    x 1.827180 0.000000 0.000000 
#    y 0.000000 1.827180 0.000000 
#    z 0.000000 0.000000 1.923570 
# 
# From -- ./inp_files/4772.got.cif
#   From: 2010.05.17/outbox.cif.g08.bks.cpg/sg17_3_cif.got.tgz:4772.got - 2010.06.03 22:34:06.
