data_PCOD9311995
_publ_section_title
;
Structure prediction by ZEFSAII (Michael W. Deem and Ramdas Pophale) SiO2 
 PCOD9311995
Probable space group: P 21 21 2
;
_chemical_formula_sum "Si O2"
_cell_formula_units_Z 32
_cell_length_a 8.295564
_cell_length_b 11.583615
_cell_length_c 15.955483
_cell_angle_alpha 90.000000
_cell_angle_beta 90.000000
_cell_angle_gamma 90.000000
_cell_volume 1533.204158
_symmetry_space_group_name_H-M "P 21 21 2"
_symmetry_group_IT_number 18
_symmetry_cell_setting 'orthorhombic'
loop_
_space_group_symop_operation_xyz
x,y,z
-x,-y,z
1/2+x,1/2-y,-z
1/2-x,1/2+y,-z
loop_
_atom_site_type_symbol
_atom_site_label
_atom_site_fract_x
_atom_site_fract_y
_atom_site_fract_z
Si Si1 0.137028 0.355661 0.910978
Si Si2 0.935632 0.633307 0.426863
Si Si3 0.372239 0.229393 0.417829
Si Si4 0.016803 0.736799 0.070738
Si Si5 0.306652 0.020495 0.315283
Si Si6 0.829155 0.933684 0.142262
Si Si7 0.363256 0.772122 0.274419
Si Si8 0.440435 0.130319 0.748384
O O1 0.307718 0.294342 0.932732
O O2 0.191352 0.486116 0.895891
O O3 0.082893 0.305909 0.820329
O O4 0.020750 0.334967 0.988305
O O5 0.747170 0.664233 0.434167
O O6 0.000000 0.500000 0.432260
O O7 0.024847 0.701681 0.500163
O O8 0.977966 0.680880 0.334705
O O9 0.284356 0.106779 0.393279
O O10 0.493216 0.250048 0.339493
O O11 0.875726 0.831004 0.081423
O O12 0.012689 0.676065 0.160826
O O13 0.231663 0.087008 0.236288
O O14 0.500000 0.000000 0.308234
O O15 0.258757 0.884535 0.307662
O O16 0.000000 0.000000 0.151707
O O17 0.246848 0.662135 0.264986
O O18 0.500000 0.000000 0.747836
#
# Coordination Sequence:
#
# PCOD9311995 Si02
#       8
#     4   4   4   4   4   4   4   4
#     4   9  20  33  54  84 117 152 199 255 300 354
#     4  11  24  42  62  92 127 160 204 255 302 367
#     4  11  22  40  67  93 122 160 198 250 312 370
#     4  10  20  35  54  79 115 159 201 244 300 363
#     4   9  18  33  60  91 115 145 194 251 306 358
#     4   9  18  34  53  80 115 152 197 249 299 352
#     4   9  19  39  60  89 124 156 203 263 310 358
#     4  10  22  40  59  82 121 164 204 249 299 366
#
# _framework density 20.871323
#
# number of rings (size 3 to 8) (size 9 to 14) (size 15 to 20)
#    0.000    2.250    0.000    3.375    0.000    6.000 
#    0.000    8.750    0.000    0.000    0.000    0.000 
#    0.000    0.000    0.000    0.000    0.000    0.000 
#
# Total GULP energy -178349.591295 kJ/mol
# GULP energy per Si atom -5573.424728 kJ/mol
# Density = 2.082382 g / cm^3
# Si number density = 20.871323 Si / 1000 Ang^3
#
#
#
# Elastic Constant Matrix: (Units=GPa)
#
#
# Indices 1 2 3 4 5 6 
#
# 1 75.5367 48.9942 50.4466 0.0000 0.0000 0.0000
# 2 48.9942 66.3257 41.2833 0.0000 0.0000 0.0000
# 3 50.4466 41.2833 129.8723 0.0000 0.0000 0.0000
# 4 0.0000 0.0000 0.0000 14.0714 0.0000 0.0000
# 5 0.0000 0.0000 0.0000 0.0000 46.3181 0.0000
# 6 0.0000 0.0000 0.0000 0.0000 0.0000 30.9314
#
#
#
# Elastic Compliance Matrix: (Units=1/GPa)
#
#
# Indices 1 2 3 4 5 6 
#
# 1 0.028150 -0.017438 -0.005391 0.000000 0.000000 0.000000
# 2 -0.017438 0.029599 -0.002635 0.000000 0.000000 0.000000
# 3 -0.005391 -0.002635 0.010632 0.000000 0.000000 0.000000
# 4 0.000000 0.000000 0.000000 0.071066 0.000000 0.000000
# 5 0.000000 0.000000 0.000000 0.000000 0.021590 0.000000
# 6 0.000000 0.000000 0.000000 0.000000 0.000000 0.032330
#
#
# Mechanical properties :
#
#
# Convention : Reuss Voigt Hill
#
# Bulk Modulus (GPa) = 57.30305 61.46476 59.38391
# Shear Modulus (GPa) = 19.99103 26.99822 23.49463
#
# Velocity S-wave (km/s) = 3.09823 3.60051 3.35877
# Velocity P-wave (km/s) = 6.34931 6.84092 6.59969
#
# Compressibility (1/GPa) = 0.01745108
#
# Stress axis : x y z
#
# Youngs Moduli (GPa) = 35.52421 33.78495 94.05945
#
# Poissons Ratio (x) = 0.58916 0.50708
# Poissons Ratio (y) = 0.61949 0.24786
# Poissons Ratio (z) = 0.19151 0.08903
#
# Static dielectric constant tensor:
#      x y z
#    x 1.779430 0.000000 0.000000 
#    y 0.000000 1.840470 0.000000 
#    z 0.000000 0.000000 1.738100 
# 
# From -- ./inp_files/6783.got.cif
#   From: 2010.05.17/outbox.cif.g08.bks.cpg/sg18_4_cif.got.tgz:6783.got - 2010.06.03 22:40:56.
