data_PCOD9311856
_publ_section_title
;
Structure prediction by ZEFSAII (Michael W. Deem and Ramdas Pophale) SiO2 
 PCOD9311856
Probable space group: P 21 21 2
;
_chemical_formula_sum "Si O2"
_cell_formula_units_Z 30
_cell_length_a 9.027224
_cell_length_b 25.485450
_cell_length_c 6.440396
_cell_angle_alpha 90.000000
_cell_angle_beta 90.000000
_cell_angle_gamma 90.000000
_cell_volume 1481.695961
_symmetry_space_group_name_H-M "P 21 21 2"
_symmetry_group_IT_number 18
_symmetry_cell_setting 'orthorhombic'
loop_
_space_group_symop_operation_xyz
x,y,z
-x,-y,z
1/2+x,1/2-y,-z
1/2-x,1/2+y,-z
loop_
_atom_site_type_symbol
_atom_site_label
_atom_site_fract_x
_atom_site_fract_y
_atom_site_fract_z
Si Si1 0.143294 0.575858 0.176036
Si Si2 0.163130 0.133349 0.528006
Si Si3 0.755875 0.255711 0.299970
Si Si4 0.560582 0.737890 0.078203
Si Si5 0.871680 0.349918 0.808024
Si Si6 0.669603 0.661740 0.401492
Si Si7 0.000000 0.500000 0.859539
Si Si8 0.913165 0.586015 0.539146
O O1 0.293325 0.588922 0.303372
O O2 0.023107 0.569133 0.356304
O O3 0.109855 0.627189 0.037245
O O4 0.116179 0.529946 0.009474
O O5 0.248064 0.186564 0.600791
O O6 0.232191 0.122615 0.302740
O O7 0.992362 0.146844 0.514644
O O8 0.609915 0.256170 0.150563
O O9 0.757485 0.209727 0.470009
O O10 0.901687 0.244198 0.162669
O O11 0.640754 0.788089 0.178841
O O12 0.632929 0.685364 0.173639
O O13 0.009237 0.367150 0.668025
O O14 0.770012 0.610663 0.431452
O O15 0.910895 0.539634 0.708543
#
# Coordination Sequence:
#
# PCOD9311856 Si02
#       8
#     4   4   4   4   4   4   2   4
#     4  10  21  39  66  90 117 152 209 264 306 375
#     4  10  22  36  57  87 128 169 202 249 307 370
#     4  11  23  35  52  85 129 176 215 246 290 368
#     4  11  23  33  55  83 125 180 216 243 297 361
#     4  10  19  36  58  83 121 166 210 248 299 358
#     4  11  24  37  57  90 137 165 207 252 307 375
#     4  10  22  42  72  92 112 152 216 276 328 360
#     4  10  22  40  65  93 117 160 211 267 318 368
#
# _framework density 20.247070000000001
#
# number of rings (size 3 to 8) (size 9 to 14) (size 15 to 20)
#    0.000    1.600    4.000    0.400    3.733    0.000 
#    0.000    0.000    0.000   19.200    0.000    0.000 
#    0.000    0.000    0.000    0.000    0.000    0.000 
#
# Total GULP energy -167241.538262 kJ/mol
# GULP energy per Si atom -5574.717942 kJ/mol
# Density = 2.020099 g / cm^3
# Si number density = 20.247070 Si / 1000 Ang^3
#
#
#
# Elastic Constant Matrix: (Units=GPa)
#
#
# Indices 1 2 3 4 5 6 
#
# 1 48.7529 20.2710 10.7317 0.0000 0.0000 0.0000
# 2 20.2710 78.7375 20.2373 0.0000 0.0000 0.0000
# 3 10.7317 20.2373 63.1394 0.0000 0.0000 0.0000
# 4 0.0000 0.0000 0.0000 30.9053 0.0000 0.0000
# 5 0.0000 0.0000 0.0000 0.0000 16.8480 0.0000
# 6 0.0000 0.0000 0.0000 0.0000 0.0000 16.1394
#
#
#
# Elastic Compliance Matrix: (Units=1/GPa)
#
#
# Indices 1 2 3 4 5 6 
#
# 1 0.023252 -0.005417 -0.002216 0.000000 0.000000 0.000000
# 2 -0.005417 0.015102 -0.003920 0.000000 0.000000 0.000000
# 3 -0.002216 -0.003920 0.017471 0.000000 0.000000 0.000000
# 4 0.000000 0.000000 0.000000 0.032357 0.000000 0.000000
# 5 0.000000 0.000000 0.000000 0.000000 0.059354 0.000000
# 6 0.000000 0.000000 0.000000 0.000000 0.000000 0.061960
#
#
# Mechanical properties :
#
#
# Convention : Reuss Voigt Hill
#
# Bulk Modulus (GPa) = 30.56224 32.56775 31.56499
# Shear Modulus (GPa) = 20.53322 22.07119 21.30221
#
# Velocity S-wave (km/s) = 3.18800 3.30524 3.24715
# Velocity P-wave (km/s) = 5.35524 5.53951 5.44815
#
# Compressibility (1/GPa) = 0.03272012
#
# Stress axis : x y z
#
# Youngs Moduli (GPa) = 43.00788 66.21447 57.23759
#
# Poissons Ratio (x) = 0.35866 0.12683
# Poissons Ratio (y) = 0.23296 0.22437
# Poissons Ratio (z) = 0.09530 0.25956
#
# Static dielectric constant tensor:
#      x y z
#    x 1.723630 0.000000 0.000000 
#    y 0.000000 1.738000 0.000000 
#    z 0.000000 0.000000 1.746750 
# 
# From -- ./inp_files/761.got.cif
#   From: 2010.05.17/outbox.cif.g08.bks.cpg/sg18_1_cif.got.tgz:761.got - 2010.06.03 22:40:56.
