data_PCOD9311365
_publ_section_title
;
Structure prediction by ZEFSAII (Michael W. Deem and Ramdas Pophale) SiO2 
 PCOD9311365
Probable space group: P 2 2 21
;
_chemical_formula_sum "Si O2"
_cell_formula_units_Z 20
_cell_length_a 5.464981
_cell_length_b 9.329820
_cell_length_c 16.691685
_cell_angle_alpha 90.000000
_cell_angle_beta 90.000000
_cell_angle_gamma 90.000000
_cell_volume 851.063768
_symmetry_space_group_name_H-M "P 2 2 21"
_symmetry_group_IT_number 17
_symmetry_cell_setting 'orthorhombic'
loop_
_space_group_symop_operation_xyz
x,y,z
-x,-y,1/2+z
x,-y,-z
-x,y,1/2-z
loop_
_atom_site_type_symbol
_atom_site_label
_atom_site_fract_x
_atom_site_fract_y
_atom_site_fract_z
Si Si1 0.003274 0.500000 0.000000
Si Si2 0.186087 0.990695 0.377477
Si Si3 0.637159 0.374695 0.371704
Si Si4 0.500000 0.159130 0.250000
Si Si5 0.500000 0.610797 0.250000
Si Si6 0.000000 0.205589 0.750000
Si Si7 0.272236 0.221343 0.493152
O O1 0.520794 0.714690 0.935900
O O2 0.855046 0.638567 0.026983
O O3 0.993980 0.895607 0.328970
O O4 0.339402 0.883214 0.434440
O O5 0.353755 0.062159 0.310952
O O6 0.103454 0.120573 0.435584
O O7 0.683188 0.262690 0.299790
O O8 0.501765 0.505858 0.327320
O O9 0.849314 0.444526 0.423313
O O10 0.249934 0.702539 0.251236
#
# Coordination Sequence:
#
# PCOD9311365 Si02
#       7
#     2   4   4   2   2   2   4
#     4  12  24  40  74  98 142 190 244 304 374 448
#     4  10  23  46  71 101 142 192 242 305 372 446
#     4  10  24  44  72 103 143 191 245 309 371 442
#     4   9  21  48  72 102 140 192 242 304 372 446
#     4  11  27  46  72 112 144 196 246 312 368 440
#     4  12  26  44  76 104 152 190 250 298 372 446
#     4  10  24  46  69 102 141 186 246 307 371 442
#
# _framework density 23.5
#
# number of rings (size 3 to 8) (size 9 to 14) (size 15 to 20)
#    0.000    1.600    0.000    2.400   11.200    0.000 
#    3.600    2.000    0.000    0.000    0.000    0.000 
#    0.000    0.000    0.000    0.000    0.000    0.000 
#
# Total GULP energy -111788.085772 kJ/mol
# GULP energy per Si atom -5589.404289 kJ/mol
# Density = 2.344651 g / cm^3
# Si number density = 23.500000 Si / 1000 Ang^3
#
#
#
# Elastic Constant Matrix: (Units=GPa)
#
#
# Indices 1 2 3 4 5 6 
#
# 1 61.2582 57.5630 37.9668 0.0000 0.0000 0.0000
# 2 57.5630 183.4324 83.7165 0.0000 0.0000 0.0000
# 3 37.9668 83.7165 138.9821 0.0000 0.0000 0.0000
# 4 0.0000 0.0000 0.0000 65.1573 0.0000 0.0000
# 5 0.0000 0.0000 0.0000 0.0000 33.9629 0.0000
# 6 0.0000 0.0000 0.0000 0.0000 0.0000 17.4291
#
#
#
# Elastic Compliance Matrix: (Units=1/GPa)
#
#
# Indices 1 2 3 4 5 6 
#
# 1 0.023902 -0.006235 -0.002774 0.000000 0.000000 0.000000
# 2 -0.006235 0.009145 -0.003805 0.000000 0.000000 0.000000
# 3 -0.002774 -0.003805 0.010245 0.000000 0.000000 0.000000
# 4 0.000000 0.000000 0.000000 0.015347 0.000000 0.000000
# 5 0.000000 0.000000 0.000000 0.000000 0.029444 0.000000
# 6 0.000000 0.000000 0.000000 0.000000 0.000000 0.057375
#
#
# Mechanical properties :
#
#
# Convention : Reuss Voigt Hill
#
# Bulk Modulus (GPa) = 56.61183 82.46282 69.53732
# Shear Modulus (GPa) = 28.25260 36.93830 32.59545
#
# Velocity S-wave (km/s) = 3.47109 3.96895 3.72834
# Velocity P-wave (km/s) = 6.34091 7.49467 6.94180
#
# Compressibility (1/GPa) = 0.01766415
#
# Stress axis : x y z
#
# Youngs Moduli (GPa) = 41.83694 109.35192 97.60806
#
# Poissons Ratio (x) = 0.68178 0.27077
# Poissons Ratio (y) = 0.26084 0.37142
# Poissons Ratio (z) = 0.11606 0.41611
#
# Static dielectric constant tensor:
#      x y z
#    x 1.903670 0.000000 0.000000 
#    y 0.000000 1.899860 0.000000 
#    z 0.000000 0.000000 1.916320 
# 
# From -- ./inp_files/8979.got.cif
#   From: 2010.05.17/outbox.cif.g08.bks.cpg/sg17_5_cif.got.tgz:8979.got - 2010.06.03 22:34:06.
