data_PCOD9311577
_publ_section_title
;
Structure prediction by ZEFSAII (Michael W. Deem and Ramdas Pophale) SiO2 
 PCOD9311577
Probable space group: P 2 2 21
;
_chemical_formula_sum "Si O2"
_cell_formula_units_Z 14
_cell_length_a 5.606916
_cell_length_b 5.027194
_cell_length_c 19.796915
_cell_angle_alpha 90.000000
_cell_angle_beta 90.000000
_cell_angle_gamma 90.000000
_cell_volume 558.016722
_symmetry_space_group_name_H-M "P 2 2 21"
_symmetry_group_IT_number 17
_symmetry_cell_setting 'orthorhombic'
loop_
_space_group_symop_operation_xyz
x,y,z
-x,-y,1/2+z
x,-y,-z
-x,y,1/2-z
loop_
_atom_site_type_symbol
_atom_site_label
_atom_site_fract_x
_atom_site_fract_y
_atom_site_fract_z
Si Si1 0.248218 0.072843 0.071168
Si Si2 0.119411 0.221808 0.318660
Si Si3 0.500000 0.171247 0.750000
Si Si4 0.505631 0.416160 0.882846
O O1 0.359277 0.364270 0.076642
O O2 0.065095 0.066754 0.133449
O O3 0.464105 0.861661 0.079918
O O4 0.130939 0.000000 0.000000
O O5 0.241580 0.451918 0.363839
O O6 0.000000 0.324548 0.250000
O O7 0.317193 0.017635 0.289695
O O8 0.397624 0.359916 0.808302
#
# Coordination Sequence:
#
# PCOD9311577 Si02
#       4
#     4   4   2   4
#     4  12  29  53  77 114 163 215 266 322 402 485
#     4  12  25  50  83 119 158 210 272 332 400 469
#     4  12  24  48  78 126 148 206 266 342 392 468
#     4  12  26  51  76 117 156 204 262 336 390 470
#
# _framework density 25.088851999999999
#
# number of rings (size 3 to 8) (size 9 to 14) (size 15 to 20)
#    0.000    0.000    5.714    3.429    4.000    2.286 
#   10.286    0.000    0.000    0.000    0.000    0.000 
#    0.000    0.000    0.000    0.000    0.000    0.000 
#
# Total GULP energy -78338.763954 kJ/mol
# GULP energy per Si atom -5595.625997 kJ/mol
# Density = 2.503175 g / cm^3
# Si number density = 25.088852 Si / 1000 Ang^3
#
#
#
# Elastic Constant Matrix: (Units=GPa)
#
#
# Indices 1 2 3 4 5 6 
#
# 1 78.1146 21.7806 20.0466 0.0000 0.0000 0.0000
# 2 21.7806 123.7154 8.2686 0.0000 0.0000 0.0000
# 3 20.0466 8.2686 112.8792 0.0000 0.0000 0.0000
# 4 0.0000 0.0000 0.0000 36.4957 0.0000 0.0000
# 5 0.0000 0.0000 0.0000 0.0000 28.7156 0.0000
# 6 0.0000 0.0000 0.0000 0.0000 0.0000 24.5831
#
#
#
# Elastic Compliance Matrix: (Units=1/GPa)
#
#
# Indices 1 2 3 4 5 6 
#
# 1 0.014044 -0.002317 -0.002324 0.000000 0.000000 0.000000
# 2 -0.002317 0.008505 -0.000211 0.000000 0.000000 0.000000
# 3 -0.002324 -0.000211 0.009287 0.000000 0.000000 0.000000
# 4 0.000000 0.000000 0.000000 0.027401 0.000000 0.000000
# 5 0.000000 0.000000 0.000000 0.000000 0.034824 0.000000
# 6 0.000000 0.000000 0.000000 0.000000 0.000000 0.040678
#
#
# Mechanical properties :
#
#
# Convention : Reuss Voigt Hill
#
# Bulk Modulus (GPa) = 45.18646 46.10009 45.64327
# Shear Modulus (GPa) = 32.93306 35.59977 34.26641
#
# Velocity S-wave (km/s) = 3.62699 3.77098 3.69969
# Velocity P-wave (km/s) = 5.96572 6.11351 6.04006
#
# Compressibility (1/GPa) = 0.02213053
#
# Stress axis : x y z
#
# Youngs Moduli (GPa) = 71.20316 117.57572 107.67369
#
# Poissons Ratio (x) = 0.27245 0.25028
# Poissons Ratio (y) = 0.16499 0.02277
# Poissons Ratio (z) = 0.16551 0.02487
#
# Static dielectric constant tensor:
#      x y z
#    x 2.029680 0.000000 0.000000 
#    y 0.000000 1.988000 0.000000 
#    z 0.000000 0.000000 1.997420 
# 
# From -- ./inp_files/9776.got.cif
#   From: 2010.05.17/outbox.cif.g08.bks.cpg/sg17_5_cif.got.tgz:9776.got - 2010.06.03 22:34:06.
