data_PCOD9311046
_publ_section_title
;
Structure prediction by ZEFSAII (Michael W. Deem and Ramdas Pophale) SiO2 
 PCOD9311046
Probable space group: P 2 2 21
;
_chemical_formula_sum "Si O2"
_cell_formula_units_Z 22
_cell_length_a 11.352655
_cell_length_b 18.768147
_cell_length_c 5.075565
_cell_angle_alpha 90.000000
_cell_angle_beta 90.000000
_cell_angle_gamma 90.000000
_cell_volume 1081.441995
_symmetry_space_group_name_H-M "P 2 2 21"
_symmetry_group_IT_number 17
_symmetry_cell_setting 'orthorhombic'
loop_
_space_group_symop_operation_xyz
x,y,z
-x,-y,1/2+z
x,-y,-z
-x,y,1/2-z
loop_
_atom_site_type_symbol
_atom_site_label
_atom_site_fract_x
_atom_site_fract_y
_atom_site_fract_z
Si Si1 0.500000 0.707046 0.250000
Si Si2 0.000000 0.309095 0.250000
Si Si3 0.000000 0.587228 0.250000
Si Si4 0.755956 0.241006 0.096209
Si Si5 0.500000 0.047962 0.750000
Si Si6 0.197692 0.500000 0.000000
Si Si7 0.370321 0.623765 0.856594
Si Si8 0.353899 0.178328 0.929379
O O1 0.601433 0.653008 0.349132
O O2 0.531565 0.769397 0.463943
O O3 0.986235 0.361584 0.498555
O O4 0.889202 0.261136 0.166532
O O5 0.113151 0.536572 0.216708
O O6 0.684107 0.312547 0.181144
O O7 0.714275 0.180440 0.298384
O O8 0.723461 0.216284 0.801629
O O9 0.396768 0.101534 0.841084
O O10 0.467331 0.000000 0.500000
O O11 0.280641 0.440537 0.128397
O O12 0.500000 0.605068 0.750000
#
# Coordination Sequence:
#
# PCOD9311046 Si02
#       8
#     2   2   2   4   2   2   4   4
#     4   9  20  36  56  84 119 156 202 256 323 380
#     4  12  25  46  70  88 122 161 238 290 336 399
#     4  12  27  50  60  86 120 173 226 294 354 409
#     4  11  22  41  64  93 119 173 214 280 332 372
#     4  11  22  38  66 108 149 186 206 234 303 400
#     4  12  28  44  62  88 122 178 224 292 354 434
#     4  11  23  41  59  88 120 165 217 274 351 427
#     4  10  21  38  65  93 136 165 207 255 315 371
#
# _framework density 20.343205999999999
#
# number of rings (size 3 to 8) (size 9 to 14) (size 15 to 20)
#    0.000    1.091    3.636    2.727    3.818    0.000 
#    3.273    0.000    0.000    0.000    0.000   12.727 
#    0.000    0.000    0.000    0.000    0.000    0.000 
#
# Total GULP energy -122641.369882 kJ/mol
# GULP energy per Si atom -5574.607722 kJ/mol
# Density = 2.029690 g / cm^3
# Si number density = 20.343206 Si / 1000 Ang^3
#
#
#
# Elastic Constant Matrix: (Units=GPa)
#
#
# Indices 1 2 3 4 5 6 
#
# 1 115.8590 39.0677 23.5410 0.0000 0.0000 0.0000
# 2 39.0677 101.4468 22.3667 0.0000 0.0000 0.0000
# 3 23.5410 22.3667 113.0967 0.0000 0.0000 0.0000
# 4 0.0000 0.0000 0.0000 37.3193 0.0000 0.0000
# 5 0.0000 0.0000 0.0000 0.0000 33.3902 0.0000
# 6 0.0000 0.0000 0.0000 0.0000 0.0000 11.4621
#
#
#
# Elastic Compliance Matrix: (Units=1/GPa)
#
#
# Indices 1 2 3 4 5 6 
#
# 1 0.010126 -0.003592 -0.001397 0.000000 0.000000 0.000000
# 2 -0.003592 0.011581 -0.001543 0.000000 0.000000 0.000000
# 3 -0.001397 -0.001543 0.009438 0.000000 0.000000 0.000000
# 4 0.000000 0.000000 0.000000 0.026796 0.000000 0.000000
# 5 0.000000 0.000000 0.000000 0.000000 0.029949 0.000000
# 6 0.000000 0.000000 0.000000 0.000000 0.000000 0.087244
#
#
# Mechanical properties :
#
#
# Convention : Reuss Voigt Hill
#
# Bulk Modulus (GPa) = 55.30545 55.59481 55.45013
# Shear Modulus (GPa) = 25.74351 32.79614 29.26982
#
# Velocity S-wave (km/s) = 3.56119 4.01950 3.79727
# Velocity P-wave (km/s) = 6.64490 6.99497 6.82218
#
# Compressibility (1/GPa) = 0.01808140
#
# Stress axis : x y z
#
# Youngs Moduli (GPa) = 98.75373 86.35110 105.95509
#
# Poissons Ratio (x) = 0.31013 0.14807
# Poissons Ratio (y) = 0.35468 0.16345
# Poissons Ratio (z) = 0.13801 0.13321
#
# Static dielectric constant tensor:
#      x y z
#    x 1.838200 0.000000 0.000000 
#    y 0.000000 1.712660 0.000000 
#    z 0.000000 0.000000 1.895390 
# 
# From -- ./inp_files/1627.got.cif
#   From: 2010.05.17/outbox.cif.g08.bks.cpg/sg17_1_cif.got.tgz:1627.got - 2010.06.03 22:34:06.
