data_PCOD9311554
_publ_section_title
;
Structure prediction by ZEFSAII (Michael W. Deem and Ramdas Pophale) SiO2 
 PCOD9311554
Probable space group: P 2 2 21
;
_chemical_formula_sum "Si O2"
_cell_formula_units_Z 20
_cell_length_a 4.921712
_cell_length_b 9.413818
_cell_length_c 19.636744
_cell_angle_alpha 90.000000
_cell_angle_beta 90.000000
_cell_angle_gamma 90.000000
_cell_volume 909.811607
_symmetry_space_group_name_H-M "P 2 2 21"
_symmetry_group_IT_number 17
_symmetry_cell_setting 'orthorhombic'
loop_
_space_group_symop_operation_xyz
x,y,z
-x,-y,1/2+z
x,-y,-z
-x,y,1/2-z
loop_
_atom_site_type_symbol
_atom_site_label
_atom_site_fract_x
_atom_site_fract_y
_atom_site_fract_z
Si Si1 0.663981 0.704889 0.903394
Si Si2 0.243369 0.545355 0.296351
Si Si3 0.160122 0.658110 0.987442
Si Si4 0.587066 0.007400 0.583083
Si Si5 0.059153 0.184893 0.616739
O O1 0.666880 0.578500 0.848535
O O2 0.470653 0.654329 0.965172
O O3 0.971221 0.724217 0.929002
O O4 0.531513 0.857952 0.889296
O O5 0.500000 0.582711 0.250000
O O6 0.000000 0.486843 0.250000
O O7 0.129200 0.689422 0.330951
O O8 0.060926 0.500000 0.000000
O O9 0.100549 0.739875 0.055620
O O10 0.843271 0.058004 0.628609
O O11 0.340194 0.117653 0.591936
O O12 0.645645 0.000000 0.500000
#
# Coordination Sequence:
#
# PCOD9311554 Si02
#       5
#     4   4   4   4   4
#     4  12  25  41  70 105 144 179 230 294 360 426
#     4  12  28  50  70  98 139 200 256 292 327 408
#     4  12  22  37  68 109 142 174 225 299 368 422
#     4  12  23  41  68 113 150 177 211 291 386 446
#     4  12  24  43  70 104 147 181 229 292 361 432
#
# _framework density 21.982572999999999
#
# number of rings (size 3 to 8) (size 9 to 14) (size 15 to 20)
#    0.000    0.000    6.000    4.800    2.800    0.000 
#    0.000    4.000    0.000    0.000    0.000    0.000 
#    0.000    0.000    0.000    0.000    0.000    0.000 
#
# Total GULP energy -111766.530500 kJ/mol
# GULP energy per Si atom -5588.326525 kJ/mol
# Density = 2.193254 g / cm^3
# Si number density = 21.982573 Si / 1000 Ang^3
#
#
#
# Elastic Constant Matrix: (Units=GPa)
#
#
# Indices 1 2 3 4 5 6 
#
# 1 114.3362 22.8652 17.0007 0.0000 0.0000 0.0000
# 2 22.8652 125.1738 31.4332 0.0000 0.0000 0.0000
# 3 17.0007 31.4332 51.2516 0.0000 0.0000 0.0000
# 4 0.0000 0.0000 0.0000 -13.2435 0.0000 0.0000
# 5 0.0000 0.0000 0.0000 0.0000 156.0997 0.0000
# 6 0.0000 0.0000 0.0000 0.0000 0.0000 50.2323
#
#
#
# Elastic Compliance Matrix: (Units=1/GPa)
#
#
# Indices 1 2 3 4 5 6 
#
# 1 0.009325 -0.001095 -0.002421 0.000000 0.000000 0.000000
# 2 -0.001095 0.009572 -0.005507 0.000000 0.000000 0.000000
# 3 -0.002421 -0.005507 0.023693 0.000000 0.000000 0.000000
# 4 0.000000 0.000000 0.000000 -0.075509 0.000000 0.000000
# 5 0.000000 0.000000 0.000000 0.000000 0.006406 0.000000
# 6 0.000000 0.000000 0.000000 0.000000 0.000000 0.019908
#
#
# Mechanical properties :
#
#
# Convention : Reuss Voigt Hill
#
# Bulk Modulus (GPa) = 40.74729 48.15108 44.44919
# Shear Modulus (GPa) = 254.80125 53.24854 154.02490
#
# Velocity S-wave (km/s) = 10.77786 4.92703 8.37967
# Velocity P-wave (km/s) = 13.17040 7.37016 10.67189
#
# Compressibility (1/GPa) = 0.02454151
#
# Stress axis : x y z
#
# Youngs Moduli (GPa) = 107.23593 104.47201 42.20744
#
# Poissons Ratio (x) = 0.11443 0.10220
# Poissons Ratio (y) = 0.11746 0.23245
# Poissons Ratio (z) = 0.25967 0.57535
#
# Static dielectric constant tensor:
#      x y z
#    x 1.825500 0.000000 0.000000 
#    y 0.000000 1.903200 0.000000 
#    z 0.000000 0.000000 1.757560 
# 
# From -- ./inp_files/8943.got.cif
#   From: 2010.05.17/outbox.cif.g08.bks.cpg/sg17_5_cif.got.tgz:8943.got - 2010.06.03 22:34:06.
