data_PCOD9311433
_publ_section_title
;
Structure prediction by ZEFSAII (Michael W. Deem and Ramdas Pophale) SiO2 
 PCOD9311433
Probable space group: P 2 2 21
;
_chemical_formula_sum "Si O2"
_cell_formula_units_Z 18
_cell_length_a 11.329788
_cell_length_b 5.127452
_cell_length_c 13.464449
_cell_angle_alpha 90.000000
_cell_angle_beta 90.000000
_cell_angle_gamma 90.000000
_cell_volume 782.189484
_symmetry_space_group_name_H-M "P 2 2 21"
_symmetry_group_IT_number 17
_symmetry_cell_setting 'orthorhombic'
loop_
_space_group_symop_operation_xyz
x,y,z
-x,-y,1/2+z
x,-y,-z
-x,y,1/2-z
loop_
_atom_site_type_symbol
_atom_site_label
_atom_site_fract_x
_atom_site_fract_y
_atom_site_fract_z
Si Si1 0.578310 0.263280 0.936742
Si Si2 0.500000 0.988114 0.250000
Si Si3 0.829594 0.000000 0.500000
Si Si4 0.177234 0.627489 0.326062
Si Si5 0.757725 0.866485 0.715130
Si Si6 0.003422 0.500000 0.000000
O O1 0.494644 0.191862 0.846195
O O2 0.702062 0.357280 0.890116
O O3 0.528418 0.500000 0.000000
O O4 0.596669 0.000000 0.000000
O O5 0.377319 0.140686 0.254482
O O6 0.757603 0.042872 0.398711
O O7 0.914350 0.248859 0.501443
O O8 0.188884 0.415110 0.238805
O O9 0.078211 0.533756 0.402591
O O10 0.170240 0.914420 0.277495
#
# Coordination Sequence:
#
# PCOD9311433 Si02
#       6
#     4   2   2   4   4   2
#     4  11  23  41  68 103 135 176 230 285 331 410
#     4  10  26  44  70 102 136 188 218 278 354 404
#     4  12  28  46  66 106 140 178 226 288 352 412
#     4  11  24  44  73 100 134 179 239 282 326 416
#     4  11  26  47  68 103 142 179 233 279 343 419
#     4  12  26  44  74 102 136 184 228 286 356 384
#
# _framework density 23.012328
#
# number of rings (size 3 to 8) (size 9 to 14) (size 15 to 20)
#    0.000    0.889    1.111    5.333    3.111   13.333 
#    2.000    0.000    0.000    0.000    0.000    0.000 
#    0.000    0.000    0.000    0.000    0.000    0.000 
#
# Total GULP energy -100782.715093 kJ/mol
# GULP energy per Si atom -5599.039727 kJ/mol
# Density = 2.295995 g / cm^3
# Si number density = 23.012328 Si / 1000 Ang^3
#
#
#
# Elastic Constant Matrix: (Units=GPa)
#
#
# Indices 1 2 3 4 5 6 
#
# 1 64.3553 30.4790 18.3869 0.0000 0.0000 0.0000
# 2 30.4790 147.7931 27.9068 0.0000 0.0000 0.0000
# 3 18.3869 27.9068 121.4224 0.0000 0.0000 0.0000
# 4 0.0000 0.0000 0.0000 39.9123 0.0000 0.0000
# 5 0.0000 0.0000 0.0000 0.0000 27.7298 0.0000
# 6 0.0000 0.0000 0.0000 0.0000 0.0000 1.7461
#
#
#
# Elastic Compliance Matrix: (Units=1/GPa)
#
#
# Indices 1 2 3 4 5 6 
#
# 1 0.017638 -0.003275 -0.001918 0.000000 0.000000 0.000000
# 2 -0.003275 0.007681 -0.001269 0.000000 0.000000 0.000000
# 3 -0.001918 -0.001269 0.008818 0.000000 0.000000 0.000000
# 4 0.000000 0.000000 0.000000 0.025055 0.000000 0.000000
# 5 0.000000 0.000000 0.000000 0.000000 0.036062 0.000000
# 6 0.000000 0.000000 0.000000 0.000000 0.000000 0.572694
#
#
# Mechanical properties :
#
#
# Convention : Reuss Voigt Hill
#
# Bulk Modulus (GPa) = 47.14409 54.12402 50.63405
# Shear Modulus (GPa) = 7.26803 30.99753 19.13278
#
# Velocity S-wave (km/s) = 1.77909 3.67413 2.88655
# Velocity P-wave (km/s) = 4.97505 6.44745 5.75850
#
# Compressibility (1/GPa) = 0.02121157
#
# Stress axis : x y z
#
# Youngs Moduli (GPa) = 56.69597 130.18522 113.40520
#
# Poissons Ratio (x) = 0.42639 0.21753
# Poissons Ratio (y) = 0.18569 0.14396
# Poissons Ratio (z) = 0.10875 0.16527
#
# Static dielectric constant tensor:
#      x y z
#    x 1.875560 0.000000 0.000000 
#    y 0.000000 1.849820 0.000000 
#    z 0.000000 0.000000 1.918700 
# 
# From -- ./inp_files/6861.got.cif
#   From: 2010.05.17/outbox.cif.g08.bks.cpg/sg17_4_cif.got.tgz:6861.got - 2010.06.03 22:34:06.
