data_PCOD9311998
_publ_section_title
;
Structure prediction by ZEFSAII (Michael W. Deem and Ramdas Pophale) SiO2 
 PCOD9311998
Probable space group: P 21 21 2
;
_chemical_formula_sum "Si O2"
_cell_formula_units_Z 28
_cell_length_a 20.256174
_cell_length_b 6.102646
_cell_length_c 11.719155
_cell_angle_alpha 90.000000
_cell_angle_beta 90.000000
_cell_angle_gamma 90.000000
_cell_volume 1448.678103
_symmetry_space_group_name_H-M "P 21 21 2"
_symmetry_group_IT_number 18
_symmetry_cell_setting 'orthorhombic'
loop_
_space_group_symop_operation_xyz
x,y,z
-x,-y,z
1/2+x,1/2-y,-z
1/2-x,1/2+y,-z
loop_
_atom_site_type_symbol
_atom_site_label
_atom_site_fract_x
_atom_site_fract_y
_atom_site_fract_z
Si Si1 0.000000 0.000000 0.562869
Si Si2 0.564547 0.869745 0.279922
Si Si3 0.000000 0.000000 0.213089
Si Si4 0.201979 0.927301 0.127736
Si Si5 0.600289 0.187585 0.897324
Si Si6 0.887455 0.318617 0.291675
Si Si7 0.073498 0.401026 0.497803
Si Si8 0.843940 0.394729 0.922281
O O1 0.944520 0.856982 0.495220
O O2 0.038283 0.832004 0.644977
O O3 0.615339 0.799952 0.183268
O O4 0.500000 0.000000 0.234779
O O5 0.595525 0.034212 0.374723
O O6 0.038913 0.160623 0.129180
O O7 0.947530 0.143206 0.285244
O O8 0.176826 0.806447 0.242664
O O9 0.163800 0.157887 0.120554
O O10 0.278926 0.977836 0.119518
O O11 0.178712 0.779509 0.019146
O O12 0.597141 0.998686 0.803842
O O13 0.608045 0.069558 0.017153
O O14 0.883935 0.463728 0.406268
O O15 0.000000 0.500000 0.479855
#
# Coordination Sequence:
#
# PCOD9311998 Si02
#       8
#     2   4   2   4   4   4   4   4
#     4   8  18  37  53  90 122 154 189 227 314 358
#     4   9  21  36  59  89 117 150 193 241 296 354
#     4  10  20  35  55  94 122 154 179 245 302 344
#     4  10  22  37  60  82 112 163 205 238 298 345
#     4  10  21  35  55  85 118 152 197 239 294 349
#     4  10  21  35  59  88 120 150 195 242 290 353
#     4   9  18  35  59  87 118 151 186 234 295 358
#     4  11  21  40  60  82 117 159 204 248 287 359
#
# _framework density 19.327967000000001
#
# number of rings (size 3 to 8) (size 9 to 14) (size 15 to 20)
#    0.000    2.571    1.429    1.286    0.000   13.143 
#    0.000    3.571    3.143    0.000    0.000    0.000 
#    0.000    0.000    0.000    0.000    0.000    0.000 
#
# Total GULP energy -156001.706435 kJ/mol
# GULP energy per Si atom -5571.489516 kJ/mol
# Density = 1.928398 g / cm^3
# Si number density = 19.327967 Si / 1000 Ang^3
#
#
#
# Elastic Constant Matrix: (Units=GPa)
#
#
# Indices 1 2 3 4 5 6 
#
# 1 50.2942 24.1703 41.6422 0.0000 0.0000 0.0000
# 2 24.1703 101.0163 25.8565 0.0000 0.0000 0.0000
# 3 41.6422 25.8565 80.7672 0.0000 0.0000 0.0000
# 4 0.0000 0.0000 0.0000 25.5777 0.0000 0.0000
# 5 0.0000 0.0000 0.0000 0.0000 15.9420 0.0000
# 6 0.0000 0.0000 0.0000 0.0000 0.0000 25.8045
#
#
#
# Elastic Compliance Matrix: (Units=1/GPa)
#
#
# Indices 1 2 3 4 5 6 
#
# 1 0.036288 -0.004241 -0.017352 0.000000 0.000000 0.000000
# 2 -0.004241 0.011279 -0.001424 0.000000 0.000000 0.000000
# 3 -0.017352 -0.001424 0.021783 0.000000 0.000000 0.000000
# 4 0.000000 0.000000 0.000000 0.039097 0.000000 0.000000
# 5 0.000000 0.000000 0.000000 0.000000 0.062728 0.000000
# 6 0.000000 0.000000 0.000000 0.000000 0.000000 0.038753
#
#
# Mechanical properties :
#
#
# Convention : Reuss Voigt Hill
#
# Bulk Modulus (GPa) = 42.88870 46.15729 44.52300
# Shear Modulus (GPa) = 18.95854 22.82539 20.89197
#
# Velocity S-wave (km/s) = 3.13531 3.44023 3.29130
# Velocity P-wave (km/s) = 5.94517 6.30184 6.12610
#
# Compressibility (1/GPa) = 0.02331616
#
# Stress axis : x y z
#
# Youngs Moduli (GPa) = 27.55728 88.66275 45.90656
#
# Poissons Ratio (x) = 0.37604 0.79656
# Poissons Ratio (y) = 0.11688 0.06537
# Poissons Ratio (z) = 0.47817 0.12625
#
# Static dielectric constant tensor:
#      x y z
#    x 1.672900 0.000000 0.000000 
#    y 0.000000 1.731420 0.000000 
#    z 0.000000 0.000000 1.713170 
# 
# From -- ./inp_files/6266.got.cif
#   From: 2010.05.17/outbox.cif.g08.bks.cpg/sg18_4_cif.got.tgz:6266.got - 2010.06.03 22:40:56.
