data_PCOD9311858
_publ_section_title
;
Structure prediction by ZEFSAII (Michael W. Deem and Ramdas Pophale) SiO2 
 PCOD9311858
Probable space group: P 21 21 2
;
_chemical_formula_sum "Si O2"
_cell_formula_units_Z 24
_cell_length_a 14.615416
_cell_length_b 8.890504
_cell_length_c 8.725556
_cell_angle_alpha 90.000000
_cell_angle_beta 90.000000
_cell_angle_gamma 90.000000
_cell_volume 1133.784911
_symmetry_space_group_name_H-M "P 21 21 2"
_symmetry_group_IT_number 18
_symmetry_cell_setting 'orthorhombic'
loop_
_space_group_symop_operation_xyz
x,y,z
-x,-y,z
1/2+x,1/2-y,-z
1/2-x,1/2+y,-z
loop_
_atom_site_type_symbol
_atom_site_label
_atom_site_fract_x
_atom_site_fract_y
_atom_site_fract_z
Si Si1 0.643300 0.613063 0.317144
Si Si2 0.208980 0.173578 0.840728
Si Si3 0.596327 0.970063 0.792458
Si Si4 0.188719 0.230108 0.184538
Si Si5 0.743994 0.541708 0.633102
Si Si6 0.428714 0.126160 0.458191
O O1 0.644621 0.449456 0.241674
O O2 0.707308 0.710470 0.203757
O O3 0.695404 0.595731 0.479332
O O4 0.558948 0.717396 0.368159
O O5 0.223967 0.317956 0.734190
O O6 0.311398 0.100212 0.864503
O O7 0.169524 0.216267 0.005305
O O8 0.628983 0.136960 0.742373
O O9 0.500000 0.000000 0.878908
O O10 0.571957 0.869705 0.643447
O O11 0.180938 0.071144 0.268586
O O12 0.829729 0.441271 0.582212
O O13 0.500000 0.000000 0.410400
#
# Coordination Sequence:
#
# PCOD9311858 Si02
#       6
#     4   4   4   4   4   4
#     4  10  19  36  58  88 116 156 207 242 297 366
#     4  11  20  36  60  89 122 161 198 248 301 374
#     4  10  20  38  61  88 117 154 207 254 308 361
#     4  10  21  35  58  92 119 160 203 239 305 375
#     4  11  18  35  61  86 119 154 202 249 295 364
#     4  10  20  36  60  89 115 151 203 263 305 346
#
# _framework density 21.168035
#
# number of rings (size 3 to 8) (size 9 to 14) (size 15 to 20)
#    0.000    1.667    5.000    3.000    0.000    0.000 
#    0.000    9.167    0.000    4.000    0.000    0.000 
#    0.000    0.000    0.000    0.000    0.000    0.000 
#
# Total GULP energy -133789.528446 kJ/mol
# GULP energy per Si atom -5574.563685 kJ/mol
# Density = 2.111986 g / cm^3
# Si number density = 21.168035 Si / 1000 Ang^3
#
#
#
# Elastic Constant Matrix: (Units=GPa)
#
#
# Indices 1 2 3 4 5 6 
#
# 1 22.1056 -20.0077 -18.6942 0.0000 0.0000 0.0000
# 2 -20.0077 90.8366 25.2773 0.0000 0.0000 0.0000
# 3 -18.6942 25.2773 94.3044 0.0000 0.0000 0.0000
# 4 0.0000 0.0000 0.0000 29.9412 0.0000 0.0000
# 5 0.0000 0.0000 0.0000 0.0000 10.3400 0.0000
# 6 0.0000 0.0000 0.0000 0.0000 0.0000 29.7396
#
#
#
# Elastic Compliance Matrix: (Units=1/GPa)
#
#
# Indices 1 2 3 4 5 6 
#
# 1 0.063596 0.011346 0.009566 0.000000 0.000000 0.000000
# 2 0.011346 0.013920 -0.001482 0.000000 0.000000 0.000000
# 3 0.009566 -0.001482 0.012897 0.000000 0.000000 0.000000
# 4 0.000000 0.000000 0.000000 0.033399 0.000000 0.000000
# 5 0.000000 0.000000 0.000000 0.000000 0.096712 0.000000
# 6 0.000000 0.000000 0.000000 0.000000 0.000000 0.033625
#
#
# Mechanical properties :
#
#
# Convention : Reuss Voigt Hill
#
# Bulk Modulus (GPa) = 7.73562 20.04415 13.88989
# Shear Modulus (GPa) = 19.35126 28.71557 24.03341
#
# Velocity S-wave (km/s) = 3.02681 3.68714 3.37317
# Velocity P-wave (km/s) = 3.98469 5.25512 4.66337
#
# Compressibility (1/GPa) = 0.12927209
#
# Stress axis : x y z
#
# Youngs Moduli (GPa) = 15.72432 71.83788 77.53488
#
# Poissons Ratio (x) = -0.81506 -0.74167
# Poissons Ratio (y) = -0.17841 0.11491
# Poissons Ratio (z) = -0.15041 0.10647
#
# Static dielectric constant tensor:
#      x y z
#    x 1.813440 0.000000 0.000000 
#    y 0.000000 1.822430 0.000000 
#    z 0.000000 0.000000 1.741280 
# 
# From -- ./inp_files/3292.got.cif
#   From: 2010.05.17/outbox.cif.g08.bks.cpg/sg18_2_cif.got.tgz:3292.got - 2010.06.03 22:40:56.
