data_PCOD9311587
_publ_section_title
;
Structure prediction by ZEFSAII (Michael W. Deem and Ramdas Pophale) SiO2 
 PCOD9311587
Probable space group: P 2 2 21
;
_chemical_formula_sum "Si O2"
_cell_formula_units_Z 18
_cell_length_a 9.469860
_cell_length_b 10.486386
_cell_length_c 7.267098
_cell_angle_alpha 90.000000
_cell_angle_beta 90.000000
_cell_angle_gamma 90.000000
_cell_volume 721.656313
_symmetry_space_group_name_H-M "P 2 2 21"
_symmetry_group_IT_number 17
_symmetry_cell_setting 'orthorhombic'
loop_
_space_group_symop_operation_xyz
x,y,z
-x,-y,1/2+z
x,-y,-z
-x,y,1/2-z
loop_
_atom_site_type_symbol
_atom_site_label
_atom_site_fract_x
_atom_site_fract_y
_atom_site_fract_z
Si Si1 0.000000 0.589630 0.750000
Si Si2 0.772757 0.500000 0.500000
Si Si3 0.567247 0.860714 0.950872
Si Si4 0.725702 0.782018 0.456440
Si Si5 0.140830 0.769190 0.443156
Si Si6 0.929156 0.000000 0.500000
O O1 0.126472 0.503406 0.821622
O O2 0.051595 0.673250 0.574583
O O3 0.699451 0.636872 0.522690
O O4 0.500000 0.854142 0.750000
O O5 0.429591 0.836142 0.075353
O O6 0.703774 0.772932 0.965279
O O7 0.622529 0.000000 0.000000
O O8 0.814452 0.760647 0.270507
O O9 0.814184 0.891182 0.570503
O O10 0.047534 0.897248 0.438765
#
# Coordination Sequence:
#
# PCOD9311587 Si02
#       6
#     2   2   4   4   4   2
#     4  12  26  46  72 112 148 196 248 310 378 448
#     4  12  26  46  72 104 148 194 242 306 366 452
#     4  12  26  45  72 107 148 194 245 310 378 452
#     4  12  27  49  74 107 149 197 249 305 378 451
#     4  12  27  45  77 111 146 194 248 316 375 449
#     4  12  26  42  76 112 146 184 246 312 378 442
#
# _framework density 24.942620000000002
#
# number of rings (size 3 to 8) (size 9 to 14) (size 15 to 20)
#    0.000    0.000    4.444    5.333    3.111    0.000 
#    0.000    7.778    0.000    0.000    0.000    0.000 
#    0.000    0.000    0.000    0.000    0.000    0.000 
#
# Total GULP energy -100234.647216 kJ/mol
# GULP energy per Si atom -5568.591512 kJ/mol
# Density = 2.488585 g / cm^3
# Si number density = 24.942620 Si / 1000 Ang^3
#
#
#
# Elastic Constant Matrix: (Units=GPa)
#
#
# Indices 1 2 3 4 5 6 
#
# 1 136.5970 39.8593 12.3494 0.0000 0.0000 0.0000
# 2 39.8593 115.1900 13.2644 0.0000 0.0000 0.0000
# 3 12.3494 13.2644 81.0911 0.0000 0.0000 0.0000
# 4 0.0000 0.0000 0.0000 -60.4309 0.0000 0.0000
# 5 0.0000 0.0000 0.0000 0.0000 23.9985 0.0000
# 6 0.0000 0.0000 0.0000 0.0000 0.0000 -17.1040
#
#
#
# Elastic Compliance Matrix: (Units=1/GPa)
#
#
# Indices 1 2 3 4 5 6 
#
# 1 0.008194 -0.002743 -0.000799 0.000000 0.000000 0.000000
# 2 -0.002743 0.009766 -0.001180 0.000000 0.000000 0.000000
# 3 -0.000799 -0.001180 0.012646 0.000000 0.000000 0.000000
# 4 0.000000 0.000000 0.000000 -0.016548 0.000000 0.000000
# 5 0.000000 0.000000 0.000000 0.000000 0.041669 0.000000
# 6 0.000000 0.000000 0.000000 0.000000 0.000000 -0.058466
#
#
# Mechanical properties :
#
#
# Convention : Reuss Voigt Hill
#
# Bulk Modulus (GPa) = 47.25383 51.53603 49.39493
# Shear Modulus (GPa) = 363.36790 7.11972 185.24381
#
# Velocity S-wave (km/s) = 12.08295 1.69134 8.62724
# Velocity P-wave (km/s) = 14.61677 4.95186 10.91262
#
# Compressibility (1/GPa) = 0.02116231
#
# Stress axis : x y z
#
# Youngs Moduli (GPa) = 122.04769 102.39202 79.07342
#
# Poissons Ratio (x) = 0.28088 0.06319
# Poissons Ratio (y) = 0.33480 0.09329
# Poissons Ratio (z) = 0.09753 0.12080
#
# Static dielectric constant tensor:
#      x y z
#    x 1.935180 0.000000 0.000000 
#    y 0.000000 2.018670 0.000000 
#    z 0.000000 0.000000 2.243890 
# 
# From -- ./inp_files/3972.got.cif
#   From: 2010.05.17/outbox.cif.g08.bks.cpg/sg17_2_cif.got.tgz:3972.got - 2010.06.03 22:34:06.
