data_PCOD9311493
_publ_section_title
;
Structure prediction by ZEFSAII (Michael W. Deem and Ramdas Pophale) SiO2 
 PCOD9311493
Probable space group: P 2 2 21
;
_chemical_formula_sum "Si O2"
_cell_formula_units_Z 24
_cell_length_a 11.819261
_cell_length_b 7.072746
_cell_length_c 11.507956
_cell_angle_alpha 90.000000
_cell_angle_beta 90.000000
_cell_angle_gamma 90.000000
_cell_volume 962.003335
_symmetry_space_group_name_H-M "P 2 2 21"
_symmetry_group_IT_number 17
_symmetry_cell_setting 'orthorhombic'
loop_
_space_group_symop_operation_xyz
x,y,z
-x,-y,1/2+z
x,-y,-z
-x,y,1/2-z
loop_
_atom_site_type_symbol
_atom_site_label
_atom_site_fract_x
_atom_site_fract_y
_atom_site_fract_z
Si Si1 0.958042 0.578052 0.384364
Si Si2 0.237494 0.695695 0.807258
Si Si3 0.542831 0.930453 0.125055
Si Si4 0.802682 0.113288 0.642676
Si Si5 0.598763 0.589892 0.373437
Si Si6 0.806746 0.964852 0.875508
O O1 0.021876 0.500000 0.500000
O O2 0.847636 0.442706 0.371350
O O3 0.906813 0.783707 0.417375
O O4 0.000000 0.570731 0.250000
O O5 0.355903 0.584981 0.796404
O O6 0.189250 0.757949 0.681562
O O7 0.236976 0.896662 0.875967
O O8 0.500000 0.008237 0.250000
O O9 0.518509 0.705226 0.133223
O O10 0.673823 0.983296 0.120452
O O11 0.494559 0.000000 0.000000
O O12 0.691494 0.242899 0.638834
O O13 0.849536 0.101644 0.775389
O O14 0.604034 0.500000 0.500000
O O15 0.857120 0.000000 0.000000
#
# Coordination Sequence:
#
# PCOD9311493 Si02
#       6
#     4   4   4   4   4   4
#     4  11  25  44  69 112 139 170 222 280 344 424
#     4   9  21  43  71  91 134 181 232 277 340 402
#     4  11  23  43  63  95 139 181 236 291 339 403
#     4   9  20  42  69  90 135 174 226 278 336 406
#     4  11  23  37  62  98 123 181 235 286 336 390
#     4   9  20  41  64  91 133 183 232 279 348 407
#
# _framework density 24.947938000000001
#
# number of rings (size 3 to 8) (size 9 to 14) (size 15 to 20)
#    1.000    1.000    1.667    2.000    4.667    4.000 
#    6.000    2.500    0.000    0.000    0.000    0.000 
#    0.000    0.000    0.000    0.000    0.000    0.000 
#
# Total GULP energy -133686.130331 kJ/mol
# GULP energy per Si atom -5570.255430 kJ/mol
# Density = 2.489116 g / cm^3
# Si number density = 24.947938 Si / 1000 Ang^3
#
#
#
# Elastic Constant Matrix: (Units=GPa)
#
#
# Indices 1 2 3 4 5 6 
#
# 1 47.7559 30.6491 14.4086 0.0000 0.0000 0.0000
# 2 30.6491 137.0535 30.0358 0.0000 0.0000 0.0000
# 3 14.4086 30.0358 157.7708 0.0000 0.0000 0.0000
# 4 0.0000 0.0000 0.0000 36.0324 0.0000 0.0000
# 5 0.0000 0.0000 0.0000 0.0000 28.4084 0.0000
# 6 0.0000 0.0000 0.0000 0.0000 0.0000 24.1204
#
#
#
# Elastic Compliance Matrix: (Units=1/GPa)
#
#
# Indices 1 2 3 4 5 6 
#
# 1 0.024685 -0.005245 -0.001256 0.000000 0.000000 0.000000
# 2 -0.005245 0.008729 -0.001183 0.000000 0.000000 0.000000
# 3 -0.001256 -0.001183 0.006678 0.000000 0.000000 0.000000
# 4 0.000000 0.000000 0.000000 0.027753 0.000000 0.000000
# 5 0.000000 0.000000 0.000000 0.000000 0.035201 0.000000
# 6 0.000000 0.000000 0.000000 0.000000 0.000000 0.041459
#
#
# Mechanical properties :
#
#
# Convention : Reuss Voigt Hill
#
# Bulk Modulus (GPa) = 40.44576 54.75192 47.59884
# Shear Modulus (GPa) = 29.74195 35.54467 32.64331
#
# Velocity S-wave (km/s) = 3.45651 3.77869 3.62118
# Velocity P-wave (km/s) = 5.67250 6.40563 6.05018
#
# Compressibility (1/GPa) = 0.02472447
#
# Stress axis : x y z
#
# Youngs Moduli (GPa) = 40.51051 114.56640 149.74182
#
# Poissons Ratio (x) = 0.60091 0.18805
# Poissons Ratio (y) = 0.21248 0.17710
# Poissons Ratio (z) = 0.05088 0.13550
#
# Static dielectric constant tensor:
#      x y z
#    x 2.014610 0.000000 0.000000 
#    y 0.000000 2.001520 0.000000 
#    z 0.000000 0.000000 2.156230 
# 
# From -- ./inp_files/5438.got.cif
#   From: 2010.05.17/outbox.cif.g08.bks.cpg/sg17_3_cif.got.tgz:5438.got - 2010.06.03 22:34:06.
