data_PCOD9311552
_publ_section_title
;
Structure prediction by ZEFSAII (Michael W. Deem and Ramdas Pophale) SiO2 
 PCOD9311552
Probable space group: P 2 2 21
;
_chemical_formula_sum "Si O2"
_cell_formula_units_Z 20
_cell_length_a 8.178772
_cell_length_b 6.965205
_cell_length_c 16.052608
_cell_angle_alpha 90.000000
_cell_angle_beta 90.000000
_cell_angle_gamma 90.000000
_cell_volume 914.466089
_symmetry_space_group_name_H-M "P 2 2 21"
_symmetry_group_IT_number 17
_symmetry_cell_setting 'orthorhombic'
loop_
_space_group_symop_operation_xyz
x,y,z
-x,-y,1/2+z
x,-y,-z
-x,y,1/2-z
loop_
_atom_site_type_symbol
_atom_site_label
_atom_site_fract_x
_atom_site_fract_y
_atom_site_fract_z
Si Si1 0.649491 0.271541 0.644613
Si Si2 0.500000 0.946508 0.750000
Si Si3 0.693295 0.348135 0.927396
Si Si4 0.300931 0.609085 0.728917
Si Si5 0.000000 0.128749 0.250000
Si Si6 0.980615 0.882520 0.418515
O O1 0.486141 0.258630 0.588530
O O2 0.637073 0.469153 0.696934
O O3 0.826623 0.255735 0.602742
O O4 0.627212 0.088789 0.706347
O O5 0.411070 0.786573 0.693193
O O6 0.740709 0.463867 0.843982
O O7 0.846207 0.210980 0.942554
O O8 0.677639 0.500000 0.000000
O O9 0.150083 0.727859 0.763025
O O10 0.013889 0.002456 0.333739
O O11 0.927165 0.000000 0.500000
#
# Coordination Sequence:
#
# PCOD9311552 Si02
#       6
#     4   2   4   4   2   4
#     4  12  25  47  76 107 145 189 250 308 365 449
#     4  12  20  44  76 104 140 178 256 298 362 458
#     4  12  26  46  69 106 153 190 241 307 371 440
#     4  12  23  44  75 106 140 189 247 297 368 444
#     4  12  24  44  78 100 144 204 238 304 376 428
#     4  12  28  48  72 111 150 196 253 305 371 448
#
# _framework density 21.870685999999999
#
# number of rings (size 3 to 8) (size 9 to 14) (size 15 to 20)
#    0.000    0.000    6.000    4.800    0.000    4.800 
#    0.000    0.000    0.000    0.000    0.000    0.000 
#    0.000    0.000    0.000    0.000    0.000    0.000 
#
# Total GULP energy -111620.719522 kJ/mol
# GULP energy per Si atom -5581.035976 kJ/mol
# Density = 2.182091 g / cm^3
# Si number density = 21.870686 Si / 1000 Ang^3
#
#
#
# Elastic Constant Matrix: (Units=GPa)
#
#
# Indices 1 2 3 4 5 6 
#
# 1 117.2148 46.6050 15.2011 0.0000 0.0000 0.0000
# 2 46.6050 98.5855 13.9164 0.0000 0.0000 0.0000
# 3 15.2011 13.9164 69.5116 0.0000 0.0000 0.0000
# 4 0.0000 0.0000 0.0000 26.2344 0.0000 0.0000
# 5 0.0000 0.0000 0.0000 0.0000 18.2524 0.0000
# 6 0.0000 0.0000 0.0000 0.0000 0.0000 27.2437
#
#
#
# Elastic Compliance Matrix: (Units=1/GPa)
#
#
# Indices 1 2 3 4 5 6 
#
# 1 0.010629 -0.004833 -0.001357 0.000000 0.000000 0.000000
# 2 -0.004833 0.012636 -0.001473 0.000000 0.000000 0.000000
# 3 -0.001357 -0.001473 0.014978 0.000000 0.000000 0.000000
# 4 0.000000 0.000000 0.000000 0.038118 0.000000 0.000000
# 5 0.000000 0.000000 0.000000 0.000000 0.054787 0.000000
# 6 0.000000 0.000000 0.000000 0.000000 0.000000 0.036706
#
#
# Mechanical properties :
#
#
# Convention : Reuss Voigt Hill
#
# Bulk Modulus (GPa) = 43.63533 48.52855 46.08194
# Shear Modulus (GPa) = 26.20292 28.31874 27.26083
#
# Velocity S-wave (km/s) = 3.46509 3.60227 3.53435
# Velocity P-wave (km/s) = 6.00033 6.28799 6.14584
#
# Compressibility (1/GPa) = 0.02291721
#
# Stress axis : x y z
#
# Youngs Moduli (GPa) = 94.08225 79.13762 66.76612
#
# Poissons Ratio (x) = 0.38249 0.09059
# Poissons Ratio (y) = 0.45472 0.09834
# Poissons Ratio (z) = 0.12765 0.11656
#
# Static dielectric constant tensor:
#      x y z
#    x 1.926090 0.000000 0.000000 
#    y 0.000000 1.746010 0.000000 
#    z 0.000000 0.000000 1.868060 
# 
# From -- ./inp_files/9267.got.cif
#   From: 2010.05.17/outbox.cif.g08.bks.cpg/sg17_5_cif.got.tgz:9267.got - 2010.06.03 22:34:06.
