data_PCOD9311850
_publ_section_title
;
Structure prediction by ZEFSAII (Michael W. Deem and Ramdas Pophale) SiO2 
 PCOD9311850
Probable space group: P 21 21 2
;
_chemical_formula_sum "Si O2"
_cell_formula_units_Z 28
_cell_length_a 9.066265
_cell_length_b 10.738508
_cell_length_c 12.039972
_cell_angle_alpha 90.000000
_cell_angle_beta 90.000000
_cell_angle_gamma 90.000000
_cell_volume 1172.189511
_symmetry_space_group_name_H-M "P 21 21 2"
_symmetry_group_IT_number 18
_symmetry_cell_setting 'orthorhombic'
loop_
_space_group_symop_operation_xyz
x,y,z
-x,-y,z
1/2+x,1/2-y,-z
1/2-x,1/2+y,-z
loop_
_atom_site_type_symbol
_atom_site_label
_atom_site_fract_x
_atom_site_fract_y
_atom_site_fract_z
Si Si1 0.368567 0.577783 0.346413
Si Si2 0.442776 0.703768 0.772239
Si Si3 0.724800 0.522708 0.762406
Si Si4 0.952282 0.355864 0.031878
Si Si5 0.845144 0.753930 0.865663
Si Si6 0.691354 0.077871 0.484321
Si Si7 0.467389 0.257301 0.522967
O O1 0.500000 0.500000 0.288973
O O2 0.328389 0.677318 0.253111
O O3 0.238689 0.498872 0.405541
O O4 0.455305 0.638150 0.449204
O O5 0.578637 0.606625 0.782790
O O6 0.300668 0.619205 0.795791
O O7 0.460364 0.815416 0.856067
O O8 0.464136 0.743624 0.645512
O O9 0.833784 0.607868 0.831248
O O10 0.759001 0.517774 0.631518
O O11 0.000000 0.500000 0.014045
O O12 0.782990 0.320149 0.061371
O O13 0.008337 0.255993 0.939624
O O14 0.524371 0.127048 0.475996
O O15 0.797398 0.203240 0.482842
#
# Coordination Sequence:
#
# PCOD9311850 Si02
#       7
#     4   4   4   4   4   4   4
#     4  10  21  39  67 103 141 182 230 289 357 432
#     4   9  19  38  65  94 125 177 222 270 344 412
#     4   9  17  37  68  92 125 177 227 270 342 428
#     4  11  28  48  70  99 135 181 242 299 347 425
#     4  11  25  47  69  97 142 184 241 297 354 418
#     4  10  19  35  62  98 136 178 221 274 344 426
#     4  10  19  36  61  96 134 171 215 273 342 411
#
# _framework density 23.886922999999999
#
# number of rings (size 3 to 8) (size 9 to 14) (size 15 to 20)
#    0.000    2.000    2.857    0.000    4.000    1.143 
#    5.143    0.714    0.000    0.857    0.000    0.000 
#    0.000    0.000    0.000    0.000    0.000    0.000 
#
# Total GULP energy -156163.412453 kJ/mol
# GULP energy per Si atom -5577.264730 kJ/mol
# Density = 2.383256 g / cm^3
# Si number density = 23.886923 Si / 1000 Ang^3
#
#
#
# Elastic Constant Matrix: (Units=GPa)
#
#
# Indices 1 2 3 4 5 6 
#
# 1 54.1926 21.7841 27.3851 0.0000 0.0000 0.0000
# 2 21.7841 104.6269 32.8795 0.0000 0.0000 0.0000
# 3 27.3851 32.8795 97.6983 0.0000 0.0000 0.0000
# 4 0.0000 0.0000 0.0000 -963.3796 0.0000 0.0000
# 5 0.0000 0.0000 0.0000 0.0000 22.9613 0.0000
# 6 0.0000 0.0000 0.0000 0.0000 0.0000 30.1389
#
#
#
# Elastic Compliance Matrix: (Units=1/GPa)
#
#
# Indices 1 2 3 4 5 6 
#
# 1 0.022307 -0.002996 -0.005244 0.000000 0.000000 0.000000
# 2 -0.002996 0.011091 -0.002893 0.000000 0.000000 0.000000
# 3 -0.005244 -0.002893 0.012679 0.000000 0.000000 0.000000
# 4 0.000000 0.000000 0.000000 -0.001038 0.000000 0.000000
# 5 0.000000 0.000000 0.000000 0.000000 0.043552 0.000000
# 6 0.000000 0.000000 0.000000 0.000000 0.000000 0.033180
#
#
# Mechanical properties :
#
#
# Convention : Reuss Voigt Hill
#
# Bulk Modulus (GPa) = 41.99867 46.73501 44.36684
# Shear Modulus (GPa) = 32.90039 -170.42462 -68.76212
#
# Velocity S-wave (km/s) = 3.71528 -8.45584 -5.37113
# Velocity P-wave (km/s) = 6.00207 8.70215 4.45548
#
# Compressibility (1/GPa) = 0.02381028
#
# Stress axis : x y z
#
# Youngs Moduli (GPa) = 44.82827 90.16602 78.87017
#
# Poissons Ratio (x) = 0.27018 0.41362
# Poissons Ratio (y) = 0.13433 0.22813
# Poissons Ratio (z) = 0.23510 0.26081
#
# Static dielectric constant tensor:
#      x y z
#    x 5.972510 0.000000 0.000000 
#    y 0.000000 2.118620 0.000000 
#    z 0.000000 0.000000 1.868440 
# 
# From -- ./inp_files/5903.got.cif
#   From: 2010.05.17/outbox.cif.g08.bks.cpg/sg18_3_cif.got.tgz:5903.got - 2010.06.03 22:40:56.
