data_PCOD9311529
_publ_section_title
;
Structure prediction by ZEFSAII (Michael W. Deem and Ramdas Pophale) SiO2 
 PCOD9311529
Probable space group: P 2 2 21
;
_chemical_formula_sum "Si O2"
_cell_formula_units_Z 18
_cell_length_a 6.050078
_cell_length_b 25.380514
_cell_length_c 4.972487
_cell_angle_alpha 90.000000
_cell_angle_beta 90.000000
_cell_angle_gamma 90.000000
_cell_volume 763.545713
_symmetry_space_group_name_H-M "P 2 2 21"
_symmetry_group_IT_number 17
_symmetry_cell_setting 'orthorhombic'
loop_
_space_group_symop_operation_xyz
x,y,z
-x,-y,1/2+z
x,-y,-z
-x,y,1/2-z
loop_
_atom_site_type_symbol
_atom_site_label
_atom_site_fract_x
_atom_site_fract_y
_atom_site_fract_z
Si Si1 0.642133 0.106070 0.990301
Si Si2 0.000000 0.248228 0.750000
Si Si3 0.137586 0.000000 0.500000
Si Si4 0.248409 0.441586 0.379841
Si Si5 0.000000 0.817484 0.750000
Si Si6 0.657840 0.326667 0.990539
O O1 0.500000 0.091775 0.250000
O O2 0.822549 0.146489 0.098062
O O3 0.736626 0.050569 0.885808
O O4 0.500000 0.130003 0.750000
O O5 0.146773 0.285982 0.558614
O O6 0.893805 0.213692 0.506836
O O7 0.000000 0.021862 0.250000
O O8 0.243275 0.500000 0.500000
O O9 0.500000 0.440704 0.250000
O O10 0.258048 0.386897 0.542701
O O11 0.000000 0.437687 0.250000
O O12 0.500000 0.314263 0.750000
O O13 0.500000 0.322504 0.250000
#
# Coordination Sequence:
#
# PCOD9311529 Si02
#       6
#     4   2   2   4   2   4
#     4  12  26  47  77 111 153 197 249 306 390 467
#     4  12  28  48  83 101 158 198 272 320 394 442
#     4  12  24  44  78 110 152 196 242 308 380 466
#     4  11  25  43  75 115 160 203 255 324 404 492
#     4  12  28  50  75 115 148 208 256 336 372 464
#     4  11  27  48  79 112 149 201 260 323 393 472
#
# _framework density 23.574223
#
# number of rings (size 3 to 8) (size 9 to 14) (size 15 to 20)
#    0.000    0.444    1.111    6.000   10.889    3.556 
#    0.000    0.000    0.000    0.000    0.000    0.000 
#    0.000    0.000    0.000    0.000    0.000    0.000 
#
# Total GULP energy -100366.498495 kJ/mol
# GULP energy per Si atom -5575.916583 kJ/mol
# Density = 2.352057 g / cm^3
# Si number density = 23.574223 Si / 1000 Ang^3
#
#
#
# Elastic Constant Matrix: (Units=GPa)
#
#
# Indices 1 2 3 4 5 6 
#
# 1 79.6545 13.6985 -6.8692 0.0000 0.0000 0.0000
# 2 13.6985 101.8645 2.7225 0.0000 0.0000 0.0000
# 3 -6.8692 2.7225 79.1933 0.0000 0.0000 0.0000
# 4 0.0000 0.0000 0.0000 64.2930 0.0000 0.0000
# 5 0.0000 0.0000 0.0000 0.0000 39.4329 0.0000
# 6 0.0000 0.0000 0.0000 0.0000 0.0000 39.3515
#
#
#
# Elastic Compliance Matrix: (Units=1/GPa)
#
#
# Indices 1 2 3 4 5 6 
#
# 1 0.012962 -0.001775 0.001185 0.000000 0.000000 0.000000
# 2 -0.001775 0.010069 -0.000500 0.000000 0.000000 0.000000
# 3 0.001185 -0.000500 0.012747 0.000000 0.000000 0.000000
# 4 0.000000 0.000000 0.000000 0.015554 0.000000 0.000000
# 5 0.000000 0.000000 0.000000 0.000000 0.025360 0.000000
# 6 0.000000 0.000000 0.000000 0.000000 0.000000 0.025412
#
#
# Mechanical properties :
#
#
# Convention : Reuss Voigt Hill
#
# Bulk Modulus (GPa) = 29.76287 31.09067 30.42677
# Shear Modulus (GPa) = 43.29680 45.35952 44.32816
#
# Velocity S-wave (km/s) = 4.29023 4.39123 4.34102
# Velocity P-wave (km/s) = 6.09869 6.23920 6.16934
#
# Compressibility (1/GPa) = 0.03359891
#
# Stress axis : x y z
#
# Youngs Moduli (GPa) = 77.15074 99.31480 78.44780
#
# Poissons Ratio (x) = 0.17626 -0.09298
# Poissons Ratio (y) = 0.13692 0.03923
# Poissons Ratio (z) = -0.09145 0.04967
#
# Static dielectric constant tensor:
#      x y z
#    x 1.925290 0.000000 0.000000 
#    y 0.000000 1.955150 0.000000 
#    z 0.000000 0.000000 1.917610 
# 
# From -- ./inp_files/375.got.cif
#   From: 2010.05.17/outbox.cif.g08.bks.cpg/sg17_1_cif.got.tgz:375.got - 2010.06.03 22:34:06.
