data_PCOD9311154
_publ_section_title
;
Structure prediction by ZEFSAII (Michael W. Deem and Ramdas Pophale) SiO2 
 PCOD9311154
Probable space group: P 2 2 21
;
_chemical_formula_sum "Si O2"
_cell_formula_units_Z 32
_cell_length_a 10.656704
_cell_length_b 11.337647
_cell_length_c 12.746526
_cell_angle_alpha 90.000000
_cell_angle_beta 90.000000
_cell_angle_gamma 90.000000
_cell_volume 1540.060103
_symmetry_space_group_name_H-M "P 2 2 21"
_symmetry_group_IT_number 17
_symmetry_cell_setting 'orthorhombic'
loop_
_space_group_symop_operation_xyz
x,y,z
-x,-y,1/2+z
x,-y,-z
-x,y,1/2-z
loop_
_atom_site_type_symbol
_atom_site_label
_atom_site_fract_x
_atom_site_fract_y
_atom_site_fract_z
Si Si1 0.207602 0.193650 0.398418
Si Si2 0.533400 0.158509 0.593152
Si Si3 0.515326 0.119391 0.125715
Si Si4 0.921692 0.049076 0.850928
Si Si5 0.129007 0.577101 0.185805
Si Si6 0.864559 0.688877 0.693658
Si Si7 0.028390 0.753482 0.013176
Si Si8 0.296927 0.770692 0.282170
O O1 0.349698 0.159397 0.419679
O O2 0.215829 0.250466 0.283178
O O3 0.116124 0.271603 0.472825
O O4 0.134502 0.069579 0.397345
O O5 0.568514 0.171296 0.470083
O O6 0.646499 0.188160 0.670946
O O7 0.413359 0.232143 0.636946
O O8 0.497685 0.021904 0.616450
O O9 0.500000 0.149222 0.250000
O O10 0.015030 0.128703 0.919341
O O11 0.806329 0.135294 0.821194
O O12 0.000000 0.012608 0.750000
O O13 0.173461 0.444096 0.164927
O O14 0.227091 0.648967 0.256878
O O15 0.000000 0.571113 0.250000
O O16 0.089615 0.651700 0.083581
O O17 0.000000 0.681524 0.750000
O O18 0.888129 0.764601 0.590337
#
# Coordination Sequence:
#
# PCOD9311154 Si02
#       8
#     4   4   4   4   4   4   4   4
#     4  11  23  37  60  85 132 168 204 257 326 395
#     4  10  22  36  61  90 125 164 219 269 324 380
#     4  11  21  39  59  87 124 173 211 261 332 401
#     4  12  20  34  57  94 128 158 200 253 320 388
#     4  11  21  38  63  89 123 162 215 264 311 378
#     4   9  22  40  55  87 127 168 206 253 313 384
#     4  11  20  35  56  95 121 165 205 248 319 385
#     4  11  19  39  58  92 122 163 221 267 318 376
#
# _framework density 20.778410000000001
#
# number of rings (size 3 to 8) (size 9 to 14) (size 15 to 20)
#    0.000    1.250    5.000    2.625    1.750    1.000 
#    0.000    2.500    2.750    0.000    0.000    0.000 
#    0.000    0.000    0.000    0.000    0.000    0.000 
#
# Total GULP energy -178519.738801 kJ/mol
# GULP energy per Si atom -5578.741838 kJ/mol
# Density = 2.073112 g / cm^3
# Si number density = 20.778410 Si / 1000 Ang^3
#
#
#
# Elastic Constant Matrix: (Units=GPa)
#
#
# Indices 1 2 3 4 5 6 
#
# 1 42.2327 22.5042 4.1448 0.0000 0.0000 0.0000
# 2 22.5042 80.1238 28.1979 0.0000 0.0000 0.0000
# 3 4.1448 28.1979 134.1242 0.0000 0.0000 0.0000
# 4 0.0000 0.0000 0.0000 17.9124 0.0000 0.0000
# 5 0.0000 0.0000 0.0000 0.0000 14.7772 0.0000
# 6 0.0000 0.0000 0.0000 0.0000 0.0000 6.9212
#
#
#
# Elastic Compliance Matrix: (Units=1/GPa)
#
#
# Indices 1 2 3 4 5 6 
#
# 1 0.027935 -0.008145 0.000849 0.000000 0.000000 0.000000
# 2 -0.008145 0.015853 -0.003081 0.000000 0.000000 0.000000
# 3 0.000849 -0.003081 0.008077 0.000000 0.000000 0.000000
# 4 0.000000 0.000000 0.000000 0.055827 0.000000 0.000000
# 5 0.000000 0.000000 0.000000 0.000000 0.067672 0.000000
# 6 0.000000 0.000000 0.000000 0.000000 0.000000 0.144483
#
#
# Mechanical properties :
#
#
# Convention : Reuss Voigt Hill
#
# Bulk Modulus (GPa) = 32.14276 40.68607 36.41441
# Shear Modulus (GPa) = 14.24617 21.36442 17.80529
#
# Velocity S-wave (km/s) = 2.62128 3.21004 2.93048
# Velocity P-wave (km/s) = 4.96632 5.77603 5.38642
#
# Compressibility (1/GPa) = 0.03111121
#
# Stress axis : x y z
#
# Youngs Moduli (GPa) = 35.79731 63.08095 123.80365
#
# Poissons Ratio (x) = 0.51379 -0.10512
# Poissons Ratio (y) = 0.29156 0.38145
# Poissons Ratio (z) = -0.03039 0.19436
#
# Static dielectric constant tensor:
#      x y z
#    x 1.752820 0.000000 0.000000 
#    y 0.000000 1.719080 0.000000 
#    z 0.000000 0.000000 1.835700 
# 
# From -- ./inp_files/7085.got.cif
#   From: 2010.05.17/outbox.cif.g08.bks.cpg/sg17_4_cif.got.tgz:7085.got - 2010.06.03 22:34:06.
