data_PCOD9311913
_publ_section_title
;
Structure prediction by ZEFSAII (Michael W. Deem and Ramdas Pophale) SiO2 
 PCOD9311913
Probable space group: P 21 21 2
;
_chemical_formula_sum "Si O2"
_cell_formula_units_Z 24
_cell_length_a 17.090839
_cell_length_b 9.608139
_cell_length_c 7.599084
_cell_angle_alpha 90.000000
_cell_angle_beta 90.000000
_cell_angle_gamma 90.000000
_cell_volume 1247.854374
_symmetry_space_group_name_H-M "P 21 21 2"
_symmetry_group_IT_number 18
_symmetry_cell_setting 'orthorhombic'
loop_
_space_group_symop_operation_xyz
x,y,z
-x,-y,z
1/2+x,1/2-y,-z
1/2-x,1/2+y,-z
loop_
_atom_site_type_symbol
_atom_site_label
_atom_site_fract_x
_atom_site_fract_y
_atom_site_fract_z
Si Si1 0.353316 0.459106 0.069850
Si Si2 0.668681 0.019592 0.904705
Si Si3 0.047006 0.870048 0.254948
Si Si4 0.082418 0.580980 0.431449
Si Si5 0.089268 0.670120 0.806144
Si Si6 0.933535 0.760785 0.947747
O O1 0.261324 0.483858 0.076532
O O2 0.378127 0.327074 0.186668
O O3 0.398929 0.597515 0.129410
O O4 0.382774 0.425921 0.870002
O O5 0.640875 0.990553 0.706235
O O6 0.634671 0.163678 0.979596
O O7 0.625765 0.904204 0.024163
O O8 0.071298 0.743281 0.378076
O O9 0.000000 0.000000 0.338517
O O10 0.986903 0.805150 0.112995
O O11 0.110529 0.586064 0.631963
O O12 0.000000 0.500000 0.416289
O O13 0.994998 0.681121 0.823396
#
# Coordination Sequence:
#
# PCOD9311913 Si02
#       6
#     4   4   4   4   4   4
#     4  10  22  39  64  89 123 168 202 259 314 363
#     4  12  21  40  63  91 125 159 202 259 318 361
#     4   9  19  37  60  86 117 162 211 250 302 367
#     4  12  22  39  64  94 122 162 206 258 308 370
#     4  11  23  41  62  91 121 160 215 250 301 372
#     4  10  19  38  65  85 118 165 213 247 304 366
#
# _framework density 19.233011999999999
#
# number of rings (size 3 to 8) (size 9 to 14) (size 15 to 20)
#    0.000    1.333    5.000    4.000    0.000    1.333 
#    3.000    1.667    0.000    0.000    0.000    0.000 
#    0.000    0.000    0.000    0.000    0.000    0.000 
#
# Total GULP energy -134001.784351 kJ/mol
# GULP energy per Si atom -5583.407681 kJ/mol
# Density = 1.918924 g / cm^3
# Si number density = 19.233012 Si / 1000 Ang^3
#
#
#
# Elastic Constant Matrix: (Units=GPa)
#
#
# Indices 1 2 3 4 5 6 
#
# 1 99.8480 5.9328 18.2792 0.0000 0.0000 0.0000
# 2 5.9328 67.8056 9.6320 0.0000 0.0000 0.0000
# 3 18.2792 9.6320 65.8085 0.0000 0.0000 0.0000
# 4 0.0000 0.0000 0.0000 21.9235 0.0000 0.0000
# 5 0.0000 0.0000 0.0000 0.0000 8.5513 0.0000
# 6 0.0000 0.0000 0.0000 0.0000 0.0000 23.3654
#
#
#
# Elastic Compliance Matrix: (Units=1/GPa)
#
#
# Indices 1 2 3 4 5 6 
#
# 1 0.010570 -0.000519 -0.002860 0.000000 0.000000 0.000000
# 2 -0.000519 0.015087 -0.002064 0.000000 0.000000 0.000000
# 3 -0.002860 -0.002064 0.016292 0.000000 0.000000 0.000000
# 4 0.000000 0.000000 0.000000 0.045613 0.000000 0.000000
# 5 0.000000 0.000000 0.000000 0.000000 0.116941 0.000000
# 6 0.000000 0.000000 0.000000 0.000000 0.000000 0.042798
#
#
# Mechanical properties :
#
#
# Convention : Reuss Voigt Hill
#
# Bulk Modulus (GPa) = 32.19255 33.46116 32.82685
# Shear Modulus (GPa) = 18.61919 24.07592 21.34756
#
# Velocity S-wave (km/s) = 3.11478 3.54192 3.33520
# Velocity P-wave (km/s) = 5.45072 5.84487 5.65123
#
# Compressibility (1/GPa) = 0.03106309
#
# Stress axis : x y z
#
# Youngs Moduli (GPa) = 94.61087 66.28389 61.37942
#
# Poissons Ratio (x) = 0.03437 0.17554
# Poissons Ratio (y) = 0.04906 0.12669
# Poissons Ratio (z) = 0.27058 0.13682
#
# Static dielectric constant tensor:
#      x y z
#    x 1.645920 0.000000 0.000000 
#    y 0.000000 1.715320 0.000000 
#    z 0.000000 0.000000 1.670790 
# 
# From -- ./inp_files/4475.got.cif
#   From: 2010.05.17/outbox.cif.g08.bks.cpg/sg18_3_cif.got.tgz:4475.got - 2010.06.03 22:40:56.
