data_PCOD9311977
_publ_section_title
;
Structure prediction by ZEFSAII (Michael W. Deem and Ramdas Pophale) SiO2 
 PCOD9311977
Probable space group: P 21 21 2
;
_chemical_formula_sum "Si O2"
_cell_formula_units_Z 32
_cell_length_a 8.637034
_cell_length_b 18.506736
_cell_length_c 11.051141
_cell_angle_alpha 90.000000
_cell_angle_beta 90.000000
_cell_angle_gamma 90.000000
_cell_volume 1766.450935
_symmetry_space_group_name_H-M "P 21 21 2"
_symmetry_group_IT_number 18
_symmetry_cell_setting 'orthorhombic'
loop_
_space_group_symop_operation_xyz
x,y,z
-x,-y,z
1/2+x,1/2-y,-z
1/2-x,1/2+y,-z
loop_
_atom_site_type_symbol
_atom_site_label
_atom_site_fract_x
_atom_site_fract_y
_atom_site_fract_z
Si Si1 0.308908 0.868622 0.316888
Si Si2 0.540001 0.219304 0.946270
Si Si3 0.158737 0.159486 0.590008
Si Si4 0.475739 0.582371 0.620857
Si Si5 0.747693 0.323489 0.785638
Si Si6 0.979802 0.582686 0.909318
Si Si7 0.555061 0.794327 0.446272
Si Si8 0.803395 0.780710 0.831920
O O1 0.368842 0.919900 0.209205
O O2 0.437751 0.859668 0.419595
O O3 0.300016 0.791225 0.250187
O O4 0.146990 0.885565 0.375602
O O5 0.654855 0.260807 0.855171
O O6 0.365373 0.215235 0.894588
O O7 0.585204 0.138232 0.989512
O O8 0.564199 0.267301 0.068118
O O9 0.109365 0.091826 0.508459
O O10 0.329580 0.185959 0.552713
O O11 0.156466 0.157107 0.735121
O O12 0.042870 0.221832 0.540440
O O13 0.500000 0.500000 0.653733
O O14 0.373967 0.624165 0.719684
O O15 0.846411 0.288504 0.677198
O O16 0.864578 0.374121 0.864207
O O17 0.000000 0.500000 0.950023
#
# Coordination Sequence:
#
# PCOD9311977 Si02
#       8
#     4   4   4   4   4   4   4   4
#     4   9  18  34  54  84 110 142 190 240 291 341
#     4  11  20  35  59  82 114 149 203 243 284 340
#     4  10  20  34  53  82 113 141 182 229 293 346
#     4  11  21  35  58  84 120 152 189 241 301 355
#     4  10  20  35  57  88 108 151 200 245 287 347
#     4  10  20  35  55  83 122 152 189 244 309 356
#     4   9  19  32  56  82 106 135 180 239 287 337
#     4  10  20  34  56  82 110 145 191 246 276 333
#
# _framework density 18.115418999999999
#
# number of rings (size 3 to 8) (size 9 to 14) (size 15 to 20)
#    0.000    2.000    2.500    3.000    1.750    0.000 
#    0.000    0.000    2.750    0.750    0.000    0.000 
#    0.000    0.000    0.000    0.000    0.000    0.000 
#
# Total GULP energy -178282.049327 kJ/mol
# GULP energy per Si atom -5571.314041 kJ/mol
# Density = 1.807419 g / cm^3
# Si number density = 18.115419 Si / 1000 Ang^3
#
#
#
# Elastic Constant Matrix: (Units=GPa)
#
#
# Indices 1 2 3 4 5 6 
#
# 1 87.4437 5.6218 27.7231 0.0000 0.0000 0.0000
# 2 5.6218 39.6643 16.4000 0.0000 0.0000 0.0000
# 3 27.7231 16.4000 66.2919 0.0000 0.0000 0.0000
# 4 0.0000 0.0000 0.0000 16.7134 0.0000 0.0000
# 5 0.0000 0.0000 0.0000 0.0000 21.3891 0.0000
# 6 0.0000 0.0000 0.0000 0.0000 0.0000 13.1886
#
#
#
# Elastic Compliance Matrix: (Units=1/GPa)
#
#
# Indices 1 2 3 4 5 6 
#
# 1 0.013191 0.000458 -0.005630 0.000000 0.000000 0.000000
# 2 0.000458 0.028100 -0.007143 0.000000 0.000000 0.000000
# 3 -0.005630 -0.007143 0.019206 0.000000 0.000000 0.000000
# 4 0.000000 0.000000 0.000000 0.059832 0.000000 0.000000
# 5 0.000000 0.000000 0.000000 0.000000 0.046753 0.000000
# 6 0.000000 0.000000 0.000000 0.000000 0.000000 0.075823
#
#
# Mechanical properties :
#
#
# Convention : Reuss Voigt Hill
#
# Bulk Modulus (GPa) = 27.88019 32.54331 30.21175
# Shear Modulus (GPa) = 17.88956 19.83520 18.86238
#
# Velocity S-wave (km/s) = 3.14591 3.31257 3.23032
# Velocity P-wave (km/s) = 5.34971 5.71264 5.53415
#
# Compressibility (1/GPa) = 0.03586776
#
# Stress axis : x y z
#
# Youngs Moduli (GPa) = 75.80693 35.58690 52.06589
#
# Poissons Ratio (x) = -0.01630 0.29313
# Poissons Ratio (y) = -0.03473 0.37192
# Poissons Ratio (z) = 0.42679 0.25421
#
# Static dielectric constant tensor:
#      x y z
#    x 1.674900 0.000000 0.000000 
#    y 0.000000 1.642780 0.000000 
#    z 0.000000 0.000000 1.682600 
# 
# From -- ./inp_files/5741.got.cif
#   From: 2010.05.17/outbox.cif.g08.bks.cpg/sg18_3_cif.got.tgz:5741.got - 2010.06.03 22:40:56.
