data_PCOD9311399
_publ_section_title
;
Structure prediction by ZEFSAII (Michael W. Deem and Ramdas Pophale) SiO2 
 PCOD9311399
Probable space group: P 2 2 21
;
_chemical_formula_sum "Si O2"
_cell_formula_units_Z 20
_cell_length_a 8.140634
_cell_length_b 14.333913
_cell_length_c 8.174926
_cell_angle_alpha 90.000000
_cell_angle_beta 90.000000
_cell_angle_gamma 90.000000
_cell_volume 953.908731
_symmetry_space_group_name_H-M "P 2 2 21"
_symmetry_group_IT_number 17
_symmetry_cell_setting 'orthorhombic'
loop_
_space_group_symop_operation_xyz
x,y,z
-x,-y,1/2+z
x,-y,-z
-x,y,1/2-z
loop_
_atom_site_type_symbol
_atom_site_label
_atom_site_fract_x
_atom_site_fract_y
_atom_site_fract_z
Si Si1 0.341225 0.500000 0.000000
Si Si2 0.193788 0.338917 0.222542
Si Si3 0.500000 0.628939 0.250000
Si Si4 0.597258 0.821182 0.583358
Si Si5 0.000000 0.125144 0.750000
Si Si6 0.279429 0.246994 0.573176
Si Si7 0.793959 0.000000 0.500000
O O1 0.245569 0.562525 0.862624
O O2 0.460745 0.430835 0.906675
O O3 0.265507 0.260041 0.098058
O O4 0.254828 0.305895 0.404562
O O5 0.000000 0.337345 0.250000
O O6 0.667236 0.683921 0.215972
O O7 0.500000 0.812995 0.750000
O O8 0.451250 0.809636 0.452079
O O9 0.682557 0.920376 0.578235
O O10 0.874179 0.186535 0.862121
O O11 0.100107 0.057074 0.869331
#
# Coordination Sequence:
#
# PCOD9311399 Si02
#       7
#     2   4   2   4   2   4   2
#     4  12  26  42  74 110 138 192 250 308 368 452
#     4  11  25  47  72 102 148 189 245 307 380 435
#     4  12  24  44  74  98 144 186 258 292 376 454
#     4  10  24  45  73 100 140 198 243 300 374 444
#     4  12  30  44  74 112 150 194 250 314 380 434
#     4  11  25  47  75 101 146 198 242 305 379 450
#     4  12  28  44  70 108 146 190 252 310 360 456
#
# _framework density 20.966367000000002
#
# number of rings (size 3 to 8) (size 9 to 14) (size 15 to 20)
#    0.000    0.800    2.000    3.600   14.000    1.600 
#    0.000    0.000    0.000    0.000    0.000    0.000 
#    0.000    0.000    0.000    0.000    0.000    0.000 
#
# Total GULP energy -111509.401800 kJ/mol
# GULP energy per Si atom -5575.470090 kJ/mol
# Density = 2.091865 g / cm^3
# Si number density = 20.966367 Si / 1000 Ang^3
#
#
#
# Elastic Constant Matrix: (Units=GPa)
#
#
# Indices 1 2 3 4 5 6 
#
# 1 129.5623 53.3636 37.1176 0.0000 0.0000 0.0000
# 2 53.3636 106.0842 30.9415 0.0000 0.0000 0.0000
# 3 37.1176 30.9415 101.2705 0.0000 0.0000 0.0000
# 4 0.0000 0.0000 0.0000 33.9434 0.0000 0.0000
# 5 0.0000 0.0000 0.0000 0.0000 25.4454 0.0000
# 6 0.0000 0.0000 0.0000 0.0000 0.0000 20.0636
#
#
#
# Elastic Compliance Matrix: (Units=1/GPa)
#
#
# Indices 1 2 3 4 5 6 
#
# 1 0.010237 -0.004452 -0.002392 0.000000 0.000000 0.000000
# 2 -0.004452 0.012285 -0.002122 0.000000 0.000000 0.000000
# 3 -0.002392 -0.002122 0.011399 0.000000 0.000000 0.000000
# 4 0.000000 0.000000 0.000000 0.029461 0.000000 0.000000
# 5 0.000000 0.000000 0.000000 0.000000 0.039300 0.000000
# 6 0.000000 0.000000 0.000000 0.000000 0.000000 0.049842
#
#
# Mechanical properties :
#
#
# Convention : Reuss Voigt Hill
#
# Bulk Modulus (GPa) = 62.53776 64.41802 63.47789
# Shear Modulus (GPa) = 28.44388 30.25677 29.35032
#
# Velocity S-wave (km/s) = 3.68726 3.80295 3.74555
# Velocity P-wave (km/s) = 6.92966 7.07633 7.00338
#
# Compressibility (1/GPa) = 0.01599034
#
# Stress axis : x y z
#
# Youngs Moduli (GPa) = 97.68293 81.40156 87.72337
#
# Poissons Ratio (x) = 0.36240 0.20983
# Poissons Ratio (y) = 0.43488 0.18612
# Poissons Ratio (z) = 0.23365 0.17271
#
# Static dielectric constant tensor:
#      x y z
#    x 1.862590 0.000000 0.000000 
#    y 0.000000 1.781560 0.000000 
#    z 0.000000 0.000000 1.792480 
# 
# From -- ./inp_files/4107.got.cif
#   From: 2010.05.17/outbox.cif.g08.bks.cpg/sg17_3_cif.got.tgz:4107.got - 2010.06.03 22:34:06.
