data_PCOD9311763
_publ_section_title
;
Structure prediction by ZEFSAII (Michael W. Deem and Ramdas Pophale) SiO2 
 PCOD9311763
Probable space group: P 21 21 2
;
_chemical_formula_sum "Si O2"
_cell_formula_units_Z 18
_cell_length_a 6.223819
_cell_length_b 7.154930
_cell_length_c 17.386601
_cell_angle_alpha 90.000000
_cell_angle_beta 90.000000
_cell_angle_gamma 90.000000
_cell_volume 774.242543
_symmetry_space_group_name_H-M "P 21 21 2"
_symmetry_group_IT_number 18
_symmetry_cell_setting 'orthorhombic'
loop_
_space_group_symop_operation_xyz
x,y,z
-x,-y,z
1/2+x,1/2-y,-z
1/2-x,1/2+y,-z
loop_
_atom_site_type_symbol
_atom_site_label
_atom_site_fract_x
_atom_site_fract_y
_atom_site_fract_z
Si Si1 0.161684 0.341570 0.891939
Si Si2 0.374387 0.305520 0.740840
Si Si3 0.000000 0.500000 0.656149
Si Si4 0.500000 0.500000 0.478542
Si Si5 0.000000 0.000000 0.989763
Si Si6 0.847263 0.715957 0.401774
O O1 0.311284 0.245205 0.826646
O O2 0.303501 0.451705 0.954159
O O3 0.000000 0.500000 0.858753
O O4 0.040538 0.178280 0.936417
O O5 0.500000 0.500000 0.752597
O O6 0.147059 0.354665 0.702344
O O7 0.522862 0.201745 0.678344
O O8 0.166271 0.625476 0.610516
O O9 0.715179 0.534141 0.428365
O O10 0.487112 0.683641 0.532397
#
# Coordination Sequence:
#
# PCOD9311763 Si02
#       6
#     4   4   2   2   2   4
#     4  12  24  44  78 109 155 195 242 310 364 442
#     4  10  21  41  74 101 142 194 240 290 375 445
#     4  10  18  42  68  98 136 186 238 286 370 436
#     4  12  24  43  75  98 144 180 244 318 360 434
#     4  12  26  43  77 118 144 194 250 296 372 438
#     4  11  24  43  70 106 135 192 243 299 376 441
#
# _framework density 23.248529000000001
#
# number of rings (size 3 to 8) (size 9 to 14) (size 15 to 20)
#    0.000    0.889    7.778    1.333    0.000    0.000 
#    0.000    1.111   19.556    0.000    0.000    0.000 
#    0.000    0.000    0.000    0.000    0.000    0.000 
#
# Total GULP energy -100608.293052 kJ/mol
# GULP energy per Si atom -5589.349614 kJ/mol
# Density = 2.319561 g / cm^3
# Si number density = 23.248529 Si / 1000 Ang^3
#
#
#
# Elastic Constant Matrix: (Units=GPa)
#
#
# Indices 1 2 3 4 5 6 
#
# 1 90.6938 29.5516 52.8399 0.0000 0.0000 0.0000
# 2 29.5516 86.3337 37.0083 0.0000 0.0000 0.0000
# 3 52.8399 37.0083 139.9099 0.0000 0.0000 0.0000
# 4 0.0000 0.0000 0.0000 5.7542 0.0000 0.0000
# 5 0.0000 0.0000 0.0000 0.0000 40.2841 0.0000
# 6 0.0000 0.0000 0.0000 0.0000 0.0000 48.9159
#
#
#
# Elastic Compliance Matrix: (Units=1/GPa)
#
#
# Indices 1 2 3 4 5 6 
#
# 1 0.014800 -0.003011 -0.004793 0.000000 0.000000 0.000000
# 2 -0.003011 0.013677 -0.002480 0.000000 0.000000 0.000000
# 3 -0.004793 -0.002480 0.009614 0.000000 0.000000 0.000000
# 4 0.000000 0.000000 0.000000 0.173785 0.000000 0.000000
# 5 0.000000 0.000000 0.000000 0.000000 0.024824 0.000000
# 6 0.000000 0.000000 0.000000 0.000000 0.000000 0.020443
#
#
# Mechanical properties :
#
#
# Convention : Reuss Voigt Hill
#
# Bulk Modulus (GPa) = 57.07413 61.74854 59.41134
# Shear Modulus (GPa) = 17.63341 32.16002 24.89671
#
# Velocity S-wave (km/s) = 2.75703 3.72333 3.27600
# Velocity P-wave (km/s) = 5.89388 6.71581 6.31822
#
# Compressibility (1/GPa) = 0.01752107
#
# Stress axis : x y z
#
# Youngs Moduli (GPa) = 67.56871 73.11532 104.01809
#
# Poissons Ratio (x) = 0.22017 0.49855
# Poissons Ratio (y) = 0.20347 0.25802
# Poissons Ratio (z) = 0.32385 0.18136
#
# Static dielectric constant tensor:
#      x y z
#    x 1.944180 0.000000 0.000000 
#    y 0.000000 1.862190 0.000000 
#    z 0.000000 0.000000 1.880380 
# 
# From -- ./inp_files/7111.got.cif
#   From: 2010.05.17/outbox.cif.g08.bks.cpg/sg18_4_cif.got.tgz:7111.got - 2010.06.03 22:40:56.
