data_PCOD9311397
_publ_section_title
;
Structure prediction by ZEFSAII (Michael W. Deem and Ramdas Pophale) SiO2 
 PCOD9311397
Probable space group: P 2 2 21
;
_chemical_formula_sum "Si O2"
_cell_formula_units_Z 8
_cell_length_a 5.154959
_cell_length_b 11.465388
_cell_length_c 5.051991
_cell_angle_alpha 90.000000
_cell_angle_beta 90.000000
_cell_angle_gamma 90.000000
_cell_volume 298.590881
_symmetry_space_group_name_H-M "P 2 2 21"
_symmetry_group_IT_number 17
_symmetry_cell_setting 'orthorhombic'
loop_
_space_group_symop_operation_xyz
x,y,z
-x,-y,1/2+z
x,-y,-z
-x,y,1/2-z
loop_
_atom_site_type_symbol
_atom_site_label
_atom_site_fract_x
_atom_site_fract_y
_atom_site_fract_z
Si Si1 0.187562 0.134599 0.003691
Si Si2 0.500000 0.313987 0.750000
Si Si3 0.121903 0.500000 0.000000
O O1 0.000000 0.151662 0.250000
O O2 0.431043 0.220528 0.976969
O O3 0.000000 0.155414 0.750000
O O4 0.275072 0.000000 0.000000
O O5 0.724159 0.407502 0.683099
O O6 0.000000 0.430023 0.250000
#
# Coordination Sequence:
#
# PCOD9311397 Si02
#       3
#     4   2   2
#     4  10  24  45  72 110 150 187 238 303 366 438
#     4  12  26  48  78 104 146 200 244 296 372 438
#     4  12  28  48  72 110 150 192 250 308 360 430
#
# _framework density 26.792513
#
# number of rings (size 3 to 8) (size 9 to 14) (size 15 to 20)
#    0.000    1.000    0.000    4.500    0.000   16.000 
#    0.000    0.000    0.000    0.000    0.000    0.000 
#    0.000    0.000    0.000    0.000    0.000    0.000 
#
# Total GULP energy -44573.364414 kJ/mol
# GULP energy per Si atom -5571.670552 kJ/mol
# Density = 2.673153 g / cm^3
# Si number density = 26.792513 Si / 1000 Ang^3
#
#
#
# Elastic Constant Matrix: (Units=GPa)
#
#
# Indices 1 2 3 4 5 6 
#
# 1 74.2066 14.3301 41.6111 0.0000 0.0000 0.0000
# 2 14.3301 154.9752 -8.6223 0.0000 0.0000 0.0000
# 3 41.6111 -8.6223 218.0215 0.0000 0.0000 0.0000
# 4 0.0000 0.0000 0.0000 11.1467 0.0000 0.0000
# 5 0.0000 0.0000 0.0000 0.0000 47.3965 0.0000
# 6 0.0000 0.0000 0.0000 0.0000 0.0000 0.1987
#
#
#
# Elastic Compliance Matrix: (Units=1/GPa)
#
#
# Indices 1 2 3 4 5 6 
#
# 1 0.015476 -0.001599 -0.003017 0.000000 0.000000 0.000000
# 2 -0.001599 0.006632 0.000567 0.000000 0.000000 0.000000
# 3 -0.003017 0.000567 0.005185 0.000000 0.000000 0.000000
# 4 0.000000 0.000000 0.000000 0.089713 0.000000 0.000000
# 5 0.000000 0.000000 0.000000 0.000000 0.021099 0.000000
# 6 0.000000 0.000000 0.000000 0.000000 0.000000 5.031500
#
#
# Mechanical properties :
#
#
# Convention : Reuss Voigt Hill
#
# Bulk Modulus (GPa) = 52.09287 60.20456 56.14872
# Shear Modulus (GPa) = 0.96449 38.40734 19.68591
#
# Velocity S-wave (km/s) = 0.60064 3.79028 2.71358
# Velocity P-wave (km/s) = 4.46837 6.45557 5.55161
#
# Compressibility (1/GPa) = 0.01919648
#
# Stress axis : x y z
#
# Youngs Moduli (GPa) = 64.61426 150.78261 192.86517
#
# Poissons Ratio (x) = 0.24109 0.58188
# Poissons Ratio (y) = 0.10331 -0.10944
# Poissons Ratio (z) = 0.19494 -0.08556
#
# Static dielectric constant tensor:
#      x y z
#    x 2.390780 0.000000 0.000000 
#    y 0.000000 2.101750 0.000000 
#    z 0.000000 0.000000 -2.219160 
# 
# From -- ./inp_files/101.got.cif
#   From: 2010.05.17/outbox.cif.g08.bks.cpg/sg17_1_cif.got.tgz:101.got - 2010.06.03 22:34:06.
