data_PCOD9311304
_publ_section_title
;
Structure prediction by ZEFSAII (Michael W. Deem and Ramdas Pophale) SiO2 
 PCOD9311304
Probable space group: P 2 2 21
;
_chemical_formula_sum "Si O2"
_cell_formula_units_Z 22
_cell_length_a 12.314751
_cell_length_b 13.834415
_cell_length_c 5.623414
_cell_angle_alpha 90.000000
_cell_angle_beta 90.000000
_cell_angle_gamma 90.000000
_cell_volume 958.046287
_symmetry_space_group_name_H-M "P 2 2 21"
_symmetry_group_IT_number 17
_symmetry_cell_setting 'orthorhombic'
loop_
_space_group_symop_operation_xyz
x,y,z
-x,-y,1/2+z
x,-y,-z
-x,y,1/2-z
loop_
_atom_site_type_symbol
_atom_site_label
_atom_site_fract_x
_atom_site_fract_y
_atom_site_fract_z
Si Si1 0.375510 0.298976 0.821028
Si Si2 0.141244 0.000000 0.000000
Si Si3 0.500000 0.941765 0.750000
Si Si4 0.831403 0.294272 0.006548
Si Si5 0.000000 0.842629 0.250000
Si Si6 0.288104 0.846823 0.818119
Si Si7 0.170753 0.500000 0.500000
Si Si8 0.696616 0.500000 0.500000
O O1 0.500000 0.290471 0.750000
O O2 0.285935 0.312788 0.615243
O O3 0.366606 0.397531 0.979721
O O4 0.335886 0.199671 0.942324
O O5 0.064662 0.914218 0.080270
O O6 0.221862 0.053343 0.180575
O O7 0.397724 0.874017 0.680250
O O8 0.524784 0.000000 0.500000
O O9 0.889522 0.397764 0.011639
O O10 0.909372 0.222804 0.868820
O O11 0.794956 0.236740 0.238712
O O12 0.236365 0.504597 0.751839
#
# Coordination Sequence:
#
# PCOD9311304 Si02
#       8
#     4   2   2   4   2   4   2   2
#     4  11  24  44  73 107 150 195 249 305 383 458
#     4  12  26  46  72 102 142 192 262 318 380 444
#     4  12  30  46  74 108 150 200 246 306 380 450
#     4  11  25  46  74 106 148 195 253 311 382 454
#     4  12  26  48  72 108 142 198 260 322 382 450
#     4  12  25  46  72 104 149 197 249 315 382 455
#     4  10  22  47  77 108 152 196 249 311 374 460
#     4  10  22  45  69 112 152 198 247 307 374 460
#
# _framework density 22.963398000000002
#
# number of rings (size 3 to 8) (size 9 to 14) (size 15 to 20)
#    0.000    0.727    4.545    2.182    6.364    2.909 
#    1.636    5.455    0.000    0.000    0.000    0.000 
#    0.000    0.000    0.000    0.000    0.000    0.000 
#
# Total GULP energy -122660.610288 kJ/mol
# GULP energy per Si atom -5575.482286 kJ/mol
# Density = 2.291113 g / cm^3
# Si number density = 22.963398 Si / 1000 Ang^3
#
#
#
# Elastic Constant Matrix: (Units=GPa)
#
#
# Indices 1 2 3 4 5 6 
#
# 1 82.8397 24.6870 12.1579 0.0000 0.0000 0.0000
# 2 24.6870 145.3115 20.9068 0.0000 0.0000 0.0000
# 3 12.1579 20.9068 70.7256 0.0000 0.0000 0.0000
# 4 0.0000 0.0000 0.0000 28.8921 0.0000 0.0000
# 5 0.0000 0.0000 0.0000 0.0000 1679.0004 0.0000
# 6 0.0000 0.0000 0.0000 0.0000 0.0000 46.4066
#
#
#
# Elastic Compliance Matrix: (Units=1/GPa)
#
#
# Indices 1 2 3 4 5 6 
#
# 1 0.012895 -0.001955 -0.001639 0.000000 0.000000 0.000000
# 2 -0.001955 0.007484 -0.001876 0.000000 0.000000 0.000000
# 3 -0.001639 -0.001876 0.014975 0.000000 0.000000 0.000000
# 4 0.000000 0.000000 0.000000 0.034612 0.000000 0.000000
# 5 0.000000 0.000000 0.000000 0.000000 0.000596 0.000000
# 6 0.000000 0.000000 0.000000 0.000000 0.000000 0.021549
#
#
# Mechanical properties :
#
#
# Convention : Reuss Voigt Hill
#
# Bulk Modulus (GPa) = 40.95974 46.04227 43.50101
# Shear Modulus (GPa) = 44.96914 366.93483 205.95199
#
# Velocity S-wave (km/s) = 4.43007 12.65457 9.48060
# Velocity P-wave (km/s) = 6.63649 15.28435 11.78249
#
# Compressibility (1/GPa) = 0.02441422
#
# Stress axis : x y z
#
# Youngs Moduli (GPa) = 77.55193 133.62154 66.77589
#
# Poissons Ratio (x) = 0.26122 0.10943
# Poissons Ratio (y) = 0.15161 0.12529
# Poissons Ratio (z) = 0.12709 0.25070
#
# Static dielectric constant tensor:
#      x y z
#    x 1.954810 0.000000 0.000000 
#    y 0.000000 -0.441660 0.000000 
#    z 0.000000 0.000000 1.934780 
# 
# From -- ./inp_files/1621.got.cif
#   From: 2010.05.17/outbox.cif.g08.bks.cpg/sg17_1_cif.got.tgz:1621.got - 2010.06.03 22:34:06.
