data_PCOD9311693
_publ_section_title
;
Structure prediction by ZEFSAII (Michael W. Deem and Ramdas Pophale) SiO2 
 PCOD9311693
Probable space group: P 21 21 2
;
_chemical_formula_sum "Si O2"
_cell_formula_units_Z 32
_cell_length_a 9.426106
_cell_length_b 19.024351
_cell_length_c 6.694957
_cell_angle_alpha 90.000000
_cell_angle_beta 90.000000
_cell_angle_gamma 90.000000
_cell_volume 1200.576840
_symmetry_space_group_name_H-M "P 21 21 2"
_symmetry_group_IT_number 18
_symmetry_cell_setting 'orthorhombic'
loop_
_space_group_symop_operation_xyz
x,y,z
-x,-y,z
1/2+x,1/2-y,-z
1/2-x,1/2+y,-z
loop_
_atom_site_type_symbol
_atom_site_label
_atom_site_fract_x
_atom_site_fract_y
_atom_site_fract_z
Si Si1 0.759536 0.854766 0.426519
Si Si2 0.390637 0.062005 0.897594
Si Si3 0.718298 0.537583 0.835853
Si Si4 0.295365 0.678370 0.022883
Si Si5 0.888058 0.185628 0.042053
Si Si6 0.541114 0.570698 0.445766
Si Si7 0.715005 0.694690 0.538763
Si Si8 0.031270 0.395544 0.697562
O O1 0.796308 0.859998 0.190168
O O2 0.739572 0.772262 0.463675
O O3 0.605948 0.891991 0.438256
O O4 0.892689 0.890746 0.526846
O O5 0.300816 0.131432 0.826237
O O6 0.483010 0.101315 0.070990
O O7 0.500000 0.000000 0.815492
O O8 0.262273 0.017051 0.995727
O O9 0.680159 0.608549 0.955745
O O10 0.606405 0.540882 0.655640
O O11 0.861517 0.539720 0.700422
O O12 0.461260 0.689110 0.067717
O O13 0.218848 0.752555 0.985597
O O14 0.900800 0.199005 0.282687
O O15 0.500000 0.500000 0.323870
O O16 0.655499 0.632545 0.396365
O O17 0.863101 0.667410 0.634405
#
# Coordination Sequence:
#
# PCOD9311693 Si02
#       8
#     4   4   4   4   4   4   4   4
#     4  11  19  34  58  83 110 154 189 226 287 344
#     4   9  18  32  56  83 111 146 188 237 288 332
#     4   9  18  33  51  80 113 137 182 247 284 328
#     4  11  22  36  57  86 115 152 188 232 288 334
#     4  10  23  36  53  86 118 146 187 237 284 337
#     4  10  18  32  54  84 111 139 185 247 286 323
#     4  10  21  36  53  83 116 149 189 233 277 342
#     4   8  17  28  47  77 107 134 175 220 276 322
#
# _framework density 26.653855
#
# number of rings (size 3 to 8) (size 9 to 14) (size 15 to 20)
#    0.000    2.500    2.500    2.250    8.750    1.000 
#    0.000    0.000    0.000    1.500    0.000    0.000 
#    0.000    0.000    0.000    0.000    0.000    0.000 
#
# Total GULP energy -178366.696749 kJ/mol
# GULP energy per Si atom -5573.959273 kJ/mol
# Density = 2.659319 g / cm^3
# Si number density = 26.653855 Si / 1000 Ang^3
#
#
#
# Elastic Constant Matrix: (Units=GPa)
#
#
# Indices 1 2 3 4 5 6 
#
# 1 202.2753 63.2579 23.8260 0.0000 0.0000 0.0000
# 2 63.2579 166.6431 -4.7821 0.0000 0.0000 0.0000
# 3 23.8260 -4.7821 42.9496 0.0000 0.0000 0.0000
# 4 0.0000 0.0000 0.0000 26.5308 0.0000 0.0000
# 5 0.0000 0.0000 0.0000 0.0000 34.0599 0.0000
# 6 0.0000 0.0000 0.0000 0.0000 0.0000 54.5633
#
#
#
# Elastic Compliance Matrix: (Units=1/GPa)
#
#
# Indices 1 2 3 4 5 6 
#
# 1 0.006139 -0.002436 -0.003676 0.000000 0.000000 0.000000
# 2 -0.002436 0.006987 0.002129 0.000000 0.000000 0.000000
# 3 -0.003676 0.002129 0.025560 0.000000 0.000000 0.000000
# 4 0.000000 0.000000 0.000000 0.037692 0.000000 0.000000
# 5 0.000000 0.000000 0.000000 0.000000 0.029360 0.000000
# 6 0.000000 0.000000 0.000000 0.000000 0.000000 0.018327
#
#
# Mechanical properties :
#
#
# Convention : Reuss Voigt Hill
#
# Bulk Modulus (GPa) = 32.55367 64.05239 48.30303
# Shear Modulus (GPa) = 35.14450 45.00190 40.07320
#
# Velocity S-wave (km/s) = 3.63513 4.11345 3.88166
# Velocity P-wave (km/s) = 5.46433 6.82964 6.18477
#
# Compressibility (1/GPa) = 0.03071850
#
# Stress axis : x y z
#
# Youngs Moduli (GPa) = 162.90551 143.13240 39.12415
#
# Poissons Ratio (x) = 0.34863 0.14384
# Poissons Ratio (y) = 0.39679 -0.08330
# Poissons Ratio (z) = 0.59892 -0.30474
#
# Static dielectric constant tensor:
#      x y z
#    x 2.139140 0.000000 0.000000 
#    y 0.000000 2.171320 0.000000 
#    z 0.000000 0.000000 2.244740 
# 
# From -- ./inp_files/5754.got.cif
#   From: 2010.05.17/outbox.cif.g08.bks.cpg/sg18_3_cif.got.tgz:5754.got - 2010.06.03 22:40:56.
