data_PCOD9311455
_publ_section_title
;
Structure prediction by ZEFSAII (Michael W. Deem and Ramdas Pophale) SiO2 
 PCOD9311455
Probable space group: P 2 2 21
;
_chemical_formula_sum "Si O2"
_cell_formula_units_Z 12
_cell_length_a 16.192212
_cell_length_b 7.076787
_cell_length_c 4.659965
_cell_angle_alpha 90.000000
_cell_angle_beta 90.000000
_cell_angle_gamma 90.000000
_cell_volume 533.979962
_symmetry_space_group_name_H-M "P 2 2 21"
_symmetry_group_IT_number 17
_symmetry_cell_setting 'orthorhombic'
loop_
_space_group_symop_operation_xyz
x,y,z
-x,-y,1/2+z
x,-y,-z
-x,y,1/2-z
loop_
_atom_site_type_symbol
_atom_site_label
_atom_site_fract_x
_atom_site_fract_y
_atom_site_fract_z
Si Si1 0.170235 0.000000 0.000000
Si Si2 0.303410 0.291744 0.092663
Si Si3 0.941798 0.000000 0.000000
Si Si4 0.420648 0.789642 0.404143
O O1 0.226038 0.841146 0.846004
O O2 0.118085 0.095407 0.738094
O O3 0.375022 0.308217 0.331116
O O4 0.277127 0.500000 0.000000
O O5 0.349106 0.193557 0.827799
O O6 0.000000 0.098706 0.250000
O O7 0.500000 0.699179 0.250000
O O8 0.445625 0.000000 0.500000
#
# Coordination Sequence:
#
# PCOD9311455 Si02
#       4
#     2   4   2   4
#     4  11  20  42  68  93 134 162 204 263 318 374
#     4  12  25  41  66  95 126 169 223 265 323 378
#     4   9  20  38  70 101 124 168 206 237 312 400
#     4  12  23  42  62  87 126 175 222 276 329 370
#
# _framework density 22.472750999999999
#
# number of rings (size 3 to 8) (size 9 to 14) (size 15 to 20)
#    0.000    0.667    3.333    6.000    0.000    2.667 
#    0.000    1.667    0.000   20.000    0.000    0.000 
#    0.000    0.000    0.000    0.000    0.000    0.000 
#
# Total GULP energy -66810.762533 kJ/mol
# GULP energy per Si atom -5567.563544 kJ/mol
# Density = 2.242160 g / cm^3
# Si number density = 22.472751 Si / 1000 Ang^3
#
#
#
# Elastic Constant Matrix: (Units=GPa)
#
#
# Indices 1 2 3 4 5 6 
#
# 1 87.2977 30.7490 42.9868 0.0000 0.0000 0.0000
# 2 30.7490 80.7445 19.1886 0.0000 0.0000 0.0000
# 3 42.9868 19.1886 145.7902 0.0000 0.0000 0.0000
# 4 0.0000 0.0000 0.0000 24.5140 0.0000 0.0000
# 5 0.0000 0.0000 0.0000 0.0000 69.1549 0.0000
# 6 0.0000 0.0000 0.0000 0.0000 0.0000 -0.9010
#
#
#
# Elastic Compliance Matrix: (Units=1/GPa)
#
#
# Indices 1 2 3 4 5 6 
#
# 1 0.015021 -0.004818 -0.003795 0.000000 0.000000 0.000000
# 2 -0.004818 0.014330 -0.000465 0.000000 0.000000 0.000000
# 3 -0.003795 -0.000465 0.008039 0.000000 0.000000 0.000000
# 4 0.000000 0.000000 0.000000 0.040793 0.000000 0.000000
# 5 0.000000 0.000000 0.000000 0.000000 0.014460 0.000000
# 6 0.000000 0.000000 0.000000 0.000000 0.000000 -1.109836
#
#
# Mechanical properties :
#
#
# Convention : Reuss Voigt Hill
#
# Bulk Modulus (GPa) = 51.99307 55.52011 53.75659
# Shear Modulus (GPa) = -5.03716 33.28078 14.12181
#
# Velocity S-wave (km/s) = -1.49877 3.85247 2.50950
# Velocity P-wave (km/s) = 4.49346 6.67442 5.68942
#
# Compressibility (1/GPa) = 0.01923333
#
# Stress axis : x y z
#
# Youngs Moduli (GPa) = 66.57415 69.78229 124.38857
#
# Poissons Ratio (x) = 0.33624 0.47202
# Poissons Ratio (y) = 0.32078 0.05789
# Poissons Ratio (z) = 0.25263 0.03248
#
# Static dielectric constant tensor:
#      x y z
#    x 1.945250 0.000000 0.000000 
#    y 0.000000 1.812490 0.000000 
#    z 0.000000 0.000000 1.814410 
# 
# From -- ./inp_files/2394.got.cif
#   From: 2010.05.17/outbox.cif.g08.bks.cpg/sg17_2_cif.got.tgz:2394.got - 2010.06.03 22:34:06.
