data_PCOD9311565
_publ_section_title
;
Structure prediction by ZEFSAII (Michael W. Deem and Ramdas Pophale) SiO2 
 PCOD9311565
Probable space group: P 2 2 21
;
_chemical_formula_sum "Si O2"
_cell_formula_units_Z 20
_cell_length_a 4.972121
_cell_length_b 10.197501
_cell_length_c 18.552090
_cell_angle_alpha 90.000000
_cell_angle_beta 90.000000
_cell_angle_gamma 90.000000
_cell_volume 940.650494
_symmetry_space_group_name_H-M "P 2 2 21"
_symmetry_group_IT_number 17
_symmetry_cell_setting 'orthorhombic'
loop_
_space_group_symop_operation_xyz
x,y,z
-x,-y,1/2+z
x,-y,-z
-x,y,1/2-z
loop_
_atom_site_type_symbol
_atom_site_label
_atom_site_fract_x
_atom_site_fract_y
_atom_site_fract_z
Si Si1 0.433789 0.511634 0.914618
Si Si2 0.130657 0.149004 0.980023
Si Si3 0.954534 0.679135 0.884540
Si Si4 0.000000 0.867709 0.750000
Si Si5 0.369941 0.778949 0.391021
Si Si6 0.500000 0.054298 0.750000
O O1 0.170200 0.562599 0.873637
O O2 0.544742 0.372732 0.887326
O O3 0.670322 0.617072 0.905259
O O4 0.370109 0.500000 0.000000
O O5 0.434379 0.160558 0.952166
O O6 0.934243 0.201248 0.917308
O O7 0.072870 0.237908 0.049117
O O8 0.067015 0.000000 0.000000
O O9 0.929647 0.774412 0.816834
O O10 0.749678 0.960469 0.730999
O O11 0.421101 0.855959 0.317514
#
# Coordination Sequence:
#
# PCOD9311565 Si02
#       6
#     4   4   4   2   4   2
#     4  12  23  44  70 101 136 170 226 282 325 398
#     4  12  23  40  66  98 126 175 230 270 323 396
#     4  12  24  43  70  97 135 178 219 278 335 391
#     4  12  28  48  68  98 140 176 222 276 338 398
#     4  12  25  41  68  95 133 176 218 275 337 384
#     4  12  26  48  64  96 140 176 218 284 332 402
#
# _framework density 21.261883999999998
#
# number of rings (size 3 to 8) (size 9 to 14) (size 15 to 20)
#    0.000    0.000    4.000    7.200    0.000    1.600 
#    0.000    0.000    0.000    0.000    0.000    0.000 
#    0.000    0.000    0.000    0.000    0.000    0.000 
#
# Total GULP energy -112085.696198 kJ/mol
# GULP energy per Si atom -5604.284810 kJ/mol
# Density = 2.121349 g / cm^3
# Si number density = 21.261884 Si / 1000 Ang^3
#
#
#
# Elastic Constant Matrix: (Units=GPa)
#
#
# Indices 1 2 3 4 5 6 
#
# 1 54.4093 -8.9872 -29.5081 0.0000 0.0000 0.0000
# 2 -8.9872 106.2181 22.4774 0.0000 0.0000 0.0000
# 3 -29.5081 22.4774 66.5136 0.0000 0.0000 0.0000
# 4 0.0000 0.0000 0.0000 26.9916 0.0000 0.0000
# 5 0.0000 0.0000 0.0000 0.0000 1.7430 0.0000
# 6 0.0000 0.0000 0.0000 0.0000 0.0000 0.1103
#
#
#
# Elastic Compliance Matrix: (Units=1/GPa)
#
#
# Indices 1 2 3 4 5 6 
#
# 1 0.024208 -0.000242 0.010821 0.000000 0.000000 0.000000
# 2 -0.000242 0.010142 -0.003535 0.000000 0.000000 0.000000
# 3 0.010821 -0.003535 0.021030 0.000000 0.000000 0.000000
# 4 0.000000 0.000000 0.000000 0.037049 0.000000 0.000000
# 5 0.000000 0.000000 0.000000 0.000000 0.573727 0.000000
# 6 0.000000 0.000000 0.000000 0.000000 0.000000 9.068333
#
#
# Mechanical properties :
#
#
# Convention : Reuss Voigt Hill
#
# Bulk Modulus (GPa) = 14.39470 21.67836 18.03653
# Shear Modulus (GPa) = 0.51316 21.97957 11.24636
#
# Velocity S-wave (km/s) = 0.49181 3.21869 2.30238
# Velocity P-wave (km/s) = 2.66597 4.90218 3.94580
#
# Compressibility (1/GPa) = 0.06947003
#
# Stress axis : x y z
#
# Youngs Moduli (GPa) = 41.30853 98.59867 47.55159
#
# Poissons Ratio (x) = 0.02383 -0.51457
# Poissons Ratio (y) = 0.00998 0.16808
# Poissons Ratio (z) = -0.44701 0.34851
#
# Static dielectric constant tensor:
#      x y z
#    x 1.737890 0.000000 0.000000 
#    y 0.000000 1.759790 0.000000 
#    z 0.000000 0.000000 1.721480 
# 
# From -- ./inp_files/8948.got.cif
#   From: 2010.05.17/outbox.cif.g08.bks.cpg/sg17_5_cif.got.tgz:8948.got - 2010.06.03 22:34:06.
