data_PCOD9311277
_publ_section_title
;
Structure prediction by ZEFSAII (Michael W. Deem and Ramdas Pophale) SiO2 
 PCOD9311277
Probable space group: P 2 2 21
;
_chemical_formula_sum "Si O2"
_cell_formula_units_Z 32
_cell_length_a 11.492637
_cell_length_b 9.382632
_cell_length_c 14.572795
_cell_angle_alpha 90.000000
_cell_angle_beta 90.000000
_cell_angle_gamma 90.000000
_cell_volume 1571.401734
_symmetry_space_group_name_H-M "P 2 2 21"
_symmetry_group_IT_number 17
_symmetry_cell_setting 'orthorhombic'
loop_
_space_group_symop_operation_xyz
x,y,z
-x,-y,1/2+z
x,-y,-z
-x,y,1/2-z
loop_
_atom_site_type_symbol
_atom_site_label
_atom_site_fract_x
_atom_site_fract_y
_atom_site_fract_z
Si Si1 0.370552 0.188976 0.281453
Si Si2 0.871065 0.137971 0.948115
Si Si3 0.362805 0.484415 0.761722
Si Si4 0.861925 0.866631 0.446892
Si Si5 0.135213 0.999259 0.747883
Si Si6 0.324209 0.650903 0.044944
Si Si7 0.459602 0.167992 0.487070
Si Si8 0.295790 0.624641 0.429909
O O1 0.500000 0.131757 0.250000
O O2 0.352378 0.343266 0.233199
O O3 0.251460 0.100239 0.261736
O O4 0.394278 0.204098 0.391135
O O5 0.817367 0.292313 0.964272
O O6 0.004780 0.143778 0.976132
O O7 0.862656 0.099550 0.841215
O O8 0.817040 0.000000 0.000000
O O9 0.500000 0.460770 0.750000
O O10 0.331071 0.386519 0.847573
O O11 0.293167 0.437681 0.671377
O O12 0.799369 0.721670 0.470942
O O13 0.806925 0.000000 0.500000
O O14 0.854125 0.908860 0.340297
O O15 0.000000 0.936153 0.750000
O O16 0.344825 0.500000 0.000000
O O17 0.415634 0.759562 0.999902
O O18 0.387474 0.246299 0.566802
O O19 0.466095 0.000000 0.500000
O O20 0.330799 0.500000 0.500000
#
# Coordination Sequence:
#
# PCOD9311277 Si02
#       8
#     4   4   4   4   4   4   4   4
#     4  11  24  40  66 101 135 174 224 277 337 404
#     4  10  22  43  66  94 131 174 218 281 336 404
#     4  11  23  42  63  91 134 176 211 267 345 401
#     4  10  24  43  67  93 131 175 225 272 340 403
#     4  10  22  44  69  96 137 178 224 282 340 406
#     4  12  25  42  66  93 133 173 216 275 334 404
#     4  12  25  42  66  96 134 171 217 278 335 400
#     4  12  22  40  67  95 130 167 221 275 335 401
#
# _framework density 20.363985
#
# number of rings (size 3 to 8) (size 9 to 14) (size 15 to 20)
#    0.000    1.000    2.500    4.875    5.250    0.500 
#    0.000    1.250    0.000    0.000    0.000    0.000 
#    0.000    0.000    0.000    0.000    0.000    0.000 
#
# Total GULP energy -178482.916476 kJ/mol
# GULP energy per Si atom -5577.591140 kJ/mol
# Density = 2.031764 g / cm^3
# Si number density = 20.363985 Si / 1000 Ang^3
#
#
#
# Elastic Constant Matrix: (Units=GPa)
#
#
# Indices 1 2 3 4 5 6 
#
# 1 104.9719 43.0228 -11.0832 0.0000 0.0000 0.0000
# 2 43.0228 111.7973 -0.5715 0.0000 0.0000 0.0000
# 3 -11.0832 -0.5715 50.9592 0.0000 0.0000 0.0000
# 4 0.0000 0.0000 0.0000 -46.5117 0.0000 0.0000
# 5 0.0000 0.0000 0.0000 0.0000 -71.9168 0.0000
# 6 0.0000 0.0000 0.0000 0.0000 0.0000 20.7830
#
#
#
# Elastic Compliance Matrix: (Units=1/GPa)
#
#
# Indices 1 2 3 4 5 6 
#
# 1 0.011614 -0.004457 0.002476 0.000000 0.000000 0.000000
# 2 -0.004457 0.010656 -0.000850 0.000000 0.000000 0.000000
# 3 0.002476 -0.000850 0.020153 0.000000 0.000000 0.000000
# 4 0.000000 0.000000 0.000000 -0.021500 0.000000 0.000000
# 5 0.000000 0.000000 0.000000 0.000000 -0.013905 0.000000
# 6 0.000000 0.000000 0.000000 0.000000 0.000000 0.048116
#
#
# Mechanical properties :
#
#
# Convention : Reuss Voigt Hill
#
# Bulk Modulus (GPa) = 27.20262 36.71830 31.96046
# Shear Modulus (GPa) = 68.44731 -3.77173 32.33779
#
# Velocity S-wave (km/s) = 5.80387 -1.36242 3.98928
# Velocity P-wave (km/s) = 7.63547 3.94908 6.07847
#
# Compressibility (1/GPa) = 0.03676116
#
# Stress axis : x y z
#
# Youngs Moduli (GPa) = 86.09957 93.84770 49.62154
#
# Poissons Ratio (x) = 0.41827 -0.12287
# Poissons Ratio (y) = 0.38374 0.04217
# Poissons Ratio (z) = -0.21319 0.07976
#
# Static dielectric constant tensor:
#      x y z
#    x 1.797830 0.000000 0.000000 
#    y 0.000000 2.958750 0.000000 
#    z 0.000000 0.000000 1.716470 
# 
# From -- ./inp_files/8313.got.cif
#   From: 2010.05.17/outbox.cif.g08.bks.cpg/sg17_5_cif.got.tgz:8313.got - 2010.06.03 22:34:06.
