data_PCOD9311332
_publ_section_title
;
Structure prediction by ZEFSAII (Michael W. Deem and Ramdas Pophale) SiO2 
 PCOD9311332
Probable space group: P 2 2 21
;
_chemical_formula_sum "Si O2"
_cell_formula_units_Z 32
_cell_length_a 8.211137
_cell_length_b 15.509870
_cell_length_c 11.110701
_cell_angle_alpha 90.000000
_cell_angle_beta 90.000000
_cell_angle_gamma 90.000000
_cell_volume 1414.988520
_symmetry_space_group_name_H-M "P 2 2 21"
_symmetry_group_IT_number 17
_symmetry_cell_setting 'orthorhombic'
loop_
_space_group_symop_operation_xyz
x,y,z
-x,-y,1/2+z
x,-y,-z
-x,y,1/2-z
loop_
_atom_site_type_symbol
_atom_site_label
_atom_site_fract_x
_atom_site_fract_y
_atom_site_fract_z
Si Si1 0.840336 0.351613 0.169613
Si Si2 0.179145 0.772509 0.197609
Si Si3 0.805628 0.173784 0.269881
Si Si4 0.677946 0.090614 0.046030
Si Si5 0.696457 0.723879 0.052726
Si Si6 0.332833 0.529077 0.809262
Si Si7 0.662742 0.357495 0.541230
Si Si8 0.703916 0.903136 0.484595
O O1 0.743316 0.267737 0.224195
O O2 0.789481 0.448608 0.202597
O O3 0.000000 0.341037 0.250000
O O4 0.815284 0.335927 0.027836
O O5 0.280659 0.728312 0.304792
O O6 0.197320 0.705487 0.088047
O O7 0.000000 0.784989 0.250000
O O8 0.253761 0.860219 0.143186
O O9 0.712073 0.104195 0.187002
O O10 0.772440 0.155417 0.408089
O O11 0.000000 0.165032 0.250000
O O12 0.489044 0.092655 0.008273
O O13 0.742932 0.178474 0.986601
O O14 0.747719 0.000000 0.000000
O O15 0.509837 0.693201 0.028706
O O16 0.500000 0.557238 0.750000
O O17 0.351919 0.434491 0.861658
O O18 0.293948 0.593329 0.918808
O O19 0.769320 0.000000 0.500000
#
# Coordination Sequence:
#
# PCOD9311332 Si02
#       8
#     4   4   4   4   4   4   4   4
#     4  10  23  40  70 100 138 176 228 284 349 421
#     4  12  28  44  68  96 140 181 229 283 363 434
#     4  10  23  41  66  97 134 173 225 284 344 416
#     4  10  23  41  69  98 132 175 230 287 342 408
#     4  11  23  45  68  99 136 187 223 288 352 422
#     4  11  22  41  72 103 133 176 236 294 342 415
#     4  11  24  44  70 101 137 183 235 291 351 421
#     4  11  25  43  65  96 131 180 231 286 341 418
#
# _framework density 22.615027000000001
#
# number of rings (size 3 to 8) (size 9 to 14) (size 15 to 20)
#    0.000    1.250    2.500    2.250    8.750    1.500 
#    0.000    0.000    0.000    0.000    0.000    0.000 
#    0.000    0.000    0.000    0.000    0.000    0.000 
#
# Total GULP energy -178531.314935 kJ/mol
# GULP energy per Si atom -5579.103592 kJ/mol
# Density = 2.256355 g / cm^3
# Si number density = 22.615027 Si / 1000 Ang^3
#
#
#
# Elastic Constant Matrix: (Units=GPa)
#
#
# Indices 1 2 3 4 5 6 
#
# 1 62.8236 8.6008 19.4283 0.0000 0.0000 0.0000
# 2 8.6008 86.7768 47.9604 0.0000 0.0000 0.0000
# 3 19.4283 47.9604 114.4851 0.0000 0.0000 0.0000
# 4 0.0000 0.0000 0.0000 -34.4201 0.0000 0.0000
# 5 0.0000 0.0000 0.0000 0.0000 36.9219 0.0000
# 6 0.0000 0.0000 0.0000 0.0000 0.0000 22.1586
#
#
#
# Elastic Compliance Matrix: (Units=1/GPa)
#
#
# Indices 1 2 3 4 5 6 
#
# 1 0.016800 -0.000116 -0.002802 0.000000 0.000000 0.000000
# 2 -0.000116 0.014997 -0.006263 0.000000 0.000000 0.000000
# 3 -0.002802 -0.006263 0.011834 0.000000 0.000000 0.000000
# 4 0.000000 0.000000 0.000000 -0.029053 0.000000 0.000000
# 5 0.000000 0.000000 0.000000 0.000000 0.027084 0.000000
# 6 0.000000 0.000000 0.000000 0.000000 0.000000 0.045129
#
#
# Mechanical properties :
#
#
# Convention : Reuss Voigt Hill
#
# Bulk Modulus (GPa) = 39.57566 46.22938 42.90252
# Shear Modulus (GPa) = 44.02316 17.47181 30.74749
#
# Velocity S-wave (km/s) = 4.41685 2.78254 3.69128
# Velocity P-wave (km/s) = 6.59918 5.55064 6.09749
#
# Compressibility (1/GPa) = 0.02526806
#
# Stress axis : x y z
#
# Youngs Moduli (GPa) = 59.52342 66.68147 84.50305
#
# Poissons Ratio (x) = 0.00776 0.23680
# Poissons Ratio (y) = 0.00693 0.52922
# Poissons Ratio (z) = 0.16680 0.41761
#
# Static dielectric constant tensor:
#      x y z
#    x 2.031850 0.000000 0.000000 
#    y 0.000000 1.885530 0.000000 
#    z 0.000000 0.000000 1.923120 
# 
# From -- ./inp_files/6740.got.cif
#   From: 2010.05.17/outbox.cif.g08.bks.cpg/sg17_4_cif.got.tgz:6740.got - 2010.06.03 22:34:06.
