data_PCOD9311283
_publ_section_title
;
Structure prediction by ZEFSAII (Michael W. Deem and Ramdas Pophale) SiO2 
 PCOD9311283
Probable space group: P 2 2 21
;
_chemical_formula_sum "Si O2"
_cell_formula_units_Z 24
_cell_length_a 10.762183
_cell_length_b 6.038671
_cell_length_c 16.912575
_cell_angle_alpha 90.000000
_cell_angle_beta 90.000000
_cell_angle_gamma 90.000000
_cell_volume 1099.136112
_symmetry_space_group_name_H-M "P 2 2 21"
_symmetry_group_IT_number 17
_symmetry_cell_setting 'orthorhombic'
loop_
_space_group_symop_operation_xyz
x,y,z
-x,-y,1/2+z
x,-y,-z
-x,y,1/2-z
loop_
_atom_site_type_symbol
_atom_site_label
_atom_site_fract_x
_atom_site_fract_y
_atom_site_fract_z
Si Si1 0.410226 0.000000 0.000000
Si Si2 0.169203 0.464334 0.790114
Si Si3 0.581187 0.677891 0.105722
Si Si4 0.204078 0.500000 0.500000
Si Si5 0.931399 0.303460 0.141221
Si Si6 0.500000 0.949382 0.250000
Si Si7 0.000000 0.079513 0.750000
Si Si8 0.389101 0.303759 0.133530
O O1 0.496728 0.843390 0.053791
O O2 0.339678 0.169060 0.057608
O O3 0.163272 0.600550 0.707868
O O4 0.295993 0.512193 0.833811
O O5 0.057397 0.558673 0.844371
O O6 0.121495 0.222187 0.769834
O O7 0.580284 0.793233 0.191636
O O8 0.514013 0.438556 0.112212
O O9 0.708785 0.639067 0.059696
O O10 0.122779 0.659645 0.555303
O O11 0.966050 0.063477 0.173335
O O12 0.416537 0.116233 0.198342
#
# Coordination Sequence:
#
# PCOD9311283 Si02
#       8
#     2   4   4   2   4   2   2   4
#     4  10  22  44  60 100 132 184 224 274 364 396
#     4   9  21  44  70  97 133 174 238 283 331 413
#     4  11  24  44  64 101 143 181 229 287 341 417
#     4  12  24  46  68 100 150 178 222 304 344 402
#     4   9  22  43  66 100 134 179 228 278 349 410
#     4  10  26  40  66 108 132 190 238 262 360 416
#     4   8  18  46  72 100 128 180 236 282 350 412
#     4  11  22  43  69  97 140 182 232 289 341 416
#
# _framework density 21.835331
#
# number of rings (size 3 to 8) (size 9 to 14) (size 15 to 20)
#    0.000    2.333    1.667    0.500    4.667    5.333 
#   15.000    0.000    0.000    0.000    0.000    0.000 
#    0.000    0.000    0.000    0.000    0.000    0.000 
#
# Total GULP energy -134088.861260 kJ/mol
# GULP energy per Si atom -5587.035886 kJ/mol
# Density = 2.178563 g / cm^3
# Si number density = 21.835331 Si / 1000 Ang^3
#
#
#
# Elastic Constant Matrix: (Units=GPa)
#
#
# Indices 1 2 3 4 5 6 
#
# 1 51.1172 9.3583 44.1855 0.0000 0.0000 0.0000
# 2 9.3583 96.2874 43.7960 0.0000 0.0000 0.0000
# 3 44.1855 43.7960 130.0159 0.0000 0.0000 0.0000
# 4 0.0000 0.0000 0.0000 30.0737 0.0000 0.0000
# 5 0.0000 0.0000 0.0000 0.0000 38.4462 0.0000
# 6 0.0000 0.0000 0.0000 0.0000 0.0000 -1.8244
#
#
#
# Elastic Compliance Matrix: (Units=1/GPa)
#
#
# Indices 1 2 3 4 5 6 
#
# 1 0.027990 0.001897 -0.010151 0.000000 0.000000 0.000000
# 2 0.001897 0.012393 -0.004819 0.000000 0.000000 0.000000
# 3 -0.010151 -0.004819 0.012765 0.000000 0.000000 0.000000
# 4 0.000000 0.000000 0.000000 0.033252 0.000000 0.000000
# 5 0.000000 0.000000 0.000000 0.000000 0.026010 0.000000
# 6 0.000000 0.000000 0.000000 0.000000 0.000000 -0.548119
#
#
# Mechanical properties :
#
#
# Convention : Reuss Voigt Hill
#
# Bulk Modulus (GPa) = 37.03609 52.45555 44.74582
# Shear Modulus (GPa) = -12.48249 25.34447 6.43099
#
# Velocity S-wave (km/s) = -2.39355 3.41061 1.71803
# Velocity P-wave (km/s) = 3.05935 6.29167 4.94696
#
# Compressibility (1/GPa) = 0.02700069
#
# Stress axis : x y z
#
# Youngs Moduli (GPa) = 35.72646 80.68890 78.34101
#
# Poissons Ratio (x) = -0.15306 0.79527
# Poissons Ratio (y) = -0.06777 0.37755
# Poissons Ratio (z) = 0.36268 0.38887
#
# Static dielectric constant tensor:
#      x y z
#    x 1.797970 0.000000 0.000000 
#    y 0.000000 1.809640 0.000000 
#    z 0.000000 0.000000 1.833130 
# 
# From -- ./inp_files/9616.got.cif
#   From: 2010.05.17/outbox.cif.g08.bks.cpg/sg17_5_cif.got.tgz:9616.got - 2010.06.03 22:34:06.
