data_PCOD9311580
_publ_section_title
;
Structure prediction by ZEFSAII (Michael W. Deem and Ramdas Pophale) SiO2 
 PCOD9311580
Probable space group: P 2 2 21
;
_chemical_formula_sum "Si O2"
_cell_formula_units_Z 14
_cell_length_a 6.063408
_cell_length_b 12.217747
_cell_length_c 7.357751
_cell_angle_alpha 90.000000
_cell_angle_beta 90.000000
_cell_angle_gamma 90.000000
_cell_volume 545.070912
_symmetry_space_group_name_H-M "P 2 2 21"
_symmetry_group_IT_number 17
_symmetry_cell_setting 'orthorhombic'
loop_
_space_group_symop_operation_xyz
x,y,z
-x,-y,1/2+z
x,-y,-z
-x,y,1/2-z
loop_
_atom_site_type_symbol
_atom_site_label
_atom_site_fract_x
_atom_site_fract_y
_atom_site_fract_z
Si Si1 0.500000 0.383712 0.750000
Si Si2 0.684602 0.794539 0.524532
Si Si3 0.000000 0.680502 0.750000
Si Si4 0.000000 0.091184 0.750000
Si Si5 0.362564 0.000000 0.500000
Si Si6 0.840097 0.500000 0.000000
O O1 0.421038 0.304527 0.911430
O O2 0.309763 0.458754 0.666359
O O3 0.783106 0.752190 0.713975
O O4 0.896933 0.836598 0.410153
O O5 0.514977 0.894438 0.526306
O O6 0.025616 0.602208 0.576281
O O7 0.199704 0.021262 0.668769
#
# Coordination Sequence:
#
# PCOD9311580 Si02
#       6
#     2   4   2   2   2   2
#     4  12  24  52  78 116 162 210 272 334 402 464
#     4  12  27  51  80 121 163 210 267 329 399 488
#     4  12  28  50  84 120 160 214 273 329 412 464
#     4  12  26  52  74 114 166 212 265 321 394 478
#     4  12  28  52  78 116 168 208 268 330 390 496
#     4  12  26  52  80 116 160 210 274 342 390 474
#
# _framework density 25.684730999999999
#
# number of rings (size 3 to 8) (size 9 to 14) (size 15 to 20)
#    0.000    0.000    2.857    6.000    0.000    6.857 
#    5.143    0.000    0.000    0.000    0.000    0.000 
#    0.000    0.000    0.000    0.000    0.000    0.000 
#
# Total GULP energy -78694.724181 kJ/mol
# GULP energy per Si atom -5621.051727 kJ/mol
# Density = 2.562627 g / cm^3
# Si number density = 25.684731 Si / 1000 Ang^3
#
#
#
# Elastic Constant Matrix: (Units=GPa)
#
#
# Indices 1 2 3 4 5 6 
#
# 1 124.2557 75.8399 29.1714 0.0000 0.0000 0.0000
# 2 75.8399 148.8051 36.1650 0.0000 0.0000 0.0000
# 3 29.1714 36.1650 81.1382 0.0000 0.0000 0.0000
# 4 0.0000 0.0000 0.0000 53.8284 0.0000 0.0000
# 5 0.0000 0.0000 0.0000 0.0000 78.7272 0.0000
# 6 0.0000 0.0000 0.0000 0.0000 0.0000 59.9411
#
#
#
# Elastic Compliance Matrix: (Units=1/GPa)
#
#
# Indices 1 2 3 4 5 6 
#
# 1 0.011903 -0.005637 -0.001767 0.000000 0.000000 0.000000
# 2 -0.005637 0.010206 -0.002522 0.000000 0.000000 0.000000
# 3 -0.001767 -0.002522 0.014084 0.000000 0.000000 0.000000
# 4 0.000000 0.000000 0.000000 0.018578 0.000000 0.000000
# 5 0.000000 0.000000 0.000000 0.000000 0.012702 0.000000
# 6 0.000000 0.000000 0.000000 0.000000 0.000000 0.016683
#
#
# Mechanical properties :
#
#
# Convention : Reuss Voigt Hill
#
# Bulk Modulus (GPa) = 61.19693 70.72795 65.96244
# Shear Modulus (GPa) = 45.68004 52.70085 49.19045
#
# Velocity S-wave (km/s) = 4.22179 4.53463 4.38101
# Velocity P-wave (km/s) = 6.90236 7.41714 7.16438
#
# Compressibility (1/GPa) = 0.01634069
#
# Stress axis : x y z
#
# Youngs Moduli (GPa) = 84.00893 97.97840 71.00144
#
# Poissons Ratio (x) = 0.55233 0.12546
# Poissons Ratio (y) = 0.47358 0.17909
# Poissons Ratio (z) = 0.14844 0.24714
#
# Static dielectric constant tensor:
#      x y z
#    x 1.997650 0.000000 0.000000 
#    y 0.000000 1.943920 0.000000 
#    z 0.000000 0.000000 2.089930 
# 
# From -- ./inp_files/3366.got.cif
#   From: 2010.05.17/outbox.cif.g08.bks.cpg/sg17_2_cif.got.tgz:3366.got - 2010.06.03 22:34:06.
