data_PCOD9311690
_publ_section_title
;
Structure prediction by ZEFSAII (Michael W. Deem and Ramdas Pophale) SiO2 
 PCOD9311690
Probable space group: P 21 21 2
;
_chemical_formula_sum "Si O2"
_cell_formula_units_Z 32
_cell_length_a 7.595087
_cell_length_b 11.297314
_cell_length_c 19.759209
_cell_angle_alpha 90.000000
_cell_angle_beta 90.000000
_cell_angle_gamma 90.000000
_cell_volume 1695.420803
_symmetry_space_group_name_H-M "P 21 21 2"
_symmetry_group_IT_number 18
_symmetry_cell_setting 'orthorhombic'
loop_
_space_group_symop_operation_xyz
x,y,z
-x,-y,z
1/2+x,1/2-y,-z
1/2-x,1/2+y,-z
loop_
_atom_site_type_symbol
_atom_site_label
_atom_site_fract_x
_atom_site_fract_y
_atom_site_fract_z
Si Si1 0.639029 0.146207 0.917298
Si Si2 0.293328 0.859989 0.449288
Si Si3 0.731805 0.016538 0.122975
Si Si4 0.689716 0.436642 0.031072
Si Si5 0.998032 0.139134 0.337938
Si Si6 0.541912 0.325091 0.814311
Si Si7 0.210130 0.639076 0.550030
Si Si8 0.001820 0.291618 0.938810
O O1 0.562943 0.200905 0.850603
O O2 0.819830 0.222681 0.928160
O O3 0.694410 0.011579 0.917764
O O4 0.518561 0.163822 0.983681
O O5 0.251269 0.749126 0.499303
O O6 0.501868 0.857501 0.435665
O O7 0.173600 0.837488 0.383401
O O8 0.252190 0.999155 0.471414
O O9 0.564354 0.106364 0.113503
O O10 0.888783 0.106733 0.144222
O O11 0.783970 0.908912 0.174216
O O12 0.753320 0.960645 0.047285
O O13 0.500000 0.500000 0.030327
O O14 0.652669 0.307879 0.059214
O O15 0.001846 0.194136 0.263997
O O16 0.167536 0.162683 0.384864
O O17 0.000000 0.000000 0.323034
#
# Coordination Sequence:
#
# PCOD9311690 Si02
#       8
#     4   4   4   4   4   4   4   4
#     4  10  19  31  50  73 100 137 183 244 286 347
#     4  10  20  36  62  97 125 161 197 250 295 353
#     4  10  18  32  51  70 103 140 175 233 286 340
#     4   9  15  30  49  67  96 133 181 235 291 327
#     4  10  20  36  59  87 122 166 185 236 300 355
#     4  11  19  36  52  75 111 147 181 223 300 346
#     4  10  20  36  62  97 129 153 209 242 296 353
#     4  10  19  31  49  74  96 135 192 237 294 339
#
# _framework density 18.874368
#
# number of rings (size 3 to 8) (size 9 to 14) (size 15 to 20)
#    0.000    2.000    5.000    1.500    0.000    0.500 
#    2.250    3.125    0.000    3.000    3.250    0.000 
#    0.000    0.000    0.000    0.000    0.000    0.000 
#
# Total GULP energy -178214.794360 kJ/mol
# GULP energy per Si atom -5569.212324 kJ/mol
# Density = 1.883141 g / cm^3
# Si number density = 18.874368 Si / 1000 Ang^3
#
#
#
# Elastic Constant Matrix: (Units=GPa)
#
#
# Indices 1 2 3 4 5 6 
#
# 1 94.1205 18.9356 39.9961 0.0000 0.0000 0.0000
# 2 18.9356 116.1994 58.4920 0.0000 0.0000 0.0000
# 3 39.9961 58.4920 120.6534 0.0000 0.0000 0.0000
# 4 0.0000 0.0000 0.0000 29.6540 0.0000 0.0000
# 5 0.0000 0.0000 0.0000 0.0000 14.8482 0.0000
# 6 0.0000 0.0000 0.0000 0.0000 0.0000 35.8368
#
#
#
# Elastic Compliance Matrix: (Units=1/GPa)
#
#
# Indices 1 2 3 4 5 6 
#
# 1 0.012367 0.000064 -0.004131 0.000000 0.000000 0.000000
# 2 0.000064 0.011384 -0.005540 0.000000 0.000000 0.000000
# 3 -0.004131 -0.005540 0.012343 0.000000 0.000000 0.000000
# 4 0.000000 0.000000 0.000000 0.033722 0.000000 0.000000
# 5 0.000000 0.000000 0.000000 0.000000 0.067348 0.000000
# 6 0.000000 0.000000 0.000000 0.000000 0.000000 0.027904
#
#
# Mechanical properties :
#
#
# Convention : Reuss Voigt Hill
#
# Bulk Modulus (GPa) = 59.23849 62.86896 61.05372
# Shear Modulus (GPa) = 26.32821 30.30445 28.31633
#
# Velocity S-wave (km/s) = 3.73891 4.01133 3.87751
# Velocity P-wave (km/s) = 7.07765 7.40512 7.24323
#
# Compressibility (1/GPa) = 0.01688092
#
# Stress axis : x y z
#
# Youngs Moduli (GPa) = 80.85961 87.84033 81.01521
#
# Poissons Ratio (x) = -0.00562 0.33465
# Poissons Ratio (y) = -0.00517 0.44884
# Poissons Ratio (z) = 0.33400 0.48666
#
# Static dielectric constant tensor:
#      x y z
#    x 1.815330 0.000000 0.000000 
#    y 0.000000 1.729150 0.000000 
#    z 0.000000 0.000000 1.614520 
# 
# From -- ./inp_files/7353.got.cif
#   From: 2010.05.17/outbox.cif.g08.bks.cpg/sg18_4_cif.got.tgz:7353.got - 2010.06.03 22:40:56.
