data_PCOD9311708
_publ_section_title
;
Structure prediction by ZEFSAII (Michael W. Deem and Ramdas Pophale) SiO2 
 PCOD9311708
Probable space group: P 21 21 2
;
_chemical_formula_sum "Si O2"
_cell_formula_units_Z 26
_cell_length_a 8.248569
_cell_length_b 16.871060
_cell_length_c 7.201387
_cell_angle_alpha 90.000000
_cell_angle_beta 90.000000
_cell_angle_gamma 90.000000
_cell_volume 1002.160156
_symmetry_space_group_name_H-M "P 21 21 2"
_symmetry_group_IT_number 18
_symmetry_cell_setting 'orthorhombic'
loop_
_space_group_symop_operation_xyz
x,y,z
-x,-y,z
1/2+x,1/2-y,-z
1/2-x,1/2+y,-z
loop_
_atom_site_type_symbol
_atom_site_label
_atom_site_fract_x
_atom_site_fract_y
_atom_site_fract_z
Si Si1 0.500000 0.000000 0.506103
Si Si2 0.800105 0.352292 0.910811
Si Si3 0.291857 0.794115 0.391179
Si Si4 0.883024 0.350869 0.476525
Si Si5 0.644202 0.557434 0.621263
Si Si6 0.666066 0.523701 0.041669
Si Si7 0.356448 0.818575 0.957721
O O1 0.414085 0.067153 0.622298
O O2 0.662149 0.034375 0.403365
O O3 0.846792 0.368676 0.694379
O O4 0.742937 0.437832 0.989087
O O5 0.950765 0.327537 0.040108
O O6 0.696507 0.270075 0.894980
O O7 0.251792 0.703089 0.396738
O O8 0.445557 0.807490 0.520382
O O9 0.147634 0.852935 0.455147
O O10 0.324878 0.815915 0.179697
O O11 0.500000 0.500000 0.550947
O O12 0.613419 0.558919 0.840998
O O13 0.500000 0.500000 0.145377
O O14 0.769487 0.599841 0.117319
#
# Coordination Sequence:
#
# PCOD9311708 Si02
#       7
#     2   4   4   4   4   4   4
#     4  10  18  34  54  84 114 150 194 252 284 352
#     4  11  21  37  62  86 120 160 197 257 296 363
#     4   9  21  35  55  86 117 148 191 249 297 358
#     4  10  21  35  61  85 119 151 200 245 304 349
#     4   9  18  31  54  83 109 146 197 238 289 347
#     4  10  19  33  58  85 112 153 202 242 294 365
#     4  10  22  37  58  88 119 153 202 248 310 360
#
# _framework density 25.943959
#
# number of rings (size 3 to 8) (size 9 to 14) (size 15 to 20)
#    0.000    2.154    1.538    2.308    2.154    2.462 
#    0.000    0.000   10.154    0.923    0.000    0.000 
#    0.000    0.000    0.000    0.000    0.000    0.000 
#
# Total GULP energy -144899.153632 kJ/mol
# GULP energy per Si atom -5573.044370 kJ/mol
# Density = 2.588491 g / cm^3
# Si number density = 25.943959 Si / 1000 Ang^3
#
#
#
# Elastic Constant Matrix: (Units=GPa)
#
#
# Indices 1 2 3 4 5 6 
#
# 1 50.6639 16.8857 0.1832 0.0000 0.0000 0.0000
# 2 16.8857 164.6587 -4.4738 0.0000 0.0000 0.0000
# 3 0.1832 -4.4738 64.9647 0.0000 0.0000 0.0000
# 4 0.0000 0.0000 0.0000 13.6191 0.0000 0.0000
# 5 0.0000 0.0000 0.0000 0.0000 -31.8672 0.0000
# 6 0.0000 0.0000 0.0000 0.0000 0.0000 50.1810
#
#
#
# Elastic Compliance Matrix: (Units=1/GPa)
#
#
# Indices 1 2 3 4 5 6 
#
# 1 0.020439 -0.002102 -0.000202 0.000000 0.000000 0.000000
# 2 -0.002102 0.006301 0.000440 0.000000 0.000000 0.000000
# 3 -0.000202 0.000440 0.015424 0.000000 0.000000 0.000000
# 4 0.000000 0.000000 0.000000 0.073426 0.000000 0.000000
# 5 0.000000 0.000000 0.000000 0.000000 -0.031380 0.000000
# 6 0.000000 0.000000 0.000000 0.000000 0.000000 0.019928
#
#
# Mechanical properties :
#
#
# Convention : Reuss Voigt Hill
#
# Bulk Modulus (GPa) = 26.01766 33.94193 29.97979
# Shear Modulus (GPa) = 41.43284 24.23274 32.83279
#
# Velocity S-wave (km/s) = 4.00060 3.05953 3.56128
# Velocity P-wave (km/s) = 5.60267 5.05887 5.33770
#
# Compressibility (1/GPa) = 0.03843544
#
# Stress axis : x y z
#
# Youngs Moduli (GPa) = 48.92591 158.71433 64.83472
#
# Poissons Ratio (x) = 0.33354 0.01312
# Poissons Ratio (y) = 0.10282 -0.02852
# Poissons Ratio (z) = 0.00990 -0.06981
#
# Static dielectric constant tensor:
#      x y z
#    x 2.129940 0.000000 0.000000 
#    y 0.000000 2.177130 0.000000 
#    z 0.000000 0.000000 2.040000 
# 
# From -- ./inp_files/4517.got.cif
#   From: 2010.05.17/outbox.cif.g08.bks.cpg/sg18_3_cif.got.tgz:4517.got - 2010.06.03 22:40:56.
