data_PCOD9311358
_publ_section_title
;
Structure prediction by ZEFSAII (Michael W. Deem and Ramdas Pophale) SiO2 
 PCOD9311358
Probable space group: P 2 2 21
;
_chemical_formula_sum "Si O2"
_cell_formula_units_Z 18
_cell_length_a 5.579340
_cell_length_b 10.528187
_cell_length_c 13.304263
_cell_angle_alpha 90.000000
_cell_angle_beta 90.000000
_cell_angle_gamma 90.000000
_cell_volume 781.496864
_symmetry_space_group_name_H-M "P 2 2 21"
_symmetry_group_IT_number 17
_symmetry_cell_setting 'orthorhombic'
loop_
_space_group_symop_operation_xyz
x,y,z
-x,-y,1/2+z
x,-y,-z
-x,y,1/2-z
loop_
_atom_site_type_symbol
_atom_site_label
_atom_site_fract_x
_atom_site_fract_y
_atom_site_fract_z
Si Si1 0.287658 0.216581 0.109911
Si Si2 0.375728 0.114633 0.552433
Si Si3 0.500000 0.971988 0.750000
Si Si4 0.926199 0.356336 0.967437
Si Si5 0.500000 0.584079 0.750000
Si Si6 0.000000 0.567005 0.250000
O O1 0.290916 0.119760 0.204732
O O2 0.460286 0.327082 0.152647
O O3 0.398383 0.133046 0.020805
O O4 0.069418 0.291121 0.059814
O O5 0.279719 0.256210 0.553858
O O6 0.224429 0.000000 0.500000
O O7 0.416121 0.062377 0.661978
O O8 0.049418 0.363644 0.856839
O O9 0.869178 0.500000 0.000000
O O10 0.250121 0.509561 0.735233
#
# Coordination Sequence:
#
# PCOD9311358 Si02
#       6
#     4   4   2   4   2   2
#     4  10  23  45  74 104 153 203 262 327 392 475
#     4  10  24  46  71 105 147 204 261 330 389 474
#     4   9  22  47  76 102 146 210 268 328 396 476
#     4  12  26  45  72 115 150 202 254 331 399 477
#     4  11  24  49  74 114 160 208 260 314 410 474
#     4  12  28  44  76 116 158 210 250 328 396 488
#
# _framework density 23.032724000000002
#
# number of rings (size 3 to 8) (size 9 to 14) (size 15 to 20)
#    0.000    1.333    2.222    1.333    6.222    3.556 
#    0.000    0.000    0.000    0.000    0.000    0.000 
#    0.000    0.000    0.000    0.000    0.000    0.000 
#
# Total GULP energy -100308.166923 kJ/mol
# GULP energy per Si atom -5572.675940 kJ/mol
# Density = 2.298030 g / cm^3
# Si number density = 23.032724 Si / 1000 Ang^3
#
#
#
# Elastic Constant Matrix: (Units=GPa)
#
#
# Indices 1 2 3 4 5 6 
#
# 1 64.5829 29.1539 24.0194 0.0000 0.0000 0.0000
# 2 29.1539 120.3608 42.7076 0.0000 0.0000 0.0000
# 3 24.0194 42.7076 156.7857 0.0000 0.0000 0.0000
# 4 0.0000 0.0000 0.0000 49.3320 0.0000 0.0000
# 5 0.0000 0.0000 0.0000 0.0000 7.9739 0.0000
# 6 0.0000 0.0000 0.0000 0.0000 0.0000 8.6117
#
#
#
# Elastic Compliance Matrix: (Units=1/GPa)
#
#
# Indices 1 2 3 4 5 6 
#
# 1 0.017793 -0.003700 -0.001718 0.000000 0.000000 0.000000
# 2 -0.003700 0.009967 -0.002148 0.000000 0.000000 0.000000
# 3 -0.001718 -0.002148 0.007226 0.000000 0.000000 0.000000
# 4 0.000000 0.000000 0.000000 0.020271 0.000000 0.000000
# 5 0.000000 0.000000 0.000000 0.000000 0.125409 0.000000
# 6 0.000000 0.000000 0.000000 0.000000 0.000000 0.116121
#
#
# Mechanical properties :
#
#
# Convention : Reuss Voigt Hill
#
# Bulk Modulus (GPa) = 50.36784 59.27679 54.82232
# Shear Modulus (GPa) = 15.69674 29.57342 22.63508
#
# Velocity S-wave (km/s) = 2.61338 3.58715 3.13826
# Velocity P-wave (km/s) = 5.56972 6.55352 6.08154
#
# Compressibility (1/GPa) = 0.01985394
#
# Stress axis : x y z
#
# Youngs Moduli (GPa) = 56.20094 100.33274 138.38083
#
# Poissons Ratio (x) = 0.37126 0.23773
# Poissons Ratio (y) = 0.20796 0.29725
# Poissons Ratio (z) = 0.09655 0.21552
#
# Static dielectric constant tensor:
#      x y z
#    x 1.941720 0.000000 0.000000 
#    y 0.000000 1.921240 0.000000 
#    z 0.000000 0.000000 1.857260 
# 
# From -- ./inp_files/5844.got.cif
#   From: 2010.05.17/outbox.cif.g08.bks.cpg/sg17_3_cif.got.tgz:5844.got - 2010.06.03 22:34:06.
