data_PCOD9311988
_publ_section_title
;
Structure prediction by ZEFSAII (Michael W. Deem and Ramdas Pophale) SiO2 
 PCOD9311988
Probable space group: P 21 21 2
;
_chemical_formula_sum "Si O2"
_cell_formula_units_Z 26
_cell_length_a 21.731944
_cell_length_b 8.635612
_cell_length_c 6.075868
_cell_angle_alpha 90.000000
_cell_angle_beta 90.000000
_cell_angle_gamma 90.000000
_cell_volume 1140.249862
_symmetry_space_group_name_H-M "P 21 21 2"
_symmetry_group_IT_number 18
_symmetry_cell_setting 'orthorhombic'
loop_
_space_group_symop_operation_xyz
x,y,z
-x,-y,z
1/2+x,1/2-y,-z
1/2-x,1/2+y,-z
loop_
_atom_site_type_symbol
_atom_site_label
_atom_site_fract_x
_atom_site_fract_y
_atom_site_fract_z
Si Si1 0.610443 0.192258 0.486892
Si Si2 0.369170 0.289039 0.617246
Si Si3 0.932229 0.274930 0.974948
Si Si4 0.000000 0.500000 0.648355
Si Si5 0.179133 0.093002 0.156229
Si Si6 0.404742 0.517998 0.228994
Si Si7 0.818499 0.426651 0.721917
O O1 0.556229 0.064778 0.497610
O O2 0.642685 0.275860 0.698211
O O3 0.576061 0.332615 0.361963
O O4 0.661533 0.102433 0.337384
O O5 0.424010 0.218236 0.762796
O O6 0.334438 0.419810 0.754781
O O7 0.392045 0.388953 0.412117
O O8 0.326008 0.159228 0.513245
O O9 0.867521 0.349600 0.888823
O O10 0.978629 0.368896 0.823383
O O11 0.941763 0.090852 0.937035
O O12 0.251697 0.108469 0.183577
O O13 0.153309 0.081496 0.909963
#
# Coordination Sequence:
#
# PCOD9311988 Si02
#       7
#     4   4   4   2   4   4   4
#     4  10  22  38  59  91 129 170 217 271 329 392
#     4   9  19  37  57  83 122 162 206 259 320 383
#     4   9  20  39  61  86 122 166 215 272 326 383
#     4  10  22  42  64  88 126 174 230 284 330 398
#     4  10  20  36  61  90 127 171 212 265 329 398
#     4   9  20  38  59  89 123 160 209 256 322 397
#     4  10  20  34  58  93 128 166 214 264 324 396
#
# _framework density 22.802021
#
# number of rings (size 3 to 8) (size 9 to 14) (size 15 to 20)
#    0.000    2.462    0.000    0.923    0.000    9.231 
#    0.000   12.308    0.000   14.769    0.000    0.000 
#    0.000    0.000    0.000    0.000    0.000    0.000 
#
# Total GULP energy -144738.136084 kJ/mol
# GULP energy per Si atom -5566.851388 kJ/mol
# Density = 2.275012 g / cm^3
# Si number density = 22.802021 Si / 1000 Ang^3
#
#
#
# Elastic Constant Matrix: (Units=GPa)
#
#
# Indices 1 2 3 4 5 6 
#
# 1 98.0833 25.8442 24.8054 0.0000 0.0000 0.0000
# 2 25.8442 126.2427 44.1738 0.0000 0.0000 0.0000
# 3 24.8054 44.1738 74.4962 0.0000 0.0000 0.0000
# 4 0.0000 0.0000 0.0000 28.7999 0.0000 0.0000
# 5 0.0000 0.0000 0.0000 0.0000 19.3900 0.0000
# 6 0.0000 0.0000 0.0000 0.0000 0.0000 20.9198
#
#
#
# Elastic Compliance Matrix: (Units=1/GPa)
#
#
# Indices 1 2 3 4 5 6 
#
# 1 0.011289 -0.001256 -0.003014 0.000000 0.000000 0.000000
# 2 -0.001256 0.010135 -0.005591 0.000000 0.000000 0.000000
# 3 -0.003014 -0.005591 0.017742 0.000000 0.000000 0.000000
# 4 0.000000 0.000000 0.000000 0.034722 0.000000 0.000000
# 5 0.000000 0.000000 0.000000 0.000000 0.051573 0.000000
# 6 0.000000 0.000000 0.000000 0.000000 0.000000 0.047802
#
#
# Mechanical properties :
#
#
# Convention : Reuss Voigt Hill
#
# Bulk Modulus (GPa) = 51.43250 54.27432 52.85341
# Shear Modulus (GPa) = 25.06678 27.42187 26.24433
#
# Velocity S-wave (km/s) = 3.31920 3.47162 3.39627
# Velocity P-wave (km/s) = 6.10693 6.31852 6.21362
#
# Compressibility (1/GPa) = 0.01944296
#
# Stress axis : x y z
#
# Youngs Moduli (GPa) = 88.58440 98.66861 56.36185
#
# Poissons Ratio (x) = 0.12397 0.16986
# Poissons Ratio (y) = 0.11130 0.31514
# Poissons Ratio (z) = 0.26698 0.55169
#
# Static dielectric constant tensor:
#      x y z
#    x 1.888800 0.000000 0.000000 
#    y 0.000000 1.914640 0.000000 
#    z 0.000000 0.000000 1.967250 
# 
# From -- ./inp_files/2087.got.cif
#   From: 2010.05.17/outbox.cif.g08.bks.cpg/sg18_2_cif.got.tgz:2087.got - 2010.06.03 22:40:56.
