data_PCOD9311312
_publ_section_title
;
Structure prediction by ZEFSAII (Michael W. Deem and Ramdas Pophale) SiO2 
 PCOD9311312
Probable space group: P 2 2 21
;
_chemical_formula_sum "Si O2"
_cell_formula_units_Z 20
_cell_length_a 5.333670
_cell_length_b 7.993823
_cell_length_c 21.217461
_cell_angle_alpha 90.000000
_cell_angle_beta 90.000000
_cell_angle_gamma 90.000000
_cell_volume 904.636450
_symmetry_space_group_name_H-M "P 2 2 21"
_symmetry_group_IT_number 17
_symmetry_cell_setting 'orthorhombic'
loop_
_space_group_symop_operation_xyz
x,y,z
-x,-y,1/2+z
x,-y,-z
-x,y,1/2-z
loop_
_atom_site_type_symbol
_atom_site_label
_atom_site_fract_x
_atom_site_fract_y
_atom_site_fract_z
Si Si1 0.582029 0.508791 0.425537
Si Si2 0.000000 0.833926 0.750000
Si Si3 0.627074 0.089597 0.806518
Si Si4 0.002847 0.000000 0.000000
Si Si5 0.085924 0.286477 0.594130
Si Si6 0.267560 0.841193 0.877155
O O1 0.622193 0.500000 0.500000
O O2 0.309842 0.582699 0.412336
O O3 0.585598 0.324110 0.396922
O O4 0.813211 0.627490 0.403031
O O5 0.909697 0.772888 0.680397
O O6 0.762065 0.941941 0.769451
O O7 0.500000 0.194620 0.750000
O O8 0.844243 0.184890 0.843254
O O9 0.435799 0.998084 0.853791
O O10 0.140988 0.910920 0.940957
O O11 0.877979 0.156253 0.963886
#
# Coordination Sequence:
#
# PCOD9311312 Si02
#       6
#     4   2   4   2   4   4
#     4  12  28  45  68 108 156 185 235 305 382 431
#     4  10  22  46  76 100 146 194 256 296 358 440
#     4  10  24  45  76 102 141 193 258 302 355 444
#     4  12  24  46  80 106 140 192 256 300 372 440
#     4  12  27  46  72 108 143 194 237 310 363 437
#     4  11  25  47  73 109 144 199 244 307 367 448
#
# _framework density 22.108326999999999
#
# number of rings (size 3 to 8) (size 9 to 14) (size 15 to 20)
#    0.000    0.800    4.000    1.800    8.400    0.800 
#    3.600    0.000    0.000    0.000    0.000    0.000 
#    0.000    0.000    0.000    0.000    0.000    0.000 
#
# Total GULP energy -111520.580828 kJ/mol
# GULP energy per Si atom -5576.029041 kJ/mol
# Density = 2.205801 g / cm^3
# Si number density = 22.108327 Si / 1000 Ang^3
#
#
#
# Elastic Constant Matrix: (Units=GPa)
#
#
# Indices 1 2 3 4 5 6 
#
# 1 43.6475 9.6280 13.3429 0.0000 0.0000 0.0000
# 2 9.6280 77.6138 18.0318 0.0000 0.0000 0.0000
# 3 13.3429 18.0318 115.6885 0.0000 0.0000 0.0000
# 4 0.0000 0.0000 0.0000 32.1012 0.0000 0.0000
# 5 0.0000 0.0000 0.0000 0.0000 -66.3141 0.0000
# 6 0.0000 0.0000 0.0000 0.0000 0.0000 192.1207
#
#
#
# Elastic Compliance Matrix: (Units=1/GPa)
#
#
# Indices 1 2 3 4 5 6 
#
# 1 0.024186 -0.002441 -0.002409 0.000000 0.000000 0.000000
# 2 -0.002441 0.013615 -0.001841 0.000000 0.000000 0.000000
# 3 -0.002409 -0.001841 0.009209 0.000000 0.000000 0.000000
# 4 0.000000 0.000000 0.000000 0.031152 0.000000 0.000000
# 5 0.000000 0.000000 0.000000 0.000000 -0.015080 0.000000
# 6 0.000000 0.000000 0.000000 0.000000 0.000000 0.005205
#
#
# Mechanical properties :
#
#
# Convention : Reuss Voigt Hill
#
# Bulk Modulus (GPa) = 29.73659 35.43945 32.58802
# Shear Modulus (GPa) = 53.83549 44.64470 49.24010
#
# Velocity S-wave (km/s) = 4.94000 4.49861 4.72446
# Velocity P-wave (km/s) = 6.78364 6.56110 6.67330
#
# Compressibility (1/GPa) = 0.03362860
#
# Stress axis : x y z
#
# Youngs Moduli (GPa) = 41.34692 73.45018 108.59385
#
# Poissons Ratio (x) = 0.17926 0.26161
# Poissons Ratio (y) = 0.10091 0.19987
# Poissons Ratio (z) = 0.09961 0.13519
#
# Static dielectric constant tensor:
#      x y z
#    x 1.842900 0.000000 0.000000 
#    y 0.000000 1.879620 0.000000 
#    z 0.000000 0.000000 1.846110 
# 
# From -- ./inp_files/8955.got.cif
#   From: 2010.05.17/outbox.cif.g08.bks.cpg/sg17_5_cif.got.tgz:8955.got - 2010.06.03 22:34:06.
