data_PCOD9311021
_publ_section_title
;
Structure prediction by ZEFSAII (Michael W. Deem and Ramdas Pophale) SiO2 
 PCOD9311021
Probable space group: P 2 2 21
;
_chemical_formula_sum "Si O2"
_cell_formula_units_Z 18
_cell_length_a 7.503791
_cell_length_b 5.109353
_cell_length_c 21.388974
_cell_angle_alpha 90.000000
_cell_angle_beta 90.000000
_cell_angle_gamma 90.000000
_cell_volume 820.042934
_symmetry_space_group_name_H-M "P 2 2 21"
_symmetry_group_IT_number 17
_symmetry_cell_setting 'orthorhombic'
loop_
_space_group_symop_operation_xyz
x,y,z
-x,-y,1/2+z
x,-y,-z
-x,y,1/2-z
loop_
_atom_site_type_symbol
_atom_site_label
_atom_site_fract_x
_atom_site_fract_y
_atom_site_fract_z
Si Si1 0.629851 0.500000 0.500000
Si Si2 0.617479 0.713188 0.376187
Si Si3 0.656812 0.110352 0.061155
Si Si4 0.676413 0.383958 0.179272
Si Si5 0.794353 0.897202 0.253842
O O1 0.720417 0.623980 0.438936
O O2 0.498967 0.715041 0.530222
O O3 0.522452 0.475034 0.339419
O O4 0.734844 0.855499 0.324986
O O5 0.449433 0.885570 0.400787
O O6 0.756919 0.287172 0.112389
O O7 0.757690 0.000000 0.000000
O O8 0.686664 0.131932 0.222611
O O9 0.763332 0.630273 0.214336
O O10 0.000000 0.969174 0.250000
#
# Coordination Sequence:
#
# PCOD9311021 Si02
#       5
#     2   4   4   4   4
#     4   8  18  34  62 100 120 156 214 282 316 360
#     4  10  21  37  69  91 128 162 226 264 317 382
#     4   9  18  36  63  99 120 155 215 283 311 364
#     4  11  23  40  64  94 124 169 220 262 318 380
#     4  12  27  41  60  95 140 174 206 266 331 384
#
# _framework density 21.950068999999999
#
# number of rings (size 3 to 8) (size 9 to 14) (size 15 to 20)
#    0.000    1.778    2.222    1.333    9.333    0.000 
#    0.000    0.000    4.889    0.000    0.000    0.000 
#    0.000    0.000    0.000    0.000    0.000    0.000 
#
# Total GULP energy -100413.591122 kJ/mol
# GULP energy per Si atom -5578.532840 kJ/mol
# Density = 2.190011 g / cm^3
# Si number density = 21.950069 Si / 1000 Ang^3
#
#
#
# Elastic Constant Matrix: (Units=GPa)
#
#
# Indices 1 2 3 4 5 6 
#
# 1 37.1614 9.4419 41.0370 0.0000 0.0000 0.0000
# 2 9.4419 122.6070 60.6727 0.0000 0.0000 0.0000
# 3 41.0370 60.6727 173.8030 0.0000 0.0000 0.0000
# 4 0.0000 0.0000 0.0000 47.5749 0.0000 0.0000
# 5 0.0000 0.0000 0.0000 0.0000 6.0413 0.0000
# 6 0.0000 0.0000 0.0000 0.0000 0.0000 7.3864
#
#
#
# Elastic Compliance Matrix: (Units=1/GPa)
#
#
# Indices 1 2 3 4 5 6 
#
# 1 0.036715 0.001768 -0.009286 0.000000 0.000000 0.000000
# 2 0.001768 0.009944 -0.003889 0.000000 0.000000 0.000000
# 3 -0.009286 -0.003889 0.009304 0.000000 0.000000 0.000000
# 4 0.000000 0.000000 0.000000 0.021019 0.000000 0.000000
# 5 0.000000 0.000000 0.000000 0.000000 0.165526 0.000000
# 6 0.000000 0.000000 0.000000 0.000000 0.000000 0.135384
#
#
# Mechanical properties :
#
#
# Convention : Reuss Voigt Hill
#
# Bulk Modulus (GPa) = 30.16686 61.76385 45.96535
# Shear Modulus (GPa) = 12.14311 27.02852 19.58582
#
# Velocity S-wave (km/s) = 2.35460 3.51289 2.99036
# Velocity P-wave (km/s) = 4.60059 6.68231 5.73667
#
# Compressibility (1/GPa) = 0.03314896
#
# Stress axis : x y z
#
# Youngs Moduli (GPa) = 27.23691 100.55867 107.48363
#
# Poissons Ratio (x) = -0.17777 0.99809
# Poissons Ratio (y) = -0.04815 0.41799
# Poissons Ratio (z) = 0.25292 0.39106
#
# Static dielectric constant tensor:
#      x y z
#    x 1.735490 0.000000 0.000000 
#    y 0.000000 1.922490 0.000000 
#    z 0.000000 0.000000 1.930600 
# 
# From -- ./inp_files/9015.got.cif
#   From: 2010.05.17/outbox.cif.g08.bks.cpg/sg17_5_cif.got.tgz:9015.got - 2010.06.03 22:34:06.
