data_PCOD9311909
_publ_section_title
;
Structure prediction by ZEFSAII (Michael W. Deem and Ramdas Pophale) SiO2 
 PCOD9311909
Probable space group: P 21 21 2
;
_chemical_formula_sum "Si O2"
_cell_formula_units_Z 32
_cell_length_a 10.911118
_cell_length_b 21.857923
_cell_length_c 5.214650
_cell_angle_alpha 90.000000
_cell_angle_beta 90.000000
_cell_angle_gamma 90.000000
_cell_volume 1243.664703
_symmetry_space_group_name_H-M "P 21 21 2"
_symmetry_group_IT_number 18
_symmetry_cell_setting 'orthorhombic'
loop_
_space_group_symop_operation_xyz
x,y,z
-x,-y,z
1/2+x,1/2-y,-z
1/2-x,1/2+y,-z
loop_
_atom_site_type_symbol
_atom_site_label
_atom_site_fract_x
_atom_site_fract_y
_atom_site_fract_z
Si Si1 0.538825 0.560783 0.901405
Si Si2 0.173081 0.833422 0.283509
Si Si3 0.293122 0.621508 0.690672
Si Si4 0.605093 0.049199 0.897668
Si Si5 0.110584 0.327410 0.375480
Si Si6 0.536114 0.291572 0.376699
Si Si7 0.759718 0.510612 0.586936
Si Si8 0.722825 0.270301 0.986473
O O1 0.500000 0.500000 0.062902
O O2 0.624855 0.620780 0.937805
O O3 0.409866 0.591833 0.834378
O O4 0.622913 0.530539 0.675610
O O5 0.303570 0.853174 0.397260
O O6 0.194481 0.764899 0.187161
O O7 0.075267 0.830399 0.512642
O O8 0.348776 0.668980 0.486827
O O9 0.225215 0.563055 0.582380
O O10 0.223892 0.666563 0.884171
O O11 0.567646 0.118177 0.810801
O O12 0.500000 0.000000 0.839130
O O13 0.713401 0.033793 0.696949
O O14 0.651435 0.033951 0.183809
O O15 0.023597 0.277137 0.509541
O O16 0.200892 0.282196 0.221450
O O17 0.583789 0.282660 0.088863
#
# Coordination Sequence:
#
# PCOD9311909 Si02
#       8
#     4   4   4   4   4   4   4   4
#     4   9  18  39  66 100 130 169 224 284 356 412
#     4  10  19  38  63  92 126 173 216 276 346 408
#     4   9  21  40  64 101 133 166 218 287 347 414
#     4  12  27  46  67  96 134 187 237 279 330 405
#     4  10  22  40  62  90 126 172 224 273 334 406
#     4   9  21  38  62  92 127 164 217 282 334 405
#     4  11  24  45  70  99 137 181 227 285 345 405
#     4  10  21  38  62  90 135 169 219 275 338 410
#
# _framework density 25.730409000000002
#
# number of rings (size 3 to 8) (size 9 to 14) (size 15 to 20)
#    0.000    2.000    1.250    1.125    3.500    5.000 
#    4.500    1.875    0.000    0.000    0.000    0.000 
#    0.000    0.000    0.000    0.000    0.000    0.000 
#
# Total GULP energy -178463.956302 kJ/mol
# GULP energy per Si atom -5576.998634 kJ/mol
# Density = 2.567185 g / cm^3
# Si number density = 25.730409 Si / 1000 Ang^3
#
#
#
# Elastic Constant Matrix: (Units=GPa)
#
#
# Indices 1 2 3 4 5 6 
#
# 1 40.2741 25.8184 8.3359 0.0000 0.0000 0.0000
# 2 25.8184 199.7490 35.5367 0.0000 0.0000 0.0000
# 3 8.3359 35.5367 60.1044 0.0000 0.0000 0.0000
# 4 0.0000 0.0000 0.0000 35.0219 0.0000 0.0000
# 5 0.0000 0.0000 0.0000 0.0000 21.7676 0.0000
# 6 0.0000 0.0000 0.0000 0.0000 0.0000 30.8343
#
#
#
# Elastic Compliance Matrix: (Units=1/GPa)
#
#
# Indices 1 2 3 4 5 6 
#
# 1 0.027265 -0.003187 -0.001897 0.000000 0.000000 0.000000
# 2 -0.003187 0.005967 -0.003086 0.000000 0.000000 0.000000
# 3 -0.001897 -0.003086 0.018726 0.000000 0.000000 0.000000
# 4 0.000000 0.000000 0.000000 0.028554 0.000000 0.000000
# 5 0.000000 0.000000 0.000000 0.000000 0.045940 0.000000
# 6 0.000000 0.000000 0.000000 0.000000 0.000000 0.032431
#
#
# Mechanical properties :
#
#
# Convention : Reuss Voigt Hill
#
# Bulk Modulus (GPa) = 28.07579 48.83439 38.45509
# Shear Modulus (GPa) = 26.72426 32.88719 29.80572
#
# Velocity S-wave (km/s) = 3.22627 3.57899 3.40720
# Velocity P-wave (km/s) = 4.98133 6.00828 5.51874
#
# Compressibility (1/GPa) = 0.03561788
#
# Stress axis : x y z
#
# Youngs Moduli (GPa) = 36.67655 167.58244 53.40291
#
# Poissons Ratio (x) = 0.53402 0.10133
# Poissons Ratio (y) = 0.11687 0.16481
# Poissons Ratio (z) = 0.06959 0.51719
#
# Static dielectric constant tensor:
#      x y z
#    x 2.054300 0.000000 0.000000 
#    y 0.000000 2.084240 0.000000 
#    z 0.000000 0.000000 2.073820 
# 
# From -- ./inp_files/1325.got.cif
#   From: 2010.05.17/outbox.cif.g08.bks.cpg/sg18_1_cif.got.tgz:1325.got - 2010.06.03 22:40:56.
