data_PCOD9311083
_publ_section_title
;
Structure prediction by ZEFSAII (Michael W. Deem and Ramdas Pophale) SiO2 
 PCOD9311083
Probable space group: P 2 2 21
;
_chemical_formula_sum "Si O2"
_cell_formula_units_Z 26
_cell_length_a 16.836213
_cell_length_b 6.153476
_cell_length_c 12.346731
_cell_angle_alpha 90.000000
_cell_angle_beta 90.000000
_cell_angle_gamma 90.000000
_cell_volume 1279.136551
_symmetry_space_group_name_H-M "P 2 2 21"
_symmetry_group_IT_number 17
_symmetry_cell_setting 'orthorhombic'
loop_
_space_group_symop_operation_xyz
x,y,z
-x,-y,1/2+z
x,-y,-z
-x,y,1/2-z
loop_
_atom_site_type_symbol
_atom_site_label
_atom_site_fract_x
_atom_site_fract_y
_atom_site_fract_z
Si Si1 0.733810 0.087385 0.193057
Si Si2 0.951154 0.500000 0.500000
Si Si3 0.178225 0.000000 0.500000
Si Si4 0.062290 0.252667 0.663360
Si Si5 0.304311 0.691988 0.175003
Si Si6 0.630759 0.000000 0.500000
Si Si7 0.845276 0.605173 0.687914
Si Si8 0.415635 0.304103 0.192660
O O1 0.807389 0.176503 0.264633
O O2 0.653493 0.204103 0.231066
O O3 0.716037 0.834749 0.218761
O O4 0.761749 0.143286 0.072160
O O5 0.898586 0.638042 0.583122
O O6 0.005628 0.350611 0.572689
O O7 0.124422 0.887882 0.407256
O O8 0.106565 0.451908 0.726649
O O9 0.000000 0.145877 0.750000
O O10 0.314556 0.858966 0.078145
O O11 0.231326 0.534363 0.154618
O O12 0.384361 0.549632 0.176980
O O13 0.584539 0.163358 0.418678
O O14 0.500000 0.294810 0.250000
#
# Coordination Sequence:
#
# PCOD9311083 Si02
#       8
#     4   2   2   4   4   2   4   4
#     4  10  23  39  65  94 124 173 220 268 326 397
#     4  10  22  36  62  88 124 172 210 276 342 384
#     4  12  22  41  63  92 132 180 224 278 332 401
#     4  10  22  40  58  91 130 171 222 278 338 400
#     4  10  21  40  63  96 125 166 216 269 324 389
#     4  10  22  39  69  94 128 166 220 254 330 377
#     4  10  21  40  62  89 126 162 223 274 323 398
#     4  10  23  43  66  99 137 168 211 275 326 396
#
# _framework density 20.326212999999999
#
# number of rings (size 3 to 8) (size 9 to 14) (size 15 to 20)
#    0.000    1.846    1.538    1.385    6.462    4.308 
#    0.000    1.538    0.000    0.000    0.000    0.000 
#    0.000    0.000    0.000    0.000    0.000    0.000 
#
# Total GULP energy -144965.513723 kJ/mol
# GULP energy per Si atom -5575.596682 kJ/mol
# Density = 2.027995 g / cm^3
# Si number density = 20.326213 Si / 1000 Ang^3
#
#
#
# Elastic Constant Matrix: (Units=GPa)
#
#
# Indices 1 2 3 4 5 6 
#
# 1 113.6411 22.3832 65.6865 0.0000 0.0000 0.0000
# 2 22.3832 59.5090 33.5701 0.0000 0.0000 0.0000
# 3 65.6865 33.5701 127.8849 0.0000 0.0000 0.0000
# 4 0.0000 0.0000 0.0000 21.8226 0.0000 0.0000
# 5 0.0000 0.0000 0.0000 0.0000 20.9630 0.0000
# 6 0.0000 0.0000 0.0000 0.0000 0.0000 2.1300
#
#
#
# Elastic Compliance Matrix: (Units=1/GPa)
#
#
# Indices 1 2 3 4 5 6 
#
# 1 0.012598 -0.001277 -0.006135 0.000000 0.000000 0.000000
# 2 -0.001277 0.019855 -0.004556 0.000000 0.000000 0.000000
# 3 -0.006135 -0.004556 0.012167 0.000000 0.000000 0.000000
# 4 0.000000 0.000000 0.000000 0.045824 0.000000 0.000000
# 5 0.000000 0.000000 0.000000 0.000000 0.047703 0.000000
# 6 0.000000 0.000000 0.000000 0.000000 0.000000 0.469475
#
#
# Mechanical properties :
#
#
# Convention : Reuss Voigt Hill
#
# Bulk Modulus (GPa) = 48.35095 60.47941 54.41518
# Shear Modulus (GPa) = 7.83145 20.94282 14.38713
#
# Velocity S-wave (km/s) = 1.96501 3.21337 2.66336
# Velocity P-wave (km/s) = 5.38400 6.60202 6.02387
#
# Compressibility (1/GPa) = 0.02068212
#
# Stress axis : x y z
#
# Youngs Moduli (GPa) = 79.38081 50.36605 82.19129
#
# Poissons Ratio (x) = 0.06433 0.50426
# Poissons Ratio (y) = 0.10139 0.37445
# Poissons Ratio (z) = 0.48702 0.22946
#
# Static dielectric constant tensor:
#      x y z
#    x 1.711570 0.000000 0.000000 
#    y 0.000000 1.828120 0.000000 
#    z 0.000000 0.000000 1.796520 
# 
# From -- ./inp_files/7363.got.cif
#   From: 2010.05.17/outbox.cif.g08.bks.cpg/sg17_4_cif.got.tgz:7363.got - 2010.06.03 22:34:06.
