data_PCOD9311764
_publ_section_title
;
Structure prediction by ZEFSAII (Michael W. Deem and Ramdas Pophale) SiO2 
 PCOD9311764
Probable space group: P 21 21 2
;
_chemical_formula_sum "Si O2"
_cell_formula_units_Z 24
_cell_length_a 11.636605
_cell_length_b 17.421617
_cell_length_c 5.581447
_cell_angle_alpha 90.000000
_cell_angle_beta 90.000000
_cell_angle_gamma 90.000000
_cell_volume 1131.518241
_symmetry_space_group_name_H-M "P 21 21 2"
_symmetry_group_IT_number 18
_symmetry_cell_setting 'orthorhombic'
loop_
_space_group_symop_operation_xyz
x,y,z
-x,-y,z
1/2+x,1/2-y,-z
1/2-x,1/2+y,-z
loop_
_atom_site_type_symbol
_atom_site_label
_atom_site_fract_x
_atom_site_fract_y
_atom_site_fract_z
Si Si1 0.000000 0.500000 0.307755
Si Si2 0.144904 0.595386 0.671411
Si Si3 0.708386 0.492252 0.032862
Si Si4 0.000000 0.000000 0.315021
Si Si5 0.842887 0.629547 0.187757
Si Si6 0.083542 0.302125 0.695072
Si Si7 0.621847 0.371278 0.411328
O O1 0.100008 0.533496 0.477813
O O2 0.047465 0.427188 0.170095
O O3 0.182059 0.544546 0.898535
O O4 0.262598 0.634434 0.575441
O O5 0.040898 0.655517 0.703972
O O6 0.612942 0.513334 0.840305
O O7 0.738735 0.569443 0.174184
O O8 0.659574 0.423906 0.190926
O O9 0.026924 0.076869 0.460123
O O10 0.855202 0.668582 0.448310
O O11 0.849933 0.679244 0.944245
O O12 0.076369 0.210998 0.665616
#
# Coordination Sequence:
#
# PCOD9311764 Si02
#       7
#     2   4   4   2   4   4   4
#     4  10  18  42  70 104 132 172 244 290 350 420
#     4  10  22  41  71  99 138 183 232 301 351 419
#     4  11  22  45  73  99 134 193 244 288 347 430
#     4  10  26  44  72  92 138 192 242 288 338 432
#     4  11  23  42  71 103 135 180 233 293 357 417
#     4  11  27  43  68 109 147 177 231 300 363 416
#     4  11  25  47  66 104 142 190 238 289 358 422
#
# _framework density 21.210438
#
# number of rings (size 3 to 8) (size 9 to 14) (size 15 to 20)
#    0.000    1.333    1.667    3.500    9.333    2.000 
#    3.000    0.000    0.000    0.000    0.000    0.000 
#    0.000    0.000    0.000    0.000    0.000    0.000 
#
# Total GULP energy -134054.123538 kJ/mol
# GULP energy per Si atom -5585.588481 kJ/mol
# Density = 2.116216 g / cm^3
# Si number density = 21.210438 Si / 1000 Ang^3
#
#
#
# Elastic Constant Matrix: (Units=GPa)
#
#
# Indices 1 2 3 4 5 6 
#
# 1 63.3728 52.1814 32.4459 0.0000 0.0000 0.0000
# 2 52.1814 136.1419 60.9908 0.0000 0.0000 0.0000
# 3 32.4459 60.9908 116.8004 0.0000 0.0000 0.0000
# 4 0.0000 0.0000 0.0000 44.9085 0.0000 0.0000
# 5 0.0000 0.0000 0.0000 0.0000 31.0808 0.0000
# 6 0.0000 0.0000 0.0000 0.0000 0.0000 29.1169
#
#
#
# Elastic Compliance Matrix: (Units=1/GPa)
#
#
# Indices 1 2 3 4 5 6 
#
# 1 0.023555 -0.007959 -0.002387 0.000000 0.000000 0.000000
# 2 -0.007959 0.012277 -0.004200 0.000000 0.000000 0.000000
# 3 -0.002387 -0.004200 0.011418 0.000000 0.000000 0.000000
# 4 0.000000 0.000000 0.000000 0.022267 0.000000 0.000000
# 5 0.000000 0.000000 0.000000 0.000000 0.032174 0.000000
# 6 0.000000 0.000000 0.000000 0.000000 0.000000 0.034344
#
#
# Mechanical properties :
#
#
# Convention : Reuss Voigt Hill
#
# Bulk Modulus (GPa) = 55.07246 67.50570 61.28908
# Shear Modulus (GPa) = 29.20860 32.40105 30.80482
#
# Velocity S-wave (km/s) = 3.71494 3.91269 3.81510
# Velocity P-wave (km/s) = 6.66500 7.23242 6.95450
#
# Compressibility (1/GPa) = 0.01815790
#
# Stress axis : x y z
#
# Youngs Moduli (GPa) = 42.45315 81.45005 87.58065
#
# Poissons Ratio (x) = 0.64825 0.20909
# Poissons Ratio (y) = 0.33788 0.36785
# Poissons Ratio (z) = 0.10135 0.34210
#
# Static dielectric constant tensor:
#      x y z
#    x 1.765710 0.000000 0.000000 
#    y 0.000000 1.718620 0.000000 
#    z 0.000000 0.000000 1.824790 
# 
# From -- ./inp_files/1143.got.cif
#   From: 2010.05.17/outbox.cif.g08.bks.cpg/sg18_1_cif.got.tgz:1143.got - 2010.06.03 22:40:56.
