data_PCOD9311480
_publ_section_title
;
Structure prediction by ZEFSAII (Michael W. Deem and Ramdas Pophale) SiO2 
 PCOD9311480
Probable space group: P 2 2 21
;
_chemical_formula_sum "Si O2"
_cell_formula_units_Z 20
_cell_length_a 9.613701
_cell_length_b 5.021854
_cell_length_c 19.725491
_cell_angle_alpha 90.000000
_cell_angle_beta 90.000000
_cell_angle_gamma 90.000000
_cell_volume 952.319145
_symmetry_space_group_name_H-M "P 2 2 21"
_symmetry_group_IT_number 17
_symmetry_cell_setting 'orthorhombic'
loop_
_space_group_symop_operation_xyz
x,y,z
-x,-y,1/2+z
x,-y,-z
-x,y,1/2-z
loop_
_atom_site_type_symbol
_atom_site_label
_atom_site_fract_x
_atom_site_fract_y
_atom_site_fract_z
Si Si1 0.217411 0.414415 0.715519
Si Si2 0.077062 0.319399 0.854227
Si Si3 0.478200 0.756700 0.954627
Si Si4 0.608745 0.093301 0.189001
Si Si5 0.853107 0.819869 0.563526
O O1 0.186977 0.392250 0.795519
O O2 0.260416 0.715484 0.701293
O O3 0.075963 0.340089 0.677009
O O4 0.337265 0.210355 0.691432
O O5 0.088217 0.531316 0.915880
O O6 0.114137 0.020848 0.875469
O O7 0.541946 0.803052 0.880747
O O8 0.311109 0.773613 0.946791
O O9 0.511913 0.500000 0.000000
O O10 0.527383 0.000000 0.000000
O O11 0.500000 0.130029 0.250000
O O12 0.904011 0.000000 0.500000
#
# Coordination Sequence:
#
# PCOD9311480 Si02
#       5
#     4   4   4   4   4
#     4  11  24  40  63  91 123 161 202 256 320 367
#     4  11  22  41  62  89 125 157 200 260 313 366
#     4  11  23  41  63  89 125 163 202 255 313 368
#     4  12  24  41  65  94 123 162 214 258 308 379
#     4  11  22  39  64  91 119 160 209 252 303 369
#
# _framework density 21.001363000000001
#
# number of rings (size 3 to 8) (size 9 to 14) (size 15 to 20)
#    0.000    0.800    0.000    9.600    0.000    3.200 
#    0.000   10.000    0.000    0.000    0.000    0.000 
#    0.000    0.000    0.000    0.000    0.000    0.000 
#
# Total GULP energy -111784.692519 kJ/mol
# GULP energy per Si atom -5589.234626 kJ/mol
# Density = 2.095356 g / cm^3
# Si number density = 21.001363 Si / 1000 Ang^3
#
#
#
# Elastic Constant Matrix: (Units=GPa)
#
#
# Indices 1 2 3 4 5 6 
#
# 1 30.0061 7.5947 26.9178 0.0000 0.0000 0.0000
# 2 7.5947 108.0214 9.5715 0.0000 0.0000 0.0000
# 3 26.9178 9.5715 99.7734 0.0000 0.0000 0.0000
# 4 0.0000 0.0000 0.0000 39.8591 0.0000 0.0000
# 5 0.0000 0.0000 0.0000 0.0000 25.9695 0.0000
# 6 0.0000 0.0000 0.0000 0.0000 0.0000 -8.5099
#
#
#
# Elastic Compliance Matrix: (Units=1/GPa)
#
#
# Indices 1 2 3 4 5 6 
#
# 1 0.044426 -0.002079 -0.011786 0.000000 0.000000 0.000000
# 2 -0.002079 0.009434 -0.000344 0.000000 0.000000 0.000000
# 3 -0.011786 -0.000344 0.013235 0.000000 0.000000 0.000000
# 4 0.000000 0.000000 0.000000 0.025088 0.000000 0.000000
# 5 0.000000 0.000000 0.000000 0.000000 0.038507 0.000000
# 6 0.000000 0.000000 0.000000 0.000000 0.000000 -0.117511
#
#
# Mechanical properties :
#
#
# Convention : Reuss Voigt Hill
#
# Bulk Modulus (GPa) = 25.85533 36.21876 31.03704
# Shear Modulus (GPa) = 91.75831 24.37820 58.06826
#
# Velocity S-wave (km/s) = 6.61713 3.41074 5.26401
# Velocity P-wave (km/s) = 8.40951 5.72662 7.19424
#
# Compressibility (1/GPa) = 0.03867674
#
# Stress axis : x y z
#
# Youngs Moduli (GPa) = 22.50937 105.99854 75.55438
#
# Poissons Ratio (x) = 0.22038 0.89050
# Poissons Ratio (y) = 0.04680 0.02600
# Poissons Ratio (z) = 0.26530 0.03648
#
# Static dielectric constant tensor:
#      x y z
#    x 1.717620 0.000000 0.000000 
#    y 0.000000 1.707190 0.000000 
#    z 0.000000 0.000000 1.750150 
# 
# From -- ./inp_files/9261.got.cif
#   From: 2010.05.17/outbox.cif.g08.bks.cpg/sg17_5_cif.got.tgz:9261.got - 2010.06.03 22:34:06.
