data_PCOD9311264
_publ_section_title
;
Structure prediction by ZEFSAII (Michael W. Deem and Ramdas Pophale) SiO2 
 PCOD9311264
Probable space group: P 2 2 21
;
_chemical_formula_sum "Si O2"
_cell_formula_units_Z 20
_cell_length_a 5.369494
_cell_length_b 17.019750
_cell_length_c 9.344495
_cell_angle_alpha 90.000000
_cell_angle_beta 90.000000
_cell_angle_gamma 90.000000
_cell_volume 853.969528
_symmetry_space_group_name_H-M "P 2 2 21"
_symmetry_group_IT_number 17
_symmetry_cell_setting 'orthorhombic'
loop_
_space_group_symop_operation_xyz
x,y,z
-x,-y,1/2+z
x,-y,-z
-x,y,1/2-z
loop_
_atom_site_type_symbol
_atom_site_label
_atom_site_fract_x
_atom_site_fract_y
_atom_site_fract_z
Si Si1 0.500000 0.319614 0.750000
Si Si2 0.500000 0.787698 0.750000
Si Si3 0.108501 0.436676 0.605868
Si Si4 0.460902 0.093249 0.988483
Si Si5 0.060750 0.834307 0.404843
Si Si6 0.814722 0.299079 0.477489
O O1 0.296326 0.374203 0.673429
O O2 0.627383 0.278703 0.611428
O O3 0.458547 0.852663 0.624000
O O4 0.689124 0.727409 0.670048
O O5 0.224798 0.500000 0.500000
O O6 0.000000 0.475797 0.750000
O O7 0.906032 0.386902 0.513132
O O8 0.173645 0.113436 0.955166
O O9 0.685031 0.118900 0.885033
O O10 0.478483 0.000000 0.000000
O O11 0.051824 0.758604 0.506610
O O12 0.000000 0.801571 0.250000
#
# Coordination Sequence:
#
# PCOD9311264 Si02
#       6
#     2   2   4   4   4   4
#     4  10  22  42  70  98 142 186 244 286 362 437
#     4  10  26  44  74 106 142 188 242 304 376 435
#     4  10  23  43  69 102 143 187 238 297 368 429
#     4  11  26  46  67 105 144 187 237 303 369 446
#     4  11  24  42  74  99 137 191 242 289 365 432
#     4  10  24  43  69 101 140 188 239 302 356 444
#
# _framework density 23.420038999999999
#
# number of rings (size 3 to 8) (size 9 to 14) (size 15 to 20)
#    0.000    1.600    0.000    3.000   14.000    8.000 
#    0.000    1.000    0.000    0.000    0.000    0.000 
#    0.000    0.000    0.000    0.000    0.000    0.000 
#
# Total GULP energy -111443.590960 kJ/mol
# GULP energy per Si atom -5572.179548 kJ/mol
# Density = 2.336673 g / cm^3
# Si number density = 23.420039 Si / 1000 Ang^3
#
#
#
# Elastic Constant Matrix: (Units=GPa)
#
#
# Indices 1 2 3 4 5 6 
#
# 1 76.8945 22.5122 32.3095 0.0000 0.0000 0.0000
# 2 22.5122 66.3052 46.0733 0.0000 0.0000 0.0000
# 3 32.3095 46.0733 106.5998 0.0000 0.0000 0.0000
# 4 0.0000 0.0000 0.0000 24.8636 0.0000 0.0000
# 5 0.0000 0.0000 0.0000 0.0000 21.8723 0.0000
# 6 0.0000 0.0000 0.0000 0.0000 0.0000 13.8480
#
#
#
# Elastic Compliance Matrix: (Units=1/GPa)
#
#
# Indices 1 2 3 4 5 6 
#
# 1 0.015261 -0.002812 -0.003410 0.000000 0.000000 0.000000
# 2 -0.002812 0.022074 -0.008688 0.000000 0.000000 0.000000
# 3 -0.003410 -0.008688 0.014170 0.000000 0.000000 0.000000
# 4 0.000000 0.000000 0.000000 0.040219 0.000000 0.000000
# 5 0.000000 0.000000 0.000000 0.000000 0.045720 0.000000
# 6 0.000000 0.000000 0.000000 0.000000 0.000000 0.072212
#
#
# Mechanical properties :
#
#
# Convention : Reuss Voigt Hill
#
# Bulk Modulus (GPa) = 46.11740 50.17661 48.14701
# Shear Modulus (GPa) = 20.26720 22.04376 21.15548
#
# Velocity S-wave (km/s) = 2.94492 3.07128 3.00877
# Velocity P-wave (km/s) = 5.59443 5.83508 5.71602
#
# Compressibility (1/GPa) = 0.02168379
#
# Stress axis : x y z
#
# Youngs Moduli (GPa) = 65.52688 45.30305 70.57388
#
# Poissons Ratio (x) = 0.12738 0.24067
# Poissons Ratio (y) = 0.18425 0.61316
# Poissons Ratio (z) = 0.22346 0.39360
#
# Static dielectric constant tensor:
#      x y z
#    x 2.050760 0.000000 0.000000 
#    y 0.000000 1.844280 0.000000 
#    z 0.000000 0.000000 1.945380 
# 
# From -- ./inp_files/3512.got.cif
#   From: 2010.05.17/outbox.cif.g08.bks.cpg/sg17_2_cif.got.tgz:3512.got - 2010.06.03 22:34:06.
