data_PCOD9311838
_publ_section_title
;
Structure prediction by ZEFSAII (Michael W. Deem and Ramdas Pophale) SiO2 
 PCOD9311838
Probable space group: P 21 21 2
;
_chemical_formula_sum "Si O2"
_cell_formula_units_Z 26
_cell_length_a 7.912284
_cell_length_b 17.205758
_cell_length_c 9.173922
_cell_angle_alpha 90.000000
_cell_angle_beta 90.000000
_cell_angle_gamma 90.000000
_cell_volume 1248.908786
_symmetry_space_group_name_H-M "P 21 21 2"
_symmetry_group_IT_number 18
_symmetry_cell_setting 'orthorhombic'
loop_
_space_group_symop_operation_xyz
x,y,z
-x,-y,z
1/2+x,1/2-y,-z
1/2-x,1/2+y,-z
loop_
_atom_site_type_symbol
_atom_site_label
_atom_site_fract_x
_atom_site_fract_y
_atom_site_fract_z
Si Si1 0.389334 0.613273 0.757130
Si Si2 0.240101 0.233790 0.000064
Si Si3 0.392696 0.797031 0.289553
Si Si4 0.244006 0.455693 0.809241
Si Si5 0.961605 0.238917 0.440245
Si Si6 0.000000 0.500000 0.063102
Si Si7 0.952140 0.664005 0.177376
O O1 0.282507 0.535765 0.723940
O O2 0.573131 0.585929 0.818681
O O3 0.431153 0.664025 0.613797
O O4 0.304012 0.665883 0.883959
O O5 0.119939 0.249663 0.860134
O O6 0.412129 0.214722 0.915229
O O7 0.221292 0.312098 0.096648
O O8 0.380663 0.888898 0.253392
O O9 0.538067 0.765329 0.393359
O O10 0.225779 0.777797 0.383415
O O11 0.160178 0.485578 0.958080
O O12 0.037309 0.308162 0.341802
O O13 0.008529 0.576620 0.158341
#
# Coordination Sequence:
#
# PCOD9311838 Si02
#       7
#     4   4   4   4   4   2   4
#     4   9  19  38  59  81 112 152 189 245 291 339
#     4  10  19  35  58  83 109 145 196 236 287 344
#     4  10  20  37  56  85 112 153 194 232 280 352
#     4  10  20  35  59  84 114 146 194 236 295 345
#     4   9  21  37  55  80 117 152 193 230 277 345
#     4  12  20  34  54  90 116 140 186 252 290 344
#     4  10  21  35  56  82 114 147 187 245 290 336
#
# _framework density 20.818173000000002
#
# number of rings (size 3 to 8) (size 9 to 14) (size 15 to 20)
#    0.000    2.154    3.077    0.923    0.000    3.692 
#    0.000    3.846    0.000    1.846    0.000    0.000 
#    0.000    0.000    0.000    0.000    0.000    0.000 
#
# Total GULP energy -144967.279649 kJ/mol
# GULP energy per Si atom -5575.664602 kJ/mol
# Density = 2.077079 g / cm^3
# Si number density = 20.818173 Si / 1000 Ang^3
#
#
#
# Elastic Constant Matrix: (Units=GPa)
#
#
# Indices 1 2 3 4 5 6 
#
# 1 34.7713 6.7549 10.2917 0.0000 0.0000 0.0000
# 2 6.7549 128.5277 32.3164 0.0000 0.0000 0.0000
# 3 10.2917 32.3164 71.8141 0.0000 0.0000 0.0000
# 4 0.0000 0.0000 0.0000 10.7283 0.0000 0.0000
# 5 0.0000 0.0000 0.0000 0.0000 31.7699 0.0000
# 6 0.0000 0.0000 0.0000 0.0000 0.0000 26.7495
#
#
#
# Elastic Compliance Matrix: (Units=1/GPa)
#
#
# Indices 1 2 3 4 5 6 
#
# 1 0.030069 -0.000560 -0.004057 0.000000 0.000000 0.000000
# 2 -0.000560 0.008783 -0.003872 0.000000 0.000000 0.000000
# 3 -0.004057 -0.003872 0.016249 0.000000 0.000000 0.000000
# 4 0.000000 0.000000 0.000000 0.093212 0.000000 0.000000
# 5 0.000000 0.000000 0.000000 0.000000 0.031476 0.000000
# 6 0.000000 0.000000 0.000000 0.000000 0.000000 0.037384
#
#
# Mechanical properties :
#
#
# Convention : Reuss Voigt Hill
#
# Bulk Modulus (GPa) = 26.23150 37.09323 31.66237
# Shear Modulus (GPa) = 20.25440 26.23286 23.24363
#
# Velocity S-wave (km/s) = 3.12255 3.55363 3.34504
# Velocity P-wave (km/s) = 5.06242 5.89017 5.49191
#
# Compressibility (1/GPa) = 0.03812210
#
# Stress axis : x y z
#
# Youngs Moduli (GPa) = 33.25679 113.84983 61.54305
#
# Poissons Ratio (x) = 0.06378 0.24969
# Poissons Ratio (y) = 0.01863 0.23831
# Poissons Ratio (z) = 0.13493 0.44086
#
# Static dielectric constant tensor:
#      x y z
#    x 1.885090 0.000000 0.000000 
#    y 0.000000 1.767950 0.000000 
#    z 0.000000 0.000000 1.722420 
# 
# From -- ./inp_files/3341.got.cif
#   From: 2010.05.17/outbox.cif.g08.bks.cpg/sg18_2_cif.got.tgz:3341.got - 2010.06.03 22:40:56.
