data_PCOD9311782
_publ_section_title
;
Structure prediction by ZEFSAII (Michael W. Deem and Ramdas Pophale) SiO2 
 PCOD9311782
Probable space group: P 21 21 2
;
_chemical_formula_sum "Si O2"
_cell_formula_units_Z 20
_cell_length_a 12.538763
_cell_length_b 5.045040
_cell_length_c 14.699915
_cell_angle_alpha 90.000000
_cell_angle_beta 90.000000
_cell_angle_gamma 90.000000
_cell_volume 929.895468
_symmetry_space_group_name_H-M "P 21 21 2"
_symmetry_group_IT_number 18
_symmetry_cell_setting 'orthorhombic'
loop_
_space_group_symop_operation_xyz
x,y,z
-x,-y,z
1/2+x,1/2-y,-z
1/2-x,1/2+y,-z
loop_
_atom_site_type_symbol
_atom_site_label
_atom_site_fract_x
_atom_site_fract_y
_atom_site_fract_z
Si Si1 0.164360 0.409868 0.900106
Si Si2 0.730590 0.960970 0.290638
Si Si3 0.814438 0.567962 0.512558
Si Si4 0.880018 0.463262 0.316634
Si Si5 0.609143 0.589830 0.989603
O O1 0.156585 0.485230 0.795610
O O2 0.109245 0.621465 0.966314
O O3 0.127549 0.118878 0.928379
O O4 0.290079 0.430357 0.924054
O O5 0.795165 0.685798 0.284685
O O6 0.663219 0.986108 0.384079
O O7 0.823325 0.184936 0.296108
O O8 0.710887 0.380320 0.492087
O O9 0.885634 0.496540 0.426417
O O10 0.000000 0.500000 0.279672
O O11 0.500000 0.500000 0.943713
#
# Coordination Sequence:
#
# PCOD9311782 Si02
#       5
#     4   4   4   4   4
#     4  10  21  37  58  82 107 141 180 219 269 322
#     4  10  19  34  53  74 103 138 174 214 261 313
#     4   8  16  30  48  67  96 134 161 195 251 304
#     4  10  19  31  49  76 106 135 173 218 261 306
#     4  10  21  38  57  79 110 142 175 220 272 323
#
# _framework density 21.507795000000002
#
# number of rings (size 3 to 8) (size 9 to 14) (size 15 to 20)
#    0.000    2.400    0.000    2.400    0.000    1.600 
#    0.000    2.000    0.000    0.000    0.000    0.000 
#    0.000    0.000    0.000    0.000    0.000    0.000 
#
# Total GULP energy -111569.250144 kJ/mol
# GULP energy per Si atom -5578.462507 kJ/mol
# Density = 2.145884 g / cm^3
# Si number density = 21.507795 Si / 1000 Ang^3
#
#
#
# Elastic Constant Matrix: (Units=GPa)
#
#
# Indices 1 2 3 4 5 6 
#
# 1 56.1039 5.7985 -28.6773 0.0000 0.0000 0.0000
# 2 5.7985 79.2768 -5.0681 0.0000 0.0000 0.0000
# 3 -28.6773 -5.0681 59.7168 0.0000 0.0000 0.0000
# 4 0.0000 0.0000 0.0000 13.5124 0.0000 0.0000
# 5 0.0000 0.0000 0.0000 0.0000 -5.9717 0.0000
# 6 0.0000 0.0000 0.0000 0.0000 0.0000 16.7082
#
#
#
# Elastic Compliance Matrix: (Units=1/GPa)
#
#
# Indices 1 2 3 4 5 6 
#
# 1 0.023703 -0.001011 0.011297 0.000000 0.000000 0.000000
# 2 -0.001011 0.012726 0.000594 0.000000 0.000000 0.000000
# 3 0.011297 0.000594 0.022221 0.000000 0.000000 0.000000
# 4 0.000000 0.000000 0.000000 0.074006 0.000000 0.000000
# 5 0.000000 0.000000 0.000000 0.000000 -0.167456 0.000000
# 6 0.000000 0.000000 0.000000 0.000000 0.000000 0.059851
#
#
# Mechanical properties :
#
#
# Convention : Reuss Voigt Hill
#
# Bulk Modulus (GPa) = 12.43636 15.46708 13.95172
# Shear Modulus (GPa) = 166.14056 19.71942 92.92999
#
# Velocity S-wave (km/s) = 8.79854 3.03124 6.58038
# Velocity P-wave (km/s) = 10.44098 4.41114 8.01474
#
# Compressibility (1/GPa) = 0.08040935
#
# Stress axis : x y z
#
# Youngs Moduli (GPa) = 42.18887 78.57925 45.00220
#
# Poissons Ratio (x) = 0.07948 -0.50838
# Poissons Ratio (y) = 0.04267 -0.02674
# Poissons Ratio (z) = -0.47660 -0.04670
#
# Static dielectric constant tensor:
#      x y z
#    x 1.810070 0.000000 0.000000 
#    y 0.000000 1.745050 0.000000 
#    z 0.000000 0.000000 1.793500 
# 
# From -- ./inp_files/6392.got.cif
#   From: 2010.05.17/outbox.cif.g08.bks.cpg/sg18_4_cif.got.tgz:6392.got - 2010.06.03 22:40:56.
