data_PCOD9311432
_publ_section_title
;
Structure prediction by ZEFSAII (Michael W. Deem and Ramdas Pophale) SiO2 
 PCOD9311432
Probable space group: P 2 2 21
;
_chemical_formula_sum "Si O2"
_cell_formula_units_Z 20
_cell_length_a 10.230832
_cell_length_b 5.709043
_cell_length_c 15.032756
_cell_angle_alpha 90.000000
_cell_angle_beta 90.000000
_cell_angle_gamma 90.000000
_cell_volume 878.037118
_symmetry_space_group_name_H-M "P 2 2 21"
_symmetry_group_IT_number 17
_symmetry_cell_setting 'orthorhombic'
loop_
_space_group_symop_operation_xyz
x,y,z
-x,-y,1/2+z
x,-y,-z
-x,y,1/2-z
loop_
_atom_site_type_symbol
_atom_site_label
_atom_site_fract_x
_atom_site_fract_y
_atom_site_fract_z
Si Si1 0.397580 0.731507 0.827505
Si Si2 0.591190 0.346037 0.874506
Si Si3 0.855979 0.613290 0.903605
Si Si4 0.000000 0.656825 0.250000
Si Si5 0.477098 0.000000 0.000000
Si Si6 0.218162 0.004553 0.283781
O O1 0.500000 0.796624 0.750000
O O2 0.454673 0.474462 0.850936
O O3 0.260221 0.781727 0.780361
O O4 0.403611 0.894817 0.914502
O O5 0.706965 0.530855 0.884835
O O6 0.657036 0.153858 0.810278
O O7 0.565265 0.209772 0.964879
O O8 0.846607 0.886760 0.873786
O O9 0.955604 0.496944 0.833654
O O10 0.886445 0.500000 0.000000
O O11 0.879319 0.831695 0.266057
#
# Coordination Sequence:
#
# PCOD9311432 Si02
#       6
#     4   4   4   2   2   4
#     4  12  24  40  66 101 144 183 226 285 348 415
#     4  11  22  39  66 105 137 179 231 290 354 414
#     4  11  22  42  71 101 133 176 236 295 341 411
#     4  10  26  44  70 100 136 186 238 278 346 406
#     4  12  24  40  62 106 144 184 230 282 352 424
#     4  11  24  45  70  99 143 181 230 289 347 410
#
# _framework density 22.778082000000001
#
# number of rings (size 3 to 8) (size 9 to 14) (size 15 to 20)
#    0.000    0.800    4.000    3.600    2.800    2.400 
#    0.000    4.000    0.000    0.000    0.000    0.000 
#    0.000    0.000    0.000    0.000    0.000    0.000 
#
# Total GULP energy -111557.900052 kJ/mol
# GULP energy per Si atom -5577.895003 kJ/mol
# Density = 2.272624 g / cm^3
# Si number density = 22.778082 Si / 1000 Ang^3
#
#
#
# Elastic Constant Matrix: (Units=GPa)
#
#
# Indices 1 2 3 4 5 6 
#
# 1 39.6609 28.7732 30.5956 0.0000 0.0000 0.0000
# 2 28.7732 99.8134 47.8841 0.0000 0.0000 0.0000
# 3 30.5956 47.8841 131.7583 0.0000 0.0000 0.0000
# 4 0.0000 0.0000 0.0000 29.3504 0.0000 0.0000
# 5 0.0000 0.0000 0.0000 0.0000 34.7657 0.0000
# 6 0.0000 0.0000 0.0000 0.0000 0.0000 38.2214
#
#
#
# Elastic Compliance Matrix: (Units=1/GPa)
#
#
# Indices 1 2 3 4 5 6 
#
# 1 0.034753 -0.007445 -0.005364 0.000000 0.000000 0.000000
# 2 -0.007445 0.013729 -0.003261 0.000000 0.000000 0.000000
# 3 -0.005364 -0.003261 0.010020 0.000000 0.000000 0.000000
# 4 0.000000 0.000000 0.000000 0.034071 0.000000 0.000000
# 5 0.000000 0.000000 0.000000 0.000000 0.028764 0.000000
# 6 0.000000 0.000000 0.000000 0.000000 0.000000 0.026163
#
#
# Mechanical properties :
#
#
# Convention : Reuss Voigt Hill
#
# Bulk Modulus (GPa) = 37.93240 53.97092 45.95166
# Shear Modulus (GPa) = 26.53532 31.39948 28.96740
#
# Velocity S-wave (km/s) = 3.41684 3.71684 3.56999
# Velocity P-wave (km/s) = 5.67940 6.49350 6.10004
#
# Compressibility (1/GPa) = 0.02636268
#
# Stress axis : x y z
#
# Youngs Moduli (GPa) = 28.77452 72.83811 99.79698
#
# Poissons Ratio (x) = 0.54226 0.53535
# Poissons Ratio (y) = 0.21422 0.32541
# Poissons Ratio (z) = 0.15436 0.23751
#
# Static dielectric constant tensor:
#      x y z
#    x 1.904310 0.000000 0.000000 
#    y 0.000000 1.928420 0.000000 
#    z 0.000000 0.000000 1.916630 
# 
# From -- ./inp_files/8363.got.cif
#   From: 2010.05.17/outbox.cif.g08.bks.cpg/sg17_5_cif.got.tgz:8363.got - 2010.06.03 22:34:06.
