data_PCOD9311140
_publ_section_title
;
Structure prediction by ZEFSAII (Michael W. Deem and Ramdas Pophale) SiO2 
 PCOD9311140
Probable space group: P 2 2 21
;
_chemical_formula_sum "Si O2"
_cell_formula_units_Z 16
_cell_length_a 5.255669
_cell_length_b 22.581873
_cell_length_c 5.585749
_cell_angle_alpha 90.000000
_cell_angle_beta 90.000000
_cell_angle_gamma 90.000000
_cell_volume 662.932610
_symmetry_space_group_name_H-M "P 2 2 21"
_symmetry_group_IT_number 17
_symmetry_cell_setting 'orthorhombic'
loop_
_space_group_symop_operation_xyz
x,y,z
-x,-y,1/2+z
x,-y,-z
-x,y,1/2-z
loop_
_atom_site_type_symbol
_atom_site_label
_atom_site_fract_x
_atom_site_fract_y
_atom_site_fract_z
Si Si1 0.749021 0.814066 0.418448
Si Si2 0.340111 0.000000 0.500000
Si Si3 0.256737 0.687832 0.097753
Si Si4 0.000000 0.094805 0.250000
Si Si5 0.752450 0.561323 0.614875
O O1 0.500000 0.823580 0.250000
O O2 0.760393 0.748934 0.550436
O O3 0.000000 0.813786 0.250000
O O4 0.796306 0.864708 0.611409
O O5 0.153962 0.054557 0.437791
O O6 0.500000 0.990800 0.250000
O O7 0.500000 0.703738 0.250000
O O8 0.000000 0.681323 0.250000
O O9 0.323237 0.621934 0.011824
O O10 0.844304 0.500000 0.500000
O O11 0.500000 0.541609 0.750000
O O12 0.000000 0.583252 0.750000
#
# Coordination Sequence:
#
# PCOD9311140 Si02
#       5
#     4   2   4   2   4
#     4  10  26  47  77 114 154 204 257 324 394 472
#     4  12  32  54  84 122 166 218 272 338 410 500
#     4  10  21  44  67  99 143 183 241 311 377 448
#     4  12  30  50  82 116 162 210 268 326 404 484
#     4  12  24  39  64  95 135 186 243 301 375 452
#
# _framework density 24.135186000000001
#
# number of rings (size 3 to 8) (size 9 to 14) (size 15 to 20)
#    0.000    1.000    0.000    4.500   10.500    0.000 
#    0.000    0.000    0.000    0.000    0.000    0.000 
#    0.000    0.000    0.000    0.000    0.000    0.000 
#
# Total GULP energy -89280.903449 kJ/mol
# GULP energy per Si atom -5580.056466 kJ/mol
# Density = 2.408025 g / cm^3
# Si number density = 24.135186 Si / 1000 Ang^3
#
#
#
# Elastic Constant Matrix: (Units=GPa)
#
#
# Indices 1 2 3 4 5 6 
#
# 1 104.0962 -23.0399 19.3396 0.0000 0.0000 0.0000
# 2 -23.0399 174.4890 40.8214 0.0000 0.0000 0.0000
# 3 19.3396 40.8214 66.1914 0.0000 0.0000 0.0000
# 4 0.0000 0.0000 0.0000 -20.1979 0.0000 0.0000
# 5 0.0000 0.0000 0.0000 0.0000 52.8440 0.0000
# 6 0.0000 0.0000 0.0000 0.0000 0.0000 53.5313
#
#
#
# Elastic Compliance Matrix: (Units=1/GPa)
#
#
# Indices 1 2 3 4 5 6 
#
# 1 0.011079 0.002595 -0.004837 0.000000 0.000000 0.000000
# 2 0.002595 0.007305 -0.005263 0.000000 0.000000 0.000000
# 3 -0.004837 -0.005263 0.019767 0.000000 0.000000 0.000000
# 4 0.000000 0.000000 0.000000 -0.049510 0.000000 0.000000
# 5 0.000000 0.000000 0.000000 0.000000 0.018924 0.000000
# 6 0.000000 0.000000 0.000000 0.000000 0.000000 0.018681
#
#
# Mechanical properties :
#
#
# Convention : Reuss Voigt Hill
#
# Bulk Modulus (GPa) = 43.21586 46.55763 44.88675
# Shear Modulus (GPa) = 102.10228 37.74584 69.92406
#
# Velocity S-wave (km/s) = 6.51123 3.95895 5.38839
# Velocity P-wave (km/s) = 8.62976 6.34271 7.57307
#
# Compressibility (1/GPa) = 0.02313965
#
# Stress axis : x y z
#
# Youngs Moduli (GPa) = 90.25684 136.89376 50.58946
#
# Poissons Ratio (x) = -0.35519 0.24472
# Poissons Ratio (y) = -0.23418 0.26626
# Poissons Ratio (z) = 0.43660 0.72050
#
# Static dielectric constant tensor:
#      x y z
#    x 1.827910 0.000000 0.000000 
#    y 0.000000 1.911220 0.000000 
#    z 0.000000 0.000000 1.980430 
# 
# From -- ./inp_files/258.got.cif
#   From: 2010.05.17/outbox.cif.g08.bks.cpg/sg17_1_cif.got.tgz:258.got - 2010.06.03 22:34:06.
