data_PCOD9311333
_publ_section_title
;
Structure prediction by ZEFSAII (Michael W. Deem and Ramdas Pophale) SiO2 
 PCOD9311333
Probable space group: P 2 2 21
;
_chemical_formula_sum "Si O2"
_cell_formula_units_Z 26
_cell_length_a 8.343204
_cell_length_b 6.045126
_cell_length_c 21.985747
_cell_angle_alpha 90.000000
_cell_angle_beta 90.000000
_cell_angle_gamma 90.000000
_cell_volume 1108.866967
_symmetry_space_group_name_H-M "P 2 2 21"
_symmetry_group_IT_number 17
_symmetry_cell_setting 'orthorhombic'
loop_
_space_group_symop_operation_xyz
x,y,z
-x,-y,1/2+z
x,-y,-z
-x,y,1/2-z
loop_
_atom_site_type_symbol
_atom_site_label
_atom_site_fract_x
_atom_site_fract_y
_atom_site_fract_z
Si Si1 0.235116 0.289792 0.845378
Si Si2 0.050618 0.390049 0.060983
Si Si3 0.000000 0.130259 0.750000
Si Si4 0.450489 0.464288 0.372134
Si Si5 0.634472 0.856662 0.056579
Si Si6 0.675124 0.915041 0.574733
Si Si7 0.192358 0.844171 0.652974
O O1 0.144223 0.429232 0.897870
O O2 0.414708 0.387027 0.839257
O O3 0.247728 0.035403 0.867057
O O4 0.124211 0.283574 0.786581
O O5 0.181896 0.206891 0.040553
O O6 0.926444 0.270920 0.105032
O O7 0.983149 0.500000 0.000000
O O8 0.901272 0.970017 0.794734
O O9 0.357578 0.600379 0.425212
O O10 0.551921 0.275078 0.405871
O O11 0.321464 0.344190 0.329476
O O12 0.441768 0.892014 0.050751
O O13 0.708707 0.972100 0.115612
O O14 0.702206 0.000000 0.000000
#
# Coordination Sequence:
#
# PCOD9311333 Si02
#       7
#     4   4   2   4   4   4   4
#     4  10  23  47  72 101 138 192 240 299 365 429
#     4  11  25  40  72 107 143 181 240 298 376 436
#     4  12  26  50  74  98 152 190 250 304 358 432
#     4   9  22  45  70 100 138 183 245 288 368 426
#     4  10  23  40  70 102 146 185 238 298 365 439
#     4   9  20  42  65 106 136 181 234 290 365 435
#     4  11  26  45  68 102 144 189 243 299 359 437
#
# _framework density 23.44736
#
# number of rings (size 3 to 8) (size 9 to 14) (size 15 to 20)
#    0.000    1.846    1.538    0.000   10.769    1.846 
#    0.000    8.462    0.000    0.000    0.000    0.000 
#    0.000    0.000    0.000    0.000    0.000    0.000 
#
# Total GULP energy -145159.838891 kJ/mol
# GULP energy per Si atom -5583.070727 kJ/mol
# Density = 2.339399 g / cm^3
# Si number density = 23.447360 Si / 1000 Ang^3
#
#
#
# Elastic Constant Matrix: (Units=GPa)
#
#
# Indices 1 2 3 4 5 6 
#
# 1 107.6064 39.1676 52.2463 0.0000 0.0000 0.0000
# 2 39.1676 101.5257 24.9079 0.0000 0.0000 0.0000
# 3 52.2463 24.9079 98.0733 0.0000 0.0000 0.0000
# 4 0.0000 0.0000 0.0000 33.8984 0.0000 0.0000
# 5 0.0000 0.0000 0.0000 0.0000 34.6305 0.0000
# 6 0.0000 0.0000 0.0000 0.0000 0.0000 41.9522
#
#
#
# Elastic Compliance Matrix: (Units=1/GPa)
#
#
# Indices 1 2 3 4 5 6 
#
# 1 0.013750 -0.003741 -0.006375 0.000000 0.000000 0.000000
# 2 -0.003741 0.011522 -0.000934 0.000000 0.000000 0.000000
# 3 -0.006375 -0.000934 0.013830 0.000000 0.000000 0.000000
# 4 0.000000 0.000000 0.000000 0.029500 0.000000 0.000000
# 5 0.000000 0.000000 0.000000 0.000000 0.028876 0.000000
# 6 0.000000 0.000000 0.000000 0.000000 0.000000 0.023837
#
#
# Mechanical properties :
#
#
# Convention : Reuss Voigt Hill
#
# Bulk Modulus (GPa) = 58.81211 59.98323 59.39767
# Shear Modulus (GPa) = 33.53902 34.82178 34.18040
#
# Velocity S-wave (km/s) = 3.78616 3.85789 3.82219
# Velocity P-wave (km/s) = 6.65210 6.74403 6.69822
#
# Compressibility (1/GPa) = 0.01700330
#
# Stress axis : x y z
#
# Youngs Moduli (GPa) = 72.72780 86.79180 72.30841
#
# Poissons Ratio (x) = 0.32465 0.46096
# Poissons Ratio (y) = 0.27204 0.06750
# Poissons Ratio (z) = 0.46364 0.08102
#
# Static dielectric constant tensor:
#      x y z
#    x 1.897040 0.000000 0.000000 
#    y 0.000000 1.938510 0.000000 
#    z 0.000000 0.000000 1.962220 
# 
# From -- ./inp_files/10575.got.cif
#   From: 2010.05.17/outbox.cif.g08.bks.cpg/sg17_6_cif.got.tgz:10575.got - 2010.06.03 22:34:06.
