data_PCOD9311325
_publ_section_title
;
Structure prediction by ZEFSAII (Michael W. Deem and Ramdas Pophale) SiO2 
 PCOD9311325
Probable space group: P 2 2 21
;
_chemical_formula_sum "Si O2"
_cell_formula_units_Z 30
_cell_length_a 10.851900
_cell_length_b 9.521201
_cell_length_c 14.523944
_cell_angle_alpha 90.000000
_cell_angle_beta 90.000000
_cell_angle_gamma 90.000000
_cell_volume 1500.659225
_symmetry_space_group_name_H-M "P 2 2 21"
_symmetry_group_IT_number 17
_symmetry_cell_setting 'orthorhombic'
loop_
_space_group_symop_operation_xyz
x,y,z
-x,-y,1/2+z
x,-y,-z
-x,y,1/2-z
loop_
_atom_site_type_symbol
_atom_site_label
_atom_site_fract_x
_atom_site_fract_y
_atom_site_fract_z
Si Si1 0.055013 0.000818 0.147506
Si Si2 0.980714 0.771821 0.001274
Si Si3 0.848470 0.500000 0.500000
Si Si4 0.303044 0.226839 0.465720
Si Si5 0.331383 0.086709 0.834924
Si Si6 0.599958 0.947259 0.123420
Si Si7 0.665964 0.415381 0.653836
Si Si8 0.418501 0.445525 0.327524
O O1 0.203218 0.990256 0.147881
O O2 0.000000 0.005743 0.250000
O O3 0.016478 0.133422 0.086561
O O4 0.003720 0.865901 0.092031
O O5 0.065414 0.635807 0.003306
O O6 0.836939 0.740156 0.990530
O O7 0.760216 0.497428 0.589282
O O8 0.372026 0.185876 0.559468
O O9 0.358062 0.349186 0.403098
O O10 0.320471 0.080684 0.409414
O O11 0.362663 0.084417 0.726997
O O12 0.453519 0.023422 0.882273
O O13 0.316302 0.250356 0.860156
O O14 0.671975 0.464542 0.761303
O O15 0.524669 0.455780 0.630726
O O16 0.500000 0.359702 0.250000
#
# Coordination Sequence:
#
# PCOD9311325 Si02
#       8
#     4   4   2   4   4   4   4   4
#     4  11  23  45  72  93 135 183 219 278 329 400
#     4  11  26  44  65 100 132 179 234 261 338 409
#     4  12  24  46  66  96 142 174 218 290 318 410
#     4  11  22  44  61  94 135 168 219 281 333 396
#     4  11  21  40  65  98 129 166 226 271 336 405
#     4  10  23  36  67  97 127 164 216 287 338 388
#     4   9  22  42  61  95 132 164 218 275 327 401
#     4   8  21  40  65  91 125 170 212 265 344 394
#
# _framework density 19.991212000000001
#
# number of rings (size 3 to 8) (size 9 to 14) (size 15 to 20)
#    0.800    0.800    1.333    4.800    3.733    5.333 
#    7.200    0.667    0.000    0.000    0.000    0.000 
#    0.000    0.000    0.000    0.000    0.000    0.000 
#
# Total GULP energy -167455.940134 kJ/mol
# GULP energy per Si atom -5581.864671 kJ/mol
# Density = 1.994571 g / cm^3
# Si number density = 19.991212 Si / 1000 Ang^3
#
#
#
# Elastic Constant Matrix: (Units=GPa)
#
#
# Indices 1 2 3 4 5 6 
#
# 1 111.7982 3.6053 34.8727 0.0000 0.0000 0.0000
# 2 3.6053 54.6602 18.6758 0.0000 0.0000 0.0000
# 3 34.8727 18.6758 84.9481 0.0000 0.0000 0.0000
# 4 0.0000 0.0000 0.0000 19.5287 0.0000 0.0000
# 5 0.0000 0.0000 0.0000 0.0000 30.1070 0.0000
# 6 0.0000 0.0000 0.0000 0.0000 0.0000 25.8981
#
#
#
# Elastic Compliance Matrix: (Units=1/GPa)
#
#
# Indices 1 2 3 4 5 6 
#
# 1 0.010293 0.000827 -0.004407 0.000000 0.000000 0.000000
# 2 0.000827 0.019847 -0.004703 0.000000 0.000000 0.000000
# 3 -0.004407 -0.004703 0.014615 0.000000 0.000000 0.000000
# 4 0.000000 0.000000 0.000000 0.051207 0.000000 0.000000
# 5 0.000000 0.000000 0.000000 0.000000 0.033215 0.000000
# 6 0.000000 0.000000 0.000000 0.000000 0.000000 0.038613
#
#
# Mechanical properties :
#
#
# Convention : Reuss Voigt Hill
#
# Bulk Modulus (GPa) = 35.47519 40.63490 38.05505
# Shear Modulus (GPa) = 25.80621 28.05693 26.93157
#
# Velocity S-wave (km/s) = 3.59678 3.75035 3.67436
# Velocity P-wave (km/s) = 5.91887 6.25492 6.08921
#
# Compressibility (1/GPa) = 0.02818871
#
# Stress axis : x y z
#
# Youngs Moduli (GPa) = 97.15600 50.38515 68.42270
#
# Poissons Ratio (x) = -0.04166 0.30155
# Poissons Ratio (y) = -0.08034 0.32178
# Poissons Ratio (z) = 0.42818 0.23695
#
# Static dielectric constant tensor:
#      x y z
#    x 1.704290 0.000000 0.000000 
#    y 0.000000 1.697780 0.000000 
#    z 0.000000 0.000000 1.728730 
# 
# From -- ./inp_files/8519.got.cif
#   From: 2010.05.17/outbox.cif.g08.bks.cpg/sg17_5_cif.got.tgz:8519.got - 2010.06.03 22:34:06.
