data_PCOD9311735
_publ_section_title
;
Structure prediction by ZEFSAII (Michael W. Deem and Ramdas Pophale) SiO2 
 PCOD9311735
Probable space group: P 21 21 2
;
_chemical_formula_sum "Si O2"
_cell_formula_units_Z 28
_cell_length_a 15.285370
_cell_length_b 14.497443
_cell_length_c 5.421386
_cell_angle_alpha 90.000000
_cell_angle_beta 90.000000
_cell_angle_gamma 90.000000
_cell_volume 1201.372525
_symmetry_space_group_name_H-M "P 21 21 2"
_symmetry_group_IT_number 18
_symmetry_cell_setting 'orthorhombic'
loop_
_space_group_symop_operation_xyz
x,y,z
-x,-y,z
1/2+x,1/2-y,-z
1/2-x,1/2+y,-z
loop_
_atom_site_type_symbol
_atom_site_label
_atom_site_fract_x
_atom_site_fract_y
_atom_site_fract_z
Si Si1 0.724933 0.410378 0.037032
Si Si2 0.845087 0.066846 0.582108
Si Si3 0.500000 0.000000 0.059052
Si Si4 0.887744 0.395690 0.307739
Si Si5 0.000000 0.000000 0.245546
Si Si6 0.944718 0.810625 0.101779
Si Si7 0.673805 0.036603 0.345244
Si Si8 0.031384 0.756877 0.615864
O O1 0.681390 0.493862 0.200969
O O2 0.798907 0.356953 0.192812
O O3 0.655217 0.338317 0.936004
O O4 0.775985 0.459608 0.815809
O O5 0.898584 0.159719 0.642596
O O6 0.913344 0.009382 0.411890
O O7 0.757108 0.097253 0.431379
O O8 0.539930 0.918635 0.891972
O O9 0.581509 0.046872 0.204863
O O10 0.859788 0.496256 0.398160
O O11 0.920340 0.336198 0.535691
O O12 0.993987 0.909138 0.085079
O O13 0.977630 0.754427 0.867043
O O14 0.970390 0.776247 0.374450
#
# Coordination Sequence:
#
# PCOD9311735 Si02
#       8
#     4   4   2   4   2   4   4   4
#     4  10  20  39  66  93 124 179 225 269 326 414
#     4  10  20  37  63 103 131 172 220 268 337 406
#     4  10  22  44  72  88 114 182 236 284 320 394
#     4  10  24  44  64  94 131 177 229 289 335 390
#     4  10  18  36  64  94 140 174 208 266 322 428
#     4  11  22  39  63  97 135 180 213 262 344 411
#     4  10  21  40  72  88 124 169 238 275 323 401
#     4  11  26  40  64 100 146 172 211 283 348 395
#
# _framework density 23.306677000000001
#
# number of rings (size 3 to 8) (size 9 to 14) (size 15 to 20)
#    0.000    1.714    1.429    3.000    8.000    0.571 
#    2.571    2.857    0.000    0.000    0.000    0.000 
#    0.000    0.000    0.000    0.000    0.000    0.000 
#
# Total GULP energy -156225.420578 kJ/mol
# GULP energy per Si atom -5579.479306 kJ/mol
# Density = 2.325363 g / cm^3
# Si number density = 23.306677 Si / 1000 Ang^3
#
#
#
# Elastic Constant Matrix: (Units=GPa)
#
#
# Indices 1 2 3 4 5 6 
#
# 1 170.5832 23.9507 57.8697 0.0000 0.0000 0.0000
# 2 23.9507 39.9362 11.6265 0.0000 0.0000 0.0000
# 3 57.8697 11.6265 89.0638 0.0000 0.0000 0.0000
# 4 0.0000 0.0000 0.0000 11.5950 0.0000 0.0000
# 5 0.0000 0.0000 0.0000 0.0000 41.7164 0.0000
# 6 0.0000 0.0000 0.0000 0.0000 0.0000 17.6148
#
#
#
# Elastic Compliance Matrix: (Units=1/GPa)
#
#
# Indices 1 2 3 4 5 6 
#
# 1 0.007937 -0.003388 -0.004715 0.000000 0.000000 0.000000
# 2 -0.003388 0.027475 -0.001386 0.000000 0.000000 0.000000
# 3 -0.004715 -0.001386 0.014473 0.000000 0.000000 0.000000
# 4 0.000000 0.000000 0.000000 0.086244 0.000000 0.000000
# 5 0.000000 0.000000 0.000000 0.000000 0.023971 0.000000
# 6 0.000000 0.000000 0.000000 0.000000 0.000000 0.056771
#
#
# Mechanical properties :
#
#
# Convention : Reuss Voigt Hill
#
# Bulk Modulus (GPa) = 32.35374 54.05298 43.20336
# Shear Modulus (GPa) = 20.31278 27.92764 24.12021
#
# Velocity S-wave (km/s) = 2.95539 3.46536 3.22048
# Velocity P-wave (km/s) = 5.05546 6.26530 5.69261
#
# Compressibility (1/GPa) = 0.03090832
#
# Stress axis : x y z
#
# Youngs Moduli (GPa) = 125.98442 36.39680 69.09654
#
# Poissons Ratio (x) = 0.12330 0.32580
# Poissons Ratio (y) = 0.42678 0.09573
# Poissons Ratio (z) = 0.59404 0.05043
#
# Static dielectric constant tensor:
#      x y z
#    x 1.992100 0.000000 0.000000 
#    y 0.000000 1.935940 0.000000 
#    z 0.000000 0.000000 1.907770 
# 
# From -- ./inp_files/1595.got.cif
#   From: 2010.05.17/outbox.cif.g08.bks.cpg/sg18_1_cif.got.tgz:1595.got - 2010.06.03 22:40:56.
