data_PCOD9311658
_publ_section_title
;
Structure prediction by ZEFSAII (Michael W. Deem and Ramdas Pophale) SiO2 
 PCOD9311658
Probable space group: P 21 21 2
;
_chemical_formula_sum "Si O2"
_cell_formula_units_Z 32
_cell_length_a 13.731571
_cell_length_b 12.312379
_cell_length_c 8.185211
_cell_angle_alpha 90.000000
_cell_angle_beta 90.000000
_cell_angle_gamma 90.000000
_cell_volume 1383.859761
_symmetry_space_group_name_H-M "P 21 21 2"
_symmetry_group_IT_number 18
_symmetry_cell_setting 'orthorhombic'
loop_
_space_group_symop_operation_xyz
x,y,z
-x,-y,z
1/2+x,1/2-y,-z
1/2-x,1/2+y,-z
loop_
_atom_site_type_symbol
_atom_site_label
_atom_site_fract_x
_atom_site_fract_y
_atom_site_fract_z
Si Si1 0.544919 0.619686 0.595901
Si Si2 0.326380 0.035909 0.404708
Si Si3 0.845126 0.693667 0.078789
Si Si4 0.923985 0.240637 0.717825
Si Si5 0.151840 0.297268 0.722184
Si Si6 0.830358 0.812004 0.399231
Si Si7 0.075675 0.761225 0.086604
Si Si8 0.386075 0.029078 0.780786
O O1 0.500000 0.500000 0.588279
O O2 0.598420 0.656448 0.429576
O O3 0.446396 0.692805 0.597656
O O4 0.592888 0.651179 0.769129
O O5 0.383563 0.140656 0.334295
O O6 0.213254 0.067973 0.386556
O O7 0.347836 0.024324 0.596350
O O8 0.352021 0.925239 0.315205
O O9 0.799099 0.748392 0.237954
O O10 0.840940 0.565008 0.108270
O O11 0.958725 0.733218 0.077729
O O12 0.805049 0.721968 0.901069
O O13 0.041321 0.253511 0.726057
O O14 0.895476 0.207126 0.902184
O O15 0.203823 0.239775 0.569551
O O16 0.121902 0.647148 0.141526
O O17 0.500000 0.000000 0.769281
#
# Coordination Sequence:
#
# PCOD9311658 Si02
#       8
#     4   4   4   4   4   4   4   4
#     4  10  21  39  59  76 110 157 198 229 269 328
#     4  12  21  34  58  90 118 142 182 236 292 334
#     4   9  18  37  59  79 110 144 181 225 283 331
#     4  10  20  36  61  88 108 139 193 240 279 333
#     4  10  20  39  62  79 110 152 185 229 284 331
#     4  10  23  39  52  80 118 151 182 227 282 338
#     4   9  18  34  59  87 105 137 189 237 271 325
#     4  10  17  32  60  87 110 139 179 235 289 331
#
# _framework density 23.123730999999999
#
# number of rings (size 3 to 8) (size 9 to 14) (size 15 to 20)
#    0.000    2.000    2.500    1.875    0.000    3.500 
#    4.500    0.000    0.000    0.000    0.000    0.000 
#    0.000    0.000    0.000    0.000    0.000    0.000 
#
# Total GULP energy -178825.915613 kJ/mol
# GULP energy per Si atom -5588.309863 kJ/mol
# Density = 2.307110 g / cm^3
# Si number density = 23.123731 Si / 1000 Ang^3
#
#
#
# Elastic Constant Matrix: (Units=GPa)
#
#
# Indices 1 2 3 4 5 6 
#
# 1 44.6523 -13.2609 20.9379 0.0000 0.0000 0.0000
# 2 -13.2609 67.1252 47.6029 0.0000 0.0000 0.0000
# 3 20.9379 47.6029 229.9233 0.0000 0.0000 0.0000
# 4 0.0000 0.0000 0.0000 15.7420 0.0000 0.0000
# 5 0.0000 0.0000 0.0000 0.0000 17.5197 0.0000
# 6 0.0000 0.0000 0.0000 0.0000 0.0000 22.4061
#
#
#
# Elastic Compliance Matrix: (Units=1/GPa)
#
#
# Indices 1 2 3 4 5 6 
#
# 1 0.026781 0.008228 -0.004142 0.000000 0.000000 0.000000
# 2 0.008228 0.019989 -0.004888 0.000000 0.000000 0.000000
# 3 -0.004142 -0.004888 0.005738 0.000000 0.000000 0.000000
# 4 0.000000 0.000000 0.000000 0.063524 0.000000 0.000000
# 5 0.000000 0.000000 0.000000 0.000000 0.057079 0.000000
# 6 0.000000 0.000000 0.000000 0.000000 0.000000 0.044631
#
#
# Mechanical properties :
#
#
# Convention : Reuss Voigt Hill
#
# Bulk Modulus (GPa) = 19.64420 50.25117 34.94768
# Shear Modulus (GPa) = 21.15820 30.22830 25.69325
#
# Velocity S-wave (km/s) = 3.02818 3.61950 3.33696
# Velocity P-wave (km/s) = 4.55414 6.26469 5.47661
#
# Compressibility (1/GPa) = 0.05090562
#
# Stress axis : x y z
#
# Youngs Moduli (GPa) = 37.33931 50.02639 174.26183
#
# Poissons Ratio (x) = -0.41164 0.72187
# Poissons Ratio (y) = -0.30725 0.85178
# Poissons Ratio (z) = 0.15468 0.24452
#
# Static dielectric constant tensor:
#      x y z
#    x 1.925250 0.000000 0.000000 
#    y 0.000000 1.800470 0.000000 
#    z 0.000000 0.000000 1.865790 
# 
# From -- ./inp_files/4615.got.cif
#   From: 2010.05.17/outbox.cif.g08.bks.cpg/sg18_3_cif.got.tgz:4615.got - 2010.06.03 22:40:56.
