data_PCOD9311713
_publ_section_title
;
Structure prediction by ZEFSAII (Michael W. Deem and Ramdas Pophale) SiO2 
 PCOD9311713
Probable space group: P 21 21 2
;
_chemical_formula_sum "Si O2"
_cell_formula_units_Z 26
_cell_length_a 11.526300
_cell_length_b 11.915473
_cell_length_c 8.058000
_cell_angle_alpha 90.000000
_cell_angle_beta 90.000000
_cell_angle_gamma 90.000000
_cell_volume 1106.696328
_symmetry_space_group_name_H-M "P 21 21 2"
_symmetry_group_IT_number 18
_symmetry_cell_setting 'orthorhombic'
loop_
_space_group_symop_operation_xyz
x,y,z
-x,-y,z
1/2+x,1/2-y,-z
1/2-x,1/2+y,-z
loop_
_atom_site_type_symbol
_atom_site_label
_atom_site_fract_x
_atom_site_fract_y
_atom_site_fract_z
Si Si1 0.085624 0.794694 0.079267
Si Si2 0.116316 0.555521 0.472732
Si Si3 0.413902 0.608079 0.700916
Si Si4 0.165661 0.148286 0.664178
Si Si5 0.000983 0.346962 0.801454
Si Si6 0.500000 0.500000 0.146358
Si Si7 0.225764 0.447188 0.767654
O O1 0.080066 0.692723 0.951613
O O2 0.045484 0.900249 0.966975
O O3 0.198945 0.840973 0.172525
O O4 0.982081 0.792296 0.211496
O O5 0.195905 0.625525 0.346865
O O6 0.196160 0.461464 0.569740
O O7 0.000000 0.500000 0.400747
O O8 0.069627 0.626468 0.632603
O O9 0.500000 0.500000 0.675559
O O10 0.368123 0.652332 0.528211
O O11 0.306677 0.554878 0.802434
O O12 0.091661 0.246724 0.750988
O O13 0.107082 0.038518 0.742397
O O14 0.098860 0.439921 0.846728
#
# Coordination Sequence:
#
# PCOD9311713 Si02
#       7
#     4   4   4   4   4   2   4
#     4  10  19  35  58  84 112 145 198 241 282 346
#     4   9  20  40  58  82 115 162 191 229 299 365
#     4   9  16  32  57  79 103 152 192 220 287 358
#     4  10  20  34  60  86 115 147 195 244 291 339
#     4  10  22  36  57  88 118 142 199 253 287 337
#     4  10  18  34  56  92 112 144 194 248 280 338
#     4   9  18  35  59  73 111 157 182 228 292 350
#
# _framework density 23.493344
#
# number of rings (size 3 to 8) (size 9 to 14) (size 15 to 20)
#    0.000    2.462    3.077    0.000    0.000    4.923 
#    8.308    0.000    3.385    0.000    0.000    0.000 
#    0.000    0.000    0.000    0.000    0.000    0.000 
#
# Total GULP energy -144896.353697 kJ/mol
# GULP energy per Si atom -5572.936681 kJ/mol
# Density = 2.343987 g / cm^3
# Si number density = 23.493344 Si / 1000 Ang^3
#
#
#
# Elastic Constant Matrix: (Units=GPa)
#
#
# Indices 1 2 3 4 5 6 
#
# 1 154.4410 22.2973 24.4737 0.0000 0.0000 0.0000
# 2 22.2973 31.6809 3.2349 0.0000 0.0000 0.0000
# 3 24.4737 3.2349 36.1823 0.0000 0.0000 0.0000
# 4 0.0000 0.0000 0.0000 28.8326 0.0000 0.0000
# 5 0.0000 0.0000 0.0000 0.0000 2.0902 0.0000
# 6 0.0000 0.0000 0.0000 0.0000 0.0000 33.0392
#
#
#
# Elastic Compliance Matrix: (Units=1/GPa)
#
#
# Indices 1 2 3 4 5 6 
#
# 1 0.008000 -0.005125 -0.004953 0.000000 0.000000 0.000000
# 2 -0.005125 0.035138 0.000325 0.000000 0.000000 0.000000
# 3 -0.004953 0.000325 0.030959 0.000000 0.000000 0.000000
# 4 0.000000 0.000000 0.000000 0.034683 0.000000 0.000000
# 5 0.000000 0.000000 0.000000 0.000000 0.478425 0.000000
# 6 0.000000 0.000000 0.000000 0.000000 0.000000 0.030267
#
#
# Mechanical properties :
#
#
# Convention : Reuss Voigt Hill
#
# Bulk Modulus (GPa) = 18.31786 35.81287 27.06536
# Shear Modulus (GPa) = 7.63155 24.27896 15.95526
#
# Velocity S-wave (km/s) = 1.80428 3.21820 2.60886
# Velocity P-wave (km/s) = 3.48634 5.39315 4.54096
#
# Compressibility (1/GPa) = 0.05459154
#
# Stress axis : x y z
#
# Youngs Moduli (GPa) = 125.00530 28.45897 32.30094
#
# Poissons Ratio (x) = 0.14584 0.15998
# Poissons Ratio (y) = 0.64059 -0.01049
# Poissons Ratio (z) = 0.61913 -0.00924
#
# Static dielectric constant tensor:
#      x y z
#    x 1.985210 0.000000 0.000000 
#    y 0.000000 2.067600 0.000000 
#    z 0.000000 0.000000 1.878290 
# 
# From -- ./inp_files/3852.got.cif
#   From: 2010.05.17/outbox.cif.g08.bks.cpg/sg18_2_cif.got.tgz:3852.got - 2010.06.03 22:40:56.
