data_PCOD9311631
_publ_section_title
;
Structure prediction by ZEFSAII (Michael W. Deem and Ramdas Pophale) SiO2 
 PCOD9311631
Probable space group: P 21 21 2
;
_chemical_formula_sum "Si O2"
_cell_formula_units_Z 24
_cell_length_a 9.312812
_cell_length_b 16.040564
_cell_length_c 7.733717
_cell_angle_alpha 90.000000
_cell_angle_beta 90.000000
_cell_angle_gamma 90.000000
_cell_volume 1155.283967
_symmetry_space_group_name_H-M "P 21 21 2"
_symmetry_group_IT_number 18
_symmetry_cell_setting 'orthorhombic'
loop_
_space_group_symop_operation_xyz
x,y,z
-x,-y,z
1/2+x,1/2-y,-z
1/2-x,1/2+y,-z
loop_
_atom_site_type_symbol
_atom_site_label
_atom_site_fract_x
_atom_site_fract_y
_atom_site_fract_z
Si Si1 0.849698 0.079795 0.272663
Si Si2 0.880664 0.660530 0.924058
Si Si3 0.000000 0.500000 0.118353
Si Si4 0.160849 0.108550 0.383781
Si Si5 0.000000 0.000000 0.946612
Si Si6 0.242203 0.103847 0.761365
Si Si7 0.188174 0.715577 0.912835
O O1 0.715024 0.138980 0.242845
O O2 0.989302 0.119773 0.361121
O O3 0.815571 0.991423 0.362389
O O4 0.903235 0.053604 0.079607
O O5 0.017268 0.719771 0.888582
O O6 0.943507 0.573937 0.995839
O O7 0.778735 0.700381 0.070607
O O8 0.871276 0.462839 0.230903
O O9 0.215283 0.135741 0.569893
O O10 0.243125 0.155905 0.231254
O O11 0.899461 0.942196 0.831805
O O12 0.284946 0.173650 0.899861
#
# Coordination Sequence:
#
# PCOD9311631 Si02
#       7
#     4   4   2   4   2   4   4
#     4  10  18  37  62  90 118 164 209 255 311 383
#     4  11  22  40  68  89 127 172 214 273 325 390
#     4  10  22  40  64  98 124 172 226 262 318 394
#     4  10  21  38  61  93 125 160 210 257 313 390
#     4  10  16  34  64  84 120 158 206 246 312 372
#     4  11  21  38  62  91 128 166 205 262 321 378
#     4  11  23  39  60  88 123 164 208 262 329 378
#
# _framework density 20.774114000000001
#
# number of rings (size 3 to 8) (size 9 to 14) (size 15 to 20)
#    0.000    1.667    5.000    3.000    0.000    1.333 
#    0.000    6.667    0.000    0.000    0.000    0.000 
#    0.000    0.000    0.000    0.000    0.000    0.000 
#
# Total GULP energy -134098.141580 kJ/mol
# GULP energy per Si atom -5587.422566 kJ/mol
# Density = 2.072683 g / cm^3
# Si number density = 20.774114 Si / 1000 Ang^3
#
#
#
# Elastic Constant Matrix: (Units=GPa)
#
#
# Indices 1 2 3 4 5 6 
#
# 1 90.3808 20.3659 16.0348 0.0000 0.0000 0.0000
# 2 20.3659 37.1748 5.1552 0.0000 0.0000 0.0000
# 3 16.0348 5.1552 106.7887 0.0000 0.0000 0.0000
# 4 0.0000 0.0000 0.0000 0.7819 0.0000 0.0000
# 5 0.0000 0.0000 0.0000 0.0000 13.2318 0.0000
# 6 0.0000 0.0000 0.0000 0.0000 0.0000 30.6054
#
#
#
# Elastic Compliance Matrix: (Units=1/GPa)
#
#
# Indices 1 2 3 4 5 6 
#
# 1 0.012890 -0.006839 -0.001605 0.000000 0.000000 0.000000
# 2 -0.006839 0.030710 -0.000456 0.000000 0.000000 0.000000
# 3 -0.001605 -0.000456 0.009627 0.000000 0.000000 0.000000
# 4 0.000000 0.000000 0.000000 1.278961 0.000000 0.000000
# 5 0.000000 0.000000 0.000000 0.000000 0.075576 0.000000
# 6 0.000000 0.000000 0.000000 0.000000 0.000000 0.032674
#
#
# Mechanical properties :
#
#
# Convention : Reuss Voigt Hill
#
# Bulk Modulus (GPa) = 28.22689 35.27291 31.74990
# Shear Modulus (GPa) = 3.40125 21.77637 12.58881
#
# Velocity S-wave (km/s) = 1.28094 3.24117 2.46435
# Velocity P-wave (km/s) = 3.97552 5.56984 4.83879
#
# Compressibility (1/GPa) = 0.03542721
#
# Stress axis : x y z
#
# Youngs Moduli (GPa) = 77.57816 32.56277 103.87094
#
# Poissons Ratio (x) = 0.22270 0.16675
# Poissons Ratio (y) = 0.53057 0.04732
# Poissons Ratio (z) = 0.12454 0.01483
#
# Static dielectric constant tensor:
#      x y z
#    x 1.791360 0.000000 0.000000 
#    y 0.000000 1.787360 0.000000 
#    z 0.000000 0.000000 1.703590 
# 
# From -- ./inp_files/3336.got.cif
#   From: 2010.05.17/outbox.cif.g08.bks.cpg/sg18_2_cif.got.tgz:3336.got - 2010.06.03 22:40:56.
