data_PCOD9311848
_publ_section_title
;
Structure prediction by ZEFSAII (Michael W. Deem and Ramdas Pophale) SiO2 
 PCOD9311848
Probable space group: P 21 21 2
;
_chemical_formula_sum "Si O2"
_cell_formula_units_Z 26
_cell_length_a 7.820231
_cell_length_b 10.044517
_cell_length_c 12.762816
_cell_angle_alpha 90.000000
_cell_angle_beta 90.000000
_cell_angle_gamma 90.000000
_cell_volume 1002.524854
_symmetry_space_group_name_H-M "P 21 21 2"
_symmetry_group_IT_number 18
_symmetry_cell_setting 'orthorhombic'
loop_
_space_group_symop_operation_xyz
x,y,z
-x,-y,z
1/2+x,1/2-y,-z
1/2-x,1/2+y,-z
loop_
_atom_site_type_symbol
_atom_site_label
_atom_site_fract_x
_atom_site_fract_y
_atom_site_fract_z
Si Si1 0.850084 0.084699 0.502347
Si Si2 0.991359 0.195331 0.070759
Si Si3 0.037143 0.316250 0.632041
Si Si4 0.719069 0.842970 0.218056
Si Si5 0.197041 0.969879 0.728083
Si Si6 0.000000 0.500000 0.127257
Si Si7 0.390773 0.775090 0.130124
O O1 0.693146 0.129081 0.433895
O O2 0.780787 0.004523 0.604407
O O3 0.947323 0.209000 0.556166
O O4 0.000000 0.000000 0.447746
O O5 0.104982 0.128268 0.161450
O O6 0.792335 0.172372 0.092507
O O7 0.059186 0.160757 0.954519
O O8 0.930163 0.357850 0.868234
O O9 0.118292 0.260896 0.742215
O O10 0.873675 0.400538 0.678738
O O11 0.728961 0.686947 0.249771
O O12 0.337586 0.035738 0.800334
O O13 0.000000 0.000000 0.752024
O O14 0.031205 0.356290 0.074367
#
# Coordination Sequence:
#
# PCOD9311848 Si02
#       7
#     4   4   4   4   4   2   4
#     4  10  21  40  64  90 129 171 220 269 325 384
#     4  11  19  35  61  89 118 158 209 242 326 381
#     4   9  21  39  61  90 132 159 213 272 320 375
#     4   8  18  33  53  85 114 155 191 250 307 369
#     4   9  17  34  54  84 120 146 196 256 310 356
#     4  10  22  30  58  90 118 150 198 266 304 372
#     4  10  19  35  62  82 119 163 196 256 311 383
#
# _framework density 25.934518000000001
#
# number of rings (size 3 to 8) (size 9 to 14) (size 15 to 20)
#    0.923    1.538    1.538    0.923    2.154    3.692 
#    0.000    0.000    6.769    0.000    0.000    0.000 
#    0.000    0.000    0.000    0.000    0.000    0.000 
#
# Total GULP energy -144901.590773 kJ/mol
# GULP energy per Si atom -5573.138107 kJ/mol
# Density = 2.587549 g / cm^3
# Si number density = 25.934518 Si / 1000 Ang^3
#
#
#
# Elastic Constant Matrix: (Units=GPa)
#
#
# Indices 1 2 3 4 5 6 
#
# 1 207.7644 21.4138 92.7335 0.0000 0.0000 0.0000
# 2 21.4138 61.3541 35.0017 0.0000 0.0000 0.0000
# 3 92.7335 35.0017 144.5435 0.0000 0.0000 0.0000
# 4 0.0000 0.0000 0.0000 17.1094 0.0000 0.0000
# 5 0.0000 0.0000 0.0000 0.0000 15.8430 0.0000
# 6 0.0000 0.0000 0.0000 0.0000 0.0000 36.1429
#
#
#
# Elastic Compliance Matrix: (Units=1/GPa)
#
#
# Indices 1 2 3 4 5 6 
#
# 1 0.006745 0.000133 -0.004360 0.000000 0.000000 0.000000
# 2 0.000133 0.018914 -0.004665 0.000000 0.000000 0.000000
# 3 -0.004360 -0.004665 0.010845 0.000000 0.000000 0.000000
# 4 0.000000 0.000000 0.000000 0.058447 0.000000 0.000000
# 5 0.000000 0.000000 0.000000 0.000000 0.063119 0.000000
# 6 0.000000 0.000000 0.000000 0.000000 0.000000 0.027668
#
#
# Mechanical properties :
#
#
# Convention : Reuss Voigt Hill
#
# Bulk Modulus (GPa) = 53.41865 79.10668 66.26267
# Shear Modulus (GPa) = 23.83638 31.45327 27.64482
#
# Velocity S-wave (km/s) = 3.03495 3.48630 3.26843
# Velocity P-wave (km/s) = 5.73790 6.83918 6.31260
#
# Compressibility (1/GPa) = 0.01872005
#
# Stress axis : x y z
#
# Youngs Moduli (GPa) = 148.24963 52.87100 92.20734
#
# Poissons Ratio (x) = -0.00703 0.40200
# Poissons Ratio (y) = -0.01971 0.43018
# Poissons Ratio (z) = 0.64633 0.24666
#
# Static dielectric constant tensor:
#      x y z
#    x 1.962680 0.000000 0.000000 
#    y 0.000000 2.308380 0.000000 
#    z 0.000000 0.000000 2.097940 
# 
# From -- ./inp_files/5600.got.cif
#   From: 2010.05.17/outbox.cif.g08.bks.cpg/sg18_3_cif.got.tgz:5600.got - 2010.06.03 22:40:56.
