data_PCOD9311972
_publ_section_title
;
Structure prediction by ZEFSAII (Michael W. Deem and Ramdas Pophale) SiO2 
 PCOD9311972
Probable space group: P 21 21 2
;
_chemical_formula_sum "Si O2"
_cell_formula_units_Z 30
_cell_length_a 9.029038
_cell_length_b 15.206085
_cell_length_c 9.170775
_cell_angle_alpha 90.000000
_cell_angle_beta 90.000000
_cell_angle_gamma 90.000000
_cell_volume 1259.113653
_symmetry_space_group_name_H-M "P 21 21 2"
_symmetry_group_IT_number 18
_symmetry_cell_setting 'orthorhombic'
loop_
_space_group_symop_operation_xyz
x,y,z
-x,-y,z
1/2+x,1/2-y,-z
1/2-x,1/2+y,-z
loop_
_atom_site_type_symbol
_atom_site_label
_atom_site_fract_x
_atom_site_fract_y
_atom_site_fract_z
Si Si1 0.000000 0.500000 0.142039
Si Si2 0.915309 0.262530 0.520194
Si Si3 0.889702 0.582268 0.653544
Si Si4 0.761535 0.370428 0.269556
Si Si5 0.160702 0.025488 0.478297
Si Si6 0.661471 0.305292 0.680441
Si Si7 0.271715 0.439568 0.952045
Si Si8 0.414919 0.634026 0.987023
O O1 0.905409 0.427848 0.228621
O O2 0.875676 0.551335 0.048748
O O3 0.817979 0.301262 0.387069
O O4 0.791553 0.237559 0.639185
O O5 0.019944 0.333534 0.600884
O O6 0.026042 0.200976 0.432823
O O7 0.777743 0.552563 0.526477
O O8 0.786226 0.592692 0.795162
O O9 0.000000 0.500000 0.680919
O O10 0.654837 0.435340 0.360111
O O11 0.673346 0.335428 0.130374
O O12 0.221663 0.098352 0.365003
O O13 0.000000 0.000000 0.424822
O O14 0.612866 0.305203 0.846606
O O15 0.340999 0.538591 0.950038
O O16 0.409537 0.380779 0.006322
#
# Coordination Sequence:
#
# PCOD9311972 Si02
#       8
#     2   4   4   4   4   4   4   4
#     4  10  20  34  60  96 130 164 208 260 320 398
#     4  11  26  43  65  94 131 176 213 279 330 397
#     4  12  19  39  65  97 129 165 217 277 332 379
#     4  10  22  41  58  92 134 166 210 262 333 384
#     4  11  23  38  67  96 127 165 219 279 322 391
#     4  11  24  45  63  96 128 168 223 266 330 393
#     4  10  20  33  64 101 125 165 215 268 327 371
#     4  10  21  40  63  91 132 168 215 268 315 399
#
# _framework density 23.826283
#
# number of rings (size 3 to 8) (size 9 to 14) (size 15 to 20)
#    0.000    1.333    4.667    1.600    9.333    0.000 
#    0.000    4.000    0.000    0.000    0.000    0.000 
#    0.000    0.000    0.000    0.000    0.000    0.000 
#
# Total GULP energy -167672.201214 kJ/mol
# GULP energy per Si atom -5589.073374 kJ/mol
# Density = 2.377205 g / cm^3
# Si number density = 23.826283 Si / 1000 Ang^3
#
#
#
# Elastic Constant Matrix: (Units=GPa)
#
#
# Indices 1 2 3 4 5 6 
#
# 1 141.8612 15.0563 43.0073 0.0000 0.0000 0.0000
# 2 15.0563 19.4423 5.5024 0.0000 0.0000 0.0000
# 3 43.0073 5.5024 97.0801 0.0000 0.0000 0.0000
# 4 0.0000 0.0000 0.0000 14.0007 0.0000 0.0000
# 5 0.0000 0.0000 0.0000 0.0000 37.9431 0.0000
# 6 0.0000 0.0000 0.0000 0.0000 0.0000 33.0179
#
#
#
# Elastic Compliance Matrix: (Units=1/GPa)
#
#
# Indices 1 2 3 4 5 6 
#
# 1 0.008735 -0.005762 -0.003543 0.000000 0.000000 0.000000
# 2 -0.005762 0.056073 -0.000626 0.000000 0.000000 0.000000
# 3 -0.003543 -0.000626 0.011906 0.000000 0.000000 0.000000
# 4 0.000000 0.000000 0.000000 0.071425 0.000000 0.000000
# 5 0.000000 0.000000 0.000000 0.000000 0.026355 0.000000
# 6 0.000000 0.000000 0.000000 0.000000 0.000000 0.030287
#
#
# Mechanical properties :
#
#
# Convention : Reuss Voigt Hill
#
# Bulk Modulus (GPa) = 17.58917 42.83507 30.21212
# Shear Modulus (GPa) = 20.52608 29.98016 25.25312
#
# Velocity S-wave (km/s) = 2.93830 3.55107 3.25912
# Velocity P-wave (km/s) = 4.34853 5.90175 5.18364
#
# Compressibility (1/GPa) = 0.05685317
#
# Stress axis : x y z
#
# Youngs Moduli (GPa) = 114.48514 17.83381 83.99254
#
# Poissons Ratio (x) = 0.10275 0.29759
# Poissons Ratio (y) = 0.65961 0.05256
# Poissons Ratio (z) = 0.40562 0.01116
#
# Static dielectric constant tensor:
#      x y z
#    x 1.941080 0.000000 0.000000 
#    y 0.000000 2.016850 0.000000 
#    z 0.000000 0.000000 1.897750 
# 
# From -- ./inp_files/3502.got.cif
#   From: 2010.05.17/outbox.cif.g08.bks.cpg/sg18_2_cif.got.tgz:3502.got - 2010.06.03 22:40:56.
