data_PCOD9311388
_publ_section_title
;
Structure prediction by ZEFSAII (Michael W. Deem and Ramdas Pophale) SiO2 
 PCOD9311388
Probable space group: P 2 2 21
;
_chemical_formula_sum "Si O2"
_cell_formula_units_Z 30
_cell_length_a 18.966260
_cell_length_b 5.741080
_cell_length_c 11.547240
_cell_angle_alpha 90.000000
_cell_angle_beta 90.000000
_cell_angle_gamma 90.000000
_cell_volume 1257.342197
_symmetry_space_group_name_H-M "P 2 2 21"
_symmetry_group_IT_number 17
_symmetry_cell_setting 'orthorhombic'
loop_
_space_group_symop_operation_xyz
x,y,z
-x,-y,1/2+z
x,-y,-z
-x,y,1/2-z
loop_
_atom_site_type_symbol
_atom_site_label
_atom_site_fract_x
_atom_site_fract_y
_atom_site_fract_z
Si Si1 0.134312 0.386454 0.626760
Si Si2 0.903545 0.757318 0.561512
Si Si3 0.363713 0.437418 0.870526
Si Si4 0.607165 0.575139 0.133132
Si Si5 0.735365 0.923539 0.129413
Si Si6 0.476123 0.083193 0.868104
Si Si7 0.770749 0.685555 0.698412
Si Si8 0.000000 0.533201 0.750000
O O1 0.130797 0.500000 0.500000
O O2 0.183103 0.158775 0.624861
O O3 0.179519 0.551445 0.711048
O O4 0.056758 0.376504 0.681157
O O5 0.900782 0.500000 0.500000
O O6 0.824766 0.799849 0.609014
O O7 0.958350 0.700272 0.662921
O O8 0.924651 0.000000 0.500000
O O9 0.393771 0.565908 0.754886
O O10 0.396620 0.179648 0.856814
O O11 0.281943 0.507541 0.864518
O O12 0.388878 0.500000 0.000000
O O13 0.679377 0.721093 0.153388
O O14 0.533858 0.710623 0.134264
O O15 0.614912 0.500000 0.000000
O O16 0.731013 0.122679 0.224954
O O17 0.716493 0.000000 0.000000
O O18 0.500000 0.951269 0.750000
O O19 0.483386 0.000000 0.000000
#
# Coordination Sequence:
#
# PCOD9311388 Si02
#       8
#     4   4   4   4   4   4   4   2
#     4  11  22  47  69 107 150 194 256 328 384 473
#     4  11  27  51  75 111 153 200 256 313 388 479
#     4  11  24  43  66 102 146 198 249 316 402 460
#     4  11  23  43  71 103 149 197 258 331 390 486
#     4  12  23  40  74 108 141 197 258 327 391 458
#     4  10  24  44  68 104 150 202 258 325 406 489
#     4  11  25  43  70 105 146 201 251 317 391 469
#     4  10  26  48  78 108 152 202 244 322 404 474
#
# _framework density 23.859853999999999
#
# number of rings (size 3 to 8) (size 9 to 14) (size 15 to 20)
#    0.000    1.067    2.667    2.800    3.733    4.800 
#    7.200    0.667    0.000    0.000    0.000    0.000 
#    0.000    0.000    0.000    0.000    0.000    0.000 
#
# Total GULP energy -167290.963303 kJ/mol
# GULP energy per Si atom -5576.365443 kJ/mol
# Density = 2.380555 g / cm^3
# Si number density = 23.859854 Si / 1000 Ang^3
#
#
#
# Elastic Constant Matrix: (Units=GPa)
#
#
# Indices 1 2 3 4 5 6 
#
# 1 131.8078 31.5338 47.0092 0.0000 0.0000 0.0000
# 2 31.5338 58.1122 42.1262 0.0000 0.0000 0.0000
# 3 47.0092 42.1262 207.1169 0.0000 0.0000 0.0000
# 4 0.0000 0.0000 0.0000 37.9249 0.0000 0.0000
# 5 0.0000 0.0000 0.0000 0.0000 23.6642 0.0000
# 6 0.0000 0.0000 0.0000 0.0000 0.0000 48.0110
#
#
#
# Elastic Compliance Matrix: (Units=1/GPa)
#
#
# Indices 1 2 3 4 5 6 
#
# 1 0.008977 -0.003981 -0.001228 0.000000 0.000000 0.000000
# 2 -0.003981 0.021950 -0.003561 0.000000 0.000000 0.000000
# 3 -0.001228 -0.003561 0.005831 0.000000 0.000000 0.000000
# 4 0.000000 0.000000 0.000000 0.026368 0.000000 0.000000
# 5 0.000000 0.000000 0.000000 0.000000 0.042258 0.000000
# 6 0.000000 0.000000 0.000000 0.000000 0.000000 0.020829
#
#
# Mechanical properties :
#
#
# Convention : Reuss Voigt Hill
#
# Bulk Modulus (GPa) = 52.03382 70.93059 61.48220
# Shear Modulus (GPa) = 33.29818 40.34452 36.82135
#
# Velocity S-wave (km/s) = 3.73979 4.11651 3.93266
# Velocity P-wave (km/s) = 6.36424 7.23787 6.81507
#
# Compressibility (1/GPa) = 0.01921827
#
# Stress axis : x y z
#
# Youngs Moduli (GPa) = 111.39344 45.55849 171.49419
#
# Poissons Ratio (x) = 0.18138 0.21055
# Poissons Ratio (y) = 0.44349 0.61066
# Poissons Ratio (z) = 0.13677 0.16223
#
# Static dielectric constant tensor:
#      x y z
#    x 1.873650 0.000000 0.000000 
#    y 0.000000 1.991530 0.000000 
#    z 0.000000 0.000000 1.993350 
# 
# From -- ./inp_files/7405.got.cif
#   From: 2010.05.17/outbox.cif.g08.bks.cpg/sg17_4_cif.got.tgz:7405.got - 2010.06.03 22:34:06.
