data_PCOD9311717
_publ_section_title
;
Structure prediction by ZEFSAII (Michael W. Deem and Ramdas Pophale) SiO2 
 PCOD9311717
Probable space group: P 21 21 2
;
_chemical_formula_sum "Si O2"
_cell_formula_units_Z 30
_cell_length_a 18.848238
_cell_length_b 9.178298
_cell_length_c 7.418708
_cell_angle_alpha 90.000000
_cell_angle_beta 90.000000
_cell_angle_gamma 90.000000
_cell_volume 1283.397500
_symmetry_space_group_name_H-M "P 21 21 2"
_symmetry_group_IT_number 18
_symmetry_cell_setting 'orthorhombic'
loop_
_space_group_symop_operation_xyz
x,y,z
-x,-y,z
1/2+x,1/2-y,-z
1/2-x,1/2+y,-z
loop_
_atom_site_type_symbol
_atom_site_label
_atom_site_fract_x
_atom_site_fract_y
_atom_site_fract_z
Si Si1 0.530013 0.651816 0.037618
Si Si2 0.846684 0.351169 0.843093
Si Si3 0.765760 0.724542 0.665506
Si Si4 0.500000 0.000000 0.500731
Si Si5 0.370565 0.171037 0.572721
Si Si6 0.911779 0.645805 0.819453
Si Si7 0.789574 0.889446 0.295159
Si Si8 0.927875 0.038355 0.348482
O O1 0.500000 0.500000 0.115007
O O2 0.603544 0.715807 0.113326
O O3 0.467596 0.767002 0.063204
O O4 0.546545 0.621155 0.830099
O O5 0.850930 0.381757 0.626826
O O6 0.884165 0.497446 0.914427
O O7 0.761960 0.333267 0.865258
O O8 0.696375 0.825470 0.707536
O O9 0.840030 0.733094 0.769525
O O10 0.781567 0.778004 0.461897
O O11 0.738603 0.557443 0.678903
O O12 0.558766 0.916664 0.617220
O O13 0.456998 0.893491 0.362997
O O14 0.388038 0.339903 0.539444
O O15 0.874034 0.914142 0.283005
O O16 0.000000 0.000000 0.447758
#
# Coordination Sequence:
#
# PCOD9311717 Si02
#       8
#     4   4   4   2   4   4   4   4
#     4  11  22  37  56  83 118 156 198 241 282 356
#     4   9  18  38  65  86 111 153 199 245 294 362
#     4   9  19  33  58  90 118 147 188 247 302 360
#     4  10  18  34  58  90 118 144 202 258 296 358
#     4   9  18  36  57  85 115 143 187 251 300 349
#     4  10  18  35  60  85 114 151 198 246 295 353
#     4   9  19  37  60  85 123 149 190 250 309 354
#     4  10  23  38  51  80 125 157 186 239 301 352
#
# _framework density 23.375454999999999
#
# number of rings (size 3 to 8) (size 9 to 14) (size 15 to 20)
#    0.000    2.400    2.667    0.800    1.867    3.733 
#    2.400    8.000    0.000    0.000    0.000    0.000 
#    0.000    0.000    0.000    0.000    0.000    0.000 
#
# Total GULP energy -167093.457473 kJ/mol
# GULP energy per Si atom -5569.781916 kJ/mol
# Density = 2.332225 g / cm^3
# Si number density = 23.375455 Si / 1000 Ang^3
#
#
#
# Elastic Constant Matrix: (Units=GPa)
#
#
# Indices 1 2 3 4 5 6 
#
# 1 143.6590 26.7173 -4.1545 0.0000 0.0000 0.0000
# 2 26.7173 35.7489 -3.1273 0.0000 0.0000 0.0000
# 3 -4.1545 -3.1273 24.8091 0.0000 0.0000 0.0000
# 4 0.0000 0.0000 0.0000 16.0429 0.0000 0.0000
# 5 0.0000 0.0000 0.0000 0.0000 12.3928 0.0000
# 6 0.0000 0.0000 0.0000 0.0000 0.0000 61.4579
#
#
#
# Elastic Compliance Matrix: (Units=1/GPa)
#
#
# Indices 1 2 3 4 5 6 
#
# 1 0.008093 -0.005996 0.000599 0.000000 0.000000 0.000000
# 2 -0.005996 0.032727 0.003121 0.000000 0.000000 0.000000
# 3 0.000599 0.003121 0.040802 0.000000 0.000000 0.000000
# 4 0.000000 0.000000 0.000000 0.062333 0.000000 0.000000
# 5 0.000000 0.000000 0.000000 0.000000 0.080692 0.000000
# 6 0.000000 0.000000 0.000000 0.000000 0.000000 0.016271
#
#
# Mechanical properties :
#
#
# Convention : Reuss Voigt Hill
#
# Bulk Modulus (GPa) = 12.97500 27.00978 19.99239
# Shear Modulus (GPa) = 18.43929 30.29748 24.36839
#
# Velocity S-wave (km/s) = 2.81166 3.60408 3.23224
# Velocity P-wave (km/s) = 4.01290 5.37578 4.74354
#
# Compressibility (1/GPa) = 0.07707126
#
# Stress axis : x y z
#
# Youngs Moduli (GPa) = 123.55705 30.55558 24.50883
#
# Poissons Ratio (x) = 0.18322 -0.01469
# Poissons Ratio (y) = 0.74088 -0.07650
# Poissons Ratio (z) = -0.07407 -0.09537
#
# Static dielectric constant tensor:
#      x y z
#    x 2.144550 0.000000 0.000000 
#    y 0.000000 1.895480 0.000000 
#    z 0.000000 0.000000 1.869580 
# 
# From -- ./inp_files/4706.got.cif
#   From: 2010.05.17/outbox.cif.g08.bks.cpg/sg18_3_cif.got.tgz:4706.got - 2010.06.03 22:40:56.
