data_PCOD9311841
_publ_section_title
;
Structure prediction by ZEFSAII (Michael W. Deem and Ramdas Pophale) SiO2 
 PCOD9311841
Probable space group: P 21 21 2
;
_chemical_formula_sum "Si O2"
_cell_formula_units_Z 32
_cell_length_a 13.333735
_cell_length_b 9.880196
_cell_length_c 11.465786
_cell_angle_alpha 90.000000
_cell_angle_beta 90.000000
_cell_angle_gamma 90.000000
_cell_volume 1510.501675
_symmetry_space_group_name_H-M "P 21 21 2"
_symmetry_group_IT_number 18
_symmetry_cell_setting 'orthorhombic'
loop_
_space_group_symop_operation_xyz
x,y,z
-x,-y,z
1/2+x,1/2-y,-z
1/2-x,1/2+y,-z
loop_
_atom_site_type_symbol
_atom_site_label
_atom_site_fract_x
_atom_site_fract_y
_atom_site_fract_z
Si Si1 0.598715 0.716768 0.925731
Si Si2 0.838488 0.349056 0.837641
Si Si3 0.390371 0.003206 0.789078
Si Si4 0.876005 0.772435 0.076789
Si Si5 0.780501 0.501165 0.441662
Si Si6 0.191910 0.343541 0.844251
Si Si7 0.442217 0.138699 0.400253
Si Si8 0.650463 0.257508 0.418362
O O1 0.616244 0.854986 0.853603
O O2 0.486065 0.665499 0.905148
O O3 0.692423 0.629937 0.881902
O O4 0.611768 0.759551 0.060671
O O5 0.719053 0.328972 0.853485
O O6 0.859714 0.509464 0.852093
O O7 0.880143 0.310685 0.711011
O O8 0.306537 0.981548 0.693267
O O9 0.500000 0.000000 0.729670
O O10 0.386846 0.882852 0.881288
O O11 0.849236 0.761407 0.940294
O O12 0.866915 0.406253 0.498673
O O13 0.682748 0.408689 0.450812
O O14 0.790090 0.644337 0.506034
O O15 0.177372 0.281731 0.715735
O O16 0.532090 0.236328 0.436631
O O17 0.500000 0.000000 0.366218
#
# Coordination Sequence:
#
# PCOD9311841 Si02
#       8
#     4   4   4   4   4   4   4   4
#     4  10  21  36  57  89 122 156 193 248 309 357
#     4  11  21  37  62  90 118 156 209 246 295 370
#     4  10  19  35  59  85 114 152 195 240 293 362
#     4  10  23  35  60  91 123 156 196 248 305 369
#     4  11  23  39  61  89 121 158 206 253 309 357
#     4  11  20  38  61  89 120 157 203 254 303 361
#     4  10  21  39  63  89 112 160 211 252 294 366
#     4  11  23  40  65  87 123 160 206 262 302 366
#
# _framework density 21.185016000000001
#
# number of rings (size 3 to 8) (size 9 to 14) (size 15 to 20)
#    0.000    1.500    5.000    1.875    1.750    0.500 
#    0.000    0.625    2.750    0.000    0.000    0.000 
#    0.000    0.000    0.000    0.000    0.000    0.000 
#
# Total GULP energy -178692.467388 kJ/mol
# GULP energy per Si atom -5584.139606 kJ/mol
# Density = 2.113680 g / cm^3
# Si number density = 21.185016 Si / 1000 Ang^3
#
#
#
# Elastic Constant Matrix: (Units=GPa)
#
#
# Indices 1 2 3 4 5 6 
#
# 1 63.0711 -3.4238 -7.4516 0.0000 0.0000 0.0000
# 2 -3.4238 43.1487 -3.0953 0.0000 0.0000 0.0000
# 3 -7.4516 -3.0953 60.9052 0.0000 0.0000 0.0000
# 4 0.0000 0.0000 0.0000 10.9518 0.0000 0.0000
# 5 0.0000 0.0000 0.0000 0.0000 25.8946 0.0000
# 6 0.0000 0.0000 0.0000 0.0000 0.0000 28.9260
#
#
#
# Elastic Compliance Matrix: (Units=1/GPa)
#
#
# Indices 1 2 3 4 5 6 
#
# 1 0.016175 0.001431 0.002052 0.000000 0.000000 0.000000
# 2 0.001431 0.023387 0.001364 0.000000 0.000000 0.000000
# 3 0.002052 0.001364 0.016739 0.000000 0.000000 0.000000
# 4 0.000000 0.000000 0.000000 0.091309 0.000000 0.000000
# 5 0.000000 0.000000 0.000000 0.000000 0.038618 0.000000
# 6 0.000000 0.000000 0.000000 0.000000 0.000000 0.034571
#
#
# Mechanical properties :
#
#
# Convention : Reuss Voigt Hill
#
# Bulk Modulus (GPa) = 15.15302 15.46484 15.30893
# Shear Modulus (GPa) = 21.44949 25.22753 23.33851
#
# Velocity S-wave (km/s) = 3.18541 3.45457 3.32271
# Velocity P-wave (km/s) = 4.54943 4.81952 4.68642
#
# Compressibility (1/GPa) = 0.06599343
#
# Stress axis : x y z
#
# Youngs Moduli (GPa) = 61.82312 42.75878 59.73969
#
# Poissons Ratio (x) = -0.06117 -0.12257
# Poissons Ratio (y) = -0.08845 -0.08146
# Poissons Ratio (z) = -0.12684 -0.05831
#
# Static dielectric constant tensor:
#      x y z
#    x 1.822290 0.000000 0.000000 
#    y 0.000000 1.760850 0.000000 
#    z 0.000000 0.000000 1.739250 
# 
# From -- ./inp_files/5943.got.cif
#   From: 2010.05.17/outbox.cif.g08.bks.cpg/sg18_3_cif.got.tgz:5943.got - 2010.06.03 22:40:56.
