data_PCOD9311970
_publ_section_title
;
Structure prediction by ZEFSAII (Michael W. Deem and Ramdas Pophale) SiO2 
 PCOD9311970
Probable space group: P 21 21 2
;
_chemical_formula_sum "Si O2"
_cell_formula_units_Z 24
_cell_length_a 17.207424
_cell_length_b 5.425094
_cell_length_c 12.025565
_cell_angle_alpha 90.000000
_cell_angle_beta 90.000000
_cell_angle_gamma 90.000000
_cell_volume 1122.609254
_symmetry_space_group_name_H-M "P 21 21 2"
_symmetry_group_IT_number 18
_symmetry_cell_setting 'orthorhombic'
loop_
_space_group_symop_operation_xyz
x,y,z
-x,-y,z
1/2+x,1/2-y,-z
1/2-x,1/2+y,-z
loop_
_atom_site_type_symbol
_atom_site_label
_atom_site_fract_x
_atom_site_fract_y
_atom_site_fract_z
Si Si1 0.684788 0.844420 0.746997
Si Si2 0.359962 0.471880 0.925617
Si Si3 0.199329 0.427544 0.482960
Si Si4 0.548200 0.252241 0.095017
Si Si5 0.842900 0.572555 0.708669
Si Si6 0.712326 0.726122 0.131667
O O1 0.621894 0.681466 0.814296
O O2 0.665506 0.011028 0.639862
O O3 0.754696 0.671981 0.704798
O O4 0.729346 0.007657 0.838744
O O5 0.272056 0.564026 0.905892
O O6 0.412872 0.690271 0.974081
O O7 0.349375 0.306776 0.034933
O O8 0.247170 0.168506 0.484120
O O9 0.134231 0.412543 0.580316
O O10 0.500000 0.500000 0.119665
O O11 0.609702 0.214488 0.195862
O O12 0.500000 0.000000 0.091147
O O13 0.833691 0.298641 0.757143
#
# Coordination Sequence:
#
# PCOD9311970 Si02
#       6
#     4   4   4   4   4   4
#     4  10  20  33  60  92 127 159 194 257 338 385
#     4  11  21  34  57  90 127 163 201 259 315 391
#     4  10  20  35  57  94 129 158 190 245 317 390
#     4  12  27  41  59  89 125 178 220 260 306 368
#     4  10  21  37  58  89 132 158 205 259 316 389
#     4  11  17  32  59  91 123 157 187 256 334 375
#
# _framework density 21.378764
#
# number of rings (size 3 to 8) (size 9 to 14) (size 15 to 20)
#    0.000    1.333    5.000    2.000    2.333    0.000 
#    0.000    0.000    0.000    0.000    4.333    0.000 
#    0.000    0.000    0.000    0.000    0.000    0.000 
#
# Total GULP energy -133612.339197 kJ/mol
# GULP energy per Si atom -5567.180800 kJ/mol
# Density = 2.133011 g / cm^3
# Si number density = 21.378764 Si / 1000 Ang^3
#
#
#
# Elastic Constant Matrix: (Units=GPa)
#
#
# Indices 1 2 3 4 5 6 
#
# 1 35.0068 22.9411 20.8963 0.0000 0.0000 0.0000
# 2 22.9411 98.6216 31.1295 0.0000 0.0000 0.0000
# 3 20.8963 31.1295 127.2991 0.0000 0.0000 0.0000
# 4 0.0000 0.0000 0.0000 40.3482 0.0000 0.0000
# 5 0.0000 0.0000 0.0000 0.0000 11.5957 0.0000
# 6 0.0000 0.0000 0.0000 0.0000 0.0000 26.9330
#
#
#
# Elastic Compliance Matrix: (Units=1/GPa)
#
#
# Indices 1 2 3 4 5 6 
#
# 1 0.035609 -0.006977 -0.004139 0.000000 0.000000 0.000000
# 2 -0.006977 0.012355 -0.001876 0.000000 0.000000 0.000000
# 3 -0.004139 -0.001876 0.008994 0.000000 0.000000 0.000000
# 4 0.000000 0.000000 0.000000 0.024784 0.000000 0.000000
# 5 0.000000 0.000000 0.000000 0.000000 0.086239 0.000000
# 6 0.000000 0.000000 0.000000 0.000000 0.000000 0.037129
#
#
# Mechanical properties :
#
#
# Convention : Reuss Voigt Hill
#
# Bulk Modulus (GPa) = 32.28563 45.65125 38.96844
# Shear Modulus (GPa) = 20.71102 28.17276 24.44189
#
# Velocity S-wave (km/s) = 3.11588 3.63408 3.38491
# Velocity P-wave (km/s) = 5.29900 6.24569 5.79172
#
# Compressibility (1/GPa) = 0.03097354
#
# Stress axis : x y z
#
# Youngs Moduli (GPa) = 28.08312 80.94015 111.18880
#
# Poissons Ratio (x) = 0.56469 0.46022
# Poissons Ratio (y) = 0.19593 0.20859
# Poissons Ratio (z) = 0.11624 0.15184
#
# Static dielectric constant tensor:
#      x y z
#    x 1.790610 0.000000 0.000000 
#    y 0.000000 1.879250 0.000000 
#    z 0.000000 0.000000 1.953830 
# 
# From -- ./inp_files/5140.got.cif
#   From: 2010.05.17/outbox.cif.g08.bks.cpg/sg18_3_cif.got.tgz:5140.got - 2010.06.03 22:40:56.
