data_PCOD9311650
_publ_section_title
;
Structure prediction by ZEFSAII (Michael W. Deem and Ramdas Pophale) SiO2 
 PCOD9311650
Probable space group: P 21 21 2
;
_chemical_formula_sum "Si O2"
_cell_formula_units_Z 24
_cell_length_a 17.759052
_cell_length_b 4.986346
_cell_length_c 14.508875
_cell_angle_alpha 90.000000
_cell_angle_beta 90.000000
_cell_angle_gamma 90.000000
_cell_volume 1284.801186
_symmetry_space_group_name_H-M "P 21 21 2"
_symmetry_group_IT_number 18
_symmetry_cell_setting 'orthorhombic'
loop_
_space_group_symop_operation_xyz
x,y,z
-x,-y,z
1/2+x,1/2-y,-z
1/2-x,1/2+y,-z
loop_
_atom_site_type_symbol
_atom_site_label
_atom_site_fract_x
_atom_site_fract_y
_atom_site_fract_z
Si Si1 0.699647 0.871702 0.009437
Si Si2 0.320412 0.907310 0.406872
Si Si3 0.547486 0.738712 0.685820
Si Si4 0.351032 0.403789 0.522946
Si Si5 0.322863 0.014962 0.813276
Si Si6 0.216833 0.514333 0.792508
O O1 0.672488 0.912763 0.113793
O O2 0.726572 0.566195 0.996787
O O3 0.653047 0.967497 0.920764
O O4 0.349114 0.620567 0.441310
O O5 0.230316 0.919109 0.426704
O O6 0.357091 0.116966 0.475831
O O7 0.329384 0.997135 0.301709
O O8 0.500000 0.500000 0.734294
O O9 0.586083 0.583343 0.600638
O O10 0.612045 0.872443 0.748743
O O11 0.500000 0.000000 0.656342
O O12 0.253948 0.223232 0.804025
O O13 0.286051 0.729229 0.787476
#
# Coordination Sequence:
#
# PCOD9311650 Si02
#       6
#     4   4   4   4   4   4
#     4   8  16  28  46  74 103 132 158 197 259 313
#     4  10  19  31  53  73 104 134 166 221 277 321
#     4  12  24  36  52  72 105 153 186 216 256 312
#     4  10  21  33  47  75 101 136 179 216 263 313
#     4  10  19  32  49  73 109 136 172 212 251 324
#     4  10  17  30  53  78 104 136 163 208 278 329
#
# _framework density 18.679933999999999
#
# number of rings (size 3 to 8) (size 9 to 14) (size 15 to 20)
#    0.000    2.000    1.667    3.000    4.667    0.000 
#    0.000    0.000    0.000    0.000    0.000    4.667 
#    0.000    0.000    0.000    0.000    0.000    0.000 
#
# Total GULP energy -133720.409989 kJ/mol
# GULP energy per Si atom -5571.683750 kJ/mol
# Density = 1.863742 g / cm^3
# Si number density = 18.679934 Si / 1000 Ang^3
#
#
#
# Elastic Constant Matrix: (Units=GPa)
#
#
# Indices 1 2 3 4 5 6 
#
# 1 24.9281 5.7865 19.0576 0.0000 0.0000 0.0000
# 2 5.7865 77.1808 -13.5078 0.0000 0.0000 0.0000
# 3 19.0576 -13.5078 99.0357 0.0000 0.0000 0.0000
# 4 0.0000 0.0000 0.0000 20.4587 0.0000 0.0000
# 5 0.0000 0.0000 0.0000 0.0000 3.9126 0.0000
# 6 0.0000 0.0000 0.0000 0.0000 0.0000 14.2303
#
#
#
# Elastic Compliance Matrix: (Units=1/GPa)
#
#
# Indices 1 2 3 4 5 6 
#
# 1 0.049195 -0.005476 -0.010214 0.000000 0.000000 0.000000
# 2 -0.005476 0.013883 0.002947 0.000000 0.000000 0.000000
# 3 -0.010214 0.002947 0.012465 0.000000 0.000000 0.000000
# 4 0.000000 0.000000 0.000000 0.048879 0.000000 0.000000
# 5 0.000000 0.000000 0.000000 0.000000 0.255586 0.000000
# 6 0.000000 0.000000 0.000000 0.000000 0.000000 0.070272
#
#
# Mechanical properties :
#
#
# Convention : Reuss Voigt Hill
#
# Bulk Modulus (GPa) = 19.97669 24.86858 22.42263
# Shear Modulus (GPa) = 10.15331 20.37421 15.26376
#
# Velocity S-wave (km/s) = 2.33393 3.30616 2.86163
# Velocity P-wave (km/s) = 4.24033 5.28357 4.79043
#
# Compressibility (1/GPa) = 0.05005835
#
# Stress axis : x y z
#
# Youngs Moduli (GPa) = 20.32737 72.03083 80.22617
#
# Poissons Ratio (x) = 0.39443 0.81939
# Poissons Ratio (y) = 0.11131 -0.23645
# Poissons Ratio (z) = 0.20761 -0.21229
#
# Static dielectric constant tensor:
#      x y z
#    x 1.645080 0.000000 0.000000 
#    y 0.000000 1.641480 0.000000 
#    z 0.000000 0.000000 1.731930 
# 
# From -- ./inp_files/6170.got.cif
#   From: 2010.05.17/outbox.cif.g08.bks.cpg/sg18_4_cif.got.tgz:6170.got - 2010.06.03 22:40:56.
