data_PCOD9311201
_publ_section_title
;
Structure prediction by ZEFSAII (Michael W. Deem and Ramdas Pophale) SiO2 
 PCOD9311201
Probable space group: P 2 2 21
;
_chemical_formula_sum "Si O2"
_cell_formula_units_Z 24
_cell_length_a 13.772924
_cell_length_b 8.926280
_cell_length_c 9.673340
_cell_angle_alpha 90.000000
_cell_angle_beta 90.000000
_cell_angle_gamma 90.000000
_cell_volume 1189.249861
_symmetry_space_group_name_H-M "P 2 2 21"
_symmetry_group_IT_number 17
_symmetry_cell_setting 'orthorhombic'
loop_
_space_group_symop_operation_xyz
x,y,z
-x,-y,1/2+z
x,-y,-z
-x,y,1/2-z
loop_
_atom_site_type_symbol
_atom_site_label
_atom_site_fract_x
_atom_site_fract_y
_atom_site_fract_z
Si Si1 0.215737 0.651774 0.033728
Si Si2 0.585369 0.976936 0.338433
Si Si3 0.390927 0.366762 0.761920
Si Si4 0.885274 0.863030 0.243129
Si Si5 0.770618 0.156986 0.256405
Si Si6 0.766863 0.333505 0.973308
O O1 0.309696 0.590927 0.122164
O O2 0.163157 0.774448 0.128773
O O3 0.157388 0.500000 0.000000
O O4 0.231356 0.736400 0.889673
O O5 0.500000 0.048605 0.250000
O O6 0.588433 0.801846 0.309817
O O7 0.573291 0.000000 0.500000
O O8 0.683353 0.043593 0.281700
O O9 0.500000 0.438986 0.750000
O O10 0.331530 0.360126 0.617393
O O11 0.836308 0.777175 0.113545
O O12 0.000000 0.843451 0.250000
O O13 0.860006 0.040417 0.243881
O O14 0.752394 0.253887 0.119958
O O15 0.808312 0.500000 0.000000
#
# Coordination Sequence:
#
# PCOD9311201 Si02
#       6
#     4   4   4   4   4   4
#     4  11  23  43  66  92 130 170 205 259 322 379
#     4  11  22  36  62  97 129 169 220 268 315 367
#     4  10  22  40  61  91 133 171 214 262 305 369
#     4  11  25  45  68  94 123 160 213 269 323 386
#     4  12  22  40  68  93 125 166 216 265 312 378
#     4  11  25  43  64  95 131 170 211 259 325 385
#
# _framework density 20.180786999999999
#
# number of rings (size 3 to 8) (size 9 to 14) (size 15 to 20)
#    0.000    1.000    5.000    3.000    4.667    4.000 
#    0.000    3.333    0.000    0.000    0.000    0.000 
#    0.000    0.000    0.000    0.000    0.000    0.000 
#
# Total GULP energy -133838.819370 kJ/mol
# GULP energy per Si atom -5576.617474 kJ/mol
# Density = 2.013485 g / cm^3
# Si number density = 20.180787 Si / 1000 Ang^3
#
#
#
# Elastic Constant Matrix: (Units=GPa)
#
#
# Indices 1 2 3 4 5 6 
#
# 1 100.7693 -8.2958 36.2738 0.0000 0.0000 0.0000
# 2 -8.2958 62.1054 10.7142 0.0000 0.0000 0.0000
# 3 36.2738 10.7142 155.5165 0.0000 0.0000 0.0000
# 4 0.0000 0.0000 0.0000 -5.6505 0.0000 0.0000
# 5 0.0000 0.0000 0.0000 0.0000 2.3974 0.0000
# 6 0.0000 0.0000 0.0000 0.0000 0.0000 3.0566
#
#
#
# Elastic Compliance Matrix: (Units=1/GPa)
#
#
# Indices 1 2 3 4 5 6 
#
# 1 0.011061 0.001946 -0.002714 0.000000 0.000000 0.000000
# 2 0.001946 0.016638 -0.001600 0.000000 0.000000 0.000000
# 3 -0.002714 -0.001600 0.007173 0.000000 0.000000 0.000000
# 4 0.000000 0.000000 0.000000 -0.176976 0.000000 0.000000
# 5 0.000000 0.000000 0.000000 0.000000 0.417115 0.000000
# 6 0.000000 0.000000 0.000000 0.000000 0.000000 0.327159
#
#
# Mechanical properties :
#
#
# Convention : Reuss Voigt Hill
#
# Bulk Modulus (GPa) = 33.18388 43.97507 38.57948
# Shear Modulus (GPa) = 8.10437 18.60730 13.35584
#
# Velocity S-wave (km/s) = 2.00614 3.03979 2.57536
# Velocity P-wave (km/s) = 4.67388 5.84451 5.29166
#
# Compressibility (1/GPa) = 0.03013511
#
# Stress axis : x y z
#
# Youngs Moduli (GPa) = 90.40964 60.10485 139.40310
#
# Poissons Ratio (x) = -0.11694 0.37833
# Poissons Ratio (y) = -0.17591 0.22305
# Poissons Ratio (z) = 0.24537 0.09617
#
# Static dielectric constant tensor:
#      x y z
#    x 1.762210 0.000000 0.000000 
#    y 0.000000 1.690450 0.000000 
#    z 0.000000 0.000000 1.722130 
# 
# From -- ./inp_files/5111.got.cif
#   From: 2010.05.17/outbox.cif.g08.bks.cpg/sg17_3_cif.got.tgz:5111.got - 2010.06.03 22:34:06.
