data_PCOD9311610
_publ_section_title
;
Structure prediction by ZEFSAII (Michael W. Deem and Ramdas Pophale) SiO2 
 PCOD9311610
Probable space group: P 2 2 21
;
_chemical_formula_sum "Si O2"
_cell_formula_units_Z 32
_cell_length_a 12.000000
_cell_length_b 9.000000
_cell_length_c 15.000000
_cell_angle_alpha 90.000000
_cell_angle_beta 90.000000
_cell_angle_gamma 90.000000
_cell_volume 1620.000000
_symmetry_space_group_name_H-M "P 2 2 21"
_symmetry_group_IT_number 17
_symmetry_cell_setting 'orthorhombic'
loop_
_space_group_symop_operation_xyz
x,y,z
-x,-y,1/2+z
x,-y,-z
-x,y,1/2-z
loop_
_atom_site_type_symbol
_atom_site_label
_atom_site_fract_x
_atom_site_fract_y
_atom_site_fract_z
Si Si1 0.768881 0.418041 0.905640
Si Si2 0.624082 0.722495 0.435909
Si Si3 0.329034 0.670263 0.687475
Si Si4 0.050627 0.194952 0.653790
Si Si5 0.754598 0.983208 0.781080
Si Si6 0.820097 0.076120 0.593630
Si Si7 0.430548 0.384961 0.120056
Si Si8 0.571105 0.786397 0.167618
O O1 0.760880 0.544241 0.830889
O O2 0.880889 0.323558 0.895231
O O3 0.661436 0.316331 0.881872
O O4 0.760050 0.500000 0.000000
O O5 0.739758 0.780962 0.398406
O O6 0.622553 0.710962 0.541619
O O7 0.593569 0.557302 0.401816
O O8 0.524488 0.827716 0.402168
O O9 0.272544 0.827820 0.674654
O O10 0.436841 0.643099 0.625031
O O11 0.377174 0.657405 0.786445
O O12 0.000000 0.242655 0.750000
O O13 0.947227 0.128254 0.600443
O O14 0.143233 0.069647 0.673813
O O15 0.788809 0.973377 0.677567
O O16 0.642846 0.080892 0.791517
O O17 0.797060 0.000000 0.500000
O O18 0.500000 0.716442 0.250000
#
# Coordination Sequence:
#
# PCOD9311610 Si02
#       8
#     4   4   4   4   4   4   4   4
#     4  11  23  42  65  94 125 168 221 271 321 396
#     4  11  21  38  60  94 130 170 208 258 316 398
#     4  11  22  38  62  91 131 169 202 260 327 378
#     4   9  23  46  66  86 121 170 222 268 327 387
#     4  10  23  40  63  94 126 166 215 262 319 392
#     4  11  23  41  67  89 127 167 218 271 327 373
#     4  10  23  35  57  95 139 159 202 261 323 379
#     4  11  20  36  65  92 128 174 211 246 323 402
#
# _framework density 19.753086
#
# number of rings (size 3 to 8) (size 9 to 14) (size 15 to 20)
#    0.000    1.500    2.500    2.250    5.250    2.000 
#    2.250    7.500    0.000    0.000    0.000    0.000 
#    0.000    0.000    0.000    0.000    0.000    0.000 
#
# Total GULP energy -178620.997630 kJ/mol
# GULP energy per Si atom -5581.906176 kJ/mol
# Density = 1.970813 g / cm^3
# Si number density = 19.753086 Si / 1000 Ang^3
#
#
#
# Elastic Constant Matrix: (Units=GPa)
#
#
# Indices 1 2 3 4 5 6 
#
# 1 101.6216 34.3379 10.1332 0.0000 0.0000 0.0000
# 2 34.3379 47.2658 9.6900 0.0000 0.0000 0.0000
# 3 10.1332 9.6900 20.6861 0.0000 0.0000 0.0000
# 4 0.0000 0.0000 0.0000 20.8849 0.0000 0.0000
# 5 0.0000 0.0000 0.0000 0.0000 17.0278 0.0000
# 6 0.0000 0.0000 0.0000 0.0000 0.0000 3.2294
#
#
#
# Elastic Compliance Matrix: (Units=1/GPa)
#
#
# Indices 1 2 3 4 5 6 
#
# 1 0.013130 -0.009093 -0.002172 0.000000 0.000000 0.000000
# 2 -0.009093 0.029702 -0.009459 0.000000 0.000000 0.000000
# 3 -0.002172 -0.009459 0.053837 0.000000 0.000000 0.000000
# 4 0.000000 0.000000 0.000000 0.047881 0.000000 0.000000
# 5 0.000000 0.000000 0.000000 0.000000 0.058727 0.000000
# 6 0.000000 0.000000 0.000000 0.000000 0.000000 0.309657
#
#
# Mechanical properties :
#
#
# Convention : Reuss Voigt Hill
#
# Bulk Modulus (GPa) = 18.10947 30.87728 24.49337
# Shear Modulus (GPa) = 8.72921 15.92258 12.32589
#
# Velocity S-wave (km/s) = 2.10446 2.84224 2.50071
# Velocity P-wave (km/s) = 3.88495 5.14166 4.55683
#
# Compressibility (1/GPa) = 0.05521974
#
# Stress axis : x y z
#
# Youngs Moduli (GPa) = 76.16382 33.66749 18.57470
#
# Poissons Ratio (x) = 0.30614 0.04035
# Poissons Ratio (y) = 0.69257 0.17570
# Poissons Ratio (z) = 0.16543 0.31847
#
# Static dielectric constant tensor:
#      x y z
#    x 1.676990 0.000000 0.000000 
#    y 0.000000 1.739550 0.000000 
#    z 0.000000 0.000000 1.731660 
# 
# From -- ./inp_files/8568.got.cif
#   From: 2010.05.17/outbox.ucp.g08.bks.cvg/sg17_5_cif.got.tgz:8568.got - 2010.06.11 13:12:59.
