data_PCOD9311100
_publ_section_title
;
Structure prediction by ZEFSAII (Michael W. Deem and Ramdas Pophale) SiO2 
 PCOD9311100
Probable space group: P 2 2 21
;
_chemical_formula_sum "Si O2"
_cell_formula_units_Z 32
_cell_length_a 8.564807
_cell_length_b 10.245301
_cell_length_c 16.302638
_cell_angle_alpha 90.000000
_cell_angle_beta 90.000000
_cell_angle_gamma 90.000000
_cell_volume 1430.540601
_symmetry_space_group_name_H-M "P 2 2 21"
_symmetry_group_IT_number 17
_symmetry_cell_setting 'orthorhombic'
loop_
_space_group_symop_operation_xyz
x,y,z
-x,-y,1/2+z
x,-y,-z
-x,y,1/2-z
loop_
_atom_site_type_symbol
_atom_site_label
_atom_site_fract_x
_atom_site_fract_y
_atom_site_fract_z
Si Si1 0.829928 0.048152 0.712884
Si Si2 0.398044 0.929734 0.675259
Si Si3 0.216888 0.290178 0.411119
Si Si4 0.537762 0.654297 0.495948
Si Si5 0.310357 0.095103 0.072904
Si Si6 0.976575 0.635529 0.045916
Si Si7 0.162720 0.541638 0.299154
Si Si8 0.723073 0.321197 0.647306
O O1 0.796681 0.181511 0.666294
O O2 0.000000 0.045717 0.750000
O O3 0.695969 0.044171 0.781940
O O4 0.801842 0.927739 0.650438
O O5 0.500000 0.867201 0.750000
O O6 0.268275 0.835000 0.639435
O O7 0.522964 0.961055 0.605613
O O8 0.365438 0.325210 0.468375
O O9 0.071702 0.266944 0.473165
O O10 0.197397 0.407004 0.345570
O O11 0.572176 0.500000 0.500000
O O12 0.649366 0.757183 0.545276
O O13 0.561569 0.689363 0.400639
O O14 0.257891 0.000000 0.000000
O O15 0.870218 0.644135 0.127328
O O16 0.150911 0.625448 0.080760
O O17 0.939937 0.500000 0.000000
O O18 0.279177 0.592558 0.229281
O O19 0.000000 0.527972 0.250000
#
# Coordination Sequence:
#
# PCOD9311100 Si02
#       8
#     4   4   4   4   4   4   4   4
#     4  11  23  43  65  97 131 171 231 280 315 386
#     4   9  22  42  63  86 126 172 211 264 328 395
#     4  10  21  41  63  94 128 167 218 273 321 399
#     4  11  23  41  67 100 131 168 221 274 323 395
#     4  10  21  46  67  91 133 178 214 260 335 393
#     4   9  18  37  61  89 131 168 212 264 326 390
#     4   9  19  36  61  91 127 171 209 264 335 387
#     4  11  22  39  62  92 132 172 212 272 339 388
#
# _framework density 22.369164999999999
#
# number of rings (size 3 to 8) (size 9 to 14) (size 15 to 20)
#    0.000    2.000    1.250    2.625    0.000    4.500 
#   11.250    1.875    0.000    0.750    0.000    0.000 
#    0.000    0.000    0.000    0.000    0.000    0.000 
#
# Total GULP energy -178544.408977 kJ/mol
# GULP energy per Si atom -5579.512781 kJ/mol
# Density = 2.231825 g / cm^3
# Si number density = 22.369165 Si / 1000 Ang^3
#
#
#
# Elastic Constant Matrix: (Units=GPa)
#
#
# Indices 1 2 3 4 5 6 
#
# 1 24.5366 6.2358 34.4307 0.0000 0.0000 0.0000
# 2 6.2358 37.9974 13.5726 0.0000 0.0000 0.0000
# 3 34.4307 13.5726 115.8402 0.0000 0.0000 0.0000
# 4 0.0000 0.0000 0.0000 22.2947 0.0000 0.0000
# 5 0.0000 0.0000 0.0000 0.0000 50.8045 0.0000
# 6 0.0000 0.0000 0.0000 0.0000 0.0000 13.1565
#
#
#
# Elastic Compliance Matrix: (Units=1/GPa)
#
#
# Indices 1 2 3 4 5 6 
#
# 1 0.070573 -0.004268 -0.020476 0.000000 0.000000 0.000000
# 2 -0.004268 0.027725 -0.001980 0.000000 0.000000 0.000000
# 3 -0.020476 -0.001980 0.014951 0.000000 0.000000 0.000000
# 4 0.000000 0.000000 0.000000 0.044854 0.000000 0.000000
# 5 0.000000 0.000000 0.000000 0.000000 0.019683 0.000000
# 6 0.000000 0.000000 0.000000 0.000000 0.000000 0.076008
#
#
# Mechanical properties :
#
#
# Convention : Reuss Voigt Hill
#
# Bulk Modulus (GPa) = 16.72211 31.87248 24.29729
# Shear Modulus (GPa) = 15.28235 25.52681 20.40458
#
# Velocity S-wave (km/s) = 2.61662 3.38177 3.02350
# Velocity P-wave (km/s) = 4.07685 5.43395 4.80357
#
# Compressibility (1/GPa) = 0.05980108
#
# Stress axis : x y z
#
# Youngs Moduli (GPa) = 14.16978 36.06825 66.88703
#
# Poissons Ratio (x) = 0.15393 1.36958
# Poissons Ratio (y) = 0.06047 0.13244
# Poissons Ratio (z) = 0.29014 0.07141
#
# Static dielectric constant tensor:
#      x y z
#    x 1.865620 0.000000 0.000000 
#    y 0.000000 1.821630 0.000000 
#    z 0.000000 0.000000 1.864080 
# 
# From -- ./inp_files/8286.got.cif
#   From: 2010.05.17/outbox.cif.g08.bks.cpg/sg17_5_cif.got.tgz:8286.got - 2010.06.03 22:34:06.
