data_PCOD9311774
_publ_section_title
;
Structure prediction by ZEFSAII (Michael W. Deem and Ramdas Pophale) SiO2 
 PCOD9311774
Probable space group: P 21 21 2
;
_chemical_formula_sum "Si O2"
_cell_formula_units_Z 28
_cell_length_a 5.367369
_cell_length_b 12.491220
_cell_length_c 20.017803
_cell_angle_alpha 90.000000
_cell_angle_beta 90.000000
_cell_angle_gamma 90.000000
_cell_volume 1342.093342
_symmetry_space_group_name_H-M "P 21 21 2"
_symmetry_group_IT_number 18
_symmetry_cell_setting 'orthorhombic'
loop_
_space_group_symop_operation_xyz
x,y,z
-x,-y,z
1/2+x,1/2-y,-z
1/2-x,1/2+y,-z
loop_
_atom_site_type_symbol
_atom_site_label
_atom_site_fract_x
_atom_site_fract_y
_atom_site_fract_z
Si Si1 0.585737 0.825752 0.583465
Si Si2 0.039103 0.188997 0.011413
Si Si3 0.462998 0.380673 0.130861
Si Si4 0.585798 0.674740 0.461059
Si Si5 0.078345 0.829766 0.302421
Si Si6 0.577931 0.890087 0.371062
Si Si7 0.464892 0.255692 0.845197
O O1 0.586036 0.716165 0.536901
O O2 0.335432 0.881602 0.561049
O O3 0.578657 0.785833 0.659199
O O4 0.835453 0.882062 0.560349
O O5 0.993697 0.168138 0.089575
O O6 0.831890 0.283156 0.998103
O O7 0.965954 0.113586 0.950203
O O8 0.500000 0.500000 0.158294
O O9 0.701919 0.307749 0.149771
O O10 0.202281 0.325183 0.151235
O O11 0.581061 0.785567 0.417672
O O12 0.352066 0.874669 0.318557
O O13 0.032298 0.816558 0.224563
O O14 0.846345 0.892066 0.335659
O O15 0.500000 0.000000 0.407097
#
# Coordination Sequence:
#
# PCOD9311774 Si02
#       7
#     4   4   4   4   4   4   4
#     4   8  14  25  42  65  85 110 153 193 224 271
#     4   8  16  30  49  70  94 122 154 190 227 276
#     4  10  19  33  53  75  96 123 163 205 242 280
#     4   8  14  25  42  62  85 112 149 195 231 266
#     4  10  19  31  49  71  97 131 164 195 239 297
#     4  10  19  31  46  67  96 129 166 206 245 283
#     4  10  19  33  52  74 100 131 161 194 240 293
#
# _framework density 20.862929999999999
#
# number of rings (size 3 to 8) (size 9 to 14) (size 15 to 20)
#    0.000    2.857    0.000    1.714    0.000    0.000 
#    0.000    1.429    0.000    1.714    0.000    0.000 
#    0.000    0.000    0.000    0.000    0.000    0.000 
#
# Total GULP energy -155889.709016 kJ/mol
# GULP energy per Si atom -5567.489608 kJ/mol
# Density = 2.081544 g / cm^3
# Si number density = 20.862930 Si / 1000 Ang^3
#
#
#
# Elastic Constant Matrix: (Units=GPa)
#
#
# Indices 1 2 3 4 5 6 
#
# 1 178.4978 10.3782 14.2343 0.0000 0.0000 0.0000
# 2 10.3782 34.9235 -0.3771 0.0000 0.0000 0.0000
# 3 14.2343 -0.3771 96.7071 0.0000 0.0000 0.0000
# 4 0.0000 0.0000 0.0000 -0.8814 0.0000 0.0000
# 5 0.0000 0.0000 0.0000 0.0000 26.7284 0.0000
# 6 0.0000 0.0000 0.0000 0.0000 0.0000 14.1787
#
#
#
# Elastic Compliance Matrix: (Units=1/GPa)
#
#
# Indices 1 2 3 4 5 6 
#
# 1 0.005771 -0.001724 -0.000856 0.000000 0.000000 0.000000
# 2 -0.001724 0.029150 0.000367 0.000000 0.000000 0.000000
# 3 -0.000856 0.000367 0.010468 0.000000 0.000000 0.000000
# 4 0.000000 0.000000 0.000000 -1.134572 0.000000 0.000000
# 5 0.000000 0.000000 0.000000 0.000000 0.037413 0.000000
# 6 0.000000 0.000000 0.000000 0.000000 0.000000 0.070528
#
#
# Mechanical properties :
#
#
# Convention : Reuss Voigt Hill
#
# Bulk Modulus (GPa) = 24.41201 39.84436 32.12818
# Shear Modulus (GPa) = -5.19124 27.06468 10.93672
#
# Velocity S-wave (km/s) = -1.57913 3.60566 2.29206
# Velocity P-wave (km/s) = 2.89856 6.03937 4.73686
#
# Compressibility (1/GPa) = 0.04096345
#
# Stress axis : x y z
#
# Youngs Moduli (GPa) = 173.28539 34.30491 95.52972
#
# Poissons Ratio (x) = 0.05915 0.08179
# Poissons Ratio (y) = 0.29877 -0.03510
# Poissons Ratio (z) = 0.14835 -0.01261
#
# Static dielectric constant tensor:
#      x y z
#    x 1.842200 0.000000 0.000000 
#    y 0.000000 1.672450 0.000000 
#    z 0.000000 0.000000 1.741810 
# 
# From -- ./inp_files/7489.got.cif
#   From: 2010.05.17/outbox.cif.g08.bks.cpg/sg18_4_cif.got.tgz:7489.got - 2010.06.03 22:40:56.
